MODEL 1
REMARK VINA RESULT:     -10.3      0.000      0.000
REMARK SMILES CCN(CC(=O)OCCOC(=O)c1ccc(-c2c3nc(c(-c4c(F)c(F)c(F)c(F)c4F)c4ccc([nH]4)c(-c4c(F)c(F)c(F)c(F)c4F)c4nc(c(-c5c(F)c(F)c(F)c(F)c5F)c5ccc2[nH]5)C=C4)C=C3)cc1)C(=O)[C@@H]1CC[NH2+][C@@H]1C
REMARK SMILES IDX 8 1 7 2 5 3 6 4 4 5 3 6 2 7 1 8 76 9 77 10 78 11 79 12 82 13
REMARK SMILES IDX 80 14 81 15 83 16 9 19 10 20 11 21 12 22 13 23 14 24 75 25
REMARK SMILES IDX 15 26 74 27 16 28 17 29 18 30 68 31 19 32 73 33 67 34 69 35
REMARK SMILES IDX 20 36 72 37 66 38 65 39 21 41 53 42 33 43 52 44 34 45 37 46
REMARK SMILES IDX 51 47 70 48 35 49 36 50 50 52 71 53 38 54 22 55 23 56 31 57
REMARK SMILES IDX 24 58 25 59 29 60 32 61 26 62 27 63 30 64 28 65 54 66 55 67
REMARK SMILES IDX 63 68 56 69 57 70 61 71 64 72 58 73 59 74 62 75 60 76 39 77
REMARK SMILES IDX 40 78 48 79 41 80 42 81 46 82 49 83 43 84 44 85 47 86 45 87
REMARK H PARENT 81 17 81 18 69 40 37 51
REMARK Flexibility Score: inf
ROOT
ATOM      1  C   UNL A   1      33.277  35.037  28.740  1.00  0.00     0.274 C 
ENDROOT
BRANCH   1   2
ATOM      2  O   UNL A   1      33.579  33.759  29.344  1.00  0.00    -0.461 OA
BRANCH   2   3
ATOM      3  C   UNL A   1      34.869  33.362  29.211  1.00  0.00     0.325 C 
ATOM      4  O   UNL A   1      35.779  33.680  29.974  1.00  0.00    -0.250 OA
BRANCH   3   5
ATOM      5  C   UNL A   1      35.159  32.611  27.914  1.00  0.00     0.242 C 
BRANCH   5   6
ATOM      6  N   UNL A   1      34.811  31.208  27.661  1.00  0.00    -0.331 N 
BRANCH   6   7
ATOM      7  C   UNL A   1      35.665  30.236  28.373  1.00  0.00     0.117 C 
ATOM      8  C   UNL A   1      37.021  30.119  27.678  1.00  0.00     0.027 C 
ENDBRANCH   6   7
BRANCH   6   9
ATOM      9  C   UNL A   1      33.659  30.647  27.148  1.00  0.00     0.232 C 
ATOM     10  O   UNL A   1      32.614  31.323  27.217  1.00  0.00    -0.274 OA
BRANCH   9  11
ATOM     11  C   UNL A   1      33.474  29.278  26.491  1.00  0.00     0.142 C 
ATOM     12  C   UNL A   1      33.300  29.329  24.984  1.00  0.00     0.081 C 
ATOM     13  C   UNL A   1      32.744  28.013  26.946  1.00  0.00     0.192 C 
ATOM     14  C   UNL A   1      33.301  27.855  24.633  1.00  0.00     0.261 C 
ATOM     15  N   UNL A   1      32.524  27.219  25.704  1.00  0.00    -0.343 N 
ATOM     16  C   UNL A   1      31.432  28.111  27.687  1.00  0.00     0.076 C 
ATOM     17  H   UNL A   1      32.841  26.259  25.843  1.00  0.00     0.346 HD
ATOM     18  H   UNL A   1      31.533  27.194  25.464  1.00  0.00     0.346 HD
ENDBRANCH   9  11
ENDBRANCH   6   9
ENDBRANCH   5   6
ENDBRANCH   3   5
ENDBRANCH   2   3
ENDBRANCH   1   2
BRANCH   1  19
ATOM     19  C   UNL A   1      32.904  36.087  29.783  1.00  0.00     0.275 C 
BRANCH  19  20
ATOM     20  O   UNL A   1      32.212  35.477  30.886  1.00  0.00    -0.458 OA
BRANCH  20  21
ATOM     21  C   UNL A   1      32.561  35.955  32.102  1.00  0.00     0.338 C 
ATOM     22  O   UNL A   1      31.984  36.850  32.710  1.00  0.00    -0.246 OA
BRANCH  21  23
ATOM     23  C   UNL A   1      33.705  35.208  32.683  1.00  0.00     0.060 A 
ATOM     24  C   UNL A   1      34.994  35.742  32.767  1.00  0.00     0.016 A 
ATOM     25  C   UNL A   1      33.493  33.875  33.052  1.00  0.00     0.016 A 
ATOM     26  C   UNL A   1      36.071  34.920  33.131  1.00  0.00     0.010 A 
ATOM     27  C   UNL A   1      34.559  33.077  33.478  1.00  0.00     0.010 A 
ATOM     28  C   UNL A   1      35.867  33.580  33.500  1.00  0.00    -0.014 A 
BRANCH  28  29
ATOM     29  C   UNL A   1      36.971  32.697  33.974  1.00  0.00     0.031 A 
ATOM     30  C   UNL A   1      37.689  32.980  35.270  1.00  0.00     0.074 A 
ATOM     31  C   UNL A   1      37.412  31.697  33.186  1.00  0.00     0.049 A 
ATOM     32  N   UNL A   1      38.865  32.565  35.674  1.00  0.00    -0.248 NA
ATOM     33  C   UNL A   1      36.993  33.842  36.236  1.00  0.00     0.031 C 
ATOM     34  C   UNL A   1      36.788  31.265  31.936  1.00  0.00     0.029 A 
ATOM     35  N   UNL A   1      38.523  30.894  33.299  1.00  0.00    -0.354 N 
ATOM     36  C   UNL A   1      39.066  33.140  36.923  1.00  0.00     0.074 A 
ATOM     37  C   UNL A   1      37.888  33.932  37.214  1.00  0.00     0.031 C 
ATOM     38  C   UNL A   1      37.533  30.299  31.384  1.00  0.00     0.029 A 
ATOM     39  C   UNL A   1      38.736  30.117  32.186  1.00  0.00     0.049 A 
ATOM     40  H   UNL A   1      39.103  30.876  34.094  1.00  0.00     0.167 HD
ATOM     41  C   UNL A   1      40.139  33.020  37.743  1.00  0.00     0.037 A 
ATOM     42  C   UNL A   1      39.811  29.408  31.796  1.00  0.00     0.037 A 
ATOM     43  C   UNL A   1      41.299  32.210  37.459  1.00  0.00     0.049 A 
ATOM     44  C   UNL A   1      41.033  29.371  32.662  1.00  0.00     0.074 A 
ATOM     45  C   UNL A   1      42.426  32.008  38.239  1.00  0.00     0.029 A 
ATOM     46  N   UNL A   1      41.478  31.464  36.304  1.00  0.00    -0.354 N 
ATOM     47  N   UNL A   1      41.248  29.967  33.808  1.00  0.00    -0.248 NA
ATOM     48  C   UNL A   1      42.167  28.577  32.172  1.00  0.00     0.031 C 
ATOM     49  C   UNL A   1      43.304  31.173  37.539  1.00  0.00     0.029 A 
ATOM     50  C   UNL A   1      42.704  30.817  36.343  1.00  0.00     0.049 A 
ATOM     51  H   UNL A   1      40.831  31.403  35.565  1.00  0.00     0.167 HD
ATOM     52  C   UNL A   1      42.531  29.606  34.189  1.00  0.00     0.074 A 
ATOM     53  C   UNL A   1      43.047  28.737  33.152  1.00  0.00     0.031 C 
ATOM     54  C   UNL A   1      43.212  29.957  35.306  1.00  0.00     0.037 A 
BRANCH  41  55
ATOM     55  C   UNL A   1      40.143  33.793  39.032  1.00  0.00     0.064 A 
ATOM     56  C   UNL A   1      40.719  35.067  39.126  1.00  0.00     0.173 A 
ATOM     57  C   UNL A   1      39.458  33.297  40.152  1.00  0.00     0.173 A 
ATOM     58  F   UNL A   1      41.384  35.586  38.083  1.00  0.00    -0.203 F 
ATOM     59  C   UNL A   1      40.609  35.817  40.296  1.00  0.00     0.198 A 
ATOM     60  C   UNL A   1      39.332  34.058  41.313  1.00  0.00     0.198 A 
ATOM     61  F   UNL A   1      38.877  32.089  40.110  1.00  0.00    -0.203 F 
ATOM     62  F   UNL A   1      41.175  37.030  40.368  1.00  0.00    -0.200 F 
ATOM     63  C   UNL A   1      39.907  35.317  41.383  1.00  0.00     0.200 A 
ATOM     64  F   UNL A   1      38.637  33.580  42.354  1.00  0.00    -0.200 F 
ATOM     65  F   UNL A   1      39.780  36.051  42.497  1.00  0.00    -0.200 F 
ENDBRANCH  41  55
BRANCH  42  66
ATOM     66  C   UNL A   1      39.781  28.739  30.471  1.00  0.00     0.064 A 
ATOM     67  C   UNL A   1      40.336  29.349  29.341  1.00  0.00     0.173 A 
ATOM     68  C   UNL A   1      39.265  27.440  30.333  1.00  0.00     0.173 A 
ATOM     69  F   UNL A   1      40.818  30.598  29.423  1.00  0.00    -0.203 F 
ATOM     70  C   UNL A   1      40.391  28.679  28.121  1.00  0.00     0.198 A 
ATOM     71  C   UNL A   1      39.347  26.761  29.121  1.00  0.00     0.198 A 
ATOM     72  F   UNL A   1      38.727  26.815  31.390  1.00  0.00    -0.203 F 
ATOM     73  F   UNL A   1      40.916  29.287  27.049  1.00  0.00    -0.200 F 
ATOM     74  C   UNL A   1      39.910  27.382  28.016  1.00  0.00     0.200 A 
ATOM     75  F   UNL A   1      38.901  25.501  29.030  1.00  0.00    -0.200 F 
ATOM     76  F   UNL A   1      39.992  26.726  26.850  1.00  0.00    -0.200 F 
ENDBRANCH  42  66
BRANCH  54  77
ATOM     77  C   UNL A   1      44.574  29.361  35.484  1.00  0.00     0.064 A 
ATOM     78  C   UNL A   1      45.726  30.003  35.009  1.00  0.00     0.173 A 
ATOM     79  C   UNL A   1      44.728  28.133  36.146  1.00  0.00     0.173 A 
ATOM     80  F   UNL A   1      45.627  31.170  34.354  1.00  0.00    -0.203 F 
ATOM     81  C   UNL A   1      46.983  29.424  35.168  1.00  0.00     0.198 A 
ATOM     82  C   UNL A   1      45.987  27.568  36.321  1.00  0.00     0.198 A 
ATOM     83  F   UNL A   1      43.655  27.483  36.620  1.00  0.00    -0.203 F 
ATOM     84  F   UNL A   1      48.067  30.031  34.665  1.00  0.00    -0.200 F 
ATOM     85  C   UNL A   1      47.112  28.209  35.826  1.00  0.00     0.200 A 
ATOM     86  F   UNL A   1      46.111  26.397  36.962  1.00  0.00    -0.200 F 
ATOM     87  F   UNL A   1      48.321  27.651  35.973  1.00  0.00    -0.200 F 
ENDBRANCH  54  77
ENDBRANCH  28  29
ENDBRANCH  21  23
ENDBRANCH  20  21
ENDBRANCH  19  20
ENDBRANCH   1  19
TORSDOF 15
ENDMDL
MODEL 2
REMARK VINA RESULT:     -10.1      3.465      9.225
REMARK SMILES CCN(CC(=O)OCCOC(=O)c1ccc(-c2c3nc(c(-c4c(F)c(F)c(F)c(F)c4F)c4ccc([nH]4)c(-c4c(F)c(F)c(F)c(F)c4F)c4nc(c(-c5c(F)c(F)c(F)c(F)c5F)c5ccc2[nH]5)C=C4)C=C3)cc1)C(=O)[C@@H]1CC[NH2+][C@@H]1C
REMARK SMILES IDX 8 1 7 2 5 3 6 4 4 5 3 6 2 7 1 8 76 9 77 10 78 11 79 12 82 13
REMARK SMILES IDX 80 14 81 15 83 16 9 19 10 20 11 21 12 22 13 23 14 24 75 25
REMARK SMILES IDX 15 26 74 27 16 28 17 29 18 30 68 31 19 32 73 33 67 34 69 35
REMARK SMILES IDX 20 36 72 37 66 38 65 39 21 41 53 42 33 43 52 44 34 45 37 46
REMARK SMILES IDX 51 47 70 48 35 49 36 50 50 52 71 53 38 54 22 55 23 56 31 57
REMARK SMILES IDX 24 58 25 59 29 60 32 61 26 62 27 63 30 64 28 65 54 66 55 67
REMARK SMILES IDX 63 68 56 69 57 70 61 71 64 72 58 73 59 74 62 75 60 76 39 77
REMARK SMILES IDX 40 78 48 79 41 80 42 81 46 82 49 83 43 84 44 85 47 86 45 87
REMARK H PARENT 81 17 81 18 69 40 37 51
REMARK Flexibility Score: inf
ROOT
ATOM      1  C   UNL A   1      32.538  27.738  24.707  1.00  0.00     0.274 C 
ENDROOT
BRANCH   1   2
ATOM      2  O   UNL A   1      31.500  26.733  24.648  1.00  0.00    -0.461 OA
BRANCH   2   3
ATOM      3  C   UNL A   1      31.313  26.045  25.802  1.00  0.00     0.325 C 
ATOM      4  O   UNL A   1      30.302  26.111  26.497  1.00  0.00    -0.250 OA
BRANCH   3   5
ATOM      5  C   UNL A   1      32.549  25.292  26.285  1.00  0.00     0.242 C 
BRANCH   5   6
ATOM      6  N   UNL A   1      32.765  23.848  26.134  1.00  0.00    -0.331 N 
BRANCH   6   7
ATOM      7  C   UNL A   1      31.859  23.014  26.948  1.00  0.00     0.117 C 
ATOM      8  C   UNL A   1      30.652  22.580  26.116  1.00  0.00     0.027 C 
ENDBRANCH   6   7
BRANCH   6   9
ATOM      9  C   UNL A   1      33.425  23.136  25.153  1.00  0.00     0.232 C 
ATOM     10  O   UNL A   1      33.379  23.587  23.991  1.00  0.00    -0.274 OA
BRANCH   9  11
ATOM     11  C   UNL A   1      34.224  21.840  25.287  1.00  0.00     0.142 C 
ATOM     12  C   UNL A   1      35.554  21.849  24.556  1.00  0.00     0.081 C 
ATOM     13  C   UNL A   1      33.796  20.372  25.341  1.00  0.00     0.192 C 
ATOM     14  C   UNL A   1      36.151  20.530  25.003  1.00  0.00     0.261 C 
ATOM     15  N   UNL A   1      35.020  19.593  25.001  1.00  0.00    -0.343 N 
ATOM     16  C   UNL A   1      32.661  19.875  24.478  1.00  0.00     0.076 C 
ATOM     17  H   UNL A   1      35.172  18.862  25.696  1.00  0.00     0.346 HD
ATOM     18  H   UNL A   1      34.922  19.148  24.088  1.00  0.00     0.346 HD
ENDBRANCH   9  11
ENDBRANCH   6   9
ENDBRANCH   5   6
ENDBRANCH   3   5
ENDBRANCH   2   3
ENDBRANCH   1   2
BRANCH   1  19
ATOM     19  C   UNL A   1      32.086  28.981  25.468  1.00  0.00     0.275 C 
BRANCH  19  20
ATOM     20  O   UNL A   1      33.152  29.943  25.537  1.00  0.00    -0.458 OA
BRANCH  20  21
ATOM     21  C   UNL A   1      33.095  30.770  26.606  1.00  0.00     0.338 C 
ATOM     22  O   UNL A   1      32.122  31.436  26.942  1.00  0.00    -0.246 OA
BRANCH  21  23
ATOM     23  C   UNL A   1      34.346  30.730  27.404  1.00  0.00     0.060 A 
ATOM     24  C   UNL A   1      35.126  31.864  27.648  1.00  0.00     0.016 A 
ATOM     25  C   UNL A   1      34.810  29.479  27.826  1.00  0.00     0.016 A 
ATOM     26  C   UNL A   1      36.396  31.730  28.227  1.00  0.00     0.010 A 
ATOM     27  C   UNL A   1      36.048  29.358  28.464  1.00  0.00     0.010 A 
ATOM     28  C   UNL A   1      36.871  30.477  28.651  1.00  0.00    -0.014 A 
BRANCH  28  29
ATOM     29  C   UNL A   1      38.178  30.303  29.347  1.00  0.00     0.031 A 
ATOM     30  C   UNL A   1      39.225  29.363  28.806  1.00  0.00     0.074 A 
ATOM     31  C   UNL A   1      38.388  30.905  30.535  1.00  0.00     0.049 A 
ATOM     32  N   UNL A   1      40.244  28.814  29.422  1.00  0.00    -0.248 NA
ATOM     33  C   UNL A   1      39.110  28.992  27.389  1.00  0.00     0.031 C 
ATOM     34  C   UNL A   1      37.498  31.883  31.159  1.00  0.00     0.029 A 
ATOM     35  N   UNL A   1      39.400  30.742  31.452  1.00  0.00    -0.354 N 
ATOM     36  C   UNL A   1      40.872  28.009  28.480  1.00  0.00     0.074 A 
ATOM     37  C   UNL A   1      40.122  28.142  27.247  1.00  0.00     0.031 C 
ATOM     38  C   UNL A   1      37.983  32.213  32.362  1.00  0.00     0.029 A 
ATOM     39  C   UNL A   1      39.158  31.396  32.636  1.00  0.00     0.049 A 
ATOM     40  H   UNL A   1      40.212  30.213  31.278  1.00  0.00     0.167 HD
ATOM     41  C   UNL A   1      41.970  27.228  28.636  1.00  0.00     0.037 A 
ATOM     42  C   UNL A   1      39.748  31.290  33.841  1.00  0.00     0.037 A 
ATOM     43  C   UNL A   1      42.728  27.119  29.860  1.00  0.00     0.049 A 
ATOM     44  C   UNL A   1      40.893  30.341  34.029  1.00  0.00     0.074 A 
ATOM     45  C   UNL A   1      43.867  26.370  30.107  1.00  0.00     0.029 A 
ATOM     46  N   UNL A   1      42.425  27.781  31.039  1.00  0.00    -0.354 N 
ATOM     47  N   UNL A   1      41.442  29.533  33.157  1.00  0.00    -0.248 NA
ATOM     48  C   UNL A   1      41.487  30.279  35.370  1.00  0.00     0.031 C 
ATOM     49  C   UNL A   1      44.229  26.547  31.447  1.00  0.00     0.029 A 
ATOM     50  C   UNL A   1      43.343  27.443  32.022  1.00  0.00     0.049 A 
ATOM     51  H   UNL A   1      41.669  28.400  31.161  1.00  0.00     0.167 HD
ATOM     52  C   UNL A   1      42.460  28.880  33.836  1.00  0.00     0.074 A 
ATOM     53  C   UNL A   1      42.453  29.388  35.192  1.00  0.00     0.031 C 
ATOM     54  C   UNL A   1      43.327  27.950  33.369  1.00  0.00     0.037 A 
BRANCH  41  55
ATOM     55  C   UNL A   1      42.428  26.398  27.471  1.00  0.00     0.064 A 
ATOM     56  C   UNL A   1      43.456  26.826  26.620  1.00  0.00     0.173 A 
ATOM     57  C   UNL A   1      41.910  25.107  27.278  1.00  0.00     0.173 A 
ATOM     58  F   UNL A   1      43.985  28.050  26.762  1.00  0.00    -0.203 F 
ATOM     59  C   UNL A   1      43.949  25.992  25.616  1.00  0.00     0.198 A 
ATOM     60  C   UNL A   1      42.419  24.269  26.288  1.00  0.00     0.198 A 
ATOM     61  F   UNL A   1      40.936  24.644  28.074  1.00  0.00    -0.203 F 
ATOM     62  F   UNL A   1      44.926  26.424  24.807  1.00  0.00    -0.200 F 
ATOM     63  C   UNL A   1      43.438  24.712  25.459  1.00  0.00     0.200 A 
ATOM     64  F   UNL A   1      41.937  23.026  26.151  1.00  0.00    -0.200 F 
ATOM     65  F   UNL A   1      43.931  23.903  24.511  1.00  0.00    -0.200 F 
ENDBRANCH  41  55
BRANCH  42  66
ATOM     66  C   UNL A   1      39.194  32.068  34.976  1.00  0.00     0.064 A 
ATOM     67  C   UNL A   1      38.423  31.450  35.968  1.00  0.00     0.173 A 
ATOM     68  C   UNL A   1      39.494  33.432  35.130  1.00  0.00     0.173 A 
ATOM     69  F   UNL A   1      38.092  30.155  35.849  1.00  0.00    -0.203 F 
ATOM     70  C   UNL A   1      37.984  32.164  37.081  1.00  0.00     0.198 A 
ATOM     71  C   UNL A   1      39.079  34.135  36.256  1.00  0.00     0.198 A 
ATOM     72  F   UNL A   1      40.232  34.064  34.206  1.00  0.00    -0.203 F 
ATOM     73  F   UNL A   1      37.238  31.554  38.011  1.00  0.00    -0.200 F 
ATOM     74  C   UNL A   1      38.325  33.500  37.230  1.00  0.00     0.200 A 
ATOM     75  F   UNL A   1      39.429  35.420  36.407  1.00  0.00    -0.200 F 
ATOM     76  F   UNL A   1      37.930  34.177  38.318  1.00  0.00    -0.200 F 
ENDBRANCH  42  66
BRANCH  54  77
ATOM     77  C   UNL A   1      44.372  27.458  34.323  1.00  0.00     0.064 A 
ATOM     78  C   UNL A   1      45.590  28.130  34.491  1.00  0.00     0.173 A 
ATOM     79  C   UNL A   1      44.145  26.300  35.084  1.00  0.00     0.173 A 
ATOM     80  F   UNL A   1      45.859  29.230  33.772  1.00  0.00    -0.203 F 
ATOM     81  C   UNL A   1      46.556  27.646  35.370  1.00  0.00     0.198 A 
ATOM     82  C   UNL A   1      45.104  25.832  35.977  1.00  0.00     0.198 A 
ATOM     83  F   UNL A   1      42.993  25.625  34.959  1.00  0.00    -0.203 F 
ATOM     84  F   UNL A   1      47.734  28.277  35.482  1.00  0.00    -0.200 F 
ATOM     85  C   UNL A   1      46.311  26.501  36.114  1.00  0.00     0.200 A 
ATOM     86  F   UNL A   1      44.864  24.728  36.698  1.00  0.00    -0.200 F 
ATOM     87  F   UNL A   1      47.244  26.034  36.954  1.00  0.00    -0.200 F 
ENDBRANCH  54  77
ENDBRANCH  28  29
ENDBRANCH  21  23
ENDBRANCH  20  21
ENDBRANCH  19  20
ENDBRANCH   1  19
TORSDOF 15
ENDMDL
MODEL 3
REMARK VINA RESULT:     -10.1      3.267      9.148
REMARK SMILES CCN(CC(=O)OCCOC(=O)c1ccc(-c2c3nc(c(-c4c(F)c(F)c(F)c(F)c4F)c4ccc([nH]4)c(-c4c(F)c(F)c(F)c(F)c4F)c4nc(c(-c5c(F)c(F)c(F)c(F)c5F)c5ccc2[nH]5)C=C4)C=C3)cc1)C(=O)[C@@H]1CC[NH2+][C@@H]1C
REMARK SMILES IDX 8 1 7 2 5 3 6 4 4 5 3 6 2 7 1 8 76 9 77 10 78 11 79 12 82 13
REMARK SMILES IDX 80 14 81 15 83 16 9 19 10 20 11 21 12 22 13 23 14 24 75 25
REMARK SMILES IDX 15 26 74 27 16 28 17 29 18 30 68 31 19 32 73 33 67 34 69 35
REMARK SMILES IDX 20 36 72 37 66 38 65 39 21 41 53 42 33 43 52 44 34 45 37 46
REMARK SMILES IDX 51 47 70 48 35 49 36 50 50 52 71 53 38 54 22 55 23 56 31 57
REMARK SMILES IDX 24 58 25 59 29 60 32 61 26 62 27 63 30 64 28 65 54 66 55 67
REMARK SMILES IDX 63 68 56 69 57 70 61 71 64 72 58 73 59 74 62 75 60 76 39 77
REMARK SMILES IDX 40 78 48 79 41 80 42 81 46 82 49 83 43 84 44 85 47 86 45 87
REMARK H PARENT 81 17 81 18 69 40 37 51
REMARK Flexibility Score: inf
ROOT
ATOM      1  C   UNL A   1      31.964  29.147  24.039  1.00  0.00     0.274 C 
ENDROOT
BRANCH   1   2
ATOM      2  O   UNL A   1      32.021  27.710  23.893  1.00  0.00    -0.461 OA
BRANCH   2   3
ATOM      3  C   UNL A   1      33.088  27.255  23.191  1.00  0.00     0.325 C 
ATOM      4  O   UNL A   1      33.861  27.969  22.555  1.00  0.00    -0.250 OA
BRANCH   3   5
ATOM      5  C   UNL A   1      33.170  25.733  23.098  1.00  0.00     0.242 C 
BRANCH   5   6
ATOM      6  N   UNL A   1      34.164  24.903  23.789  1.00  0.00    -0.331 N 
BRANCH   6   7
ATOM      7  C   UNL A   1      34.347  25.240  25.215  1.00  0.00     0.117 C 
ATOM      8  C   UNL A   1      33.091  24.879  26.007  1.00  0.00     0.027 C 
ENDBRANCH   6   7
BRANCH   6   9
ATOM      9  C   UNL A   1      34.712  23.684  23.444  1.00  0.00     0.232 C 
ATOM     10  O   UNL A   1      34.625  23.336  22.249  1.00  0.00    -0.274 OA
BRANCH   9  11
ATOM     11  C   UNL A   1      35.428  22.672  24.337  1.00  0.00     0.142 C 
ATOM     12  C   UNL A   1      36.801  22.259  23.837  1.00  0.00     0.081 C 
ATOM     13  C   UNL A   1      34.917  21.484  25.155  1.00  0.00     0.192 C 
ATOM     14  C   UNL A   1      37.294  21.403  24.986  1.00  0.00     0.261 C 
ATOM     15  N   UNL A   1      36.115  20.634  25.406  1.00  0.00    -0.343 N 
ATOM     16  C   UNL A   1      33.814  20.604  24.618  1.00  0.00     0.076 C 
ATOM     17  H   UNL A   1      36.182  20.409  26.398  1.00  0.00     0.346 HD
ATOM     18  H   UNL A   1      36.052  19.759  24.885  1.00  0.00     0.346 HD
ENDBRANCH   9  11
ENDBRANCH   6   9
ENDBRANCH   5   6
ENDBRANCH   3   5
ENDBRANCH   2   3
ENDBRANCH   1   2
BRANCH   1  19
ATOM     19  C   UNL A   1      31.938  29.571  25.505  1.00  0.00     0.275 C 
BRANCH  19  20
ATOM     20  O   UNL A   1      33.264  29.895  25.958  1.00  0.00    -0.458 OA
BRANCH  20  21
ATOM     21  C   UNL A   1      33.319  30.894  26.867  1.00  0.00     0.338 C 
ATOM     22  O   UNL A   1      32.434  31.716  27.080  1.00  0.00    -0.246 OA
BRANCH  21  23
ATOM     23  C   UNL A   1      34.571  30.849  27.664  1.00  0.00     0.060 A 
ATOM     24  C   UNL A   1      35.401  31.962  27.835  1.00  0.00     0.016 A 
ATOM     25  C   UNL A   1      34.982  29.608  28.163  1.00  0.00     0.016 A 
ATOM     26  C   UNL A   1      36.667  31.808  28.419  1.00  0.00     0.010 A 
ATOM     27  C   UNL A   1      36.217  29.473  28.804  1.00  0.00     0.010 A 
ATOM     28  C   UNL A   1      37.088  30.565  28.920  1.00  0.00    -0.014 A 
BRANCH  28  29
ATOM     29  C   UNL A   1      38.390  30.377  29.623  1.00  0.00     0.031 A 
ATOM     30  C   UNL A   1      39.423  29.414  29.097  1.00  0.00     0.074 A 
ATOM     31  C   UNL A   1      38.606  30.990  30.804  1.00  0.00     0.049 A 
ATOM     32  N   UNL A   1      40.431  28.856  29.722  1.00  0.00    -0.248 NA
ATOM     33  C   UNL A   1      39.308  29.028  27.683  1.00  0.00     0.031 C 
ATOM     34  C   UNL A   1      37.729  31.989  31.413  1.00  0.00     0.029 A 
ATOM     35  N   UNL A   1      39.611  30.821  31.727  1.00  0.00    -0.354 N 
ATOM     36  C   UNL A   1      41.049  28.029  28.792  1.00  0.00     0.074 A 
ATOM     37  C   UNL A   1      40.306  28.160  27.556  1.00  0.00     0.031 C 
ATOM     38  C   UNL A   1      38.215  32.326  32.614  1.00  0.00     0.029 A 
ATOM     39  C   UNL A   1      39.376  31.492  32.902  1.00  0.00     0.049 A 
ATOM     40  H   UNL A   1      40.415  30.277  31.562  1.00  0.00     0.167 HD
ATOM     41  C   UNL A   1      42.133  27.232  28.962  1.00  0.00     0.037 A 
ATOM     42  C   UNL A   1      39.960  31.391  34.110  1.00  0.00     0.037 A 
ATOM     43  C   UNL A   1      42.885  27.125  30.190  1.00  0.00     0.049 A 
ATOM     44  C   UNL A   1      41.088  30.426  34.314  1.00  0.00     0.074 A 
ATOM     45  C   UNL A   1      44.010  26.360  30.451  1.00  0.00     0.029 A 
ATOM     46  N   UNL A   1      42.588  27.806  31.360  1.00  0.00    -0.354 N 
ATOM     47  N   UNL A   1      41.627  29.598  33.454  1.00  0.00    -0.248 NA
ATOM     48  C   UNL A   1      41.676  30.370  35.658  1.00  0.00     0.031 C 
ATOM     49  C   UNL A   1      44.371  26.548  31.790  1.00  0.00     0.029 A 
ATOM     50  C   UNL A   1      43.498  27.465  32.350  1.00  0.00     0.049 A 
ATOM     51  H   UNL A   1      41.842  28.438  31.472  1.00  0.00     0.167 HD
ATOM     52  C   UNL A   1      42.631  28.937  34.144  1.00  0.00     0.074 A 
ATOM     53  C   UNL A   1      42.628  29.461  35.494  1.00  0.00     0.031 C 
ATOM     54  C   UNL A   1      43.485  27.987  33.691  1.00  0.00     0.037 A 
BRANCH  41  55
ATOM     55  C   UNL A   1      42.582  26.382  27.808  1.00  0.00     0.064 A 
ATOM     56  C   UNL A   1      41.981  25.149  27.522  1.00  0.00     0.173 A 
ATOM     57  C   UNL A   1      43.548  26.866  26.910  1.00  0.00     0.173 A 
ATOM     58  F   UNL A   1      41.053  24.642  28.348  1.00  0.00    -0.203 F 
ATOM     59  C   UNL A   1      42.330  24.430  26.379  1.00  0.00     0.198 A 
ATOM     60  C   UNL A   1      43.879  26.155  25.758  1.00  0.00     0.198 A 
ATOM     61  F   UNL A   1      44.143  28.047  27.130  1.00  0.00    -0.203 F 
ATOM     62  F   UNL A   1      41.749  23.248  26.129  1.00  0.00    -0.200 F 
ATOM     63  C   UNL A   1      43.269  24.938  25.494  1.00  0.00     0.200 A 
ATOM     64  F   UNL A   1      44.772  26.658  24.895  1.00  0.00    -0.200 F 
ATOM     65  F   UNL A   1      43.584  24.258  24.382  1.00  0.00    -0.200 F 
ENDBRANCH  41  55
BRANCH  42  66
ATOM     66  C   UNL A   1      39.414  32.191  35.235  1.00  0.00     0.064 A 
ATOM     67  C   UNL A   1      38.534  31.626  36.164  1.00  0.00     0.173 A 
ATOM     68  C   UNL A   1      39.829  33.517  35.443  1.00  0.00     0.173 A 
ATOM     69  F   UNL A   1      38.093  30.371  35.990  1.00  0.00    -0.203 F 
ATOM     70  C   UNL A   1      38.098  32.352  37.270  1.00  0.00     0.198 A 
ATOM     71  C   UNL A   1      39.416  34.231  36.563  1.00  0.00     0.198 A 
ATOM     72  F   UNL A   1      40.675  34.099  34.579  1.00  0.00    -0.203 F 
ATOM     73  F   UNL A   1      37.246  31.794  38.140  1.00  0.00    -0.200 F 
ATOM     74  C   UNL A   1      38.551  33.647  37.476  1.00  0.00     0.200 A 
ATOM     75  F   UNL A   1      39.873  35.473  36.770  1.00  0.00    -0.200 F 
ATOM     76  F   UNL A   1      38.157  34.332  38.558  1.00  0.00    -0.200 F 
ENDBRANCH  42  66
BRANCH  54  77
ATOM     77  C   UNL A   1      44.518  27.490  34.655  1.00  0.00     0.064 A 
ATOM     78  C   UNL A   1      45.752  28.135  34.809  1.00  0.00     0.173 A 
ATOM     79  C   UNL A   1      44.263  26.354  35.440  1.00  0.00     0.173 A 
ATOM     80  F   UNL A   1      46.048  29.212  34.066  1.00  0.00    -0.203 F 
ATOM     81  C   UNL A   1      46.707  27.646  35.697  1.00  0.00     0.198 A 
ATOM     82  C   UNL A   1      45.211  25.881  36.342  1.00  0.00     0.198 A 
ATOM     83  F   UNL A   1      43.095  25.705  35.329  1.00  0.00    -0.203 F 
ATOM     84  F   UNL A   1      47.900  28.249  35.795  1.00  0.00    -0.200 F 
ATOM     85  C   UNL A   1      46.434  26.522  36.464  1.00  0.00     0.200 A 
ATOM     86  F   UNL A   1      44.944  24.799  37.086  1.00  0.00    -0.200 F 
ATOM     87  F   UNL A   1      47.356  26.050  37.314  1.00  0.00    -0.200 F 
ENDBRANCH  54  77
ENDBRANCH  28  29
ENDBRANCH  21  23
ENDBRANCH  20  21
ENDBRANCH  19  20
ENDBRANCH   1  19
TORSDOF 15
ENDMDL
