MODEL 1
REMARK VINA RESULT:     -11.2      0.000      0.000
REMARK SMILES C[C@@H]1CN(c2nc(Br)cs2)C[C@@H]1C(=O)OCCOC(=O)c1ccc(-c2c3nc(c(-c4c(F)c(F)c(F)c(F)c4F)c4ccc([nH]4)c(-c4c(F)c(F)c(F)c(F)c4F)c4nc(c(-c5c(F)c(F)c(F)c(F)c5F)c5ccc2[nH]5)C=C4)C=C3)cc1
REMARK SMILES IDX 17 1 16 2 15 3 13 4 14 5 12 6 1 7 2 8 3 9 4 10 11 11 5 12
REMARK SMILES IDX 6 13 10 14 7 15 9 16 8 17 18 18 19 19 20 20 21 21 22 22
REMARK SMILES IDX 83 23 23 24 82 25 24 26 25 27 26 28 76 29 27 30 81 31 75 32
REMARK SMILES IDX 77 33 28 34 80 35 74 36 73 37 29 39 61 40 41 41 60 42 42 43
REMARK SMILES IDX 45 44 59 45 78 46 43 47 44 48 58 50 79 51 46 52 30 53 31 54
REMARK SMILES IDX 39 55 32 56 33 57 37 58 40 59 34 60 35 61 38 62 36 63 62 64
REMARK SMILES IDX 63 65 71 66 64 67 65 68 69 69 72 70 66 71 67 72 70 73 68 74
REMARK SMILES IDX 47 75 48 76 56 77 49 78 50 79 54 80 57 81 51 82 52 83 55 84
REMARK SMILES IDX 53 85
REMARK H PARENT 77 38 45 49
REMARK Flexibility Score: inf
ROOT
ATOM      1  C   UNL A   1      31.607  30.038  25.497  1.00  0.00     0.275 C 
ENDROOT
BRANCH   1   2
ATOM      2  C   UNL A   1      31.461  29.010  24.375  1.00  0.00     0.274 C 
BRANCH   2   3
ATOM      3  O   UNL A   1      30.584  27.932  24.765  1.00  0.00    -0.462 OA
BRANCH   3   4
ATOM      4  C   UNL A   1      31.162  26.921  25.457  1.00  0.00     0.311 C 
ATOM      5  O   UNL A   1      30.915  26.659  26.630  1.00  0.00    -0.252 OA
BRANCH   4   6
ATOM      6  C   UNL A   1      32.225  26.188  24.675  1.00  0.00     0.123 C 
ATOM      7  C   UNL A   1      30.545  24.573  23.491  1.00  0.00     0.010 C 
ATOM      8  C   UNL A   1      31.892  25.292  23.464  1.00  0.00     0.021 C 
ATOM      9  C   UNL A   1      33.064  24.271  23.427  1.00  0.00     0.123 C 
ATOM     10  N   UNL A   1      33.728  24.421  24.705  1.00  0.00    -0.347 N 
ATOM     11  C   UNL A   1      32.964  25.239  25.616  1.00  0.00     0.134 C 
BRANCH  10  12
ATOM     12  C   UNL A   1      34.836  23.762  25.121  1.00  0.00     0.186 A 
ATOM     13  N   UNL A   1      35.924  24.381  25.527  1.00  0.00    -0.213 NA
ATOM     14  S   UNL A   1      34.971  22.035  25.103  1.00  0.00    -0.104 S 
ATOM     15  C   UNL A   1      36.909  23.473  25.839  1.00  0.00     0.119 A 
ATOM     16  C   UNL A   1      36.594  22.153  25.633  1.00  0.00     0.104 A 
ATOM     17  Br  UNL A   1      38.587  24.052  26.500  1.00  0.00    -0.028 Br
ENDBRANCH  10  12
ENDBRANCH   4   6
ENDBRANCH   3   4
ENDBRANCH   2   3
ENDBRANCH   1   2
BRANCH   1  18
ATOM     18  O   UNL A   1      32.959  30.041  25.990  1.00  0.00    -0.458 OA
BRANCH  18  19
ATOM     19  C   UNL A   1      33.273  31.028  26.858  1.00  0.00     0.338 C 
ATOM     20  O   UNL A   1      32.623  32.027  27.112  1.00  0.00    -0.246 OA
BRANCH  19  21
ATOM     21  C   UNL A   1      34.574  30.743  27.492  1.00  0.00     0.060 A 
ATOM     22  C   UNL A   1      34.973  29.427  27.714  1.00  0.00     0.016 A 
ATOM     23  C   UNL A   1      35.350  31.798  27.973  1.00  0.00     0.016 A 
ATOM     24  C   UNL A   1      36.096  29.157  28.495  1.00  0.00     0.010 A 
ATOM     25  C   UNL A   1      36.532  31.526  28.671  1.00  0.00     0.010 A 
ATOM     26  C   UNL A   1      36.900  30.203  28.969  1.00  0.00    -0.014 A 
BRANCH  26  27
ATOM     27  C   UNL A   1      38.113  29.905  29.777  1.00  0.00     0.031 A 
ATOM     28  C   UNL A   1      39.218  29.051  29.215  1.00  0.00     0.074 A 
ATOM     29  C   UNL A   1      38.233  30.418  31.018  1.00  0.00     0.049 A 
ATOM     30  N   UNL A   1      40.297  28.598  29.806  1.00  0.00    -0.248 NA
ATOM     31  C   UNL A   1      39.089  28.639  27.810  1.00  0.00     0.031 C 
ATOM     32  C   UNL A   1      37.246  31.272  31.677  1.00  0.00     0.029 A 
ATOM     33  N   UNL A   1      39.244  30.305  31.941  1.00  0.00    -0.354 N 
ATOM     34  C   UNL A   1      40.947  27.812  28.862  1.00  0.00     0.074 A 
ATOM     35  C   UNL A   1      40.141  27.847  27.659  1.00  0.00     0.031 C 
ATOM     36  C   UNL A   1      37.717  31.645  32.876  1.00  0.00     0.029 A 
ATOM     37  C   UNL A   1      39.008  31.002  33.100  1.00  0.00     0.049 A 
ATOM     38  H   UNL A   1      40.059  29.776  31.786  1.00  0.00     0.167 HD
ATOM     39  C   UNL A   1      42.108  27.125  28.990  1.00  0.00     0.037 A 
ATOM     40  C   UNL A   1      39.737  31.100  34.227  1.00  0.00     0.037 A 
ATOM     41  C   UNL A   1      42.937  27.134  30.167  1.00  0.00     0.049 A 
ATOM     42  C   UNL A   1      41.033  30.350  34.331  1.00  0.00     0.074 A 
ATOM     43  C   UNL A   1      44.138  26.482  30.385  1.00  0.00     0.029 A 
ATOM     44  N   UNL A   1      42.658  27.849  31.323  1.00  0.00    -0.354 N 
ATOM     45  N   UNL A   1      41.611  29.573  33.448  1.00  0.00    -0.248 NA
ATOM     46  C   UNL A   1      41.770  30.478  35.596  1.00  0.00     0.031 C 
ATOM     47  C   UNL A   1      44.575  26.782  31.681  1.00  0.00     0.029 A 
ATOM     48  C   UNL A   1      43.661  27.648  32.258  1.00  0.00     0.049 A 
ATOM     49  H   UNL A   1      41.865  28.416  31.458  1.00  0.00     0.167 HD
ATOM     50  C   UNL A   1      42.774  29.115  34.048  1.00  0.00     0.074 A 
ATOM     51  C   UNL A   1      42.838  29.729  35.360  1.00  0.00     0.031 C 
ATOM     52  C   UNL A   1      43.700  28.254  33.563  1.00  0.00     0.037 A 
BRANCH  39  53
ATOM     53  C   UNL A   1      42.544  26.278  27.831  1.00  0.00     0.064 A 
ATOM     54  C   UNL A   1      43.430  26.756  26.855  1.00  0.00     0.173 A 
ATOM     55  C   UNL A   1      42.100  24.951  27.723  1.00  0.00     0.173 A 
ATOM     56  F   UNL A   1      43.872  28.022  26.907  1.00  0.00    -0.203 F 
ATOM     57  C   UNL A   1      43.842  25.941  25.803  1.00  0.00     0.198 A 
ATOM     58  C   UNL A   1      42.533  24.132  26.682  1.00  0.00     0.198 A 
ATOM     59  F   UNL A   1      41.255  24.444  28.633  1.00  0.00    -0.203 F 
ATOM     60  F   UNL A   1      44.663  26.430  24.862  1.00  0.00    -0.200 F 
ATOM     61  C   UNL A   1      43.399  24.630  25.722  1.00  0.00     0.200 A 
ATOM     62  F   UNL A   1      42.111  22.862  26.611  1.00  0.00    -0.200 F 
ATOM     63  F   UNL A   1      43.805  23.845  24.713  1.00  0.00    -0.200 F 
ENDBRANCH  39  53
BRANCH  40  64
ATOM     64  C   UNL A   1      39.241  31.933  35.351  1.00  0.00     0.064 A 
ATOM     65  C   UNL A   1      39.524  33.303  35.411  1.00  0.00     0.173 A 
ATOM     66  C   UNL A   1      38.456  31.380  36.373  1.00  0.00     0.173 A 
ATOM     67  F   UNL A   1      40.295  33.870  34.471  1.00  0.00    -0.203 F 
ATOM     68  C   UNL A   1      39.044  34.091  36.455  1.00  0.00     0.198 A 
ATOM     69  C   UNL A   1      37.954  32.173  37.402  1.00  0.00     0.198 A 
ATOM     70  F   UNL A   1      38.159  30.073  36.360  1.00  0.00    -0.203 F 
ATOM     71  F   UNL A   1      39.356  35.393  36.509  1.00  0.00    -0.200 F 
ATOM     72  C   UNL A   1      38.252  33.527  37.444  1.00  0.00     0.200 A 
ATOM     73  F   UNL A   1      37.179  31.627  38.349  1.00  0.00    -0.200 F 
ATOM     74  F   UNL A   1      37.781  34.287  38.442  1.00  0.00    -0.200 F 
ENDBRANCH  40  64
BRANCH  52  75
ATOM     75  C   UNL A   1      44.852  27.926  34.462  1.00  0.00     0.064 A 
ATOM     76  C   UNL A   1      46.040  28.669  34.419  1.00  0.00     0.173 A 
ATOM     77  C   UNL A   1      44.770  26.862  35.372  1.00  0.00     0.173 A 
ATOM     78  F   UNL A   1      46.172  29.685  33.552  1.00  0.00    -0.203 F 
ATOM     79  C   UNL A   1      47.117  28.342  35.238  1.00  0.00     0.198 A 
ATOM     80  C   UNL A   1      45.841  26.552  36.205  1.00  0.00     0.198 A 
ATOM     81  F   UNL A   1      43.652  26.124  35.450  1.00  0.00    -0.203 F 
ATOM     82  F   UNL A   1      48.261  29.036  35.150  1.00  0.00    -0.200 F 
ATOM     83  C   UNL A   1      47.016  27.286  36.133  1.00  0.00     0.200 A 
ATOM     84  F   UNL A   1      45.741  25.534  37.071  1.00  0.00    -0.200 F 
ATOM     85  F   UNL A   1      48.055  26.968  36.915  1.00  0.00    -0.200 F 
ENDBRANCH  52  75
ENDBRANCH  26  27
ENDBRANCH  19  21
ENDBRANCH  18  19
ENDBRANCH   1  18
TORSDOF 12
ENDMDL
MODEL 2
REMARK VINA RESULT:     -11.1      0.255      1.668
REMARK SMILES C[C@@H]1CN(c2nc(Br)cs2)C[C@@H]1C(=O)OCCOC(=O)c1ccc(-c2c3nc(c(-c4c(F)c(F)c(F)c(F)c4F)c4ccc([nH]4)c(-c4c(F)c(F)c(F)c(F)c4F)c4nc(c(-c5c(F)c(F)c(F)c(F)c5F)c5ccc2[nH]5)C=C4)C=C3)cc1
REMARK SMILES IDX 17 1 16 2 15 3 13 4 14 5 12 6 1 7 2 8 3 9 4 10 11 11 5 12
REMARK SMILES IDX 6 13 10 14 7 15 9 16 8 17 18 18 19 19 20 20 21 21 22 22
REMARK SMILES IDX 83 23 23 24 82 25 24 26 25 27 26 28 76 29 27 30 81 31 75 32
REMARK SMILES IDX 77 33 28 34 80 35 74 36 73 37 29 39 61 40 41 41 60 42 42 43
REMARK SMILES IDX 45 44 59 45 78 46 43 47 44 48 58 50 79 51 46 52 30 53 31 54
REMARK SMILES IDX 39 55 32 56 33 57 37 58 40 59 34 60 35 61 38 62 36 63 62 64
REMARK SMILES IDX 63 65 71 66 64 67 65 68 69 69 72 70 66 71 67 72 70 73 68 74
REMARK SMILES IDX 47 75 48 76 56 77 49 78 50 79 54 80 57 81 51 82 52 83 55 84
REMARK SMILES IDX 53 85
REMARK H PARENT 77 38 45 49
REMARK Flexibility Score: inf
ROOT
ATOM      1  C   UNL A   1      31.758  29.756  25.966  1.00  0.00     0.275 C 
ENDROOT
BRANCH   1   2
ATOM      2  C   UNL A   1      31.655  28.779  24.795  1.00  0.00     0.274 C 
BRANCH   2   3
ATOM      3  O   UNL A   1      30.675  27.752  25.056  1.00  0.00    -0.462 OA
BRANCH   3   4
ATOM      4  C   UNL A   1      31.148  26.611  25.614  1.00  0.00     0.311 C 
ATOM      5  O   UNL A   1      30.771  26.165  26.693  1.00  0.00    -0.252 OA
BRANCH   4   6
ATOM      6  C   UNL A   1      32.267  25.976  24.826  1.00  0.00     0.123 C 
ATOM      7  C   UNL A   1      30.690  24.437  23.419  1.00  0.00     0.010 C 
ATOM      8  C   UNL A   1      32.018  25.185  23.525  1.00  0.00     0.021 C 
ATOM      9  C   UNL A   1      33.218  24.198  23.457  1.00  0.00     0.123 C 
ATOM     10  N   UNL A   1      33.813  24.246  24.777  1.00  0.00    -0.347 N 
ATOM     11  C   UNL A   1      32.983  24.963  25.716  1.00  0.00     0.134 C 
BRANCH  10  12
ATOM     12  C   UNL A   1      34.916  23.577  25.188  1.00  0.00     0.186 A 
ATOM     13  N   UNL A   1      36.030  24.185  25.539  1.00  0.00    -0.213 NA
ATOM     14  S   UNL A   1      35.010  21.849  25.236  1.00  0.00    -0.104 S 
ATOM     15  C   UNL A   1      37.001  23.266  25.862  1.00  0.00     0.119 A 
ATOM     16  C   UNL A   1      36.650  21.947  25.717  1.00  0.00     0.104 A 
ATOM     17  Br  UNL A   1      38.710  23.830  26.454  1.00  0.00    -0.028 Br
ENDBRANCH  10  12
ENDBRANCH   4   6
ENDBRANCH   3   4
ENDBRANCH   2   3
ENDBRANCH   1   2
BRANCH   1  18
ATOM     18  O   UNL A   1      33.012  30.461  25.910  1.00  0.00    -0.458 OA
BRANCH  18  19
ATOM     19  C   UNL A   1      33.258  31.316  26.928  1.00  0.00     0.338 C 
ATOM     20  O   UNL A   1      32.557  32.236  27.310  1.00  0.00    -0.246 OA
BRANCH  19  21
ATOM     21  C   UNL A   1      34.555  30.992  27.551  1.00  0.00     0.060 A 
ATOM     22  C   UNL A   1      34.848  29.681  27.921  1.00  0.00     0.016 A 
ATOM     23  C   UNL A   1      35.439  32.022  27.874  1.00  0.00     0.016 A 
ATOM     24  C   UNL A   1      35.976  29.407  28.693  1.00  0.00     0.010 A 
ATOM     25  C   UNL A   1      36.622  31.731  28.562  1.00  0.00     0.010 A 
ATOM     26  C   UNL A   1      36.886  30.425  29.009  1.00  0.00    -0.014 A 
BRANCH  26  27
ATOM     27  C   UNL A   1      38.103  30.117  29.809  1.00  0.00     0.031 A 
ATOM     28  C   UNL A   1      39.212  29.282  29.228  1.00  0.00     0.074 A 
ATOM     29  C   UNL A   1      38.221  30.604  31.060  1.00  0.00     0.049 A 
ATOM     30  N   UNL A   1      40.294  28.822  29.808  1.00  0.00    -0.248 NA
ATOM     31  C   UNL A   1      39.083  28.899  27.815  1.00  0.00     0.031 C 
ATOM     32  C   UNL A   1      37.230  31.439  31.738  1.00  0.00     0.029 A 
ATOM     33  N   UNL A   1      39.234  30.478  31.980  1.00  0.00    -0.354 N 
ATOM     34  C   UNL A   1      40.947  28.060  28.847  1.00  0.00     0.074 A 
ATOM     35  C   UNL A   1      40.140  28.116  27.646  1.00  0.00     0.031 C 
ATOM     36  C   UNL A   1      37.700  31.789  32.945  1.00  0.00     0.029 A 
ATOM     37  C   UNL A   1      38.995  31.150  33.153  1.00  0.00     0.049 A 
ATOM     38  H   UNL A   1      40.052  29.957  31.813  1.00  0.00     0.167 HD
ATOM     39  C   UNL A   1      42.113  27.378  28.959  1.00  0.00     0.037 A 
ATOM     40  C   UNL A   1      39.725  31.228  34.281  1.00  0.00     0.037 A 
ATOM     41  C   UNL A   1      42.943  27.367  30.136  1.00  0.00     0.049 A 
ATOM     42  C   UNL A   1      41.025  30.484  34.368  1.00  0.00     0.074 A 
ATOM     43  C   UNL A   1      44.148  26.717  30.337  1.00  0.00     0.029 A 
ATOM     44  N   UNL A   1      42.661  28.056  31.306  1.00  0.00    -0.354 N 
ATOM     45  N   UNL A   1      41.607  29.729  33.468  1.00  0.00    -0.248 NA
ATOM     46  C   UNL A   1      41.764  30.590  35.634  1.00  0.00     0.031 C 
ATOM     47  C   UNL A   1      44.585  26.993  31.639  1.00  0.00     0.029 A 
ATOM     48  C   UNL A   1      43.666  27.841  32.235  1.00  0.00     0.049 A 
ATOM     49  H   UNL A   1      41.865  28.615  31.454  1.00  0.00     0.167 HD
ATOM     50  C   UNL A   1      42.774  29.265  34.057  1.00  0.00     0.074 A 
ATOM     51  C   UNL A   1      42.836  29.852  35.381  1.00  0.00     0.031 C 
ATOM     52  C   UNL A   1      43.704  28.420  33.553  1.00  0.00     0.037 A 
BRANCH  39  53
ATOM     53  C   UNL A   1      42.552  26.558  27.782  1.00  0.00     0.064 A 
ATOM     54  C   UNL A   1      43.411  27.071  26.800  1.00  0.00     0.173 A 
ATOM     55  C   UNL A   1      42.140  25.222  27.662  1.00  0.00     0.173 A 
ATOM     56  F   UNL A   1      43.822  28.347  26.863  1.00  0.00    -0.203 F 
ATOM     57  C   UNL A   1      43.827  26.281  25.731  1.00  0.00     0.198 A 
ATOM     58  C   UNL A   1      42.577  24.428  26.604  1.00  0.00     0.198 A 
ATOM     59  F   UNL A   1      41.321  24.682  28.577  1.00  0.00    -0.203 F 
ATOM     60  F   UNL A   1      44.621  26.803  24.785  1.00  0.00    -0.200 F 
ATOM     61  C   UNL A   1      43.416  24.961  25.638  1.00  0.00     0.200 A 
ATOM     62  F   UNL A   1      42.186  23.149  26.521  1.00  0.00    -0.200 F 
ATOM     63  F   UNL A   1      43.826  24.200  24.612  1.00  0.00    -0.200 F 
ENDBRANCH  39  53
BRANCH  40  64
ATOM     64  C   UNL A   1      39.226  32.034  35.423  1.00  0.00     0.064 A 
ATOM     65  C   UNL A   1      38.424  31.457  36.416  1.00  0.00     0.173 A 
ATOM     66  C   UNL A   1      39.561  33.390  35.557  1.00  0.00     0.173 A 
ATOM     67  F   UNL A   1      38.055  30.171  36.315  1.00  0.00    -0.203 F 
ATOM     68  C   UNL A   1      37.970  32.207  37.498  1.00  0.00     0.198 A 
ATOM     69  C   UNL A   1      39.129  34.131  36.653  1.00  0.00     0.198 A 
ATOM     70  F   UNL A   1      40.326  33.987  34.632  1.00  0.00    -0.203 F 
ATOM     71  F   UNL A   1      37.177  31.641  38.418  1.00  0.00    -0.200 F 
ATOM     72  C   UNL A   1      38.331  33.541  37.621  1.00  0.00     0.200 A 
ATOM     73  F   UNL A   1      39.490  35.416  36.774  1.00  0.00    -0.200 F 
ATOM     74  F   UNL A   1      37.904  34.258  38.669  1.00  0.00    -0.200 F 
ENDBRANCH  40  64
BRANCH  52  75
ATOM     75  C   UNL A   1      44.860  28.080  34.443  1.00  0.00     0.064 A 
ATOM     76  C   UNL A   1      44.789  27.010  35.348  1.00  0.00     0.173 A 
ATOM     77  C   UNL A   1      46.045  28.826  34.392  1.00  0.00     0.173 A 
ATOM     78  F   UNL A   1      43.667  26.279  35.444  1.00  0.00    -0.203 F 
ATOM     79  C   UNL A   1      45.856  26.717  36.191  1.00  0.00     0.198 A 
ATOM     80  C   UNL A   1      47.119  28.516  35.222  1.00  0.00     0.198 A 
ATOM     81  F   UNL A   1      46.160  29.856  33.541  1.00  0.00    -0.203 F 
ATOM     82  F   UNL A   1      45.752  25.721  37.082  1.00  0.00    -0.200 F 
ATOM     83  C   UNL A   1      47.022  27.467  36.126  1.00  0.00     0.200 A 
ATOM     84  F   UNL A   1      48.246  29.238  35.156  1.00  0.00    -0.200 F 
ATOM     85  F   UNL A   1      48.046  27.189  36.943  1.00  0.00    -0.200 F 
ENDBRANCH  52  75
ENDBRANCH  26  27
ENDBRANCH  19  21
ENDBRANCH  18  19
ENDBRANCH   1  18
TORSDOF 12
ENDMDL
MODEL 3
REMARK VINA RESULT:     -11.1      4.517      9.581
REMARK SMILES C[C@@H]1CN(c2nc(Br)cs2)C[C@@H]1C(=O)OCCOC(=O)c1ccc(-c2c3nc(c(-c4c(F)c(F)c(F)c(F)c4F)c4ccc([nH]4)c(-c4c(F)c(F)c(F)c(F)c4F)c4nc(c(-c5c(F)c(F)c(F)c(F)c5F)c5ccc2[nH]5)C=C4)C=C3)cc1
REMARK SMILES IDX 17 1 16 2 15 3 13 4 14 5 12 6 1 7 2 8 3 9 4 10 11 11 5 12
REMARK SMILES IDX 6 13 10 14 7 15 9 16 8 17 18 18 19 19 20 20 21 21 22 22
REMARK SMILES IDX 83 23 23 24 82 25 24 26 25 27 26 28 76 29 27 30 81 31 75 32
REMARK SMILES IDX 77 33 28 34 80 35 74 36 73 37 29 39 61 40 41 41 60 42 42 43
REMARK SMILES IDX 45 44 59 45 78 46 43 47 44 48 58 50 79 51 46 52 30 53 31 54
REMARK SMILES IDX 39 55 32 56 33 57 37 58 40 59 34 60 35 61 38 62 36 63 62 64
REMARK SMILES IDX 63 65 71 66 64 67 65 68 69 69 72 70 66 71 67 72 70 73 68 74
REMARK SMILES IDX 47 75 48 76 56 77 49 78 50 79 54 80 57 81 51 82 52 83 55 84
REMARK SMILES IDX 53 85
REMARK H PARENT 77 38 45 49
REMARK Flexibility Score: inf
ROOT
ATOM      1  C   UNL A   1      36.571  20.547  24.989  1.00  0.00     0.275 C 
ENDROOT
BRANCH   1   2
ATOM      2  C   UNL A   1      35.067  20.820  25.001  1.00  0.00     0.274 C 
BRANCH   2   3
ATOM      3  O   UNL A   1      34.771  22.082  25.638  1.00  0.00    -0.462 OA
BRANCH   3   4
ATOM      4  C   UNL A   1      33.910  22.028  26.683  1.00  0.00     0.311 C 
ATOM      5  O   UNL A   1      33.683  21.015  27.338  1.00  0.00    -0.252 OA
BRANCH   4   6
ATOM      6  C   UNL A   1      33.168  23.321  26.919  1.00  0.00     0.123 C 
ATOM      7  C   UNL A   1      31.028  22.581  25.612  1.00  0.00     0.010 C 
ATOM      8  C   UNL A   1      31.646  23.453  26.703  1.00  0.00     0.021 C 
ATOM      9  C   UNL A   1      31.448  24.963  26.384  1.00  0.00     0.123 C 
ATOM     10  N   UNL A   1      32.781  25.463  26.116  1.00  0.00    -0.347 N 
ATOM     11  C   UNL A   1      33.743  24.395  25.998  1.00  0.00     0.134 C 
BRANCH  10  12
ATOM     12  C   UNL A   1      33.118  26.742  25.826  1.00  0.00     0.186 A 
ATOM     13  N   UNL A   1      33.293  27.662  26.751  1.00  0.00    -0.213 NA
ATOM     14  S   UNL A   1      33.293  27.330  24.206  1.00  0.00    -0.104 S 
ATOM     15  C   UNL A   1      33.576  28.879  26.177  1.00  0.00     0.119 A 
ATOM     16  C   UNL A   1      33.578  28.908  24.804  1.00  0.00     0.104 A 
ATOM     17  Br  UNL A   1      33.926  30.400  27.250  1.00  0.00    -0.028 Br
ENDBRANCH  10  12
ENDBRANCH   4   6
ENDBRANCH   3   4
ENDBRANCH   2   3
ENDBRANCH   1   2
BRANCH   1  18
ATOM     18  O   UNL A   1      37.244  21.459  25.877  1.00  0.00    -0.458 OA
BRANCH  18  19
ATOM     19  C   UNL A   1      38.580  21.293  25.997  1.00  0.00     0.338 C 
ATOM     20  O   UNL A   1      39.229  20.292  25.750  1.00  0.00    -0.246 OA
BRANCH  19  21
ATOM     21  C   UNL A   1      39.196  22.535  26.501  1.00  0.00     0.060 A 
ATOM     22  C   UNL A   1      38.675  23.775  26.136  1.00  0.00     0.016 A 
ATOM     23  C   UNL A   1      40.370  22.465  27.251  1.00  0.00     0.016 A 
ATOM     24  C   UNL A   1      39.372  24.944  26.437  1.00  0.00     0.010 A 
ATOM     25  C   UNL A   1      41.016  23.644  27.639  1.00  0.00     0.010 A 
ATOM     26  C   UNL A   1      40.543  24.895  27.207  1.00  0.00    -0.014 A 
BRANCH  26  27
ATOM     27  C   UNL A   1      41.265  26.151  27.549  1.00  0.00     0.031 A 
ATOM     28  C   UNL A   1      40.604  27.212  28.387  1.00  0.00     0.074 A 
ATOM     29  C   UNL A   1      42.529  26.333  27.118  1.00  0.00     0.049 A 
ATOM     30  N   UNL A   1      41.034  28.411  28.696  1.00  0.00    -0.248 NA
ATOM     31  C   UNL A   1      39.280  26.891  28.939  1.00  0.00     0.031 C 
ATOM     32  C   UNL A   1      43.293  25.381  26.313  1.00  0.00     0.029 A 
ATOM     33  N   UNL A   1      43.399  27.379  27.309  1.00  0.00    -0.354 N 
ATOM     34  C   UNL A   1      40.017  29.002  29.435  1.00  0.00     0.074 A 
ATOM     35  C   UNL A   1      38.946  28.032  29.528  1.00  0.00     0.031 C 
ATOM     36  C   UNL A   1      44.530  25.860  26.117  1.00  0.00     0.029 A 
ATOM     37  C   UNL A   1      44.626  27.184  26.725  1.00  0.00     0.049 A 
ATOM     38  H   UNL A   1      43.166  28.189  27.817  1.00  0.00     0.167 HD
ATOM     39  C   UNL A   1      39.982  30.240  29.985  1.00  0.00     0.037 A 
ATOM     40  C   UNL A   1      45.705  27.986  26.666  1.00  0.00     0.037 A 
ATOM     41  C   UNL A   1      41.069  31.185  29.940  1.00  0.00     0.049 A 
ATOM     42  C   UNL A   1      45.649  29.342  27.306  1.00  0.00     0.074 A 
ATOM     43  C   UNL A   1      41.131  32.457  30.481  1.00  0.00     0.029 A 
ATOM     44  N   UNL A   1      42.293  30.950  29.332  1.00  0.00    -0.354 N 
ATOM     45  N   UNL A   1      44.663  29.906  27.961  1.00  0.00    -0.248 NA
ATOM     46  C   UNL A   1      46.849  30.181  27.186  1.00  0.00     0.031 C 
ATOM     47  C   UNL A   1      42.385  33.003  30.179  1.00  0.00     0.029 A 
ATOM     48  C   UNL A   1      43.115  32.056  29.479  1.00  0.00     0.049 A 
ATOM     49  H   UNL A   1      42.541  30.119  28.865  1.00  0.00     0.167 HD
ATOM     50  C   UNL A   1      45.119  31.164  28.326  1.00  0.00     0.074 A 
ATOM     51  C   UNL A   1      46.484  31.268  27.850  1.00  0.00     0.031 C 
ATOM     52  C   UNL A   1      44.463  32.149  28.985  1.00  0.00     0.037 A 
BRANCH  39  53
ATOM     53  C   UNL A   1      38.713  30.662  30.664  1.00  0.00     0.064 A 
ATOM     54  C   UNL A   1      38.555  30.582  32.055  1.00  0.00     0.173 A 
ATOM     55  C   UNL A   1      37.655  31.195  29.913  1.00  0.00     0.173 A 
ATOM     56  F   UNL A   1      39.532  30.067  32.816  1.00  0.00    -0.203 F 
ATOM     57  C   UNL A   1      37.378  31.006  32.667  1.00  0.00     0.198 A 
ATOM     58  C   UNL A   1      36.488  31.639  30.529  1.00  0.00     0.198 A 
ATOM     59  F   UNL A   1      37.758  31.297  28.579  1.00  0.00    -0.203 F 
ATOM     60  F   UNL A   1      37.235  30.889  33.995  1.00  0.00    -0.200 F 
ATOM     61  C   UNL A   1      36.350  31.540  31.905  1.00  0.00     0.200 A 
ATOM     62  F   UNL A   1      35.499  32.164  29.792  1.00  0.00    -0.200 F 
ATOM     63  F   UNL A   1      35.220  31.955  32.497  1.00  0.00    -0.200 F 
ENDBRANCH  39  53
BRANCH  40  64
ATOM     64  C   UNL A   1      46.924  27.525  25.956  1.00  0.00     0.064 A 
ATOM     65  C   UNL A   1      47.063  27.702  24.573  1.00  0.00     0.173 A 
ATOM     66  C   UNL A   1      47.983  26.920  26.649  1.00  0.00     0.173 A 
ATOM     67  F   UNL A   1      46.064  28.250  23.865  1.00  0.00    -0.203 F 
ATOM     68  C   UNL A   1      48.214  27.287  23.908  1.00  0.00     0.198 A 
ATOM     69  C   UNL A   1      49.145  26.530  25.988  1.00  0.00     0.198 A 
ATOM     70  F   UNL A   1      47.897  26.728  27.973  1.00  0.00    -0.203 F 
ATOM     71  F   UNL A   1      48.310  27.437  22.580  1.00  0.00    -0.200 F 
ATOM     72  C   UNL A   1      49.258  26.710  24.618  1.00  0.00     0.200 A 
ATOM     73  F   UNL A   1      50.155  25.984  26.678  1.00  0.00    -0.200 F 
ATOM     74  F   UNL A   1      50.370  26.322  23.979  1.00  0.00    -0.200 F 
ENDBRANCH  40  64
BRANCH  52  75
ATOM     75  C   UNL A   1      45.217  33.422  29.219  1.00  0.00     0.064 A 
ATOM     76  C   UNL A   1      45.165  34.477  28.297  1.00  0.00     0.173 A 
ATOM     77  C   UNL A   1      45.997  33.589  30.372  1.00  0.00     0.173 A 
ATOM     78  F   UNL A   1      44.446  34.354  27.170  1.00  0.00    -0.203 F 
ATOM     79  C   UNL A   1      45.890  35.646  28.508  1.00  0.00     0.198 A 
ATOM     80  C   UNL A   1      46.704  34.769  30.590  1.00  0.00     0.198 A 
ATOM     81  F   UNL A   1      46.076  32.609  31.284  1.00  0.00    -0.203 F 
ATOM     82  F   UNL A   1      45.864  36.624  27.592  1.00  0.00    -0.200 F 
ATOM     83  C   UNL A   1      46.656  35.793  29.655  1.00  0.00     0.200 A 
ATOM     84  F   UNL A   1      47.440  34.912  31.701  1.00  0.00    -0.200 F 
ATOM     85  F   UNL A   1      47.358  36.916  29.854  1.00  0.00    -0.200 F 
ENDBRANCH  52  75
ENDBRANCH  26  27
ENDBRANCH  19  21
ENDBRANCH  18  19
ENDBRANCH   1  18
TORSDOF 12
ENDMDL
