MODEL 1
REMARK VINA RESULT:     -11.8      0.000      0.000
REMARK SMILES O=C(OCCOC(=O)c1ccc(-c2c3nc(c(-c4c(F)c(F)c(F)c(F)c4F)c4ccc([nH]4)c(-c4c(F)c(F)c(F)c(F)c4F)c4nc(c(-c5c(F)c(F)c(F)c(F)c5F)c5ccc2[nH]5)C=C4)C=C3)cc1)c1ccc(Cn2ccnc2C[NH2+]C2CC2)cc1
REMARK SMILES IDX 3 1 2 2 1 3 72 4 73 5 88 6 74 7 87 8 75 9 76 10 77 11 78 12
REMARK SMILES IDX 81 13 79 14 80 15 82 16 83 17 84 20 85 21 86 22 4 23 5 24
REMARK SMILES IDX 6 25 7 26 8 27 9 28 10 29 71 30 11 31 70 32 12 33 13 34
REMARK SMILES IDX 14 35 64 36 15 37 69 38 63 39 65 40 16 41 68 42 62 43 61 44
REMARK SMILES IDX 17 46 49 47 29 48 48 49 30 50 33 51 47 52 66 53 31 54 32 55
REMARK SMILES IDX 46 57 67 58 34 59 18 60 19 61 27 62 20 63 21 64 25 65 28 66
REMARK SMILES IDX 22 67 23 68 26 69 24 70 50 71 51 72 59 73 52 74 53 75 57 76
REMARK SMILES IDX 60 77 54 78 55 79 58 80 56 81 35 82 36 83 44 84 37 85 38 86
REMARK SMILES IDX 42 87 45 88 39 89 40 90 43 91 41 92
REMARK H PARENT 83 18 83 19 65 45 33 56
REMARK Flexibility Score: inf
ROOT
ATOM      1  O   UNL A   1      41.170  20.544  25.735  1.00  0.00    -0.458 OA
ENDROOT
BRANCH   1   2
ATOM      2  C   UNL A   1      40.324  21.238  26.537  1.00  0.00     0.338 C 
ATOM      3  O   UNL A   1      40.565  21.286  27.743  1.00  0.00    -0.246 OA
BRANCH   2   4
ATOM      4  C   UNL A   1      39.010  21.792  26.071  1.00  0.00     0.060 A 
ATOM      5  C   UNL A   1      38.005  21.071  25.437  1.00  0.00     0.016 A 
ATOM      6  C   UNL A   1      38.735  23.138  26.378  1.00  0.00     0.016 A 
ATOM      7  C   UNL A   1      36.720  21.590  25.306  1.00  0.00     0.006 A 
ATOM      8  C   UNL A   1      37.463  23.691  26.162  1.00  0.00     0.006 A 
ATOM      9  C   UNL A   1      36.417  22.892  25.702  1.00  0.00    -0.028 A 
BRANCH   9  10
ATOM     10  C   UNL A   1      34.986  23.369  25.664  1.00  0.00     0.159 C 
BRANCH  10  11
ATOM     11  N   UNL A   1      34.370  23.029  24.395  1.00  0.00    -0.326 N 
ATOM     12  C   UNL A   1      34.624  23.664  23.206  1.00  0.00     0.108 A 
ATOM     13  C   UNL A   1      33.384  22.099  24.171  1.00  0.00     0.164 A 
ATOM     14  C   UNL A   1      33.641  23.228  22.356  1.00  0.00     0.131 A 
ATOM     15  N   UNL A   1      32.894  22.251  22.953  1.00  0.00    -0.236 NA
BRANCH  13  16
ATOM     16  C   UNL A   1      33.028  21.018  25.140  1.00  0.00     0.337 C 
BRANCH  16  17
ATOM     17  N   UNL A   1      32.182  21.486  26.235  1.00  0.00    -0.338 N 
ATOM     18  H   UNL A   1      32.774  21.841  26.987  1.00  0.00     0.346 HD
ATOM     19  H   UNL A   1      31.615  20.706  26.567  1.00  0.00     0.346 HD
BRANCH  17  20
ATOM     20  C   UNL A   1      31.289  22.552  25.786  1.00  0.00     0.183 C 
ATOM     21  C   UNL A   1      30.104  22.950  26.613  1.00  0.00     0.071 C 
ATOM     22  C   UNL A   1      31.309  23.838  26.568  1.00  0.00     0.071 C 
ENDBRANCH  17  20
ENDBRANCH  16  17
ENDBRANCH  13  16
ENDBRANCH  10  11
ENDBRANCH   9  10
ENDBRANCH   2   4
ENDBRANCH   1   2
BRANCH   1  23
ATOM     23  C   UNL A   1      42.571  20.254  25.910  1.00  0.00     0.275 C 
BRANCH  23  24
ATOM     24  C   UNL A   1      43.500  21.354  25.368  1.00  0.00     0.275 C 
BRANCH  24  25
ATOM     25  O   UNL A   1      42.800  22.550  24.978  1.00  0.00    -0.458 OA
BRANCH  25  26
ATOM     26  C   UNL A   1      43.536  23.695  25.020  1.00  0.00     0.338 C 
ATOM     27  O   UNL A   1      44.460  23.984  24.288  1.00  0.00    -0.246 OA
BRANCH  26  28
ATOM     28  C   UNL A   1      42.969  24.637  26.022  1.00  0.00     0.060 A 
ATOM     29  C   UNL A   1      43.451  25.953  26.037  1.00  0.00     0.016 A 
ATOM     30  C   UNL A   1      41.989  24.255  26.942  1.00  0.00     0.016 A 
ATOM     31  C   UNL A   1      42.968  26.883  26.970  1.00  0.00     0.010 A 
ATOM     32  C   UNL A   1      41.502  25.189  27.869  1.00  0.00     0.010 A 
ATOM     33  C   UNL A   1      41.993  26.510  27.904  1.00  0.00    -0.014 A 
BRANCH  33  34
ATOM     34  C   UNL A   1      41.572  27.425  29.009  1.00  0.00     0.031 A 
ATOM     35  C   UNL A   1      42.300  27.353  30.325  1.00  0.00     0.074 A 
ATOM     36  C   UNL A   1      40.548  28.294  28.888  1.00  0.00     0.049 A 
ATOM     37  N   UNL A   1      42.052  27.974  31.451  1.00  0.00    -0.248 NA
ATOM     38  C   UNL A   1      43.467  26.461  30.373  1.00  0.00     0.031 C 
ATOM     39  C   UNL A   1      39.803  28.566  27.665  1.00  0.00     0.029 A 
ATOM     40  N   UNL A   1      39.945  29.104  29.823  1.00  0.00    -0.354 N 
ATOM     41  C   UNL A   1      43.028  27.545  32.340  1.00  0.00     0.074 A 
ATOM     42  C   UNL A   1      43.836  26.569  31.639  1.00  0.00     0.031 C 
ATOM     43  C   UNL A   1      38.814  29.440  27.926  1.00  0.00     0.029 A 
ATOM     44  C   UNL A   1      38.866  29.806  29.340  1.00  0.00     0.049 A 
ATOM     45  H   UNL A   1      40.260  29.176  30.754  1.00  0.00     0.167 HD
ATOM     46  C   UNL A   1      43.254  27.941  33.616  1.00  0.00     0.037 A 
ATOM     47  C   UNL A   1      38.025  30.656  29.960  1.00  0.00     0.037 A 
ATOM     48  C   UNL A   1      42.476  28.923  34.322  1.00  0.00     0.049 A 
ATOM     49  C   UNL A   1      38.219  30.989  31.417  1.00  0.00     0.074 A 
ATOM     50  C   UNL A   1      42.667  29.416  35.601  1.00  0.00     0.029 A 
ATOM     51  N   UNL A   1      41.352  29.556  33.816  1.00  0.00    -0.354 N 
ATOM     52  N   UNL A   1      39.161  30.598  32.238  1.00  0.00    -0.248 NA
ATOM     53  C   UNL A   1      37.236  31.900  32.027  1.00  0.00     0.031 C 
ATOM     54  C   UNL A   1      41.622  30.298  35.893  1.00  0.00     0.029 A 
ATOM     55  C   UNL A   1      40.815  30.403  34.773  1.00  0.00     0.049 A 
ATOM     56  H   UNL A   1      40.987  29.423  32.911  1.00  0.00     0.167 HD
ATOM     57  C   UNL A   1      38.920  31.256  33.438  1.00  0.00     0.074 A 
ATOM     58  C   UNL A   1      37.729  32.056  33.247  1.00  0.00     0.031 C 
ATOM     59  C   UNL A   1      39.638  31.212  34.585  1.00  0.00     0.037 A 
BRANCH  46  60
ATOM     60  C   UNL A   1      44.388  27.280  34.343  1.00  0.00     0.064 A 
ATOM     61  C   UNL A   1      44.215  26.084  35.054  1.00  0.00     0.173 A 
ATOM     62  C   UNL A   1      45.666  27.858  34.330  1.00  0.00     0.173 A 
ATOM     63  F   UNL A   1      43.008  25.500  35.107  1.00  0.00    -0.203 F 
ATOM     64  C   UNL A   1      45.266  25.516  35.766  1.00  0.00     0.198 A 
ATOM     65  C   UNL A   1      46.724  27.270  35.014  1.00  0.00     0.198 A 
ATOM     66  F   UNL A   1      45.886  28.999  33.658  1.00  0.00    -0.203 F 
ATOM     67  F   UNL A   1      45.061  24.412  36.497  1.00  0.00    -0.200 F 
ATOM     68  C   UNL A   1      46.521  26.107  35.742  1.00  0.00     0.200 A 
ATOM     69  F   UNL A   1      47.939  27.835  34.980  1.00  0.00    -0.200 F 
ATOM     70  F   UNL A   1      47.532  25.564  36.434  1.00  0.00    -0.200 F 
ENDBRANCH  46  60
BRANCH  47  71
ATOM     71  C   UNL A   1      36.924  31.318  29.213  1.00  0.00     0.064 A 
ATOM     72  C   UNL A   1      36.976  32.693  28.946  1.00  0.00     0.173 A 
ATOM     73  C   UNL A   1      35.764  30.622  28.852  1.00  0.00     0.173 A 
ATOM     74  F   UNL A   1      38.050  33.405  29.318  1.00  0.00    -0.203 F 
ATOM     75  C   UNL A   1      35.903  33.353  28.351  1.00  0.00     0.198 A 
ATOM     76  C   UNL A   1      34.687  31.288  28.269  1.00  0.00     0.198 A 
ATOM     77  F   UNL A   1      35.665  29.307  29.096  1.00  0.00    -0.203 F 
ATOM     78  F   UNL A   1      35.961  34.674  28.143  1.00  0.00    -0.200 F 
ATOM     79  C   UNL A   1      34.758  32.650  28.015  1.00  0.00     0.200 A 
ATOM     80  F   UNL A   1      33.558  30.627  27.991  1.00  0.00    -0.200 F 
ATOM     81  F   UNL A   1      33.712  33.284  27.467  1.00  0.00    -0.200 F 
ENDBRANCH  47  71
BRANCH  59  82
ATOM     82  C   UNL A   1      39.206  32.092  35.723  1.00  0.00     0.064 A 
ATOM     83  C   UNL A   1      39.649  33.416  35.848  1.00  0.00     0.173 A 
ATOM     84  C   UNL A   1      38.278  31.619  36.665  1.00  0.00     0.173 A 
ATOM     85  F   UNL A   1      40.549  33.910  34.986  1.00  0.00    -0.203 F 
ATOM     86  C   UNL A   1      39.183  34.233  36.876  1.00  0.00     0.198 A 
ATOM     87  C   UNL A   1      37.792  32.446  37.674  1.00  0.00     0.198 A 
ATOM     88  F   UNL A   1      37.822  30.360  36.590  1.00  0.00    -0.203 F 
ATOM     89  F   UNL A   1      39.641  35.487  36.994  1.00  0.00    -0.200 F 
ATOM     90  C   UNL A   1      38.247  33.751  37.781  1.00  0.00     0.200 A 
ATOM     91  F   UNL A   1      36.878  31.982  38.537  1.00  0.00    -0.200 F 
ATOM     92  F   UNL A   1      37.785  34.545  38.757  1.00  0.00    -0.200 F 
ENDBRANCH  59  82
ENDBRANCH  33  34
ENDBRANCH  26  28
ENDBRANCH  25  26
ENDBRANCH  24  25
ENDBRANCH  23  24
ENDBRANCH   1  23
TORSDOF 16
ENDMDL
MODEL 2
REMARK VINA RESULT:     -11.5      3.609      8.127
REMARK SMILES O=C(OCCOC(=O)c1ccc(-c2c3nc(c(-c4c(F)c(F)c(F)c(F)c4F)c4ccc([nH]4)c(-c4c(F)c(F)c(F)c(F)c4F)c4nc(c(-c5c(F)c(F)c(F)c(F)c5F)c5ccc2[nH]5)C=C4)C=C3)cc1)c1ccc(Cn2ccnc2C[NH2+]C2CC2)cc1
REMARK SMILES IDX 3 1 2 2 1 3 72 4 73 5 88 6 74 7 87 8 75 9 76 10 77 11 78 12
REMARK SMILES IDX 81 13 79 14 80 15 82 16 83 17 84 20 85 21 86 22 4 23 5 24
REMARK SMILES IDX 6 25 7 26 8 27 9 28 10 29 71 30 11 31 70 32 12 33 13 34
REMARK SMILES IDX 14 35 64 36 15 37 69 38 63 39 65 40 16 41 68 42 62 43 61 44
REMARK SMILES IDX 17 46 49 47 29 48 48 49 30 50 33 51 47 52 66 53 31 54 32 55
REMARK SMILES IDX 46 57 67 58 34 59 18 60 19 61 27 62 20 63 21 64 25 65 28 66
REMARK SMILES IDX 22 67 23 68 26 69 24 70 50 71 51 72 59 73 52 74 53 75 57 76
REMARK SMILES IDX 60 77 54 78 55 79 58 80 56 81 35 82 36 83 44 84 37 85 38 86
REMARK SMILES IDX 42 87 45 88 39 89 40 90 43 91 41 92
REMARK H PARENT 83 18 83 19 65 45 33 56
REMARK Flexibility Score: inf
ROOT
ATOM      1  O   UNL A   1      32.827  28.904  23.421  1.00  0.00    -0.458 OA
ENDROOT
BRANCH   1   2
ATOM      2  C   UNL A   1      33.264  27.698  22.982  1.00  0.00     0.338 C 
ATOM      3  O   UNL A   1      33.100  27.409  21.797  1.00  0.00    -0.246 OA
BRANCH   2   4
ATOM      4  C   UNL A   1      33.764  26.617  23.895  1.00  0.00     0.060 A 
ATOM      5  C   UNL A   1      33.887  26.713  25.276  1.00  0.00     0.016 A 
ATOM      6  C   UNL A   1      34.055  25.368  23.313  1.00  0.00     0.016 A 
ATOM      7  C   UNL A   1      34.078  25.581  26.063  1.00  0.00     0.006 A 
ATOM      8  C   UNL A   1      34.337  24.243  24.103  1.00  0.00     0.006 A 
ATOM      9  C   UNL A   1      34.266  24.322  25.493  1.00  0.00    -0.028 A 
BRANCH   9  10
ATOM     10  C   UNL A   1      34.337  23.104  26.381  1.00  0.00     0.159 C 
BRANCH  10  11
ATOM     11  N   UNL A   1      33.383  22.101  25.946  1.00  0.00    -0.326 N 
ATOM     12  C   UNL A   1      33.716  20.903  25.365  1.00  0.00     0.108 A 
ATOM     13  C   UNL A   1      32.013  22.198  25.952  1.00  0.00     0.164 A 
ATOM     14  C   UNL A   1      32.537  20.415  24.864  1.00  0.00     0.131 A 
ATOM     15  N   UNL A   1      31.491  21.208  25.247  1.00  0.00    -0.236 NA
BRANCH  13  16
ATOM     16  C   UNL A   1      31.256  23.213  26.745  1.00  0.00     0.337 C 
BRANCH  16  17
ATOM     17  N   UNL A   1      30.189  23.856  25.982  1.00  0.00    -0.338 N 
ATOM     18  H   UNL A   1      29.511  24.260  26.629  1.00  0.00     0.346 HD
ATOM     19  H   UNL A   1      29.743  23.156  25.390  1.00  0.00     0.346 HD
BRANCH  17  20
ATOM     20  C   UNL A   1      30.724  24.915  25.129  1.00  0.00     0.183 C 
ATOM     21  C   UNL A   1      30.453  24.911  23.654  1.00  0.00     0.071 C 
ATOM     22  C   UNL A   1      29.736  25.884  24.538  1.00  0.00     0.071 C 
ENDBRANCH  17  20
ENDBRANCH  16  17
ENDBRANCH  13  16
ENDBRANCH  10  11
ENDBRANCH   9  10
ENDBRANCH   2   4
ENDBRANCH   1   2
BRANCH   1  23
ATOM     23  C   UNL A   1      31.561  29.264  24.010  1.00  0.00     0.275 C 
BRANCH  23  24
ATOM     24  C   UNL A   1      31.690  29.910  25.401  1.00  0.00     0.275 C 
BRANCH  24  25
ATOM     25  O   UNL A   1      33.056  30.089  25.821  1.00  0.00    -0.458 OA
BRANCH  25  26
ATOM     26  C   UNL A   1      33.248  31.021  26.795  1.00  0.00     0.338 C 
ATOM     27  O   UNL A   1      32.454  31.870  27.146  1.00  0.00    -0.246 OA
BRANCH  26  28
ATOM     28  C   UNL A   1      34.542  30.783  27.490  1.00  0.00     0.060 A 
ATOM     29  C   UNL A   1      34.899  29.460  27.784  1.00  0.00     0.016 A 
ATOM     30  C   UNL A   1      35.397  31.822  27.860  1.00  0.00     0.016 A 
ATOM     31  C   UNL A   1      36.098  29.172  28.452  1.00  0.00     0.010 A 
ATOM     32  C   UNL A   1      36.601  31.533  28.521  1.00  0.00     0.010 A 
ATOM     33  C   UNL A   1      36.961  30.206  28.838  1.00  0.00    -0.014 A 
BRANCH  33  34
ATOM     34  C   UNL A   1      38.164  29.951  29.687  1.00  0.00     0.031 A 
ATOM     35  C   UNL A   1      39.216  28.997  29.186  1.00  0.00     0.074 A 
ATOM     36  C   UNL A   1      38.336  30.519  30.898  1.00  0.00     0.049 A 
ATOM     37  N   UNL A   1      40.290  28.549  29.786  1.00  0.00    -0.248 NA
ATOM     38  C   UNL A   1      39.027  28.481  27.823  1.00  0.00     0.031 C 
ATOM     39  C   UNL A   1      37.477  31.537  31.491  1.00  0.00     0.029 A 
ATOM     40  N   UNL A   1      39.298  30.305  31.859  1.00  0.00    -0.354 N 
ATOM     41  C   UNL A   1      40.902  27.698  28.876  1.00  0.00     0.074 A 
ATOM     42  C   UNL A   1      40.049  27.648  27.707  1.00  0.00     0.031 C 
ATOM     43  C   UNL A   1      37.915  31.827  32.730  1.00  0.00     0.029 A 
ATOM     44  C   UNL A   1      39.103  31.026  33.014  1.00  0.00     0.049 A 
ATOM     45  H   UNL A   1      40.058  29.692  31.731  1.00  0.00     0.167 HD
ATOM     46  C   UNL A   1      42.078  27.035  28.984  1.00  0.00     0.037 A 
ATOM     47  C   UNL A   1      39.807  31.049  34.162  1.00  0.00     0.037 A 
ATOM     48  C   UNL A   1      42.949  27.088  30.127  1.00  0.00     0.049 A 
ATOM     49  C   UNL A   1      41.048  30.206  34.309  1.00  0.00     0.074 A 
ATOM     50  C   UNL A   1      44.182  26.483  30.299  1.00  0.00     0.029 A 
ATOM     51  N   UNL A   1      42.677  27.775  31.299  1.00  0.00    -0.354 N 
ATOM     52  N   UNL A   1      41.629  29.428  33.432  1.00  0.00    -0.248 NA
ATOM     53  C   UNL A   1      41.739  30.264  35.608  1.00  0.00     0.031 C 
ATOM     54  C   UNL A   1      44.627  26.752  31.598  1.00  0.00     0.029 A 
ATOM     55  C   UNL A   1      43.700  27.576  32.213  1.00  0.00     0.049 A 
ATOM     56  H   UNL A   1      41.875  28.324  31.460  1.00  0.00     0.167 HD
ATOM     57  C   UNL A   1      42.780  28.951  34.048  1.00  0.00     0.074 A 
ATOM     58  C   UNL A   1      42.805  29.509  35.383  1.00  0.00     0.031 C 
ATOM     59  C   UNL A   1      43.737  28.139  33.539  1.00  0.00     0.037 A 
BRANCH  46  60
ATOM     60  C   UNL A   1      42.479  26.166  27.828  1.00  0.00     0.064 A 
ATOM     61  C   UNL A   1      43.373  26.611  26.843  1.00  0.00     0.173 A 
ATOM     62  C   UNL A   1      41.954  24.872  27.705  1.00  0.00     0.173 A 
ATOM     63  F   UNL A   1      43.891  27.847  26.910  1.00  0.00    -0.203 F 
ATOM     64  C   UNL A   1      43.689  25.809  25.750  1.00  0.00     0.198 A 
ATOM     65  C   UNL A   1      42.299  24.059  26.630  1.00  0.00     0.198 A 
ATOM     66  F   UNL A   1      41.100  24.397  28.625  1.00  0.00    -0.203 F 
ATOM     67  F   UNL A   1      44.488  26.280  24.784  1.00  0.00    -0.200 F 
ATOM     68  C   UNL A   1      43.155  24.533  25.647  1.00  0.00     0.200 A 
ATOM     69  F   UNL A   1      41.792  22.822  26.537  1.00  0.00    -0.200 F 
ATOM     70  F   UNL A   1      43.454  23.764  24.591  1.00  0.00    -0.200 F 
ENDBRANCH  46  60
BRANCH  47  71
ATOM     71  C   UNL A   1      39.405  31.937  35.284  1.00  0.00     0.064 A 
ATOM     72  C   UNL A   1      38.540  31.469  36.284  1.00  0.00     0.173 A 
ATOM     73  C   UNL A   1      39.784  33.284  35.321  1.00  0.00     0.173 A 
ATOM     74  F   UNL A   1      38.117  30.197  36.257  1.00  0.00    -0.203 F 
ATOM     75  C   UNL A   1      38.060  32.319  37.277  1.00  0.00     0.198 A 
ATOM     76  C   UNL A   1      39.291  34.135  36.309  1.00  0.00     0.198 A 
ATOM     77  F   UNL A   1      40.602  33.779  34.381  1.00  0.00    -0.203 F 
ATOM     78  F   UNL A   1      37.204  31.858  38.197  1.00  0.00    -0.200 F 
ATOM     79  C   UNL A   1      38.435  33.653  37.288  1.00  0.00     0.200 A 
ATOM     80  F   UNL A   1      39.605  35.435  36.296  1.00  0.00    -0.200 F 
ATOM     81  F   UNL A   1      37.955  34.481  38.226  1.00  0.00    -0.200 F 
ENDBRANCH  47  71
BRANCH  59  82
ATOM     82  C   UNL A   1      44.935  27.836  34.393  1.00  0.00     0.064 A 
ATOM     83  C   UNL A   1      45.012  26.679  35.180  1.00  0.00     0.173 A 
ATOM     84  C   UNL A   1      46.051  28.687  34.366  1.00  0.00     0.173 A 
ATOM     85  F   UNL A   1      43.966  25.843  35.255  1.00  0.00    -0.203 F 
ATOM     86  C   UNL A   1      46.161  26.387  35.912  1.00  0.00     0.198 A 
ATOM     87  C   UNL A   1      47.208  28.378  35.076  1.00  0.00     0.198 A 
ATOM     88  F   UNL A   1      46.029  29.807  33.628  1.00  0.00    -0.203 F 
ATOM     89  F   UNL A   1      46.203  25.289  36.681  1.00  0.00    -0.200 F 
ATOM     90  C   UNL A   1      47.261  27.230  35.851  1.00  0.00     0.200 A 
ATOM     91  F   UNL A   1      48.274  29.188  35.003  1.00  0.00    -0.200 F 
ATOM     92  F   UNL A   1      48.373  26.936  36.541  1.00  0.00    -0.200 F 
ENDBRANCH  59  82
ENDBRANCH  33  34
ENDBRANCH  26  28
ENDBRANCH  25  26
ENDBRANCH  24  25
ENDBRANCH  23  24
ENDBRANCH   1  23
TORSDOF 16
ENDMDL
MODEL 3
REMARK VINA RESULT:     -11.4      4.457      6.804
REMARK SMILES O=C(OCCOC(=O)c1ccc(-c2c3nc(c(-c4c(F)c(F)c(F)c(F)c4F)c4ccc([nH]4)c(-c4c(F)c(F)c(F)c(F)c4F)c4nc(c(-c5c(F)c(F)c(F)c(F)c5F)c5ccc2[nH]5)C=C4)C=C3)cc1)c1ccc(Cn2ccnc2C[NH2+]C2CC2)cc1
REMARK SMILES IDX 3 1 2 2 1 3 72 4 73 5 88 6 74 7 87 8 75 9 76 10 77 11 78 12
REMARK SMILES IDX 81 13 79 14 80 15 82 16 83 17 84 20 85 21 86 22 4 23 5 24
REMARK SMILES IDX 6 25 7 26 8 27 9 28 10 29 71 30 11 31 70 32 12 33 13 34
REMARK SMILES IDX 14 35 64 36 15 37 69 38 63 39 65 40 16 41 68 42 62 43 61 44
REMARK SMILES IDX 17 46 49 47 29 48 48 49 30 50 33 51 47 52 66 53 31 54 32 55
REMARK SMILES IDX 46 57 67 58 34 59 18 60 19 61 27 62 20 63 21 64 25 65 28 66
REMARK SMILES IDX 22 67 23 68 26 69 24 70 50 71 51 72 59 73 52 74 53 75 57 76
REMARK SMILES IDX 60 77 54 78 55 79 58 80 56 81 35 82 36 83 44 84 37 85 38 86
REMARK SMILES IDX 42 87 45 88 39 89 40 90 43 91 41 92
REMARK H PARENT 83 18 83 19 65 45 33 56
REMARK Flexibility Score: inf
ROOT
ATOM      1  O   UNL A   1      38.793  21.344  25.031  1.00  0.00    -0.458 OA
ENDROOT
BRANCH   1   2
ATOM      2  C   UNL A   1      38.184  22.431  25.566  1.00  0.00     0.338 C 
ATOM      3  O   UNL A   1      38.522  22.800  26.691  1.00  0.00    -0.246 OA
BRANCH   2   4
ATOM      4  C   UNL A   1      36.991  23.099  24.948  1.00  0.00     0.060 A 
ATOM      5  C   UNL A   1      36.534  22.905  23.650  1.00  0.00     0.016 A 
ATOM      6  C   UNL A   1      36.218  23.931  25.781  1.00  0.00     0.016 A 
ATOM      7  C   UNL A   1      35.268  23.335  23.261  1.00  0.00     0.006 A 
ATOM      8  C   UNL A   1      34.981  24.441  25.357  1.00  0.00     0.006 A 
ATOM      9  C   UNL A   1      34.455  24.074  24.119  1.00  0.00    -0.028 A 
BRANCH   9  10
ATOM     10  C   UNL A   1      33.042  24.406  23.705  1.00  0.00     0.159 C 
BRANCH  10  11
ATOM     11  N   UNL A   1      32.283  24.899  24.840  1.00  0.00    -0.326 N 
ATOM     12  C   UNL A   1      32.250  26.207  25.252  1.00  0.00     0.108 A 
ATOM     13  C   UNL A   1      31.551  24.158  25.735  1.00  0.00     0.164 A 
ATOM     14  C   UNL A   1      31.664  26.171  26.491  1.00  0.00     0.131 A 
ATOM     15  N   UNL A   1      31.220  24.909  26.772  1.00  0.00    -0.236 NA
BRANCH  13  16
ATOM     16  C   UNL A   1      31.113  22.751  25.487  1.00  0.00     0.337 C 
BRANCH  16  17
ATOM     17  N   UNL A   1      32.006  21.760  26.083  1.00  0.00    -0.338 N 
ATOM     18  H   UNL A   1      31.462  21.129  26.671  1.00  0.00     0.346 HD
ATOM     19  H   UNL A   1      32.710  22.247  26.639  1.00  0.00     0.346 HD
BRANCH  17  20
ATOM     20  C   UNL A   1      32.686  20.982  25.049  1.00  0.00     0.183 C 
ATOM     21  C   UNL A   1      34.069  20.453  25.283  1.00  0.00     0.071 C 
ATOM     22  C   UNL A   1      32.899  19.518  25.323  1.00  0.00     0.071 C 
ENDBRANCH  17  20
ENDBRANCH  16  17
ENDBRANCH  13  16
ENDBRANCH  10  11
ENDBRANCH   9  10
ENDBRANCH   2   4
ENDBRANCH   1   2
BRANCH   1  23
ATOM     23  C   UNL A   1      38.480  19.946  25.189  1.00  0.00     0.275 C 
BRANCH  23  24
ATOM     24  C   UNL A   1      39.482  19.186  26.074  1.00  0.00     0.275 C 
BRANCH  24  25
ATOM     25  O   UNL A   1      40.816  19.159  25.531  1.00  0.00    -0.458 OA
BRANCH  25  26
ATOM     26  C   UNL A   1      41.815  19.387  26.427  1.00  0.00     0.338 C 
ATOM     27  O   UNL A   1      42.583  18.561  26.875  1.00  0.00    -0.246 OA
BRANCH  26  28
ATOM     28  C   UNL A   1      41.937  20.843  26.704  1.00  0.00     0.060 A 
ATOM     29  C   UNL A   1      41.941  21.724  25.613  1.00  0.00     0.016 A 
ATOM     30  C   UNL A   1      42.054  21.355  27.998  1.00  0.00     0.016 A 
ATOM     31  C   UNL A   1      42.071  23.107  25.809  1.00  0.00     0.010 A 
ATOM     32  C   UNL A   1      42.176  22.739  28.193  1.00  0.00     0.010 A 
ATOM     33  C   UNL A   1      42.199  23.632  27.101  1.00  0.00    -0.014 A 
BRANCH  33  34
ATOM     34  C   UNL A   1      42.497  25.078  27.337  1.00  0.00     0.031 A 
ATOM     35  C   UNL A   1      43.850  25.612  26.949  1.00  0.00     0.074 A 
ATOM     36  C   UNL A   1      41.613  25.921  27.910  1.00  0.00     0.049 A 
ATOM     37  N   UNL A   1      44.367  26.798  27.144  1.00  0.00    -0.248 NA
ATOM     38  C   UNL A   1      44.737  24.677  26.242  1.00  0.00     0.031 C 
ATOM     39  C   UNL A   1      40.233  25.604  28.253  1.00  0.00     0.029 A 
ATOM     40  N   UNL A   1      41.758  27.227  28.318  1.00  0.00    -0.354 N 
ATOM     41  C   UNL A   1      45.638  26.751  26.589  1.00  0.00     0.074 A 
ATOM     42  C   UNL A   1      45.835  25.403  26.101  1.00  0.00     0.031 C 
ATOM     43  C   UNL A   1      39.667  26.661  28.863  1.00  0.00     0.029 A 
ATOM     44  C   UNL A   1      40.645  27.745  28.937  1.00  0.00     0.049 A 
ATOM     45  H   UNL A   1      42.584  27.745  28.178  1.00  0.00     0.167 HD
ATOM     46  C   UNL A   1      46.554  27.742  26.469  1.00  0.00     0.037 A 
ATOM     47  C   UNL A   1      40.431  28.955  29.489  1.00  0.00     0.037 A 
ATOM     48  C   UNL A   1      46.370  29.093  26.928  1.00  0.00     0.049 A 
ATOM     49  C   UNL A   1      41.511  30.006  29.455  1.00  0.00     0.074 A 
ATOM     50  C   UNL A   1      47.231  30.169  26.804  1.00  0.00     0.029 A 
ATOM     51  N   UNL A   1      45.255  29.552  27.611  1.00  0.00    -0.354 N 
ATOM     52  N   UNL A   1      42.697  29.957  28.904  1.00  0.00    -0.248 NA
ATOM     53  C   UNL A   1      41.209  31.290  30.110  1.00  0.00     0.031 C 
ATOM     54  C   UNL A   1      46.665  31.263  27.467  1.00  0.00     0.029 A 
ATOM     55  C   UNL A   1      45.424  30.885  27.950  1.00  0.00     0.049 A 
ATOM     56  H   UNL A   1      44.460  29.011  27.825  1.00  0.00     0.167 HD
ATOM     57  C   UNL A   1      43.258  31.215  29.093  1.00  0.00     0.074 A 
ATOM     58  C   UNL A   1      42.292  32.000  29.830  1.00  0.00     0.031 C 
ATOM     59  C   UNL A   1      44.460  31.676  28.671  1.00  0.00     0.037 A 
BRANCH  46  60
ATOM     60  C   UNL A   1      47.864  27.384  25.830  1.00  0.00     0.064 A 
ATOM     61  C   UNL A   1      48.960  26.943  26.585  1.00  0.00     0.173 A 
ATOM     62  C   UNL A   1      48.022  27.492  24.440  1.00  0.00     0.173 A 
ATOM     63  F   UNL A   1      48.862  26.837  27.919  1.00  0.00    -0.203 F 
ATOM     64  C   UNL A   1      50.182  26.668  25.979  1.00  0.00     0.198 A 
ATOM     65  C   UNL A   1      49.234  27.182  23.833  1.00  0.00     0.198 A 
ATOM     66  F   UNL A   1      47.001  27.902  23.672  1.00  0.00    -0.203 F 
ATOM     67  F   UNL A   1      51.236  26.317  26.727  1.00  0.00    -0.200 F 
ATOM     68  C   UNL A   1      50.317  26.784  24.603  1.00  0.00     0.200 A 
ATOM     69  F   UNL A   1      49.360  27.283  22.502  1.00  0.00    -0.200 F 
ATOM     70  F   UNL A   1      51.496  26.526  24.020  1.00  0.00    -0.200 F 
ENDBRANCH  46  60
BRANCH  47  71
ATOM     71  C   UNL A   1      39.118  29.295  30.094  1.00  0.00     0.064 A 
ATOM     72  C   UNL A   1      38.160  30.005  29.356  1.00  0.00     0.173 A 
ATOM     73  C   UNL A   1      38.838  29.017  31.437  1.00  0.00     0.173 A 
ATOM     74  F   UNL A   1      38.409  30.331  28.080  1.00  0.00    -0.203 F 
ATOM     75  C   UNL A   1      36.971  30.434  29.942  1.00  0.00     0.198 A 
ATOM     76  C   UNL A   1      37.653  29.460  32.024  1.00  0.00     0.198 A 
ATOM     77  F   UNL A   1      39.728  28.349  32.186  1.00  0.00    -0.203 F 
ATOM     78  F   UNL A   1      36.090  31.145  29.227  1.00  0.00    -0.200 F 
ATOM     79  C   UNL A   1      36.719  30.162  31.277  1.00  0.00     0.200 A 
ATOM     80  F   UNL A   1      37.427  29.249  33.325  1.00  0.00    -0.200 F 
ATOM     81  F   UNL A   1      35.590  30.596  31.853  1.00  0.00    -0.200 F 
ENDBRANCH  47  71
BRANCH  59  82
ATOM     82  C   UNL A   1      44.796  33.116  28.936  1.00  0.00     0.064 A 
ATOM     83  C   UNL A   1      45.523  33.512  30.068  1.00  0.00     0.173 A 
ATOM     84  C   UNL A   1      44.445  34.104  28.004  1.00  0.00     0.173 A 
ATOM     85  F   UNL A   1      45.868  32.610  30.998  1.00  0.00    -0.203 F 
ATOM     86  C   UNL A   1      45.881  34.846  30.258  1.00  0.00     0.198 A 
ATOM     87  C   UNL A   1      44.827  35.431  28.182  1.00  0.00     0.198 A 
ATOM     88  F   UNL A   1      43.750  33.778  26.904  1.00  0.00    -0.203 F 
ATOM     89  F   UNL A   1      46.550  35.208  31.361  1.00  0.00    -0.200 F 
ATOM     90  C   UNL A   1      45.542  35.801  29.310  1.00  0.00     0.200 A 
ATOM     91  F   UNL A   1      44.511  36.349  27.258  1.00  0.00    -0.200 F 
ATOM     92  F   UNL A   1      45.904  37.080  29.486  1.00  0.00    -0.200 F 
ENDBRANCH  59  82
ENDBRANCH  33  34
ENDBRANCH  26  28
ENDBRANCH  25  26
ENDBRANCH  24  25
ENDBRANCH  23  24
ENDBRANCH   1  23
TORSDOF 16
ENDMDL
