MODEL 1
REMARK VINA RESULT:     -12.6      0.000      0.000
REMARK SMILES CC[NH+]1CC[NH+]([C@@H]2CC(=O)N(c3ccc(C(=O)OCCOC(=O)c4ccc(-c5c6nc(c(-c7c(F)c(F)c(F)c(F)c7F)c7ccc([nH]7)c(-c7c(F)c(F)c(F)c(F)c7F)c7nc(c(-c8c(F)c(F)c(F)c(F)c8F)c8ccc5[nH]8)C=C7)C=C6)cc4)cc3)C2=O)CC1
REMARK SMILES IDX 19 1 18 2 16 3 17 4 15 5 12 6 13 7 88 8 14 9 87 10 11 11
REMARK SMILES IDX 7 12 8 13 89 14 9 15 90 16 10 17 6 18 3 19 4 20 92 21 5 23
REMARK SMILES IDX 91 24 2 26 1 27 20 28 21 29 22 30 23 31 24 32 25 33 86 34
REMARK SMILES IDX 26 35 85 36 27 37 28 38 29 39 79 40 30 41 84 42 78 43 80 44
REMARK SMILES IDX 31 45 83 46 77 47 76 48 32 50 64 51 44 52 63 53 45 54 48 55
REMARK SMILES IDX 62 56 81 57 46 58 47 59 61 61 82 62 49 63 33 64 34 65 42 66
REMARK SMILES IDX 35 67 36 68 40 69 43 70 37 71 38 72 41 73 39 74 65 75 66 76
REMARK SMILES IDX 74 77 67 78 68 79 72 80 75 81 69 82 70 83 73 84 71 85 50 86
REMARK SMILES IDX 51 87 59 88 52 89 53 90 57 91 60 92 54 93 55 94 58 95 56 96
REMARK H PARENT 3 22 6 25 80 49 48 60
REMARK Flexibility Score: inf
ROOT
ATOM      1  C   UNL A   1      42.810  20.886  26.147  1.00  0.00     0.275 C 
ENDROOT
BRANCH   1   2
ATOM      2  O   UNL A   1      41.424  20.936  25.751  1.00  0.00    -0.458 OA
BRANCH   2   3
ATOM      3  C   UNL A   1      40.553  21.245  26.740  1.00  0.00     0.338 C 
ATOM      4  O   UNL A   1      40.770  21.246  27.941  1.00  0.00    -0.246 OA
BRANCH   3   5
ATOM      5  C   UNL A   1      39.268  21.693  26.170  1.00  0.00     0.060 A 
ATOM      6  C   UNL A   1      36.732  22.591  25.331  1.00  0.00     0.052 A 
ATOM      7  C   UNL A   1      37.645  23.471  25.923  1.00  0.00     0.028 A 
ATOM      8  C   UNL A   1      37.127  21.257  25.137  1.00  0.00     0.028 A 
ATOM      9  C   UNL A   1      38.883  23.018  26.368  1.00  0.00     0.018 A 
ATOM     10  C   UNL A   1      38.399  20.811  25.531  1.00  0.00     0.018 A 
BRANCH   6  11
ATOM     11  N   UNL A   1      35.417  23.049  25.051  1.00  0.00    -0.245 N 
ATOM     12  C   UNL A   1      33.682  24.221  23.971  1.00  0.00     0.285 C 
ATOM     13  C   UNL A   1      33.261  23.899  25.395  1.00  0.00     0.176 C 
ATOM     14  C   UNL A   1      35.015  23.507  23.814  1.00  0.00     0.292 C 
ATOM     15  C   UNL A   1      34.425  23.167  25.991  1.00  0.00     0.240 C 
ATOM     16  O   UNL A   1      35.601  23.379  22.745  1.00  0.00    -0.267 OA
ATOM     17  O   UNL A   1      34.433  22.806  27.161  1.00  0.00    -0.274 OA
BRANCH  12  18
ATOM     18  N   UNL A   1      33.783  25.625  23.536  1.00  0.00    -0.315 N 
ATOM     19  N   UNL A   1      31.360  27.369  23.153  1.00  0.00    -0.326 N 
ATOM     20  C   UNL A   1      31.782  26.394  22.140  1.00  0.00     0.324 C 
ATOM     21  C   UNL A   1      31.931  27.106  24.476  1.00  0.00     0.324 C 
ATOM     22  H   UNL A   1      30.358  27.215  23.266  1.00  0.00     0.348 HD
ATOM     23  C   UNL A   1      33.251  25.911  22.200  1.00  0.00     0.325 C 
ATOM     24  C   UNL A   1      33.413  26.675  24.492  1.00  0.00     0.325 C 
ATOM     25  H   UNL A   1      34.800  25.689  23.484  1.00  0.00     0.349 HD
BRANCH  19  26
ATOM     26  C   UNL A   1      31.415  28.768  22.722  1.00  0.00     0.259 C 
ATOM     27  C   UNL A   1      30.097  29.504  22.521  1.00  0.00     0.071 C 
ENDBRANCH  19  26
ENDBRANCH  12  18
ENDBRANCH   6  11
ENDBRANCH   3   5
ENDBRANCH   2   3
ENDBRANCH   1   2
BRANCH   1  28
ATOM     28  C   UNL A   1      43.660  21.812  25.277  1.00  0.00     0.275 C 
BRANCH  28  29
ATOM     29  O   UNL A   1      42.918  23.006  24.962  1.00  0.00    -0.458 OA
BRANCH  29  30
ATOM     30  C   UNL A   1      43.617  24.163  25.002  1.00  0.00     0.338 C 
ATOM     31  O   UNL A   1      44.621  24.447  24.372  1.00  0.00    -0.246 OA
BRANCH  30  32
ATOM     32  C   UNL A   1      42.989  25.100  25.953  1.00  0.00     0.060 A 
ATOM     33  C   UNL A   1      43.353  26.443  25.953  1.00  0.00     0.016 A 
ATOM     34  C   UNL A   1      42.140  24.615  26.946  1.00  0.00     0.016 A 
ATOM     35  C   UNL A   1      42.985  27.271  27.012  1.00  0.00     0.010 A 
ATOM     36  C   UNL A   1      41.664  25.482  27.937  1.00  0.00     0.010 A 
ATOM     37  C   UNL A   1      42.120  26.811  28.015  1.00  0.00    -0.014 A 
BRANCH  37  38
ATOM     38  C   UNL A   1      41.723  27.694  29.154  1.00  0.00     0.031 A 
ATOM     39  C   UNL A   1      42.535  27.705  30.426  1.00  0.00     0.074 A 
ATOM     40  C   UNL A   1      40.644  28.499  29.064  1.00  0.00     0.049 A 
ATOM     41  N   UNL A   1      42.245  28.228  31.593  1.00  0.00    -0.248 NA
ATOM     42  C   UNL A   1      43.838  27.022  30.389  1.00  0.00     0.031 C 
ATOM     43  C   UNL A   1      39.780  28.636  27.891  1.00  0.00     0.029 A 
ATOM     44  N   UNL A   1      40.094  29.365  29.979  1.00  0.00    -0.354 N 
ATOM     45  C   UNL A   1      43.288  27.872  32.441  1.00  0.00     0.074 A 
ATOM     46  C   UNL A   1      44.224  27.098  31.655  1.00  0.00     0.031 C 
ATOM     47  C   UNL A   1      38.847  29.567  28.136  1.00  0.00     0.029 A 
ATOM     48  C   UNL A   1      38.982  30.023  29.514  1.00  0.00     0.049 A 
ATOM     49  H   UNL A   1      40.462  29.501  30.882  1.00  0.00     0.167 HD
ATOM     50  C   UNL A   1      43.446  28.163  33.755  1.00  0.00     0.037 A 
ATOM     51  C   UNL A   1      38.132  30.866  30.134  1.00  0.00     0.037 A 
ATOM     52  C   UNL A   1      42.560  29.002  34.520  1.00  0.00     0.049 A 
ATOM     53  C   UNL A   1      38.334  31.180  31.588  1.00  0.00     0.074 A 
ATOM     54  C   UNL A   1      42.649  29.366  35.852  1.00  0.00     0.029 A 
ATOM     55  N   UNL A   1      41.438  29.634  34.008  1.00  0.00    -0.354 N 
ATOM     56  N   UNL A   1      39.276  30.769  32.400  1.00  0.00    -0.248 NA
ATOM     57  C   UNL A   1      37.336  32.057  32.220  1.00  0.00     0.031 C 
ATOM     58  C   UNL A   1      41.567  30.201  36.154  1.00  0.00     0.029 A 
ATOM     59  C   UNL A   1      40.824  30.385  35.000  1.00  0.00     0.049 A 
ATOM     60  H   UNL A   1      41.122  29.563  33.078  1.00  0.00     0.167 HD
ATOM     61  C   UNL A   1      38.986  31.331  33.634  1.00  0.00     0.074 A 
ATOM     62  C   UNL A   1      37.796  32.137  33.460  1.00  0.00     0.031 C 
ATOM     63  C   UNL A   1      39.642  31.183  34.810  1.00  0.00     0.037 A 
BRANCH  50  64
ATOM     64  C   UNL A   1      44.609  27.538  34.470  1.00  0.00     0.064 A 
ATOM     65  C   UNL A   1      44.494  26.320  35.154  1.00  0.00     0.173 A 
ATOM     66  C   UNL A   1      45.870  28.154  34.429  1.00  0.00     0.173 A 
ATOM     67  F   UNL A   1      43.309  25.698  35.231  1.00  0.00    -0.203 F 
ATOM     68  C   UNL A   1      45.596  25.750  35.788  1.00  0.00     0.198 A 
ATOM     69  C   UNL A   1      46.974  27.569  35.042  1.00  0.00     0.198 A 
ATOM     70  F   UNL A   1      46.034  29.317  33.781  1.00  0.00    -0.203 F 
ATOM     71  F   UNL A   1      45.459  24.603  36.467  1.00  0.00    -0.200 F 
ATOM     72  C   UNL A   1      46.836  26.371  35.726  1.00  0.00     0.200 A 
ATOM     73  F   UNL A   1      48.173  28.164  34.970  1.00  0.00    -0.200 F 
ATOM     74  F   UNL A   1      47.896  25.817  36.329  1.00  0.00    -0.200 F 
ENDBRANCH  50  64
BRANCH  51  75
ATOM     75  C   UNL A   1      36.986  31.440  29.382  1.00  0.00     0.064 A 
ATOM     76  C   UNL A   1      35.884  30.647  29.038  1.00  0.00     0.173 A 
ATOM     77  C   UNL A   1      36.965  32.791  29.006  1.00  0.00     0.173 A 
ATOM     78  F   UNL A   1      35.872  29.343  29.352  1.00  0.00    -0.203 F 
ATOM     79  C   UNL A   1      34.802  31.185  28.343  1.00  0.00     0.198 A 
ATOM     80  C   UNL A   1      35.870  33.333  28.337  1.00  0.00     0.198 A 
ATOM     81  F   UNL A   1      37.998  33.589  29.310  1.00  0.00    -0.203 F 
ATOM     82  F   UNL A   1      33.775  30.399  27.996  1.00  0.00    -0.200 F 
ATOM     83  C   UNL A   1      34.792  32.529  28.002  1.00  0.00     0.200 A 
ATOM     84  F   UNL A   1      35.859  34.636  28.022  1.00  0.00    -0.200 F 
ATOM     85  F   UNL A   1      33.746  33.048  27.345  1.00  0.00    -0.200 F 
ENDBRANCH  51  75
BRANCH  63  86
ATOM     86  C   UNL A   1      39.096  31.922  35.994  1.00  0.00     0.064 A 
ATOM     87  C   UNL A   1      38.189  31.319  36.876  1.00  0.00     0.173 A 
ATOM     88  C   UNL A   1      39.502  33.237  36.260  1.00  0.00     0.173 A 
ATOM     89  F   UNL A   1      37.759  30.069  36.651  1.00  0.00    -0.203 F 
ATOM     90  C   UNL A   1      37.691  32.015  37.974  1.00  0.00     0.198 A 
ATOM     91  C   UNL A   1      39.019  33.923  37.371  1.00  0.00     0.198 A 
ATOM     92  F   UNL A   1      40.371  33.856  35.446  1.00  0.00    -0.203 F 
ATOM     93  F   UNL A   1      36.794  31.435  38.783  1.00  0.00    -0.200 F 
ATOM     94  C   UNL A   1      38.111  33.314  38.223  1.00  0.00     0.200 A 
ATOM     95  F   UNL A   1      39.429  35.175  37.614  1.00  0.00    -0.200 F 
ATOM     96  F   UNL A   1      37.630  33.982  39.281  1.00  0.00    -0.200 F 
ENDBRANCH  63  86
ENDBRANCH  37  38
ENDBRANCH  30  32
ENDBRANCH  29  30
ENDBRANCH  28  29
ENDBRANCH   1  28
TORSDOF 14
ENDMDL
MODEL 2
REMARK VINA RESULT:     -12.5      0.599      1.709
REMARK SMILES CC[NH+]1CC[NH+]([C@@H]2CC(=O)N(c3ccc(C(=O)OCCOC(=O)c4ccc(-c5c6nc(c(-c7c(F)c(F)c(F)c(F)c7F)c7ccc([nH]7)c(-c7c(F)c(F)c(F)c(F)c7F)c7nc(c(-c8c(F)c(F)c(F)c(F)c8F)c8ccc5[nH]8)C=C7)C=C6)cc4)cc3)C2=O)CC1
REMARK SMILES IDX 19 1 18 2 16 3 17 4 15 5 12 6 13 7 88 8 14 9 87 10 11 11
REMARK SMILES IDX 7 12 8 13 89 14 9 15 90 16 10 17 6 18 3 19 4 20 92 21 5 23
REMARK SMILES IDX 91 24 2 26 1 27 20 28 21 29 22 30 23 31 24 32 25 33 86 34
REMARK SMILES IDX 26 35 85 36 27 37 28 38 29 39 79 40 30 41 84 42 78 43 80 44
REMARK SMILES IDX 31 45 83 46 77 47 76 48 32 50 64 51 44 52 63 53 45 54 48 55
REMARK SMILES IDX 62 56 81 57 46 58 47 59 61 61 82 62 49 63 33 64 34 65 42 66
REMARK SMILES IDX 35 67 36 68 40 69 43 70 37 71 38 72 41 73 39 74 65 75 66 76
REMARK SMILES IDX 74 77 67 78 68 79 72 80 75 81 69 82 70 83 73 84 71 85 50 86
REMARK SMILES IDX 51 87 59 88 52 89 53 90 57 91 60 92 54 93 55 94 58 95 56 96
REMARK H PARENT 3 22 6 25 80 49 48 60
REMARK Flexibility Score: inf
ROOT
ATOM      1  C   UNL A   1      42.633  20.764  26.585  1.00  0.00     0.275 C 
ENDROOT
BRANCH   1   2
ATOM      2  O   UNL A   1      41.224  21.075  26.615  1.00  0.00    -0.458 OA
BRANCH   2   3
ATOM      3  C   UNL A   1      40.422  20.170  26.007  1.00  0.00     0.338 C 
ATOM      4  O   UNL A   1      40.646  18.983  25.833  1.00  0.00    -0.246 OA
BRANCH   3   5
ATOM      5  C   UNL A   1      39.134  20.792  25.641  1.00  0.00     0.060 A 
ATOM      6  C   UNL A   1      36.626  22.000  25.203  1.00  0.00     0.052 A 
ATOM      7  C   UNL A   1      37.683  22.723  25.767  1.00  0.00     0.028 A 
ATOM      8  C   UNL A   1      36.860  20.665  24.831  1.00  0.00     0.028 A 
ATOM      9  C   UNL A   1      38.910  22.116  26.014  1.00  0.00     0.018 A 
ATOM     10  C   UNL A   1      38.115  20.067  25.025  1.00  0.00     0.018 A 
BRANCH   6  11
ATOM     11  N   UNL A   1      35.342  22.601  25.128  1.00  0.00    -0.245 N 
ATOM     12  C   UNL A   1      33.649  24.088  24.439  1.00  0.00     0.285 C 
ATOM     13  C   UNL A   1      33.301  23.529  25.809  1.00  0.00     0.176 C 
ATOM     14  C   UNL A   1      34.897  23.319  24.038  1.00  0.00     0.292 C 
ATOM     15  C   UNL A   1      34.433  22.610  26.155  1.00  0.00     0.240 C 
ATOM     16  O   UNL A   1      35.393  23.357  22.917  1.00  0.00    -0.267 OA
ATOM     17  O   UNL A   1      34.490  22.029  27.232  1.00  0.00    -0.274 OA
BRANCH  12  18
ATOM     18  N   UNL A   1      33.846  25.538  24.268  1.00  0.00    -0.315 N 
ATOM     19  N   UNL A   1      31.550  27.485  24.259  1.00  0.00    -0.326 N 
ATOM     20  C   UNL A   1      31.896  26.686  23.076  1.00  0.00     0.324 C 
ATOM     21  C   UNL A   1      32.110  26.943  25.500  1.00  0.00     0.324 C 
ATOM     22  H   UNL A   1      30.541  27.381  24.362  1.00  0.00     0.348 HD
ATOM     23  C   UNL A   1      33.326  26.101  23.018  1.00  0.00     0.325 C 
ATOM     24  C   UNL A   1      33.557  26.417  25.408  1.00  0.00     0.325 C 
ATOM     25  H   UNL A   1      34.865  25.541  24.209  1.00  0.00     0.349 HD
BRANCH  19  26
ATOM     26  C   UNL A   1      31.701  28.932  24.091  1.00  0.00     0.259 C 
ATOM     27  C   UNL A   1      32.041  29.761  25.322  1.00  0.00     0.071 C 
ENDBRANCH  19  26
ENDBRANCH  12  18
ENDBRANCH   6  11
ENDBRANCH   3   5
ENDBRANCH   2   3
ENDBRANCH   1   2
BRANCH   1  28
ATOM     28  C   UNL A   1      43.307  21.409  25.373  1.00  0.00     0.275 C 
BRANCH  28  29
ATOM     29  O   UNL A   1      42.605  22.610  25.001  1.00  0.00    -0.458 OA
BRANCH  29  30
ATOM     30  C   UNL A   1      43.342  23.743  24.985  1.00  0.00     0.338 C 
ATOM     31  O   UNL A   1      44.341  23.971  24.325  1.00  0.00    -0.246 OA
BRANCH  30  32
ATOM     32  C   UNL A   1      42.765  24.735  25.913  1.00  0.00     0.060 A 
ATOM     33  C   UNL A   1      43.179  26.062  25.863  1.00  0.00     0.016 A 
ATOM     34  C   UNL A   1      41.913  24.315  26.933  1.00  0.00     0.016 A 
ATOM     35  C   UNL A   1      42.859  26.938  26.900  1.00  0.00     0.010 A 
ATOM     36  C   UNL A   1      41.485  25.231  27.902  1.00  0.00     0.010 A 
ATOM     37  C   UNL A   1      41.992  26.543  27.930  1.00  0.00    -0.014 A 
BRANCH  37  38
ATOM     38  C   UNL A   1      41.647  27.478  29.044  1.00  0.00     0.031 A 
ATOM     39  C   UNL A   1      42.497  27.523  30.290  1.00  0.00     0.074 A 
ATOM     40  C   UNL A   1      40.581  28.300  28.954  1.00  0.00     0.049 A 
ATOM     41  N   UNL A   1      42.252  28.096  31.444  1.00  0.00    -0.248 NA
ATOM     42  C   UNL A   1      43.785  26.813  30.241  1.00  0.00     0.031 C 
ATOM     43  C   UNL A   1      39.684  28.408  27.803  1.00  0.00     0.029 A 
ATOM     44  N   UNL A   1      40.075  29.211  29.851  1.00  0.00    -0.354 N 
ATOM     45  C   UNL A   1      43.313  27.753  32.273  1.00  0.00     0.074 A 
ATOM     46  C   UNL A   1      44.210  26.930  31.491  1.00  0.00     0.031 C 
ATOM     47  C   UNL A   1      38.777  29.366  28.038  1.00  0.00     0.029 A 
ATOM     48  C   UNL A   1      38.961  29.873  29.393  1.00  0.00     0.049 A 
ATOM     49  H   UNL A   1      40.473  29.375  30.736  1.00  0.00     0.167 HD
ATOM     50  C   UNL A   1      43.517  28.091  33.570  1.00  0.00     0.037 A 
ATOM     51  C   UNL A   1      38.147  30.756  30.004  1.00  0.00     0.037 A 
ATOM     52  C   UNL A   1      42.670  28.976  34.327  1.00  0.00     0.049 A 
ATOM     53  C   UNL A   1      38.398  31.122  31.438  1.00  0.00     0.074 A 
ATOM     54  C   UNL A   1      42.807  29.390  35.641  1.00  0.00     0.029 A 
ATOM     55  N   UNL A   1      41.545  29.611  33.824  1.00  0.00    -0.354 N 
ATOM     56  N   UNL A   1      39.357  30.724  32.237  1.00  0.00    -0.248 NA
ATOM     57  C   UNL A   1      37.437  32.042  32.064  1.00  0.00     0.031 C 
ATOM     58  C   UNL A   1      41.750  30.257  35.941  1.00  0.00     0.029 A 
ATOM     59  C   UNL A   1      40.976  30.411  34.803  1.00  0.00     0.049 A 
ATOM     60  H   UNL A   1      41.200  29.509  32.907  1.00  0.00     0.167 HD
ATOM     61  C   UNL A   1      39.115  31.340  33.457  1.00  0.00     0.074 A 
ATOM     62  C   UNL A   1      37.936  32.162  33.286  1.00  0.00     0.031 C 
ATOM     63  C   UNL A   1      39.803  31.224  34.617  1.00  0.00     0.037 A 
BRANCH  50  64
ATOM     64  C   UNL A   1      44.689  27.472  34.275  1.00  0.00     0.064 A 
ATOM     65  C   UNL A   1      45.936  28.108  34.344  1.00  0.00     0.173 A 
ATOM     66  C   UNL A   1      44.542  26.239  34.931  1.00  0.00     0.173 A 
ATOM     67  F   UNL A   1      46.130  29.281  33.726  1.00  0.00    -0.203 F 
ATOM     68  C   UNL A   1      47.000  27.522  35.027  1.00  0.00     0.198 A 
ATOM     69  C   UNL A   1      45.599  25.669  35.633  1.00  0.00     0.198 A 
ATOM     70  F   UNL A   1      43.366  25.593  34.900  1.00  0.00    -0.203 F 
ATOM     71  F   UNL A   1      48.194  28.128  35.051  1.00  0.00    -0.200 F 
ATOM     72  C   UNL A   1      46.829  26.307  35.676  1.00  0.00     0.200 A 
ATOM     73  F   UNL A   1      45.428  24.502  36.270  1.00  0.00    -0.200 F 
ATOM     74  F   UNL A   1      47.851  25.750  36.340  1.00  0.00    -0.200 F 
ENDBRANCH  50  64
BRANCH  51  75
ATOM     75  C   UNL A   1      36.989  31.323  29.265  1.00  0.00     0.064 A 
ATOM     76  C   UNL A   1      35.865  30.538  28.981  1.00  0.00     0.173 A 
ATOM     77  C   UNL A   1      36.980  32.660  28.841  1.00  0.00     0.173 A 
ATOM     78  F   UNL A   1      35.840  29.246  29.341  1.00  0.00    -0.203 F 
ATOM     79  C   UNL A   1      34.772  31.070  28.297  1.00  0.00     0.198 A 
ATOM     80  C   UNL A   1      35.876  33.197  28.183  1.00  0.00     0.198 A 
ATOM     81  F   UNL A   1      38.035  33.450  29.087  1.00  0.00    -0.203 F 
ATOM     82  F   UNL A   1      33.723  30.289  28.008  1.00  0.00    -0.200 F 
ATOM     83  C   UNL A   1      34.775  32.401  27.908  1.00  0.00     0.200 A 
ATOM     84  F   UNL A   1      35.877  34.488  27.823  1.00  0.00    -0.200 F 
ATOM     85  F   UNL A   1      33.719  32.914  27.262  1.00  0.00    -0.200 F 
ENDBRANCH  51  75
BRANCH  63  86
ATOM     86  C   UNL A   1      39.308  32.020  35.787  1.00  0.00     0.064 A 
ATOM     87  C   UNL A   1      39.734  33.337  36.005  1.00  0.00     0.173 A 
ATOM     88  C   UNL A   1      38.381  31.468  36.682  1.00  0.00     0.173 A 
ATOM     89  F   UNL A   1      40.633  33.900  35.185  1.00  0.00    -0.203 F 
ATOM     90  C   UNL A   1      39.264  34.068  37.092  1.00  0.00     0.198 A 
ATOM     91  C   UNL A   1      37.897  32.209  37.756  1.00  0.00     0.198 A 
ATOM     92  F   UNL A   1      37.941  30.212  36.513  1.00  0.00    -0.203 F 
ATOM     93  F   UNL A   1      39.715  35.312  37.307  1.00  0.00    -0.200 F 
ATOM     94  C   UNL A   1      38.343  33.505  37.964  1.00  0.00     0.200 A 
ATOM     95  F   UNL A   1      37.003  31.666  38.594  1.00  0.00    -0.200 F 
ATOM     96  F   UNL A   1      37.892  34.211  39.011  1.00  0.00    -0.200 F 
ENDBRANCH  63  86
ENDBRANCH  37  38
ENDBRANCH  30  32
ENDBRANCH  29  30
ENDBRANCH  28  29
ENDBRANCH   1  28
TORSDOF 14
ENDMDL
MODEL 3
REMARK VINA RESULT:     -12.4      5.305     10.656
REMARK SMILES CC[NH+]1CC[NH+]([C@@H]2CC(=O)N(c3ccc(C(=O)OCCOC(=O)c4ccc(-c5c6nc(c(-c7c(F)c(F)c(F)c(F)c7F)c7ccc([nH]7)c(-c7c(F)c(F)c(F)c(F)c7F)c7nc(c(-c8c(F)c(F)c(F)c(F)c8F)c8ccc5[nH]8)C=C7)C=C6)cc4)cc3)C2=O)CC1
REMARK SMILES IDX 19 1 18 2 16 3 17 4 15 5 12 6 13 7 88 8 14 9 87 10 11 11
REMARK SMILES IDX 7 12 8 13 89 14 9 15 90 16 10 17 6 18 3 19 4 20 92 21 5 23
REMARK SMILES IDX 91 24 2 26 1 27 20 28 21 29 22 30 23 31 24 32 25 33 86 34
REMARK SMILES IDX 26 35 85 36 27 37 28 38 29 39 79 40 30 41 84 42 78 43 80 44
REMARK SMILES IDX 31 45 83 46 77 47 76 48 32 50 64 51 44 52 63 53 45 54 48 55
REMARK SMILES IDX 62 56 81 57 46 58 47 59 61 61 82 62 49 63 33 64 34 65 42 66
REMARK SMILES IDX 35 67 36 68 40 69 43 70 37 71 38 72 41 73 39 74 65 75 66 76
REMARK SMILES IDX 74 77 67 78 68 79 72 80 75 81 69 82 70 83 73 84 71 85 50 86
REMARK SMILES IDX 51 87 59 88 52 89 53 90 57 91 60 92 54 93 55 94 58 95 56 96
REMARK H PARENT 3 22 6 25 80 49 48 60
REMARK Flexibility Score: inf
ROOT
ATOM      1  C   UNL A   1      34.074  34.093  29.782  1.00  0.00     0.275 C 
ENDROOT
BRANCH   1   2
ATOM      2  O   UNL A   1      33.675  32.856  29.158  1.00  0.00    -0.458 OA
BRANCH   2   3
ATOM      3  C   UNL A   1      34.397  32.500  28.070  1.00  0.00     0.338 C 
ATOM      4  O   UNL A   1      35.386  33.059  27.625  1.00  0.00    -0.246 OA
BRANCH   3   5
ATOM      5  C   UNL A   1      33.880  31.240  27.501  1.00  0.00     0.060 A 
ATOM      6  C   UNL A   1      33.085  28.853  26.230  1.00  0.00     0.052 A 
ATOM      7  C   UNL A   1      34.312  28.936  26.899  1.00  0.00     0.028 A 
ATOM      8  C   UNL A   1      32.248  29.982  26.238  1.00  0.00     0.028 A 
ATOM      9  C   UNL A   1      34.718  30.125  27.497  1.00  0.00     0.018 A 
ATOM     10  C   UNL A   1      32.630  31.165  26.891  1.00  0.00     0.018 A 
BRANCH   6  11
ATOM     11  N   UNL A   1      32.784  27.682  25.486  1.00  0.00    -0.245 N 
ATOM     12  C   UNL A   1      32.159  25.451  25.057  1.00  0.00     0.285 C 
ATOM     13  C   UNL A   1      32.971  25.980  23.887  1.00  0.00     0.176 C 
ATOM     14  C   UNL A   1      31.979  26.666  25.954  1.00  0.00     0.292 C 
ATOM     15  C   UNL A   1      33.322  27.389  24.259  1.00  0.00     0.240 C 
ATOM     16  O   UNL A   1      31.228  26.695  26.923  1.00  0.00    -0.267 OA
ATOM     17  O   UNL A   1      34.027  28.091  23.545  1.00  0.00    -0.274 OA
BRANCH  12  18
ATOM     18  N   UNL A   1      32.650  24.295  25.828  1.00  0.00    -0.315 N 
ATOM     19  N   UNL A   1      34.397  22.171  24.606  1.00  0.00    -0.326 N 
ATOM     20  C   UNL A   1      32.942  22.188  24.408  1.00  0.00     0.324 C 
ATOM     21  C   UNL A   1      34.931  23.462  25.049  1.00  0.00     0.324 C 
ATOM     22  H   UNL A   1      34.788  22.034  23.675  1.00  0.00     0.348 HD
ATOM     23  C   UNL A   1      32.104  22.994  25.429  1.00  0.00     0.325 C 
ATOM     24  C   UNL A   1      34.088  24.208  26.105  1.00  0.00     0.325 C 
ATOM     25  H   UNL A   1      32.241  24.538  26.731  1.00  0.00     0.349 HD
BRANCH  19  26
ATOM     26  C   UNL A   1      34.906  21.007  25.335  1.00  0.00     0.259 C 
ATOM     27  C   UNL A   1      36.307  20.513  25.000  1.00  0.00     0.071 C 
ENDBRANCH  19  26
ENDBRANCH  12  18
ENDBRANCH   6  11
ENDBRANCH   3   5
ENDBRANCH   2   3
ENDBRANCH   1   2
BRANCH   1  28
ATOM     28  C   UNL A   1      34.526  33.855  31.223  1.00  0.00     0.275 C 
BRANCH  28  29
ATOM     29  O   UNL A   1      34.690  32.444  31.460  1.00  0.00    -0.458 OA
BRANCH  29  30
ATOM     30  C   UNL A   1      35.643  32.102  32.355  1.00  0.00     0.338 C 
ATOM     31  O   UNL A   1      35.653  32.330  33.553  1.00  0.00    -0.246 OA
BRANCH  30  32
ATOM     32  C   UNL A   1      36.737  31.379  31.679  1.00  0.00     0.060 A 
ATOM     33  C   UNL A   1      37.678  30.679  32.427  1.00  0.00     0.016 A 
ATOM     34  C   UNL A   1      36.910  31.515  30.303  1.00  0.00     0.016 A 
ATOM     35  C   UNL A   1      38.858  30.234  31.832  1.00  0.00     0.010 A 
ATOM     36  C   UNL A   1      38.033  30.951  29.685  1.00  0.00     0.010 A 
ATOM     37  C   UNL A   1      39.050  30.346  30.447  1.00  0.00    -0.014 A 
BRANCH  37  38
ATOM     38  C   UNL A   1      40.313  29.872  29.804  1.00  0.00     0.031 A 
ATOM     39  C   UNL A   1      41.492  30.803  29.665  1.00  0.00     0.074 A 
ATOM     40  C   UNL A   1      40.426  28.607  29.347  1.00  0.00     0.049 A 
ATOM     41  N   UNL A   1      42.587  30.659  28.958  1.00  0.00    -0.248 NA
ATOM     42  C   UNL A   1      41.426  32.074  30.403  1.00  0.00     0.031 C 
ATOM     43  C   UNL A   1      39.395  27.573  29.443  1.00  0.00     0.029 A 
ATOM     44  N   UNL A   1      41.469  27.973  28.716  1.00  0.00    -0.354 N 
ATOM     45  C   UNL A   1      43.296  31.845  29.106  1.00  0.00     0.074 A 
ATOM     46  C   UNL A   1      42.516  32.696  29.978  1.00  0.00     0.031 C 
ATOM     47  C   UNL A   1      39.874  26.425  28.942  1.00  0.00     0.029 A 
ATOM     48  C   UNL A   1      41.207  26.662  28.400  1.00  0.00     0.049 A 
ATOM     49  H   UNL A   1      42.324  28.415  28.509  1.00  0.00     0.167 HD
ATOM     50  C   UNL A   1      44.487  32.192  28.561  1.00  0.00     0.037 A 
ATOM     51  C   UNL A   1      41.931  25.758  27.713  1.00  0.00     0.037 A 
ATOM     52  C   UNL A   1      45.306  31.319  27.760  1.00  0.00     0.049 A 
ATOM     53  C   UNL A   1      43.253  26.163  27.126  1.00  0.00     0.074 A 
ATOM     54  C   UNL A   1      46.536  31.578  27.179  1.00  0.00     0.029 A 
ATOM     55  N   UNL A   1      44.990  30.004  27.456  1.00  0.00    -0.354 N 
ATOM     56  N   UNL A   1      43.872  27.314  27.201  1.00  0.00    -0.248 NA
ATOM     57  C   UNL A   1      43.964  25.148  26.334  1.00  0.00     0.031 C 
ATOM     58  C   UNL A   1      46.954  30.426  26.504  1.00  0.00     0.029 A 
ATOM     59  C   UNL A   1      46.001  29.439  26.693  1.00  0.00     0.049 A 
ATOM     60  H   UNL A   1      44.170  29.538  27.740  1.00  0.00     0.167 HD
ATOM     61  C   UNL A   1      45.041  27.166  26.469  1.00  0.00     0.074 A 
ATOM     62  C   UNL A   1      45.060  25.804  25.980  1.00  0.00     0.031 C 
ATOM     63  C   UNL A   1      46.006  28.082  26.215  1.00  0.00     0.037 A 
BRANCH  50  64
ATOM     64  C   UNL A   1      44.970  33.597  28.779  1.00  0.00     0.064 A 
ATOM     65  C   UNL A   1      45.849  33.928  29.819  1.00  0.00     0.173 A 
ATOM     66  C   UNL A   1      44.576  34.619  27.899  1.00  0.00     0.173 A 
ATOM     67  F   UNL A   1      46.246  32.991  30.691  1.00  0.00    -0.203 F 
ATOM     68  C   UNL A   1      46.301  35.236  29.983  1.00  0.00     0.198 A 
ATOM     69  C   UNL A   1      45.050  35.918  28.051  1.00  0.00     0.198 A 
ATOM     70  F   UNL A   1      43.742  34.351  26.884  1.00  0.00    -0.203 F 
ATOM     71  F   UNL A   1      47.113  35.540  31.005  1.00  0.00    -0.200 F 
ATOM     72  C   UNL A   1      45.907  36.228  29.096  1.00  0.00     0.200 A 
ATOM     73  F   UNL A   1      44.678  36.872  27.186  1.00  0.00    -0.200 F 
ATOM     74  F   UNL A   1      46.351  37.482  29.251  1.00  0.00    -0.200 F 
ENDBRANCH  50  64
BRANCH  51  75
ATOM     75  C   UNL A   1      41.396  24.387  27.509  1.00  0.00     0.064 A 
ATOM     76  C   UNL A   1      40.276  24.166  26.698  1.00  0.00     0.173 A 
ATOM     77  C   UNL A   1      42.001  23.273  28.110  1.00  0.00     0.173 A 
ATOM     78  F   UNL A   1      39.647  25.204  26.127  1.00  0.00    -0.203 F 
ATOM     79  C   UNL A   1      39.778  22.880  26.497  1.00  0.00     0.198 A 
ATOM     80  C   UNL A   1      41.519  21.985  27.884  1.00  0.00     0.198 A 
ATOM     81  F   UNL A   1      43.074  23.433  28.897  1.00  0.00    -0.203 F 
ATOM     82  F   UNL A   1      38.685  22.698  25.744  1.00  0.00    -0.200 F 
ATOM     83  C   UNL A   1      40.406  21.790  27.082  1.00  0.00     0.200 A 
ATOM     84  F   UNL A   1      42.138  20.934  28.439  1.00  0.00    -0.200 F 
ATOM     85  F   UNL A   1      39.934  20.553  26.877  1.00  0.00    -0.200 F 
ENDBRANCH  51  75
BRANCH  63  86
ATOM     86  C   UNL A   1      47.171  27.633  25.387  1.00  0.00     0.064 A 
ATOM     87  C   UNL A   1      48.273  26.988  25.966  1.00  0.00     0.173 A 
ATOM     88  C   UNL A   1      47.175  27.828  23.999  1.00  0.00     0.173 A 
ATOM     89  F   UNL A   1      48.321  26.796  27.293  1.00  0.00    -0.203 F 
ATOM     90  C   UNL A   1      49.348  26.572  25.187  1.00  0.00     0.198 A 
ATOM     91  C   UNL A   1      48.242  27.392  23.219  1.00  0.00     0.198 A 
ATOM     92  F   UNL A   1      46.142  28.437  23.398  1.00  0.00    -0.203 F 
ATOM     93  F   UNL A   1      50.410  25.994  25.765  1.00  0.00    -0.200 F 
ATOM     94  C   UNL A   1      49.330  26.770  23.814  1.00  0.00     0.200 A 
ATOM     95  F   UNL A   1      48.221  27.578  21.892  1.00  0.00    -0.200 F 
ATOM     96  F   UNL A   1      50.366  26.369  23.064  1.00  0.00    -0.200 F 
ENDBRANCH  63  86
ENDBRANCH  37  38
ENDBRANCH  30  32
ENDBRANCH  29  30
ENDBRANCH  28  29
ENDBRANCH   1  28
TORSDOF 14
ENDMDL
