MODEL 1
REMARK VINA RESULT:     -12.7      0.000      0.000
REMARK SMILES Cc1nc(=O)[nH]c(C)c1CC(=O)Nc1sccc1C(=O)OCCOC(=O)c1ccc(-c2c3nc(c(-c4c(F)c(F)c(F)c(F)c4F)c4ccc([nH]4)c(-c4c(F)c(F)c(F)c(F)c4F)c4nc(c(-c5c(F)c(F)c(F)c(F)c5F)c5ccc2[nH]5)C=C4)C=C3)cc1
REMARK SMILES IDX 22 1 21 2 19 3 20 4 18 5 14 6 15 7 16 8 17 9 13 10 11 11
REMARK SMILES IDX 12 12 10 14 9 15 1 16 2 17 3 18 4 19 7 20 5 21 6 22 8 23
REMARK SMILES IDX 23 25 24 26 25 27 26 28 27 29 28 30 89 31 29 32 88 33 30 34
REMARK SMILES IDX 31 35 32 36 82 37 33 38 87 39 81 40 83 41 34 42 86 43 80 44
REMARK SMILES IDX 79 45 35 47 67 48 47 49 66 50 48 51 51 52 65 53 84 54 49 55
REMARK SMILES IDX 50 56 64 58 85 59 52 60 36 61 37 62 45 63 38 64 39 65 43 66
REMARK SMILES IDX 46 67 40 68 41 69 44 70 42 71 68 72 69 73 77 74 70 75 71 76
REMARK SMILES IDX 75 77 78 78 72 79 73 80 76 81 74 82 53 83 54 84 62 85 55 86
REMARK SMILES IDX 56 87 60 88 63 89 57 90 58 91 61 92 59 93
REMARK H PARENT 13 13 6 24 83 46 51 57
REMARK Flexibility Score: inf
ROOT
ATOM      1  C   UNL A   1      31.844  28.094  26.304  1.00  0.00     0.275 C 
ENDROOT
BRANCH   1   2
ATOM      2  O   UNL A   1      32.940  27.203  26.602  1.00  0.00    -0.458 OA
BRANCH   2   3
ATOM      3  C   UNL A   1      33.511  26.584  25.529  1.00  0.00     0.341 C 
ATOM      4  O   UNL A   1      33.678  27.114  24.442  1.00  0.00    -0.246 OA
BRANCH   3   5
ATOM      5  C   UNL A   1      33.923  25.212  25.780  1.00  0.00     0.094 A 
ATOM      6  C   UNL A   1      33.193  24.273  26.476  1.00  0.00     0.110 A 
ATOM      7  S   UNL A   1      34.056  22.844  26.793  1.00  0.00    -0.126 S 
ATOM      8  C   UNL A   1      35.333  23.330  25.769  1.00  0.00     0.068 A 
ATOM      9  C   UNL A   1      35.158  24.625  25.331  1.00  0.00     0.029 A 
BRANCH   6  10
ATOM     10  N   UNL A   1      31.922  24.280  26.984  1.00  0.00    -0.317 N 
ATOM     11  C   UNL A   1      30.764  24.126  26.266  1.00  0.00     0.229 C 
ATOM     12  O   UNL A   1      29.690  24.391  26.812  1.00  0.00    -0.274 OA
ATOM     13  H   UNL A   1      31.830  24.408  27.955  1.00  0.00     0.170 HD
BRANCH  11  14
ATOM     14  C   UNL A   1      30.805  23.436  24.892  1.00  0.00     0.139 C 
BRANCH  14  15
ATOM     15  C   UNL A   1      31.343  24.173  23.698  1.00  0.00     0.002 A 
ATOM     16  C   UNL A   1      32.922  22.142  23.237  1.00  0.00     0.067 C 
ATOM     17  C   UNL A   1      32.452  23.540  22.891  1.00  0.00     0.049 A 
ATOM     18  N   UNL A   1      33.066  24.096  21.897  1.00  0.00    -0.198 NA
ATOM     19  C   UNL A   1      32.703  25.356  21.524  1.00  0.00     0.345 A 
ATOM     20  C   UNL A   1      30.950  25.368  23.214  1.00  0.00     0.022 A 
ATOM     21  O   UNL A   1      33.269  25.982  20.632  1.00  0.00    -0.246 OA
ATOM     22  N   UNL A   1      31.627  25.922  22.157  1.00  0.00    -0.310 N 
ATOM     23  C   UNL A   1      29.820  26.195  23.753  1.00  0.00     0.065 C 
ATOM     24  H   UNL A   1      31.315  26.796  21.828  1.00  0.00     0.171 HD
ENDBRANCH  14  15
ENDBRANCH  11  14
ENDBRANCH   6  10
ENDBRANCH   3   5
ENDBRANCH   2   3
ENDBRANCH   1   2
BRANCH   1  25
ATOM     25  C   UNL A   1      31.960  29.498  26.915  1.00  0.00     0.275 C 
BRANCH  25  26
ATOM     26  O   UNL A   1      33.074  30.242  26.386  1.00  0.00    -0.458 OA
BRANCH  26  27
ATOM     27  C   UNL A   1      33.539  31.209  27.207  1.00  0.00     0.338 C 
ATOM     28  O   UNL A   1      32.882  32.089  27.745  1.00  0.00    -0.246 OA
BRANCH  27  29
ATOM     29  C   UNL A   1      34.965  31.021  27.515  1.00  0.00     0.060 A 
ATOM     30  C   UNL A   1      35.421  29.704  27.605  1.00  0.00     0.016 A 
ATOM     31  C   UNL A   1      35.778  32.075  27.927  1.00  0.00     0.016 A 
ATOM     32  C   UNL A   1      36.638  29.410  28.194  1.00  0.00     0.010 A 
ATOM     33  C   UNL A   1      37.022  31.785  28.502  1.00  0.00     0.010 A 
ATOM     34  C   UNL A   1      37.427  30.448  28.689  1.00  0.00    -0.014 A 
BRANCH  34  35
ATOM     35  C   UNL A   1      38.565  30.105  29.569  1.00  0.00     0.031 A 
ATOM     36  C   UNL A   1      39.652  29.222  29.024  1.00  0.00     0.074 A 
ATOM     37  C   UNL A   1      38.684  30.655  30.790  1.00  0.00     0.049 A 
ATOM     38  N   UNL A   1      40.660  28.663  29.641  1.00  0.00    -0.248 NA
ATOM     39  C   UNL A   1      39.594  28.930  27.582  1.00  0.00     0.031 C 
ATOM     40  C   UNL A   1      37.761  31.630  31.371  1.00  0.00     0.029 A 
ATOM     41  N   UNL A   1      39.640  30.478  31.756  1.00  0.00    -0.354 N 
ATOM     42  C   UNL A   1      41.316  27.907  28.679  1.00  0.00     0.074 A 
ATOM     43  C   UNL A   1      40.605  28.087  27.433  1.00  0.00     0.031 C 
ATOM     44  C   UNL A   1      38.199  31.969  32.594  1.00  0.00     0.029 A 
ATOM     45  C   UNL A   1      39.387  31.179  32.907  1.00  0.00     0.049 A 
ATOM     46  H   UNL A   1      40.430  29.903  31.635  1.00  0.00     0.167 HD
ATOM     47  C   UNL A   1      42.409  27.124  28.833  1.00  0.00     0.037 A 
ATOM     48  C   UNL A   1      40.019  31.145  34.094  1.00  0.00     0.037 A 
ATOM     49  C   UNL A   1      43.132  26.998  30.070  1.00  0.00     0.049 A 
ATOM     50  C   UNL A   1      41.192  30.218  34.263  1.00  0.00     0.074 A 
ATOM     51  C   UNL A   1      44.243  26.224  30.350  1.00  0.00     0.029 A 
ATOM     52  N   UNL A   1      42.814  27.684  31.234  1.00  0.00    -0.354 N 
ATOM     53  N   UNL A   1      41.761  29.433  33.380  1.00  0.00    -0.248 NA
ATOM     54  C   UNL A   1      41.797  30.155  35.600  1.00  0.00     0.031 C 
ATOM     55  C   UNL A   1      44.579  26.416  31.695  1.00  0.00     0.029 A 
ATOM     56  C   UNL A   1      43.702  27.342  32.241  1.00  0.00     0.049 A 
ATOM     57  H   UNL A   1      42.069  28.319  31.331  1.00  0.00     0.167 HD
ATOM     58  C   UNL A   1      42.797  28.794  34.046  1.00  0.00     0.074 A 
ATOM     59  C   UNL A   1      42.789  29.296  35.405  1.00  0.00     0.031 C 
ATOM     60  C   UNL A   1      43.674  27.870  33.581  1.00  0.00     0.037 A 
BRANCH  47  61
ATOM     61  C   UNL A   1      42.844  26.303  27.656  1.00  0.00     0.064 A 
ATOM     62  C   UNL A   1      43.841  26.735  26.770  1.00  0.00     0.173 A 
ATOM     63  C   UNL A   1      42.248  25.056  27.415  1.00  0.00     0.173 A 
ATOM     64  F   UNL A   1      44.428  27.929  26.943  1.00  0.00    -0.203 F 
ATOM     65  C   UNL A   1      44.207  25.959  25.671  1.00  0.00     0.198 A 
ATOM     66  C   UNL A   1      42.633  24.272  26.333  1.00  0.00     0.198 A 
ATOM     67  F   UNL A   1      41.287  24.597  28.232  1.00  0.00    -0.203 F 
ATOM     68  F   UNL A   1      45.127  26.413  24.809  1.00  0.00    -0.200 F 
ATOM     69  C   UNL A   1      43.607  24.727  25.456  1.00  0.00     0.200 A 
ATOM     70  F   UNL A   1      42.057  23.078  26.131  1.00  0.00    -0.200 F 
ATOM     71  F   UNL A   1      43.961  23.982  24.400  1.00  0.00    -0.200 F 
ENDBRANCH  47  61
BRANCH  48  72
ATOM     72  C   UNL A   1      39.521  31.969  35.225  1.00  0.00     0.064 A 
ATOM     73  C   UNL A   1      39.936  33.297  35.391  1.00  0.00     0.173 A 
ATOM     74  C   UNL A   1      38.620  31.445  36.166  1.00  0.00     0.173 A 
ATOM     75  F   UNL A   1      40.817  33.835  34.536  1.00  0.00    -0.203 F 
ATOM     76  C   UNL A   1      39.475  34.067  36.459  1.00  0.00     0.198 A 
ATOM     77  C   UNL A   1      38.139  32.224  37.216  1.00  0.00     0.198 A 
ATOM     78  F   UNL A   1      38.199  30.176  36.059  1.00  0.00    -0.203 F 
ATOM     79  F   UNL A   1      39.920  35.321  36.618  1.00  0.00    -0.200 F 
ATOM     80  C   UNL A   1      38.572  33.532  37.366  1.00  0.00     0.200 A 
ATOM     81  F   UNL A   1      37.260  31.705  38.085  1.00  0.00    -0.200 F 
ATOM     82  F   UNL A   1      38.128  34.275  38.388  1.00  0.00    -0.200 F 
ENDBRANCH  48  72
BRANCH  60  83
ATOM     83  C   UNL A   1      44.713  27.374  34.540  1.00  0.00     0.064 A 
ATOM     84  C   UNL A   1      45.914  28.068  34.743  1.00  0.00     0.173 A 
ATOM     85  C   UNL A   1      44.482  26.215  35.294  1.00  0.00     0.173 A 
ATOM     86  F   UNL A   1      46.183  29.173  34.031  1.00  0.00    -0.203 F 
ATOM     87  C   UNL A   1      46.858  27.607  35.654  1.00  0.00     0.198 A 
ATOM     88  C   UNL A   1      45.417  25.771  36.224  1.00  0.00     0.198 A 
ATOM     89  F   UNL A   1      43.344  25.521  35.139  1.00  0.00    -0.203 F 
ATOM     90  F   UNL A   1      48.017  28.261  35.804  1.00  0.00    -0.200 F 
ATOM     91  C   UNL A   1      46.606  26.463  36.398  1.00  0.00     0.200 A 
ATOM     92  F   UNL A   1      45.169  24.672  36.951  1.00  0.00    -0.200 F 
ATOM     93  F   UNL A   1      47.513  26.024  37.282  1.00  0.00    -0.200 F 
ENDBRANCH  60  83
ENDBRANCH  34  35
ENDBRANCH  27  29
ENDBRANCH  26  27
ENDBRANCH  25  26
ENDBRANCH   1  25
TORSDOF 14
ENDMDL
MODEL 2
REMARK VINA RESULT:     -12.4      1.715      2.869
REMARK SMILES Cc1nc(=O)[nH]c(C)c1CC(=O)Nc1sccc1C(=O)OCCOC(=O)c1ccc(-c2c3nc(c(-c4c(F)c(F)c(F)c(F)c4F)c4ccc([nH]4)c(-c4c(F)c(F)c(F)c(F)c4F)c4nc(c(-c5c(F)c(F)c(F)c(F)c5F)c5ccc2[nH]5)C=C4)C=C3)cc1
REMARK SMILES IDX 22 1 21 2 19 3 20 4 18 5 14 6 15 7 16 8 17 9 13 10 11 11
REMARK SMILES IDX 12 12 10 14 9 15 1 16 2 17 3 18 4 19 7 20 5 21 6 22 8 23
REMARK SMILES IDX 23 25 24 26 25 27 26 28 27 29 28 30 89 31 29 32 88 33 30 34
REMARK SMILES IDX 31 35 32 36 82 37 33 38 87 39 81 40 83 41 34 42 86 43 80 44
REMARK SMILES IDX 79 45 35 47 67 48 47 49 66 50 48 51 51 52 65 53 84 54 49 55
REMARK SMILES IDX 50 56 64 58 85 59 52 60 36 61 37 62 45 63 38 64 39 65 43 66
REMARK SMILES IDX 46 67 40 68 41 69 44 70 42 71 68 72 69 73 77 74 70 75 71 76
REMARK SMILES IDX 75 77 78 78 72 79 73 80 76 81 74 82 53 83 54 84 62 85 55 86
REMARK SMILES IDX 56 87 60 88 63 89 57 90 58 91 61 92 59 93
REMARK H PARENT 13 13 6 24 83 46 51 57
REMARK Flexibility Score: inf
ROOT
ATOM      1  C   UNL A   1      32.108  29.572  25.141  1.00  0.00     0.275 C 
ENDROOT
BRANCH   1   2
ATOM      2  O   UNL A   1      32.655  28.383  25.750  1.00  0.00    -0.458 OA
BRANCH   2   3
ATOM      3  C   UNL A   1      32.929  27.352  24.899  1.00  0.00     0.341 C 
ATOM      4  O   UNL A   1      33.763  27.402  24.009  1.00  0.00    -0.246 OA
BRANCH   3   5
ATOM      5  C   UNL A   1      32.139  26.154  25.139  1.00  0.00     0.094 A 
ATOM      6  C   UNL A   1      32.237  24.977  24.429  1.00  0.00     0.110 A 
ATOM      7  S   UNL A   1      31.016  23.857  24.804  1.00  0.00    -0.126 S 
ATOM      8  C   UNL A   1      30.487  24.802  26.125  1.00  0.00     0.068 A 
ATOM      9  C   UNL A   1      31.138  26.016  26.164  1.00  0.00     0.029 A 
BRANCH   6  10
ATOM     10  N   UNL A   1      33.106  24.549  23.463  1.00  0.00    -0.317 N 
ATOM     11  C   UNL A   1      34.353  24.017  23.676  1.00  0.00     0.229 C 
ATOM     12  O   UNL A   1      35.117  23.898  22.715  1.00  0.00    -0.274 OA
ATOM     13  H   UNL A   1      32.811  24.631  22.528  1.00  0.00     0.170 HD
BRANCH  11  14
ATOM     14  C   UNL A   1      34.692  23.393  25.040  1.00  0.00     0.139 C 
BRANCH  14  15
ATOM     15  C   UNL A   1      35.599  22.197  25.114  1.00  0.00     0.002 A 
ATOM     16  C   UNL A   1      37.576  23.811  25.676  1.00  0.00     0.067 C 
ATOM     17  C   UNL A   1      37.069  22.413  25.383  1.00  0.00     0.049 A 
ATOM     18  N   UNL A   1      37.974  21.488  25.387  1.00  0.00    -0.198 NA
ATOM     19  C   UNL A   1      37.598  20.203  25.132  1.00  0.00     0.345 A 
ATOM     20  C   UNL A   1      35.269  20.898  24.981  1.00  0.00     0.022 A 
ATOM     21  O   UNL A   1      38.395  19.272  25.057  1.00  0.00    -0.246 OA
ATOM     22  N   UNL A   1      36.259  19.947  24.992  1.00  0.00    -0.310 N 
ATOM     23  C   UNL A   1      33.878  20.368  24.787  1.00  0.00     0.065 C 
ATOM     24  H   UNL A   1      35.985  19.007  24.892  1.00  0.00     0.171 HD
ENDBRANCH  14  15
ENDBRANCH  11  14
ENDBRANCH   6  10
ENDBRANCH   3   5
ENDBRANCH   2   3
ENDBRANCH   1   2
BRANCH   1  25
ATOM     25  C   UNL A   1      31.810  30.724  26.112  1.00  0.00     0.275 C 
BRANCH  25  26
ATOM     26  O   UNL A   1      32.628  30.677  27.296  1.00  0.00    -0.458 OA
BRANCH  26  27
ATOM     27  C   UNL A   1      33.403  31.767  27.482  1.00  0.00     0.338 C 
ATOM     28  O   UNL A   1      33.027  32.928  27.552  1.00  0.00    -0.246 OA
BRANCH  27  29
ATOM     29  C   UNL A   1      34.806  31.400  27.736  1.00  0.00     0.060 A 
ATOM     30  C   UNL A   1      35.065  30.056  28.009  1.00  0.00     0.016 A 
ATOM     31  C   UNL A   1      35.798  32.360  27.925  1.00  0.00     0.016 A 
ATOM     32  C   UNL A   1      36.267  29.662  28.568  1.00  0.00     0.010 A 
ATOM     33  C   UNL A   1      37.026  31.962  28.469  1.00  0.00     0.010 A 
ATOM     34  C   UNL A   1      37.241  30.621  28.844  1.00  0.00    -0.014 A 
BRANCH  34  35
ATOM     35  C   UNL A   1      38.382  30.235  29.702  1.00  0.00     0.031 A 
ATOM     36  C   UNL A   1      39.435  29.330  29.129  1.00  0.00     0.074 A 
ATOM     37  C   UNL A   1      38.534  30.764  30.928  1.00  0.00     0.049 A 
ATOM     38  N   UNL A   1      40.437  28.735  29.723  1.00  0.00    -0.248 NA
ATOM     39  C   UNL A   1      39.348  29.059  27.684  1.00  0.00     0.031 C 
ATOM     40  C   UNL A   1      37.647  31.756  31.537  1.00  0.00     0.029 A 
ATOM     41  N   UNL A   1      39.499  30.548  31.878  1.00  0.00    -0.354 N 
ATOM     42  C   UNL A   1      41.057  27.974  28.741  1.00  0.00     0.074 A 
ATOM     43  C   UNL A   1      40.333  28.191  27.509  1.00  0.00     0.031 C 
ATOM     44  C   UNL A   1      38.113  32.067  32.757  1.00  0.00     0.029 A 
ATOM     45  C   UNL A   1      39.282  31.241  33.041  1.00  0.00     0.049 A 
ATOM     46  H   UNL A   1      40.271  29.954  31.737  1.00  0.00     0.167 HD
ATOM     47  C   UNL A   1      42.131  27.160  28.868  1.00  0.00     0.037 A 
ATOM     48  C   UNL A   1      39.931  31.173  34.218  1.00  0.00     0.037 A 
ATOM     49  C   UNL A   1      42.868  26.997  30.092  1.00  0.00     0.049 A 
ATOM     50  C   UNL A   1      41.081  30.212  34.357  1.00  0.00     0.074 A 
ATOM     51  C   UNL A   1      43.961  26.189  30.345  1.00  0.00     0.029 A 
ATOM     52  N   UNL A   1      42.587  27.675  31.270  1.00  0.00    -0.354 N 
ATOM     53  N   UNL A   1      41.615  29.424  33.455  1.00  0.00    -0.248 NA
ATOM     54  C   UNL A   1      41.704  30.114  35.684  1.00  0.00     0.031 C 
ATOM     55  C   UNL A   1      44.322  26.354  31.687  1.00  0.00     0.029 A 
ATOM     56  C   UNL A   1      43.479  27.296  32.259  1.00  0.00     0.049 A 
ATOM     57  H   UNL A   1      41.861  28.329  31.387  1.00  0.00     0.167 HD
ATOM     58  C   UNL A   1      42.642  28.747  34.096  1.00  0.00     0.074 A 
ATOM     59  C   UNL A   1      42.669  29.231  35.462  1.00  0.00     0.031 C 
ATOM     60  C   UNL A   1      43.486  27.806  33.606  1.00  0.00     0.037 A 
BRANCH  47  61
ATOM     61  C   UNL A   1      42.525  26.343  27.674  1.00  0.00     0.064 A 
ATOM     62  C   UNL A   1      41.913  25.119  27.370  1.00  0.00     0.173 A 
ATOM     63  C   UNL A   1      43.537  26.802  26.817  1.00  0.00     0.173 A 
ATOM     64  F   UNL A   1      40.955  24.626  28.169  1.00  0.00    -0.203 F 
ATOM     65  C   UNL A   1      42.317  24.373  26.264  1.00  0.00     0.198 A 
ATOM     66  C   UNL A   1      43.921  26.067  25.700  1.00  0.00     0.198 A 
ATOM     67  F   UNL A   1      44.156  27.966  27.065  1.00  0.00    -0.203 F 
ATOM     68  F   UNL A   1      41.753  23.182  26.019  1.00  0.00    -0.200 F 
ATOM     69  C   UNL A   1      43.316  24.848  25.429  1.00  0.00     0.200 A 
ATOM     70  F   UNL A   1      44.882  26.532  24.889  1.00  0.00    -0.200 F 
ATOM     71  F   UNL A   1      43.703  24.129  24.366  1.00  0.00    -0.200 F 
ENDBRANCH  47  61
BRANCH  48  72
ATOM     72  C   UNL A   1      39.473  31.995  35.368  1.00  0.00     0.064 A 
ATOM     73  C   UNL A   1      39.939  33.303  35.554  1.00  0.00     0.173 A 
ATOM     74  C   UNL A   1      38.560  31.488  36.306  1.00  0.00     0.173 A 
ATOM     75  F   UNL A   1      40.835  33.822  34.701  1.00  0.00    -0.203 F 
ATOM     76  C   UNL A   1      39.516  34.070  36.638  1.00  0.00     0.198 A 
ATOM     77  C   UNL A   1      38.116  32.266  37.373  1.00  0.00     0.198 A 
ATOM     78  F   UNL A   1      38.090  30.239  36.180  1.00  0.00    -0.203 F 
ATOM     79  F   UNL A   1      40.009  35.303  36.816  1.00  0.00    -0.200 F 
ATOM     80  C   UNL A   1      38.600  33.554  37.543  1.00  0.00     0.200 A 
ATOM     81  F   UNL A   1      37.225  31.765  38.240  1.00  0.00    -0.200 F 
ATOM     82  F   UNL A   1      38.192  34.294  38.582  1.00  0.00    -0.200 F 
ENDBRANCH  48  72
BRANCH  60  83
ATOM     83  C   UNL A   1      44.525  27.269  34.542  1.00  0.00     0.064 A 
ATOM     84  C   UNL A   1      45.764  27.904  34.704  1.00  0.00     0.173 A 
ATOM     85  C   UNL A   1      44.258  26.131  35.316  1.00  0.00     0.173 A 
ATOM     86  F   UNL A   1      46.069  28.986  33.972  1.00  0.00    -0.203 F 
ATOM     87  C   UNL A   1      46.709  27.405  35.595  1.00  0.00     0.198 A 
ATOM     88  C   UNL A   1      45.195  25.650  36.225  1.00  0.00     0.198 A 
ATOM     89  F   UNL A   1      43.083  25.494  35.201  1.00  0.00    -0.203 F 
ATOM     90  F   UNL A   1      47.904  28.002  35.705  1.00  0.00    -0.200 F 
ATOM     91  C   UNL A   1      46.422  26.284  36.359  1.00  0.00     0.200 A 
ATOM     92  F   UNL A   1      44.912  24.573  36.972  1.00  0.00    -0.200 F 
ATOM     93  F   UNL A   1      47.330  25.809  37.223  1.00  0.00    -0.200 F 
ENDBRANCH  60  83
ENDBRANCH  34  35
ENDBRANCH  27  29
ENDBRANCH  26  27
ENDBRANCH  25  26
ENDBRANCH   1  25
TORSDOF 14
ENDMDL
MODEL 3
REMARK VINA RESULT:     -12.4      4.399      9.515
REMARK SMILES Cc1nc(=O)[nH]c(C)c1CC(=O)Nc1sccc1C(=O)OCCOC(=O)c1ccc(-c2c3nc(c(-c4c(F)c(F)c(F)c(F)c4F)c4ccc([nH]4)c(-c4c(F)c(F)c(F)c(F)c4F)c4nc(c(-c5c(F)c(F)c(F)c(F)c5F)c5ccc2[nH]5)C=C4)C=C3)cc1
REMARK SMILES IDX 22 1 21 2 19 3 20 4 18 5 14 6 15 7 16 8 17 9 13 10 11 11
REMARK SMILES IDX 12 12 10 14 9 15 1 16 2 17 3 18 4 19 7 20 5 21 6 22 8 23
REMARK SMILES IDX 23 25 24 26 25 27 26 28 27 29 28 30 89 31 29 32 88 33 30 34
REMARK SMILES IDX 31 35 32 36 82 37 33 38 87 39 81 40 83 41 34 42 86 43 80 44
REMARK SMILES IDX 79 45 35 47 67 48 47 49 66 50 48 51 51 52 65 53 84 54 49 55
REMARK SMILES IDX 50 56 64 58 85 59 52 60 36 61 37 62 45 63 38 64 39 65 43 66
REMARK SMILES IDX 46 67 40 68 41 69 44 70 42 71 68 72 69 73 77 74 70 75 71 76
REMARK SMILES IDX 75 77 78 78 72 79 73 80 76 81 74 82 53 83 54 84 62 85 55 86
REMARK SMILES IDX 56 87 60 88 63 89 57 90 58 91 61 92 59 93
REMARK H PARENT 13 13 6 24 83 46 51 57
REMARK Flexibility Score: inf
ROOT
ATOM      1  C   UNL A   1      36.037  20.715  25.091  1.00  0.00     0.275 C 
ENDROOT
BRANCH   1   2
ATOM      2  O   UNL A   1      35.658  21.666  26.110  1.00  0.00    -0.458 OA
BRANCH   2   3
ATOM      3  C   UNL A   1      35.066  22.811  25.664  1.00  0.00     0.341 C 
ATOM      4  O   UNL A   1      35.637  23.886  25.577  1.00  0.00    -0.246 OA
BRANCH   3   5
ATOM      5  C   UNL A   1      33.671  22.653  25.284  1.00  0.00     0.094 A 
ATOM      6  C   UNL A   1      33.089  23.173  24.149  1.00  0.00     0.110 A 
ATOM      7  S   UNL A   1      31.398  23.007  24.119  1.00  0.00    -0.126 S 
ATOM      8  C   UNL A   1      31.425  21.988  25.490  1.00  0.00     0.068 A 
ATOM      9  C   UNL A   1      32.688  21.918  26.036  1.00  0.00     0.029 A 
BRANCH   6  10
ATOM     10  N   UNL A   1      33.603  23.821  23.059  1.00  0.00    -0.317 N 
ATOM     11  C   UNL A   1      33.302  25.100  22.663  1.00  0.00     0.229 C 
ATOM     12  O   UNL A   1      33.651  25.468  21.539  1.00  0.00    -0.274 OA
ATOM     13  H   UNL A   1      34.247  23.324  22.506  1.00  0.00     0.170 HD
BRANCH  11  14
ATOM     14  C   UNL A   1      32.737  26.101  23.685  1.00  0.00     0.139 C 
BRANCH  14  15
ATOM     15  C   UNL A   1      32.019  27.333  23.211  1.00  0.00     0.002 A 
ATOM     16  C   UNL A   1      29.761  26.191  23.868  1.00  0.00     0.067 C 
ATOM     17  C   UNL A   1      30.509  27.358  23.254  1.00  0.00     0.049 A 
ATOM     18  N   UNL A   1      29.763  28.312  22.800  1.00  0.00    -0.198 NA
ATOM     19  C   UNL A   1      30.360  29.397  22.231  1.00  0.00     0.345 A 
ATOM     20  C   UNL A   1      32.555  28.477  22.743  1.00  0.00     0.022 A 
ATOM     21  O   UNL A   1      29.730  30.321  21.722  1.00  0.00    -0.246 OA
ATOM     22  N   UNL A   1      31.728  29.465  22.272  1.00  0.00    -0.310 N 
ATOM     23  C   UNL A   1      34.023  28.778  22.658  1.00  0.00     0.065 C 
ATOM     24  H   UNL A   1      32.151  30.288  21.937  1.00  0.00     0.171 HD
ENDBRANCH  14  15
ENDBRANCH  11  14
ENDBRANCH   6  10
ENDBRANCH   3   5
ENDBRANCH   2   3
ENDBRANCH   1   2
BRANCH   1  25
ATOM     25  C   UNL A   1      37.546  20.460  24.966  1.00  0.00     0.275 C 
BRANCH  25  26
ATOM     26  O   UNL A   1      38.334  21.623  25.284  1.00  0.00    -0.458 OA
BRANCH  26  27
ATOM     27  C   UNL A   1      39.398  21.375  26.078  1.00  0.00     0.338 C 
ATOM     28  O   UNL A   1      40.062  20.350  26.111  1.00  0.00    -0.246 OA
BRANCH  27  29
ATOM     29  C   UNL A   1      39.787  22.565  26.853  1.00  0.00     0.060 A 
ATOM     30  C   UNL A   1      39.232  23.783  26.455  1.00  0.00     0.016 A 
ATOM     31  C   UNL A   1      40.824  22.535  27.782  1.00  0.00     0.016 A 
ATOM     32  C   UNL A   1      39.763  24.983  26.893  1.00  0.00     0.010 A 
ATOM     33  C   UNL A   1      41.349  23.747  28.247  1.00  0.00     0.010 A 
ATOM     34  C   UNL A   1      40.857  24.973  27.758  1.00  0.00    -0.014 A 
BRANCH  34  35
ATOM     35  C   UNL A   1      41.590  26.240  27.976  1.00  0.00     0.031 A 
ATOM     36  C   UNL A   1      40.935  27.314  28.797  1.00  0.00     0.074 A 
ATOM     37  C   UNL A   1      42.853  26.388  27.543  1.00  0.00     0.049 A 
ATOM     38  N   UNL A   1      41.306  28.551  28.998  1.00  0.00    -0.248 NA
ATOM     39  C   UNL A   1      39.691  26.940  29.490  1.00  0.00     0.031 C 
ATOM     40  C   UNL A   1      43.638  25.364  26.853  1.00  0.00     0.029 A 
ATOM     41  N   UNL A   1      43.704  27.460  27.632  1.00  0.00    -0.354 N 
ATOM     42  C   UNL A   1      40.311  29.118  29.785  1.00  0.00     0.074 A 
ATOM     43  C   UNL A   1      39.328  28.088  30.040  1.00  0.00     0.031 C 
ATOM     44  C   UNL A   1      44.857  25.856  26.585  1.00  0.00     0.029 A 
ATOM     45  C   UNL A   1      44.911  27.249  27.017  1.00  0.00     0.049 A 
ATOM     46  H   UNL A   1      43.470  28.298  28.093  1.00  0.00     0.167 HD
ATOM     47  C   UNL A   1      40.229  30.389  30.240  1.00  0.00     0.037 A 
ATOM     48  C   UNL A   1      45.923  28.107  26.786  1.00  0.00     0.037 A 
ATOM     49  C   UNL A   1      41.242  31.385  30.017  1.00  0.00     0.049 A 
ATOM     50  C   UNL A   1      45.781  29.533  27.244  1.00  0.00     0.074 A 
ATOM     51  C   UNL A   1      41.261  32.708  30.417  1.00  0.00     0.029 A 
ATOM     52  N   UNL A   1      42.431  31.150  29.340  1.00  0.00    -0.354 N 
ATOM     53  N   UNL A   1      44.802  30.095  27.911  1.00  0.00    -0.248 NA
ATOM     54  C   UNL A   1      46.875  30.450  26.897  1.00  0.00     0.031 C 
ATOM     55  C   UNL A   1      42.448  33.285  29.952  1.00  0.00     0.029 A 
ATOM     56  C   UNL A   1      43.188  32.310  29.300  1.00  0.00     0.049 A 
ATOM     57  H   UNL A   1      42.698  30.289  28.947  1.00  0.00     0.167 HD
ATOM     58  C   UNL A   1      45.164  31.425  28.077  1.00  0.00     0.074 A 
ATOM     59  C   UNL A   1      46.463  31.581  27.455  1.00  0.00     0.031 C 
ATOM     60  C   UNL A   1      44.484  32.429  28.682  1.00  0.00     0.037 A 
BRANCH  47  61
ATOM     61  C   UNL A   1      38.977  30.784  30.966  1.00  0.00     0.064 A 
ATOM     62  C   UNL A   1      37.849  31.281  30.296  1.00  0.00     0.173 A 
ATOM     63  C   UNL A   1      38.908  30.658  32.362  1.00  0.00     0.173 A 
ATOM     64  F   UNL A   1      37.870  31.441  28.964  1.00  0.00    -0.203 F 
ATOM     65  C   UNL A   1      36.708  31.660  31.001  1.00  0.00     0.198 A 
ATOM     66  C   UNL A   1      37.758  31.014  33.060  1.00  0.00     0.198 A 
ATOM     67  F   UNL A   1      39.960  30.190  33.050  1.00  0.00    -0.203 F 
ATOM     68  F   UNL A   1      35.660  32.179  30.346  1.00  0.00    -0.200 F 
ATOM     69  C   UNL A   1      36.662  31.522  32.380  1.00  0.00     0.200 A 
ATOM     70  F   UNL A   1      37.713  30.872  34.392  1.00  0.00    -0.200 F 
ATOM     71  F   UNL A   1      35.564  31.887  33.056  1.00  0.00    -0.200 F 
ENDBRANCH  47  61
BRANCH  48  72
ATOM     72  C   UNL A   1      47.125  27.653  26.042  1.00  0.00     0.064 A 
ATOM     73  C   UNL A   1      48.254  27.168  26.716  1.00  0.00     0.173 A 
ATOM     74  C   UNL A   1      47.173  27.698  24.640  1.00  0.00     0.173 A 
ATOM     75  F   UNL A   1      48.269  27.133  28.056  1.00  0.00    -0.203 F 
ATOM     76  C   UNL A   1      49.386  26.753  26.017  1.00  0.00     0.198 A 
ATOM     77  C   UNL A   1      48.293  27.256  23.941  1.00  0.00     0.198 A 
ATOM     78  F   UNL A   1      46.123  28.163  23.946  1.00  0.00    -0.203 F 
ATOM     79  F   UNL A   1      50.468  26.332  26.687  1.00  0.00    -0.200 F 
ATOM     80  C   UNL A   1      49.402  26.790  24.630  1.00  0.00     0.200 A 
ATOM     81  F   UNL A   1      48.301  27.286  22.601  1.00  0.00    -0.200 F 
ATOM     82  F   UNL A   1      50.490  26.386  23.960  1.00  0.00    -0.200 F 
ENDBRANCH  48  72
BRANCH  60  83
ATOM     83  C   UNL A   1      45.149  33.770  28.730  1.00  0.00     0.064 A 
ATOM     84  C   UNL A   1      46.036  34.113  29.760  1.00  0.00     0.173 A 
ATOM     85  C   UNL A   1      44.930  34.705  27.707  1.00  0.00     0.173 A 
ATOM     86  F   UNL A   1      46.264  33.256  30.767  1.00  0.00    -0.203 F 
ATOM     87  C   UNL A   1      46.664  35.354  29.777  1.00  0.00     0.198 A 
ATOM     88  C   UNL A   1      45.580  35.934  27.713  1.00  0.00     0.198 A 
ATOM     89  F   UNL A   1      44.095  34.419  26.697  1.00  0.00    -0.203 F 
ATOM     90  F   UNL A   1      47.477  35.678  30.791  1.00  0.00    -0.200 F 
ATOM     91  C   UNL A   1      46.441  36.261  28.750  1.00  0.00     0.200 A 
ATOM     92  F   UNL A   1      45.373  36.806  26.715  1.00  0.00    -0.200 F 
ATOM     93  F   UNL A   1      47.053  37.453  28.763  1.00  0.00    -0.200 F 
ENDBRANCH  60  83
ENDBRANCH  34  35
ENDBRANCH  27  29
ENDBRANCH  26  27
ENDBRANCH  25  26
ENDBRANCH   1  25
TORSDOF 14
ENDMDL
