MODEL 1
REMARK VINA RESULT:     -11.7      0.000      0.000
REMARK SMILES C/C(=N\Nc1ccc(C(=O)OCCOC(=O)c2ccc(-c3c4nc(c(-c5c(F)c(F)c(F)c(F)c5F)c5ccc([nH]5)c(-c5c(F)c(F)c(F)c(F)c5F)c5nc(c(-c6c(F)c(F)c(F)c(F)c6F)c6ccc3[nH]6)C=C5)C=C4)cc2)cc1)c1cccc(S(=O)(=O)N(C)C)c1
REMARK SMILES IDX 11 1 9 2 10 3 8 4 5 5 6 6 81 7 7 8 80 9 4 10 3 12 1 13 2 14
REMARK SMILES IDX 82 15 83 16 93 17 84 18 86 19 85 20 87 21 88 22 89 23 90 24
REMARK SMILES IDX 91 25 92 26 12 27 13 28 14 29 15 30 16 31 17 32 18 33 79 34
REMARK SMILES IDX 19 35 78 36 20 37 21 38 22 39 72 40 23 41 77 42 71 43 73 44
REMARK SMILES IDX 24 45 76 46 70 47 69 48 25 50 57 51 37 52 56 53 38 54 41 55
REMARK SMILES IDX 55 56 74 57 39 58 40 59 54 61 75 62 42 63 26 64 27 65 35 66
REMARK SMILES IDX 28 67 29 68 33 69 36 70 30 71 31 72 34 73 32 74 58 75 59 76
REMARK SMILES IDX 67 77 60 78 61 79 65 80 68 81 62 82 63 83 66 84 64 85 43 86
REMARK SMILES IDX 44 87 52 88 45 89 46 90 50 91 53 92 47 93 48 94 51 95 49 96
REMARK H PARENT 4 11 73 49 41 60
REMARK Flexibility Score: inf
ROOT
ATOM      1  O   UNL A   1      41.774  20.388  26.294  1.00  0.00    -0.458 OA
ENDROOT
BRANCH   1   2
ATOM      2  C   UNL A   1      41.467  21.418  27.117  1.00  0.00     0.338 C 
ATOM      3  O   UNL A   1      42.173  21.880  27.999  1.00  0.00    -0.246 OA
BRANCH   2   4
ATOM      4  C   UNL A   1      40.142  21.984  26.784  1.00  0.00     0.060 A 
ATOM      5  C   UNL A   1      37.828  23.120  25.710  1.00  0.00     0.056 A 
ATOM      6  C   UNL A   1      38.093  21.762  25.512  1.00  0.00     0.028 A 
ATOM      7  C   UNL A   1      38.653  23.865  26.561  1.00  0.00     0.028 A 
ATOM      8  C   UNL A   1      39.277  21.217  25.993  1.00  0.00     0.018 A 
ATOM      9  C   UNL A   1      39.795  23.293  27.125  1.00  0.00     0.018 A 
BRANCH   5  10
ATOM     10  N   UNL A   1      36.926  23.741  24.833  1.00  0.00    -0.278 N 
ATOM     11  H   UNL A   1      37.201  23.866  23.897  1.00  0.00     0.190 HD
BRANCH  10  12
ATOM     12  N   UNL A   1      35.695  24.182  25.204  1.00  0.00    -0.180 NA
ATOM     13  C   UNL A   1      34.580  22.087  24.352  1.00  0.00     0.069 C 
ATOM     14  C   UNL A   1      34.624  23.446  25.038  1.00  0.00     0.065 C 
BRANCH  14  15
ATOM     15  C   UNL A   1      33.341  23.924  25.663  1.00  0.00    -0.001 A 
ATOM     16  C   UNL A   1      32.253  23.042  25.733  1.00  0.00     0.010 A 
ATOM     17  C   UNL A   1      33.153  25.268  26.003  1.00  0.00     0.031 A 
ATOM     18  C   UNL A   1      30.976  23.515  26.049  1.00  0.00     0.002 A 
ATOM     19  C   UNL A   1      31.861  25.751  26.213  1.00  0.00     0.083 A 
ATOM     20  C   UNL A   1      30.770  24.879  26.247  1.00  0.00     0.022 A 
BRANCH  19  21
ATOM     21  S   UNL A   1      31.562  27.501  26.299  1.00  0.00     0.242 S 
ATOM     22  O   UNL A   1      30.729  27.855  25.162  1.00  0.00    -0.207 OA
ATOM     23  O   UNL A   1      31.155  27.782  27.654  1.00  0.00    -0.207 OA
BRANCH  21  24
ATOM     24  N   UNL A   1      33.094  28.240  26.032  1.00  0.00    -0.204 NA
ATOM     25  C   UNL A   1      33.135  29.288  24.981  1.00  0.00     0.124 C 
ATOM     26  C   UNL A   1      33.706  28.744  27.288  1.00  0.00     0.124 C 
ENDBRANCH  21  24
ENDBRANCH  19  21
ENDBRANCH  14  15
ENDBRANCH  10  12
ENDBRANCH   5  10
ENDBRANCH   2   4
ENDBRANCH   1   2
BRANCH   1  27
ATOM     27  C   UNL A   1      42.489  19.302  26.912  1.00  0.00     0.275 C 
BRANCH  27  28
ATOM     28  C   UNL A   1      43.158  18.432  25.849  1.00  0.00     0.275 C 
BRANCH  28  29
ATOM     29  O   UNL A   1      43.367  19.186  24.640  1.00  0.00    -0.458 OA
BRANCH  29  30
ATOM     30  C   UNL A   1      44.657  19.427  24.315  1.00  0.00     0.338 C 
ATOM     31  O   UNL A   1      45.470  18.646  23.851  1.00  0.00    -0.246 OA
BRANCH  30  32
ATOM     32  C   UNL A   1      44.983  20.834  24.594  1.00  0.00     0.060 A 
ATOM     33  C   UNL A   1      45.564  21.173  25.813  1.00  0.00     0.016 A 
ATOM     34  C   UNL A   1      44.593  21.833  23.707  1.00  0.00     0.016 A 
ATOM     35  C   UNL A   1      45.676  22.507  26.197  1.00  0.00     0.010 A 
ATOM     36  C   UNL A   1      44.800  23.174  24.048  1.00  0.00     0.010 A 
ATOM     37  C   UNL A   1      45.314  23.528  25.311  1.00  0.00    -0.014 A 
BRANCH  37  38
ATOM     38  C   UNL A   1      45.440  24.961  25.700  1.00  0.00     0.031 A 
ATOM     39  C   UNL A   1      46.763  25.665  25.553  1.00  0.00     0.074 A 
ATOM     40  C   UNL A   1      44.386  25.637  26.198  1.00  0.00     0.049 A 
ATOM     41  N   UNL A   1      47.157  26.807  26.054  1.00  0.00    -0.248 NA
ATOM     42  C   UNL A   1      47.784  24.982  24.743  1.00  0.00     0.031 C 
ATOM     43  C   UNL A   1      43.028  25.108  26.341  1.00  0.00     0.029 A 
ATOM     44  N   UNL A   1      44.293  26.918  26.687  1.00  0.00    -0.354 N 
ATOM     45  C   UNL A   1      48.486  26.948  25.680  1.00  0.00     0.074 A 
ATOM     46  C   UNL A   1      48.831  25.779  24.899  1.00  0.00     0.031 C 
ATOM     47  C   UNL A   1      42.236  26.061  26.856  1.00  0.00     0.029 A 
ATOM     48  C   UNL A   1      43.047  27.233  27.170  1.00  0.00     0.049 A 
ATOM     49  H   UNL A   1      45.048  27.550  26.688  1.00  0.00     0.167 HD
ATOM     50  C   UNL A   1      49.341  27.958  25.970  1.00  0.00     0.037 A 
ATOM     51  C   UNL A   1      42.614  28.316  27.843  1.00  0.00     0.037 A 
ATOM     52  C   UNL A   1      48.976  29.148  26.693  1.00  0.00     0.049 A 
ATOM     53  C   UNL A   1      43.587  29.409  28.183  1.00  0.00     0.074 A 
ATOM     54  C   UNL A   1      49.765  30.236  27.023  1.00  0.00     0.029 A 
ATOM     55  N   UNL A   1      47.705  29.414  27.181  1.00  0.00    -0.354 N 
ATOM     56  N   UNL A   1      44.860  29.501  27.890  1.00  0.00    -0.248 NA
ATOM     57  C   UNL A   1      43.067  30.537  28.969  1.00  0.00     0.031 C 
ATOM     58  C   UNL A   1      48.980  31.148  27.737  1.00  0.00     0.029 A 
ATOM     59  C   UNL A   1      47.692  30.644  27.819  1.00  0.00     0.049 A 
ATOM     60  H   UNL A   1      46.928  28.817  27.089  1.00  0.00     0.167 HD
ATOM     61  C   UNL A   1      45.293  30.697  28.445  1.00  0.00     0.074 A 
ATOM     62  C   UNL A   1      44.142  31.306  29.078  1.00  0.00     0.031 C 
ATOM     63  C   UNL A   1      46.535  31.238  28.435  1.00  0.00     0.037 A 
BRANCH  50  64
ATOM     64  C   UNL A   1      50.770  27.807  25.539  1.00  0.00     0.064 A 
ATOM     65  C   UNL A   1      51.775  27.395  26.425  1.00  0.00     0.173 A 
ATOM     66  C   UNL A   1      51.128  28.040  24.202  1.00  0.00     0.173 A 
ATOM     67  F   UNL A   1      51.486  27.172  27.716  1.00  0.00    -0.203 F 
ATOM     68  C   UNL A   1      53.091  27.240  25.993  1.00  0.00     0.198 A 
ATOM     69  C   UNL A   1      52.438  27.861  23.768  1.00  0.00     0.198 A 
ATOM     70  F   UNL A   1      50.203  28.432  23.313  1.00  0.00    -0.203 F 
ATOM     71  F   UNL A   1      54.043  26.882  26.865  1.00  0.00    -0.200 F 
ATOM     72  C   UNL A   1      53.419  27.466  24.665  1.00  0.00     0.200 A 
ATOM     73  F   UNL A   1      52.752  28.069  22.482  1.00  0.00    -0.200 F 
ATOM     74  F   UNL A   1      54.684  27.310  24.249  1.00  0.00    -0.200 F 
ENDBRANCH  50  64
BRANCH  51  75
ATOM     75  C   UNL A   1      41.196  28.390  28.285  1.00  0.00     0.064 A 
ATOM     76  C   UNL A   1      40.810  27.916  29.546  1.00  0.00     0.173 A 
ATOM     77  C   UNL A   1      40.206  28.951  27.465  1.00  0.00     0.173 A 
ATOM     78  F   UNL A   1      41.716  27.348  30.354  1.00  0.00    -0.203 F 
ATOM     79  C   UNL A   1      39.483  27.995  29.967  1.00  0.00     0.198 A 
ATOM     80  C   UNL A   1      38.887  29.055  27.899  1.00  0.00     0.198 A 
ATOM     81  F   UNL A   1      40.525  29.416  26.248  1.00  0.00    -0.203 F 
ATOM     82  F   UNL A   1      39.132  27.504  31.163  1.00  0.00    -0.200 F 
ATOM     83  C   UNL A   1      38.526  28.574  29.147  1.00  0.00     0.200 A 
ATOM     84  F   UNL A   1      37.967  29.628  27.109  1.00  0.00    -0.200 F 
ATOM     85  F   UNL A   1      37.253  28.661  29.559  1.00  0.00    -0.200 F 
ENDBRANCH  51  75
BRANCH  63  86
ATOM     86  C   UNL A   1      46.707  32.570  29.101  1.00  0.00     0.064 A 
ATOM     87  C   UNL A   1      46.485  33.767  28.409  1.00  0.00     0.173 A 
ATOM     88  C   UNL A   1      47.055  32.644  30.458  1.00  0.00     0.173 A 
ATOM     89  F   UNL A   1      46.167  33.745  27.106  1.00  0.00    -0.203 F 
ATOM     90  C   UNL A   1      46.620  34.997  29.048  1.00  0.00     0.198 A 
ATOM     91  C   UNL A   1      47.167  33.875  31.099  1.00  0.00     0.198 A 
ATOM     92  F   UNL A   1      47.274  31.525  31.162  1.00  0.00    -0.203 F 
ATOM     93  F   UNL A   1      46.438  36.132  28.360  1.00  0.00    -0.200 F 
ATOM     94  C   UNL A   1      46.955  35.050  30.393  1.00  0.00     0.200 A 
ATOM     95  F   UNL A   1      47.483  33.923  32.401  1.00  0.00    -0.200 F 
ATOM     96  F   UNL A   1      47.077  36.233  31.009  1.00  0.00    -0.200 F 
ENDBRANCH  63  86
ENDBRANCH  37  38
ENDBRANCH  30  32
ENDBRANCH  29  30
ENDBRANCH  28  29
ENDBRANCH  27  28
ENDBRANCH   1  27
TORSDOF 16
ENDMDL
MODEL 2
REMARK VINA RESULT:     -11.7      2.948      8.387
REMARK SMILES C/C(=N\Nc1ccc(C(=O)OCCOC(=O)c2ccc(-c3c4nc(c(-c5c(F)c(F)c(F)c(F)c5F)c5ccc([nH]5)c(-c5c(F)c(F)c(F)c(F)c5F)c5nc(c(-c6c(F)c(F)c(F)c(F)c6F)c6ccc3[nH]6)C=C5)C=C4)cc2)cc1)c1cccc(S(=O)(=O)N(C)C)c1
REMARK SMILES IDX 11 1 9 2 10 3 8 4 5 5 6 6 81 7 7 8 80 9 4 10 3 12 1 13 2 14
REMARK SMILES IDX 82 15 83 16 93 17 84 18 86 19 85 20 87 21 88 22 89 23 90 24
REMARK SMILES IDX 91 25 92 26 12 27 13 28 14 29 15 30 16 31 17 32 18 33 79 34
REMARK SMILES IDX 19 35 78 36 20 37 21 38 22 39 72 40 23 41 77 42 71 43 73 44
REMARK SMILES IDX 24 45 76 46 70 47 69 48 25 50 57 51 37 52 56 53 38 54 41 55
REMARK SMILES IDX 55 56 74 57 39 58 40 59 54 61 75 62 42 63 26 64 27 65 35 66
REMARK SMILES IDX 28 67 29 68 33 69 36 70 30 71 31 72 34 73 32 74 58 75 59 76
REMARK SMILES IDX 67 77 60 78 61 79 65 80 68 81 62 82 63 83 66 84 64 85 43 86
REMARK SMILES IDX 44 87 52 88 45 89 46 90 50 91 53 92 47 93 48 94 51 95 49 96
REMARK H PARENT 4 11 73 49 41 60
REMARK Flexibility Score: inf
ROOT
ATOM      1  O   UNL A   1      35.644  21.615  25.903  1.00  0.00    -0.458 OA
ENDROOT
BRANCH   1   2
ATOM      2  C   UNL A   1      34.343  21.983  25.846  1.00  0.00     0.338 C 
ATOM      3  O   UNL A   1      33.527  21.916  26.751  1.00  0.00    -0.246 OA
BRANCH   2   4
ATOM      4  C   UNL A   1      34.011  22.551  24.520  1.00  0.00     0.060 A 
ATOM      5  C   UNL A   1      33.065  23.898  22.265  1.00  0.00     0.056 A 
ATOM      6  C   UNL A   1      34.044  24.489  23.069  1.00  0.00     0.028 A 
ATOM      7  C   UNL A   1      32.670  22.579  22.520  1.00  0.00     0.028 A 
ATOM      8  C   UNL A   1      34.465  23.843  24.224  1.00  0.00     0.018 A 
ATOM      9  C   UNL A   1      33.163  21.890  23.630  1.00  0.00     0.018 A 
BRANCH   5  10
ATOM     10  N   UNL A   1      32.320  24.738  21.423  1.00  0.00    -0.278 N 
ATOM     11  H   UNL A   1      32.029  24.382  20.553  1.00  0.00     0.190 HD
BRANCH  10  12
ATOM     12  N   UNL A   1      31.978  26.014  21.740  1.00  0.00    -0.180 NA
ATOM     13  C   UNL A   1      30.324  25.242  23.481  1.00  0.00     0.069 C 
ATOM     14  C   UNL A   1      31.113  26.277  22.688  1.00  0.00     0.065 C 
BRANCH  14  15
ATOM     15  C   UNL A   1      30.951  27.712  23.111  1.00  0.00    -0.001 A 
ATOM     16  C   UNL A   1      31.637  28.165  24.248  1.00  0.00     0.010 A 
ATOM     17  C   UNL A   1      30.000  28.545  22.512  1.00  0.00     0.031 A 
ATOM     18  C   UNL A   1      31.310  29.392  24.832  1.00  0.00     0.002 A 
ATOM     19  C   UNL A   1      29.607  29.718  23.158  1.00  0.00     0.083 A 
ATOM     20  C   UNL A   1      30.264  30.151  24.312  1.00  0.00     0.022 A 
BRANCH  19  21
ATOM     21  S   UNL A   1      28.170  30.606  22.605  1.00  0.00     0.242 S 
ATOM     22  O   UNL A   1      27.581  29.842  21.518  1.00  0.00    -0.207 OA
ATOM     23  O   UNL A   1      27.418  30.945  23.788  1.00  0.00    -0.207 OA
BRANCH  21  24
ATOM     24  N   UNL A   1      28.770  32.062  21.912  1.00  0.00    -0.204 NA
ATOM     25  C   UNL A   1      28.113  32.503  20.656  1.00  0.00     0.124 C 
ATOM     26  C   UNL A   1      28.815  33.178  22.890  1.00  0.00     0.124 C 
ENDBRANCH  21  24
ENDBRANCH  19  21
ENDBRANCH  14  15
ENDBRANCH  10  12
ENDBRANCH   5  10
ENDBRANCH   2   4
ENDBRANCH   1   2
BRANCH   1  27
ATOM     27  C   UNL A   1      36.017  20.543  25.019  1.00  0.00     0.275 C 
BRANCH  27  28
ATOM     28  C   UNL A   1      37.533  20.354  25.018  1.00  0.00     0.275 C 
BRANCH  28  29
ATOM     29  O   UNL A   1      38.180  21.486  25.631  1.00  0.00    -0.458 OA
BRANCH  29  30
ATOM     30  C   UNL A   1      39.360  21.229  26.238  1.00  0.00     0.338 C 
ATOM     31  O   UNL A   1      39.920  20.154  26.362  1.00  0.00    -0.246 OA
BRANCH  30  32
ATOM     32  C   UNL A   1      39.933  22.482  26.756  1.00  0.00     0.060 A 
ATOM     33  C   UNL A   1      39.484  23.699  26.250  1.00  0.00     0.016 A 
ATOM     34  C   UNL A   1      41.006  22.449  27.641  1.00  0.00     0.016 A 
ATOM     35  C   UNL A   1      40.158  24.881  26.550  1.00  0.00     0.010 A 
ATOM     36  C   UNL A   1      41.617  23.648  28.024  1.00  0.00     0.010 A 
ATOM     37  C   UNL A   1      41.222  24.875  27.458  1.00  0.00    -0.014 A 
BRANCH  37  38
ATOM     38  C   UNL A   1      41.944  26.132  27.801  1.00  0.00     0.031 A 
ATOM     39  C   UNL A   1      41.265  27.184  28.637  1.00  0.00     0.074 A 
ATOM     40  C   UNL A   1      43.199  26.350  27.359  1.00  0.00     0.049 A 
ATOM     41  N   UNL A   1      41.602  28.432  28.838  1.00  0.00    -0.248 NA
ATOM     42  C   UNL A   1      40.031  26.777  29.328  1.00  0.00     0.031 C 
ATOM     43  C   UNL A   1      44.008  25.401  26.594  1.00  0.00     0.029 A 
ATOM     44  N   UNL A   1      44.014  27.450  27.485  1.00  0.00    -0.354 N 
ATOM     45  C   UNL A   1      40.592  28.977  29.619  1.00  0.00     0.074 A 
ATOM     46  C   UNL A   1      39.633  27.921  29.866  1.00  0.00     0.031 C 
ATOM     47  C   UNL A   1      45.207  25.947  26.340  1.00  0.00     0.029 A 
ATOM     48  C   UNL A   1      45.218  27.318  26.838  1.00  0.00     0.049 A 
ATOM     49  H   UNL A   1      43.758  28.255  27.992  1.00  0.00     0.167 HD
ATOM     50  C   UNL A   1      40.474  30.245  30.079  1.00  0.00     0.037 A 
ATOM     51  C   UNL A   1      46.199  28.214  26.617  1.00  0.00     0.037 A 
ATOM     52  C   UNL A   1      41.461  31.275  29.884  1.00  0.00     0.049 A 
ATOM     53  C   UNL A   1      46.033  29.624  27.108  1.00  0.00     0.074 A 
ATOM     54  C   UNL A   1      41.442  32.587  30.325  1.00  0.00     0.029 A 
ATOM     55  N   UNL A   1      42.657  31.100  29.204  1.00  0.00    -0.354 N 
ATOM     56  N   UNL A   1      45.041  30.151  27.782  1.00  0.00    -0.248 NA
ATOM     57  C   UNL A   1      47.111  30.569  26.785  1.00  0.00     0.031 C 
ATOM     58  C   UNL A   1      42.613  33.214  29.887  1.00  0.00     0.029 A 
ATOM     59  C   UNL A   1      43.378  32.282  29.205  1.00  0.00     0.049 A 
ATOM     60  H   UNL A   1      42.950  30.260  28.782  1.00  0.00     0.167 HD
ATOM     61  C   UNL A   1      45.377  31.484  27.973  1.00  0.00     0.074 A 
ATOM     62  C   UNL A   1      46.674  31.681  27.358  1.00  0.00     0.031 C 
ATOM     63  C   UNL A   1      44.671  32.457  28.596  1.00  0.00     0.037 A 
BRANCH  50  64
ATOM     64  C   UNL A   1      39.214  30.608  30.809  1.00  0.00     0.064 A 
ATOM     65  C   UNL A   1      38.067  31.054  30.139  1.00  0.00     0.173 A 
ATOM     66  C   UNL A   1      39.146  30.464  32.204  1.00  0.00     0.173 A 
ATOM     67  F   UNL A   1      38.086  31.221  28.808  1.00  0.00    -0.203 F 
ATOM     68  C   UNL A   1      36.903  31.362  30.839  1.00  0.00     0.198 A 
ATOM     69  C   UNL A   1      37.974  30.748  32.899  1.00  0.00     0.198 A 
ATOM     70  F   UNL A   1      40.214  30.035  32.892  1.00  0.00    -0.203 F 
ATOM     71  F   UNL A   1      35.829  31.823  30.183  1.00  0.00    -0.200 F 
ATOM     72  C   UNL A   1      36.855  31.202  32.216  1.00  0.00     0.200 A 
ATOM     73  F   UNL A   1      37.926  30.582  34.227  1.00  0.00    -0.200 F 
ATOM     74  F   UNL A   1      35.731  31.491  32.888  1.00  0.00    -0.200 F 
ENDBRANCH  50  64
BRANCH  51  75
ATOM     75  C   UNL A   1      47.405  27.811  25.847  1.00  0.00     0.064 A 
ATOM     76  C   UNL A   1      48.588  27.444  26.502  1.00  0.00     0.173 A 
ATOM     77  C   UNL A   1      47.394  27.768  24.445  1.00  0.00     0.173 A 
ATOM     78  F   UNL A   1      48.655  27.495  27.841  1.00  0.00    -0.203 F 
ATOM     79  C   UNL A   1      49.717  27.056  25.783  1.00  0.00     0.198 A 
ATOM     80  C   UNL A   1      48.513  27.352  23.729  1.00  0.00     0.198 A 
ATOM     81  F   UNL A   1      46.286  28.112  23.771  1.00  0.00    -0.203 F 
ATOM     82  F   UNL A   1      50.847  26.743  26.431  1.00  0.00    -0.200 F 
ATOM     83  C   UNL A   1      49.675  27.000  24.397  1.00  0.00     0.200 A 
ATOM     84  F   UNL A   1      48.463  27.286  22.390  1.00  0.00    -0.200 F 
ATOM     85  F   UNL A   1      50.757  26.613  23.707  1.00  0.00    -0.200 F 
ENDBRANCH  51  75
BRANCH  63  86
ATOM     86  C   UNL A   1      45.299  33.816  28.675  1.00  0.00     0.064 A 
ATOM     87  C   UNL A   1      45.029  34.803  27.717  1.00  0.00     0.173 A 
ATOM     88  C   UNL A   1      46.144  34.146  29.744  1.00  0.00     0.173 A 
ATOM     89  F   UNL A   1      44.241  34.528  26.667  1.00  0.00    -0.203 F 
ATOM     90  C   UNL A   1      45.596  36.070  27.819  1.00  0.00     0.198 A 
ATOM     91  C   UNL A   1      46.692  35.421  29.854  1.00  0.00     0.198 A 
ATOM     92  F   UNL A   1      46.429  33.236  30.686  1.00  0.00    -0.203 F 
ATOM     93  F   UNL A   1      45.355  36.989  26.874  1.00  0.00    -0.200 F 
ATOM     94  C   UNL A   1      46.422  36.380  28.890  1.00  0.00     0.200 A 
ATOM     95  F   UNL A   1      47.483  35.721  30.895  1.00  0.00    -0.200 F 
ATOM     96  F   UNL A   1      46.962  37.602  28.990  1.00  0.00    -0.200 F 
ENDBRANCH  63  86
ENDBRANCH  37  38
ENDBRANCH  30  32
ENDBRANCH  29  30
ENDBRANCH  28  29
ENDBRANCH  27  28
ENDBRANCH   1  27
TORSDOF 16
ENDMDL
MODEL 3
REMARK VINA RESULT:     -11.6      6.819     12.624
REMARK SMILES C/C(=N\Nc1ccc(C(=O)OCCOC(=O)c2ccc(-c3c4nc(c(-c5c(F)c(F)c(F)c(F)c5F)c5ccc([nH]5)c(-c5c(F)c(F)c(F)c(F)c5F)c5nc(c(-c6c(F)c(F)c(F)c(F)c6F)c6ccc3[nH]6)C=C5)C=C4)cc2)cc1)c1cccc(S(=O)(=O)N(C)C)c1
REMARK SMILES IDX 11 1 9 2 10 3 8 4 5 5 6 6 81 7 7 8 80 9 4 10 3 12 1 13 2 14
REMARK SMILES IDX 82 15 83 16 93 17 84 18 86 19 85 20 87 21 88 22 89 23 90 24
REMARK SMILES IDX 91 25 92 26 12 27 13 28 14 29 15 30 16 31 17 32 18 33 79 34
REMARK SMILES IDX 19 35 78 36 20 37 21 38 22 39 72 40 23 41 77 42 71 43 73 44
REMARK SMILES IDX 24 45 76 46 70 47 69 48 25 50 57 51 37 52 56 53 38 54 41 55
REMARK SMILES IDX 55 56 74 57 39 58 40 59 54 61 75 62 42 63 26 64 27 65 35 66
REMARK SMILES IDX 28 67 29 68 33 69 36 70 30 71 31 72 34 73 32 74 58 75 59 76
REMARK SMILES IDX 67 77 60 78 61 79 65 80 68 81 62 82 63 83 66 84 64 85 43 86
REMARK SMILES IDX 44 87 52 88 45 89 46 90 50 91 53 92 47 93 48 94 51 95 49 96
REMARK H PARENT 4 11 73 49 41 60
REMARK Flexibility Score: inf
ROOT
ATOM      1  O   UNL A   1      33.794  34.015  28.702  1.00  0.00    -0.458 OA
ENDROOT
BRANCH   1   2
ATOM      2  C   UNL A   1      34.909  33.263  28.553  1.00  0.00     0.338 C 
ATOM      3  O   UNL A   1      36.059  33.616  28.763  1.00  0.00    -0.246 OA
BRANCH   2   4
ATOM      4  C   UNL A   1      34.566  31.885  28.136  1.00  0.00     0.060 A 
ATOM      5  C   UNL A   1      34.161  29.395  26.939  1.00  0.00     0.056 A 
ATOM      6  C   UNL A   1      35.365  29.663  27.598  1.00  0.00     0.028 A 
ATOM      7  C   UNL A   1      33.119  30.327  27.006  1.00  0.00     0.028 A 
ATOM      8  C   UNL A   1      35.586  30.924  28.136  1.00  0.00     0.018 A 
ATOM      9  C   UNL A   1      33.307  31.562  27.629  1.00  0.00     0.018 A 
BRANCH   5  10
ATOM     10  N   UNL A   1      34.148  28.344  26.010  1.00  0.00    -0.278 N 
ATOM     11  H   UNL A   1      34.749  28.406  25.232  1.00  0.00     0.190 HD
BRANCH  10  12
ATOM     12  N   UNL A   1      33.354  27.248  26.121  1.00  0.00    -0.180 NA
ATOM     13  C   UNL A   1      33.513  26.760  23.652  1.00  0.00     0.069 C 
ATOM     14  C   UNL A   1      33.080  26.491  25.088  1.00  0.00     0.065 C 
BRANCH  14  15
ATOM     15  C   UNL A   1      32.369  25.189  25.341  1.00  0.00    -0.001 A 
ATOM     16  C   UNL A   1      31.112  25.214  25.964  1.00  0.00     0.010 A 
ATOM     17  C   UNL A   1      33.005  23.960  25.140  1.00  0.00     0.031 A 
ATOM     18  C   UNL A   1      30.544  24.038  26.461  1.00  0.00     0.002 A 
ATOM     19  C   UNL A   1      32.483  22.808  25.729  1.00  0.00     0.083 A 
ATOM     20  C   UNL A   1      31.249  22.839  26.383  1.00  0.00     0.022 A 
BRANCH  19  21
ATOM     21  S   UNL A   1      33.446  21.315  25.785  1.00  0.00     0.242 S 
ATOM     22  O   UNL A   1      34.563  21.485  24.872  1.00  0.00    -0.207 OA
ATOM     23  O   UNL A   1      33.646  21.008  27.179  1.00  0.00    -0.207 OA
BRANCH  21  24
ATOM     24  N   UNL A   1      32.439  20.097  25.104  1.00  0.00    -0.204 NA
ATOM     25  C   UNL A   1      32.378  20.058  23.621  1.00  0.00     0.124 C 
ATOM     26  C   UNL A   1      32.740  18.747  25.643  1.00  0.00     0.124 C 
ENDBRANCH  21  24
ENDBRANCH  19  21
ENDBRANCH  14  15
ENDBRANCH  10  12
ENDBRANCH   5  10
ENDBRANCH   2   4
ENDBRANCH   1   2
BRANCH   1  27
ATOM     27  C   UNL A   1      34.000  35.438  28.629  1.00  0.00     0.275 C 
BRANCH  27  28
ATOM     28  C   UNL A   1      32.906  36.175  29.398  1.00  0.00     0.275 C 
BRANCH  28  29
ATOM     29  O   UNL A   1      32.405  35.354  30.471  1.00  0.00    -0.458 OA
BRANCH  29  30
ATOM     30  C   UNL A   1      32.624  35.823  31.720  1.00  0.00     0.338 C 
ATOM     31  O   UNL A   1      32.021  36.706  32.304  1.00  0.00    -0.246 OA
BRANCH  30  32
ATOM     32  C   UNL A   1      33.739  35.087  32.336  1.00  0.00     0.060 A 
ATOM     33  C   UNL A   1      35.017  35.640  32.314  1.00  0.00     0.016 A 
ATOM     34  C   UNL A   1      33.547  33.795  32.815  1.00  0.00     0.016 A 
ATOM     35  C   UNL A   1      36.123  34.877  32.681  1.00  0.00     0.010 A 
ATOM     36  C   UNL A   1      34.646  33.065  33.282  1.00  0.00     0.010 A 
ATOM     37  C   UNL A   1      35.952  33.585  33.191  1.00  0.00    -0.014 A 
BRANCH  37  38
ATOM     38  C   UNL A   1      37.123  32.761  33.601  1.00  0.00     0.031 A 
ATOM     39  C   UNL A   1      37.762  32.985  34.946  1.00  0.00     0.074 A 
ATOM     40  C   UNL A   1      37.631  31.824  32.778  1.00  0.00     0.049 A 
ATOM     41  N   UNL A   1      38.918  32.569  35.396  1.00  0.00    -0.248 NA
ATOM     42  C   UNL A   1      37.002  33.797  35.908  1.00  0.00     0.031 C 
ATOM     43  C   UNL A   1      37.082  31.451  31.473  1.00  0.00     0.029 A 
ATOM     44  N   UNL A   1      38.734  31.015  32.914  1.00  0.00    -0.354 N 
ATOM     45  C   UNL A   1      39.055  33.123  36.661  1.00  0.00     0.074 A 
ATOM     46  C   UNL A   1      37.858  33.897  36.915  1.00  0.00     0.031 C 
ATOM     47  C   UNL A   1      37.833  30.474  30.941  1.00  0.00     0.029 A 
ATOM     48  C   UNL A   1      38.969  30.219  31.819  1.00  0.00     0.049 A 
ATOM     49  H   UNL A   1      39.299  31.006  33.720  1.00  0.00     0.167 HD
ATOM     50  C   UNL A   1      40.090  33.002  37.527  1.00  0.00     0.037 A 
ATOM     51  C   UNL A   1      40.010  29.417  31.525  1.00  0.00     0.037 A 
ATOM     52  C   UNL A   1      41.249  32.181  37.297  1.00  0.00     0.049 A 
ATOM     53  C   UNL A   1      41.162  29.323  32.485  1.00  0.00     0.074 A 
ATOM     54  C   UNL A   1      42.344  31.979  38.120  1.00  0.00     0.029 A 
ATOM     55  N   UNL A   1      41.454  31.408  36.164  1.00  0.00    -0.354 N 
ATOM     56  N   UNL A   1      41.318  29.908  33.646  1.00  0.00    -0.248 NA
ATOM     57  C   UNL A   1      42.294  28.477  32.080  1.00  0.00     0.031 C 
ATOM     58  C   UNL A   1      43.225  31.106  37.472  1.00  0.00     0.029 A 
ATOM     59  C   UNL A   1      42.661  30.736  36.262  1.00  0.00     0.049 A 
ATOM     60  H   UNL A   1      40.833  31.345  35.402  1.00  0.00     0.167 HD
ATOM     61  C   UNL A   1      42.557  29.496  34.116  1.00  0.00     0.074 A 
ATOM     62  C   UNL A   1      43.105  28.597  33.122  1.00  0.00     0.031 C 
ATOM     63  C   UNL A   1      43.186  29.838  35.266  1.00  0.00     0.037 A 
BRANCH  50  64
ATOM     64  C   UNL A   1      40.038  33.807  38.793  1.00  0.00     0.064 A 
ATOM     65  C   UNL A   1      40.654  35.061  38.903  1.00  0.00     0.173 A 
ATOM     66  C   UNL A   1      39.319  33.327  39.899  1.00  0.00     0.173 A 
ATOM     67  F   UNL A   1      41.363  35.557  37.878  1.00  0.00    -0.203 F 
ATOM     68  C   UNL A   1      40.570  35.797  40.083  1.00  0.00     0.198 A 
ATOM     69  C   UNL A   1      39.217  34.076  41.068  1.00  0.00     0.198 A 
ATOM     70  F   UNL A   1      38.707  32.135  39.843  1.00  0.00    -0.203 F 
ATOM     71  F   UNL A   1      41.198  36.977  40.181  1.00  0.00    -0.200 F 
ATOM     72  C   UNL A   1      39.847  35.308  41.161  1.00  0.00     0.200 A 
ATOM     73  F   UNL A   1      38.508  33.608  42.104  1.00  0.00    -0.200 F 
ATOM     74  F   UNL A   1      39.761  36.022  42.292  1.00  0.00    -0.200 F 
ENDBRANCH  50  64
BRANCH  51  75
ATOM     75  C   UNL A   1      40.030  28.679  30.235  1.00  0.00     0.064 A 
ATOM     76  C   UNL A   1      40.648  29.225  29.102  1.00  0.00     0.173 A 
ATOM     77  C   UNL A   1      39.446  27.409  30.113  1.00  0.00     0.173 A 
ATOM     78  F   UNL A   1      41.196  30.447  29.163  1.00  0.00    -0.203 F 
ATOM     79  C   UNL A   1      40.677  28.530  27.894  1.00  0.00     0.198 A 
ATOM     80  C   UNL A   1      39.501  26.704  28.914  1.00  0.00     0.198 A 
ATOM     81  F   UNL A   1      38.840  26.844  31.168  1.00  0.00    -0.203 F 
ATOM     82  F   UNL A   1      41.244  29.088  26.816  1.00  0.00    -0.200 F 
ATOM     83  C   UNL A   1      40.113  27.266  27.804  1.00  0.00     0.200 A 
ATOM     84  F   UNL A   1      38.967  25.476  28.835  1.00  0.00    -0.200 F 
ATOM     85  F   UNL A   1      40.153  26.593  26.645  1.00  0.00    -0.200 F 
ENDBRANCH  51  75
BRANCH  63  86
ATOM     86  C   UNL A   1      44.523  29.212  35.528  1.00  0.00     0.064 A 
ATOM     87  C   UNL A   1      45.711  29.824  35.108  1.00  0.00     0.173 A 
ATOM     88  C   UNL A   1      44.615  28.011  36.246  1.00  0.00     0.173 A 
ATOM     89  F   UNL A   1      45.671  30.966  34.404  1.00  0.00    -0.203 F 
ATOM     90  C   UNL A   1      46.948  29.247  35.385  1.00  0.00     0.198 A 
ATOM     91  C   UNL A   1      45.854  27.448  36.540  1.00  0.00     0.198 A 
ATOM     92  F   UNL A   1      43.505  27.390  36.671  1.00  0.00    -0.203 F 
ATOM     93  F   UNL A   1      48.071  29.829  34.944  1.00  0.00    -0.200 F 
ATOM     94  C   UNL A   1      47.018  28.063  36.105  1.00  0.00     0.200 A 
ATOM     95  F   UNL A   1      45.920  26.308  37.243  1.00  0.00    -0.200 F 
ATOM     96  F   UNL A   1      48.208  27.512  36.376  1.00  0.00    -0.200 F 
ENDBRANCH  63  86
ENDBRANCH  37  38
ENDBRANCH  30  32
ENDBRANCH  29  30
ENDBRANCH  28  29
ENDBRANCH  27  28
ENDBRANCH   1  27
TORSDOF 16
ENDMDL
