MODEL 1
REMARK VINA RESULT:     -11.9      0.000      0.000
REMARK SMILES O=C(OCCOC(=O)[C@H]1CCCCN1S(=O)(=O)c1cc[nH]c1)c1ccc(-c2c3nc(c(-c4c(F)c(F)c(F)c(F)c4F)c4ccc([nH]4)c(-c4c(F)c(F)c(F)c(F)c4F)c4nc(c(-c5c(F)c(F)c(F)c(F)c5F)c5ccc2[nH]5)C=C4)C=C3)cc1
REMARK SMILES IDX 4 1 3 2 2 3 1 4 23 5 24 6 85 7 25 8 84 9 26 10 27 11 28 12
REMARK SMILES IDX 78 13 29 14 83 15 77 16 79 17 30 18 82 19 76 20 75 21 31 23
REMARK SMILES IDX 63 24 43 25 62 26 44 27 47 28 61 29 80 30 45 31 46 32 60 34
REMARK SMILES IDX 81 35 48 36 32 37 33 38 41 39 34 40 35 41 39 42 42 43 36 44
REMARK SMILES IDX 37 45 40 46 38 47 64 48 65 49 73 50 66 51 67 52 71 53 74 54
REMARK SMILES IDX 68 55 69 56 72 57 70 58 49 59 50 60 58 61 51 62 52 63 56 64
REMARK SMILES IDX 59 65 53 66 54 67 57 68 55 69 5 70 6 71 7 72 8 73 9 74 10 75
REMARK SMILES IDX 14 76 11 77 13 78 12 79 15 80 16 81 17 82 18 83 19 84 22 85
REMARK SMILES IDX 20 86 21 87
REMARK H PARENT 79 22 47 33 21 88
REMARK Flexibility Score: inf
ROOT
ATOM      1  C   UNL A   1      34.403  29.102  26.495  1.00  0.00     0.275 C 
ENDROOT
BRANCH   1   2
ATOM      2  O   UNL A   1      34.920  29.636  27.728  1.00  0.00    -0.458 OA
BRANCH   2   3
ATOM      3  C   UNL A   1      36.068  30.335  27.878  1.00  0.00     0.338 C 
ATOM      4  O   UNL A   1      36.048  31.530  28.154  1.00  0.00    -0.246 OA
BRANCH   3   5
ATOM      5  C   UNL A   1      37.371  29.620  27.967  1.00  0.00     0.060 A 
ATOM      6  C   UNL A   1      38.394  29.687  27.022  1.00  0.00     0.016 A 
ATOM      7  C   UNL A   1      37.588  28.871  29.144  1.00  0.00     0.016 A 
ATOM      8  C   UNL A   1      39.580  28.986  27.212  1.00  0.00     0.010 A 
ATOM      9  C   UNL A   1      38.780  28.182  29.352  1.00  0.00     0.010 A 
ATOM     10  C   UNL A   1      39.778  28.244  28.380  1.00  0.00    -0.014 A 
BRANCH  10  11
ATOM     11  C   UNL A   1      41.116  27.649  28.578  1.00  0.00     0.031 A 
ATOM     12  C   UNL A   1      41.188  26.193  28.102  1.00  0.00     0.074 A 
ATOM     13  C   UNL A   1      42.022  28.430  29.239  1.00  0.00     0.049 A 
ATOM     14  N   UNL A   1      41.919  25.209  28.532  1.00  0.00    -0.248 NA
ATOM     15  C   UNL A   1      40.259  25.744  27.031  1.00  0.00     0.031 C 
ATOM     16  C   UNL A   1      41.792  29.846  29.586  1.00  0.00     0.029 A 
ATOM     17  N   UNL A   1      43.280  28.215  29.766  1.00  0.00    -0.354 N 
ATOM     18  C   UNL A   1      41.696  24.109  27.674  1.00  0.00     0.074 A 
ATOM     19  C   UNL A   1      40.581  24.462  26.849  1.00  0.00     0.031 C 
ATOM     20  C   UNL A   1      42.811  30.331  30.322  1.00  0.00     0.029 A 
ATOM     21  C   UNL A   1      43.807  29.297  30.523  1.00  0.00     0.049 A 
ATOM     22  H   UNL A   1      43.776  27.376  29.628  1.00  0.00     0.167 HD
ATOM     23  C   UNL A   1      42.533  23.031  27.608  1.00  0.00     0.037 A 
ATOM     24  C   UNL A   1      44.939  29.349  31.294  1.00  0.00     0.037 A 
ATOM     25  C   UNL A   1      43.569  23.153  28.575  1.00  0.00     0.049 A 
ATOM     26  C   UNL A   1      45.623  28.067  31.067  1.00  0.00     0.074 A 
ATOM     27  C   UNL A   1      43.607  22.980  29.931  1.00  0.00     0.029 A 
ATOM     28  N   UNL A   1      44.725  23.773  28.174  1.00  0.00    -0.354 N 
ATOM     29  N   UNL A   1      46.267  27.763  29.981  1.00  0.00    -0.248 NA
ATOM     30  C   UNL A   1      45.530  27.017  32.089  1.00  0.00     0.031 C 
ATOM     31  C   UNL A   1      44.617  23.863  30.367  1.00  0.00     0.029 A 
ATOM     32  C   UNL A   1      45.226  24.455  29.255  1.00  0.00     0.049 A 
ATOM     33  H   UNL A   1      45.123  23.736  27.274  1.00  0.00     0.167 HD
ATOM     34  C   UNL A   1      46.361  26.393  30.070  1.00  0.00     0.074 A 
ATOM     35  C   UNL A   1      46.206  26.057  31.465  1.00  0.00     0.031 C 
ATOM     36  C   UNL A   1      46.018  25.636  28.998  1.00  0.00     0.037 A 
BRANCH  23  37
ATOM     37  C   UNL A   1      42.681  21.922  26.597  1.00  0.00     0.064 A 
ATOM     38  C   UNL A   1      42.181  20.635  26.932  1.00  0.00     0.173 A 
ATOM     39  C   UNL A   1      43.565  21.969  25.512  1.00  0.00     0.173 A 
ATOM     40  F   UNL A   1      41.285  20.480  27.920  1.00  0.00    -0.203 F 
ATOM     41  C   UNL A   1      42.649  19.472  26.324  1.00  0.00     0.198 A 
ATOM     42  C   UNL A   1      43.993  20.802  24.867  1.00  0.00     0.198 A 
ATOM     43  F   UNL A   1      44.112  23.124  25.112  1.00  0.00    -0.203 F 
ATOM     44  F   UNL A   1      42.253  18.274  26.776  1.00  0.00    -0.200 F 
ATOM     45  C   UNL A   1      43.571  19.555  25.300  1.00  0.00     0.200 A 
ATOM     46  F   UNL A   1      44.877  20.886  23.864  1.00  0.00    -0.200 F 
ATOM     47  F   UNL A   1      44.076  18.440  24.756  1.00  0.00    -0.200 F 
ENDBRANCH  23  37
BRANCH  24  48
ATOM     48  C   UNL A   1      45.585  30.288  32.296  1.00  0.00     0.064 A 
ATOM     49  C   UNL A   1      45.145  30.534  33.603  1.00  0.00     0.173 A 
ATOM     50  C   UNL A   1      46.790  30.972  31.960  1.00  0.00     0.173 A 
ATOM     51  F   UNL A   1      43.969  30.078  34.040  1.00  0.00    -0.203 F 
ATOM     52  C   UNL A   1      45.899  31.291  34.522  1.00  0.00     0.198 A 
ATOM     53  C   UNL A   1      47.558  31.690  32.879  1.00  0.00     0.198 A 
ATOM     54  F   UNL A   1      47.281  30.971  30.714  1.00  0.00    -0.203 F 
ATOM     55  F   UNL A   1      45.435  31.478  35.764  1.00  0.00    -0.200 F 
ATOM     56  C   UNL A   1      47.121  31.836  34.170  1.00  0.00     0.200 A 
ATOM     57  F   UNL A   1      48.730  32.218  32.495  1.00  0.00    -0.200 F 
ATOM     58  F   UNL A   1      47.861  32.505  35.063  1.00  0.00    -0.200 F 
ENDBRANCH  24  48
BRANCH  36  59
ATOM     59  C   UNL A   1      46.116  26.386  27.680  1.00  0.00     0.064 A 
ATOM     60  C   UNL A   1      44.954  26.710  26.965  1.00  0.00     0.173 A 
ATOM     61  C   UNL A   1      47.333  26.657  27.032  1.00  0.00     0.173 A 
ATOM     62  F   UNL A   1      43.749  26.497  27.516  1.00  0.00    -0.203 F 
ATOM     63  C   UNL A   1      45.011  27.246  25.674  1.00  0.00     0.198 A 
ATOM     64  C   UNL A   1      47.395  27.199  25.747  1.00  0.00     0.198 A 
ATOM     65  F   UNL A   1      48.491  26.401  27.632  1.00  0.00    -0.203 F 
ATOM     66  F   UNL A   1      43.877  27.530  25.020  1.00  0.00    -0.200 F 
ATOM     67  C   UNL A   1      46.232  27.485  25.065  1.00  0.00     0.200 A 
ATOM     68  F   UNL A   1      48.588  27.443  25.181  1.00  0.00    -0.200 F 
ATOM     69  F   UNL A   1      46.286  28.004  23.829  1.00  0.00    -0.200 F 
ENDBRANCH  36  59
ENDBRANCH  10  11
ENDBRANCH   3   5
ENDBRANCH   2   3
ENDBRANCH   1   2
BRANCH   1  70
ATOM     70  C   UNL A   1      33.407  27.951  26.653  1.00  0.00     0.274 C 
BRANCH  70  71
ATOM     71  O   UNL A   1      33.886  26.692  26.142  1.00  0.00    -0.461 OA
BRANCH  71  72
ATOM     72  C   UNL A   1      33.182  26.198  25.080  1.00  0.00     0.324 C 
ATOM     73  O   UNL A   1      33.341  26.582  23.928  1.00  0.00    -0.250 OA
BRANCH  72  74
ATOM     74  C   UNL A   1      32.102  25.188  25.484  1.00  0.00     0.183 C 
ATOM     75  C   UNL A   1      30.651  25.620  25.210  1.00  0.00     0.032 C 
ATOM     76  N   UNL A   1      32.336  23.799  24.942  1.00  0.00    -0.184 NA
ATOM     77  C   UNL A   1      30.196  25.419  23.766  1.00  0.00     0.004 C 
ATOM     78  C   UNL A   1      32.010  23.691  23.498  1.00  0.00     0.103 C 
ATOM     79  C   UNL A   1      30.539  24.021  23.272  1.00  0.00     0.017 C 
BRANCH  76  80
ATOM     80  S   UNL A   1      33.893  23.199  25.368  1.00  0.00     0.245 S 
ATOM     81  O   UNL A   1      34.818  23.593  24.318  1.00  0.00    -0.207 OA
ATOM     82  O   UNL A   1      34.116  23.473  26.763  1.00  0.00    -0.207 OA
BRANCH  80  83
ATOM     83  C   UNL A   1      33.893  21.471  25.266  1.00  0.00     0.100 A 
ATOM     84  C   UNL A   1      32.756  20.636  25.427  1.00  0.00     0.041 A 
ATOM     85  C   UNL A   1      34.961  20.655  24.949  1.00  0.00     0.104 A 
ATOM     86  C   UNL A   1      33.169  19.339  25.219  1.00  0.00     0.083 A 
ATOM     87  N   UNL A   1      34.506  19.361  24.914  1.00  0.00    -0.366 N 
ATOM     88  H   UNL A   1      35.054  18.571  24.703  1.00  0.00     0.165 HD
ENDBRANCH  80  83
ENDBRANCH  76  80
ENDBRANCH  72  74
ENDBRANCH  71  72
ENDBRANCH  70  71
ENDBRANCH   1  70
TORSDOF 13
ENDMDL
MODEL 2
REMARK VINA RESULT:     -11.7      3.804      6.439
REMARK SMILES O=C(OCCOC(=O)[C@H]1CCCCN1S(=O)(=O)c1cc[nH]c1)c1ccc(-c2c3nc(c(-c4c(F)c(F)c(F)c(F)c4F)c4ccc([nH]4)c(-c4c(F)c(F)c(F)c(F)c4F)c4nc(c(-c5c(F)c(F)c(F)c(F)c5F)c5ccc2[nH]5)C=C4)C=C3)cc1
REMARK SMILES IDX 4 1 3 2 2 3 1 4 23 5 24 6 85 7 25 8 84 9 26 10 27 11 28 12
REMARK SMILES IDX 78 13 29 14 83 15 77 16 79 17 30 18 82 19 76 20 75 21 31 23
REMARK SMILES IDX 63 24 43 25 62 26 44 27 47 28 61 29 80 30 45 31 46 32 60 34
REMARK SMILES IDX 81 35 48 36 32 37 33 38 41 39 34 40 35 41 39 42 42 43 36 44
REMARK SMILES IDX 37 45 40 46 38 47 64 48 65 49 73 50 66 51 67 52 71 53 74 54
REMARK SMILES IDX 68 55 69 56 72 57 70 58 49 59 50 60 58 61 51 62 52 63 56 64
REMARK SMILES IDX 59 65 53 66 54 67 57 68 55 69 5 70 6 71 7 72 8 73 9 74 10 75
REMARK SMILES IDX 14 76 11 77 13 78 12 79 15 80 16 81 17 82 18 83 19 84 22 85
REMARK SMILES IDX 20 86 21 87
REMARK H PARENT 79 22 47 33 21 88
REMARK Flexibility Score: inf
ROOT
ATOM      1  C   UNL A   1      36.005  32.719  28.456  1.00  0.00     0.275 C 
ENDROOT
BRANCH   1   2
ATOM      2  O   UNL A   1      35.831  31.349  28.867  1.00  0.00    -0.458 OA
BRANCH   2   3
ATOM      3  C   UNL A   1      36.045  30.253  28.106  1.00  0.00     0.338 C 
ATOM      4  O   UNL A   1      35.261  29.938  27.216  1.00  0.00    -0.246 OA
BRANCH   3   5
ATOM      5  C   UNL A   1      37.361  29.555  28.155  1.00  0.00     0.060 A 
ATOM      6  C   UNL A   1      38.390  29.710  27.226  1.00  0.00     0.016 A 
ATOM      7  C   UNL A   1      37.581  28.725  29.274  1.00  0.00     0.016 A 
ATOM      8  C   UNL A   1      39.586  29.018  27.376  1.00  0.00     0.010 A 
ATOM      9  C   UNL A   1      38.783  28.042  29.442  1.00  0.00     0.010 A 
ATOM     10  C   UNL A   1      39.788  28.194  28.487  1.00  0.00    -0.014 A 
BRANCH  10  11
ATOM     11  C   UNL A   1      41.135  27.609  28.653  1.00  0.00     0.031 A 
ATOM     12  C   UNL A   1      41.210  26.158  28.161  1.00  0.00     0.074 A 
ATOM     13  C   UNL A   1      42.047  28.392  29.304  1.00  0.00     0.049 A 
ATOM     14  N   UNL A   1      41.958  25.177  28.566  1.00  0.00    -0.248 NA
ATOM     15  C   UNL A   1      40.264  25.712  27.103  1.00  0.00     0.031 C 
ATOM     16  C   UNL A   1      41.811  29.802  29.670  1.00  0.00     0.029 A 
ATOM     17  N   UNL A   1      43.317  28.183  29.804  1.00  0.00    -0.354 N 
ATOM     18  C   UNL A   1      41.728  24.084  27.702  1.00  0.00     0.074 A 
ATOM     19  C   UNL A   1      40.594  24.435  26.901  1.00  0.00     0.031 C 
ATOM     20  C   UNL A   1      42.840  30.288  30.391  1.00  0.00     0.029 A 
ATOM     21  C   UNL A   1      43.849  29.261  30.562  1.00  0.00     0.049 A 
ATOM     22  H   UNL A   1      43.817  27.349  29.648  1.00  0.00     0.167 HD
ATOM     23  C   UNL A   1      42.573  23.014  27.608  1.00  0.00     0.037 A 
ATOM     24  C   UNL A   1      44.995  29.315  31.312  1.00  0.00     0.037 A 
ATOM     25  C   UNL A   1      43.627  23.136  28.557  1.00  0.00     0.049 A 
ATOM     26  C   UNL A   1      45.685  28.042  31.059  1.00  0.00     0.074 A 
ATOM     27  C   UNL A   1      43.692  22.949  29.910  1.00  0.00     0.029 A 
ATOM     28  N   UNL A   1      44.769  23.769  28.140  1.00  0.00    -0.354 N 
ATOM     29  N   UNL A   1      46.311  27.755  29.957  1.00  0.00    -0.248 NA
ATOM     30  C   UNL A   1      45.621  26.981  32.071  1.00  0.00     0.031 C 
ATOM     31  C   UNL A   1      44.703  23.836  30.335  1.00  0.00     0.029 A 
ATOM     32  C   UNL A   1      45.284  24.446  29.218  1.00  0.00     0.049 A 
ATOM     33  H   UNL A   1      45.150  23.745  27.232  1.00  0.00     0.167 HD
ATOM     34  C   UNL A   1      46.419  26.385  30.031  1.00  0.00     0.074 A 
ATOM     35  C   UNL A   1      46.294  26.033  31.425  1.00  0.00     0.031 C 
ATOM     36  C   UNL A   1      46.061  25.636  28.957  1.00  0.00     0.037 A 
BRANCH  23  37
ATOM     37  C   UNL A   1      42.711  21.916  26.583  1.00  0.00     0.064 A 
ATOM     38  C   UNL A   1      42.194  20.632  26.899  1.00  0.00     0.173 A 
ATOM     39  C   UNL A   1      43.600  21.966  25.502  1.00  0.00     0.173 A 
ATOM     40  F   UNL A   1      41.291  20.476  27.881  1.00  0.00    -0.203 F 
ATOM     41  C   UNL A   1      42.649  19.471  26.278  1.00  0.00     0.198 A 
ATOM     42  C   UNL A   1      44.015  20.803  24.844  1.00  0.00     0.198 A 
ATOM     43  F   UNL A   1      44.163  23.120  25.120  1.00  0.00    -0.203 F 
ATOM     44  F   UNL A   1      42.236  18.272  26.713  1.00  0.00    -0.200 F 
ATOM     45  C   UNL A   1      43.576  19.556  25.259  1.00  0.00     0.200 A 
ATOM     46  F   UNL A   1      44.905  20.889  23.846  1.00  0.00    -0.200 F 
ATOM     47  F   UNL A   1      44.069  18.442  24.702  1.00  0.00    -0.200 F 
ENDBRANCH  23  37
BRANCH  24  48
ATOM     48  C   UNL A   1      45.652  30.250  32.311  1.00  0.00     0.064 A 
ATOM     49  C   UNL A   1      46.873  30.914  32.145  1.00  0.00     0.173 A 
ATOM     50  C   UNL A   1      44.987  30.571  33.532  1.00  0.00     0.173 A 
ATOM     51  F   UNL A   1      47.686  30.634  31.124  1.00  0.00    -0.203 F 
ATOM     52  C   UNL A   1      47.327  31.894  33.050  1.00  0.00     0.198 A 
ATOM     53  C   UNL A   1      45.415  31.569  34.410  1.00  0.00     0.198 A 
ATOM     54  F   UNL A   1      43.882  29.927  33.927  1.00  0.00    -0.203 F 
ATOM     55  F   UNL A   1      48.497  32.509  32.829  1.00  0.00    -0.200 F 
ATOM     56  C   UNL A   1      46.581  32.247  34.160  1.00  0.00     0.200 A 
ATOM     57  F   UNL A   1      44.672  31.870  35.485  1.00  0.00    -0.200 F 
ATOM     58  F   UNL A   1      46.988  33.219  34.986  1.00  0.00    -0.200 F 
ENDBRANCH  24  48
BRANCH  36  59
ATOM     59  C   UNL A   1      46.128  26.400  27.646  1.00  0.00     0.064 A 
ATOM     60  C   UNL A   1      44.951  26.693  26.940  1.00  0.00     0.173 A 
ATOM     61  C   UNL A   1      47.331  26.715  26.993  1.00  0.00     0.173 A 
ATOM     62  F   UNL A   1      43.757  26.437  27.497  1.00  0.00    -0.203 F 
ATOM     63  C   UNL A   1      44.984  27.241  25.654  1.00  0.00     0.198 A 
ATOM     64  C   UNL A   1      47.368  27.270  25.713  1.00  0.00     0.198 A 
ATOM     65  F   UNL A   1      48.501  26.492  27.585  1.00  0.00    -0.203 F 
ATOM     66  F   UNL A   1      43.837  27.495  25.009  1.00  0.00    -0.200 F 
ATOM     67  C   UNL A   1      46.192  27.525  25.039  1.00  0.00     0.200 A 
ATOM     68  F   UNL A   1      48.549  27.557  25.142  1.00  0.00    -0.200 F 
ATOM     69  F   UNL A   1      46.223  28.056  23.808  1.00  0.00    -0.200 F 
ENDBRANCH  36  59
ENDBRANCH  10  11
ENDBRANCH   3   5
ENDBRANCH   2   3
ENDBRANCH   1   2
BRANCH   1  70
ATOM     70  C   UNL A   1      36.924  33.553  29.352  1.00  0.00     0.274 C 
BRANCH  70  71
ATOM     71  O   UNL A   1      36.462  33.671  30.711  1.00  0.00    -0.461 OA
BRANCH  71  72
ATOM     72  C   UNL A   1      37.264  33.078  31.644  1.00  0.00     0.324 C 
ATOM     73  O   UNL A   1      38.470  33.274  31.720  1.00  0.00    -0.250 OA
BRANCH  72  74
ATOM     74  C   UNL A   1      36.525  32.065  32.525  1.00  0.00     0.183 C 
ATOM     75  C   UNL A   1      36.740  30.586  32.163  1.00  0.00     0.032 C 
ATOM     76  N   UNL A   1      36.747  32.270  34.004  1.00  0.00    -0.184 NA
ATOM     77  C   UNL A   1      38.041  29.990  32.696  1.00  0.00     0.004 C 
ATOM     78  C   UNL A   1      38.084  31.800  34.447  1.00  0.00     0.103 C 
ATOM     79  C   UNL A   1      38.226  30.307  34.173  1.00  0.00     0.017 C 
BRANCH  76  80
ATOM     80  S   UNL A   1      36.357  33.874  34.495  1.00  0.00     0.245 S 
ATOM     81  O   UNL A   1      35.957  33.821  35.892  1.00  0.00    -0.207 OA
ATOM     82  O   UNL A   1      37.377  34.758  33.996  1.00  0.00    -0.207 OA
BRANCH  80  83
ATOM     83  C   UNL A   1      34.913  34.388  33.690  1.00  0.00     0.100 A 
ATOM     84  C   UNL A   1      34.694  35.675  33.131  1.00  0.00     0.041 A 
ATOM     85  C   UNL A   1      33.799  33.622  33.406  1.00  0.00     0.104 A 
ATOM     86  C   UNL A   1      33.451  35.659  32.540  1.00  0.00     0.083 A 
ATOM     87  N   UNL A   1      32.921  34.403  32.699  1.00  0.00    -0.366 N 
ATOM     88  H   UNL A   1      32.046  34.108  32.358  1.00  0.00     0.165 HD
ENDBRANCH  80  83
ENDBRANCH  76  80
ENDBRANCH  72  74
ENDBRANCH  71  72
ENDBRANCH  70  71
ENDBRANCH   1  70
TORSDOF 13
ENDMDL
MODEL 3
REMARK VINA RESULT:     -11.7      3.692      5.951
REMARK SMILES O=C(OCCOC(=O)[C@H]1CCCCN1S(=O)(=O)c1cc[nH]c1)c1ccc(-c2c3nc(c(-c4c(F)c(F)c(F)c(F)c4F)c4ccc([nH]4)c(-c4c(F)c(F)c(F)c(F)c4F)c4nc(c(-c5c(F)c(F)c(F)c(F)c5F)c5ccc2[nH]5)C=C4)C=C3)cc1
REMARK SMILES IDX 4 1 3 2 2 3 1 4 23 5 24 6 85 7 25 8 84 9 26 10 27 11 28 12
REMARK SMILES IDX 78 13 29 14 83 15 77 16 79 17 30 18 82 19 76 20 75 21 31 23
REMARK SMILES IDX 63 24 43 25 62 26 44 27 47 28 61 29 80 30 45 31 46 32 60 34
REMARK SMILES IDX 81 35 48 36 32 37 33 38 41 39 34 40 35 41 39 42 42 43 36 44
REMARK SMILES IDX 37 45 40 46 38 47 64 48 65 49 73 50 66 51 67 52 71 53 74 54
REMARK SMILES IDX 68 55 69 56 72 57 70 58 49 59 50 60 58 61 51 62 52 63 56 64
REMARK SMILES IDX 59 65 53 66 54 67 57 68 55 69 5 70 6 71 7 72 8 73 9 74 10 75
REMARK SMILES IDX 14 76 11 77 13 78 12 79 15 80 16 81 17 82 18 83 19 84 22 85
REMARK SMILES IDX 20 86 21 87
REMARK H PARENT 79 22 47 33 21 88
REMARK Flexibility Score: inf
ROOT
ATOM      1  C   UNL A   1      34.609  32.358  28.766  1.00  0.00     0.275 C 
ENDROOT
BRANCH   1   2
ATOM      2  O   UNL A   1      35.784  31.693  28.264  1.00  0.00    -0.458 OA
BRANCH   2   3
ATOM      3  C   UNL A   1      35.881  30.387  27.932  1.00  0.00     0.338 C 
ATOM      4  O   UNL A   1      34.970  29.814  27.343  1.00  0.00    -0.246 OA
BRANCH   3   5
ATOM      5  C   UNL A   1      37.191  29.685  28.038  1.00  0.00     0.060 A 
ATOM      6  C   UNL A   1      38.229  29.772  27.110  1.00  0.00     0.016 A 
ATOM      7  C   UNL A   1      37.396  28.929  29.212  1.00  0.00     0.016 A 
ATOM      8  C   UNL A   1      39.419  29.083  27.315  1.00  0.00     0.010 A 
ATOM      9  C   UNL A   1      38.593  28.251  29.434  1.00  0.00     0.010 A 
ATOM     10  C   UNL A   1      39.606  28.333  28.480  1.00  0.00    -0.014 A 
BRANCH  10  11
ATOM     11  C   UNL A   1      40.947  27.752  28.696  1.00  0.00     0.031 A 
ATOM     12  C   UNL A   1      41.042  26.298  28.215  1.00  0.00     0.074 A 
ATOM     13  C   UNL A   1      41.835  28.540  29.373  1.00  0.00     0.049 A 
ATOM     14  N   UNL A   1      41.778  25.321  28.651  1.00  0.00    -0.248 NA
ATOM     15  C   UNL A   1      40.134  25.844  27.128  1.00  0.00     0.031 C 
ATOM     16  C   UNL A   1      41.584  29.952  29.722  1.00  0.00     0.029 A 
ATOM     17  N   UNL A   1      43.088  28.336  29.918  1.00  0.00    -0.354 N 
ATOM     18  C   UNL A   1      41.579  24.222  27.786  1.00  0.00     0.074 A 
ATOM     19  C   UNL A   1      40.473  24.566  26.945  1.00  0.00     0.031 C 
ATOM     20  C   UNL A   1      42.588  30.444  30.476  1.00  0.00     0.029 A 
ATOM     21  C   UNL A   1      43.591  29.420  30.688  1.00  0.00     0.049 A 
ATOM     22  H   UNL A   1      43.594  27.503  29.784  1.00  0.00     0.167 HD
ATOM     23  C   UNL A   1      42.429  23.153  27.728  1.00  0.00     0.037 A 
ATOM     24  C   UNL A   1      44.711  29.481  31.476  1.00  0.00     0.037 A 
ATOM     25  C   UNL A   1      43.449  23.283  28.712  1.00  0.00     0.049 A 
ATOM     26  C   UNL A   1      45.412  28.207  31.254  1.00  0.00     0.074 A 
ATOM     27  C   UNL A   1      43.468  23.103  30.068  1.00  0.00     0.029 A 
ATOM     28  N   UNL A   1      44.604  23.916  28.331  1.00  0.00    -0.354 N 
ATOM     29  N   UNL A   1      46.076  27.915  30.177  1.00  0.00    -0.248 NA
ATOM     30  C   UNL A   1      45.314  27.152  32.270  1.00  0.00     0.031 C 
ATOM     31  C   UNL A   1      44.462  23.995  30.522  1.00  0.00     0.029 A 
ATOM     32  C   UNL A   1      45.081  24.599  29.422  1.00  0.00     0.049 A 
ATOM     33  H   UNL A   1      45.015  23.887  27.437  1.00  0.00     0.167 HD
ATOM     34  C   UNL A   1      46.183  26.546  30.262  1.00  0.00     0.074 A 
ATOM     35  C   UNL A   1      46.010  26.202  31.653  1.00  0.00     0.031 C 
ATOM     36  C   UNL A   1      45.864  25.790  29.181  1.00  0.00     0.037 A 
BRANCH  23  37
ATOM     37  C   UNL A   1      42.603  22.050  26.715  1.00  0.00     0.064 A 
ATOM     38  C   UNL A   1      42.057  20.773  27.010  1.00  0.00     0.173 A 
ATOM     39  C   UNL A   1      43.544  22.085  25.678  1.00  0.00     0.173 A 
ATOM     40  F   UNL A   1      41.107  20.630  27.948  1.00  0.00    -0.203 F 
ATOM     41  C   UNL A   1      42.529  19.604  26.416  1.00  0.00     0.198 A 
ATOM     42  C   UNL A   1      43.978  20.915  25.045  1.00  0.00     0.198 A 
ATOM     43  F   UNL A   1      44.138  23.231  25.320  1.00  0.00    -0.203 F 
ATOM     44  F   UNL A   1      42.082  18.412  26.835  1.00  0.00    -0.200 F 
ATOM     45  C   UNL A   1      43.505  19.674  25.443  1.00  0.00     0.200 A 
ATOM     46  F   UNL A   1      44.916  20.987  24.091  1.00  0.00    -0.200 F 
ATOM     47  F   UNL A   1      44.012  18.553  24.915  1.00  0.00    -0.200 F 
ENDBRANCH  23  37
BRANCH  24  48
ATOM     48  C   UNL A   1      45.331  30.422  32.492  1.00  0.00     0.064 A 
ATOM     49  C   UNL A   1      45.261  30.301  33.885  1.00  0.00     0.173 A 
ATOM     50  C   UNL A   1      46.123  31.525  32.053  1.00  0.00     0.173 A 
ATOM     51  F   UNL A   1      44.460  29.405  34.467  1.00  0.00    -0.203 F 
ATOM     52  C   UNL A   1      46.007  31.124  34.752  1.00  0.00     0.198 A 
ATOM     53  C   UNL A   1      46.893  32.317  32.907  1.00  0.00     0.198 A 
ATOM     54  F   UNL A   1      46.187  31.882  30.764  1.00  0.00    -0.203 F 
ATOM     55  F   UNL A   1      45.913  30.948  36.077  1.00  0.00    -0.200 F 
ATOM     56  C   UNL A   1      46.850  32.105  34.261  1.00  0.00     0.200 A 
ATOM     57  F   UNL A   1      47.685  33.270  32.394  1.00  0.00    -0.200 F 
ATOM     58  F   UNL A   1      47.600  32.846  35.086  1.00  0.00    -0.200 F 
ENDBRANCH  24  48
BRANCH  36  59
ATOM     59  C   UNL A   1      45.974  26.546  27.868  1.00  0.00     0.064 A 
ATOM     60  C   UNL A   1      44.819  26.859  27.136  1.00  0.00     0.173 A 
ATOM     61  C   UNL A   1      47.197  26.834  27.240  1.00  0.00     0.173 A 
ATOM     62  F   UNL A   1      43.609  26.630  27.668  1.00  0.00    -0.203 F 
ATOM     63  C   UNL A   1      44.891  27.401  25.848  1.00  0.00     0.198 A 
ATOM     64  C   UNL A   1      47.274  27.382  25.959  1.00  0.00     0.198 A 
ATOM     65  F   UNL A   1      48.349  26.590  27.858  1.00  0.00    -0.203 F 
ATOM     66  F   UNL A   1      43.764  27.675  25.177  1.00  0.00    -0.200 F 
ATOM     67  C   UNL A   1      46.118  27.657  25.259  1.00  0.00     0.200 A 
ATOM     68  F   UNL A   1      48.472  27.643  25.413  1.00  0.00    -0.200 F 
ATOM     69  F   UNL A   1      46.186  28.182  24.027  1.00  0.00    -0.200 F 
ENDBRANCH  36  59
ENDBRANCH  10  11
ENDBRANCH   3   5
ENDBRANCH   2   3
ENDBRANCH   1   2
BRANCH   1  70
ATOM     70  C   UNL A   1      34.681  32.782  30.236  1.00  0.00     0.274 C 
BRANCH  70  71
ATOM     71  O   UNL A   1      35.675  32.070  30.998  1.00  0.00    -0.461 OA
BRANCH  71  72
ATOM     72  C   UNL A   1      36.806  32.785  31.276  1.00  0.00     0.324 C 
ATOM     73  O   UNL A   1      36.791  33.932  31.706  1.00  0.00    -0.250 OA
BRANCH  72  74
ATOM     74  C   UNL A   1      38.097  32.049  30.903  1.00  0.00     0.183 C 
ATOM     75  C   UNL A   1      38.868  32.622  29.702  1.00  0.00     0.032 C 
ATOM     76  N   UNL A   1      39.037  31.842  32.066  1.00  0.00    -0.184 NA
ATOM     77  C   UNL A   1      39.740  33.832  30.033  1.00  0.00     0.004 C 
ATOM     78  C   UNL A   1      39.759  33.085  32.439  1.00  0.00     0.103 C 
ATOM     79  C   UNL A   1      40.598  33.570  31.262  1.00  0.00     0.017 C 
BRANCH  76  80
ATOM     80  S   UNL A   1      38.263  31.046  33.382  1.00  0.00     0.245 S 
ATOM     81  O   UNL A   1      37.755  32.071  34.279  1.00  0.00    -0.207 OA
ATOM     82  O   UNL A   1      37.450  29.984  32.851  1.00  0.00    -0.207 OA
BRANCH  80  83
ATOM     83  C   UNL A   1      39.451  30.233  34.344  1.00  0.00     0.100 A 
ATOM     84  C   UNL A   1      40.510  29.431  33.842  1.00  0.00     0.041 A 
ATOM     85  C   UNL A   1      39.596  30.294  35.716  1.00  0.00     0.104 A 
ATOM     86  C   UNL A   1      41.256  29.016  34.922  1.00  0.00     0.083 A 
ATOM     87  N   UNL A   1      40.703  29.558  36.055  1.00  0.00    -0.366 N 
ATOM     88  H   UNL A   1      41.047  29.437  36.970  1.00  0.00     0.165 HD
ENDBRANCH  80  83
ENDBRANCH  76  80
ENDBRANCH  72  74
ENDBRANCH  71  72
ENDBRANCH  70  71
ENDBRANCH   1  70
TORSDOF 13
ENDMDL
