MODEL 1
REMARK VINA RESULT:     -13.2      0.000      0.000
REMARK SMILES C[C@@H]1CC(C)(C)C[C@@](CC(=O)Nc2cccc(C(F)(F)F)c2)(C(=O)OCCOC(=O)c2ccc(-c3c4nc(c(-c5c(F)c(F)c(F)c(F)c5F)c5ccc([nH]5)c(-c5c(F)c(F)c(F)c(F)c5F)c5nc(c(-c6c(F)c(F)c(F)c(F)c6F)c6ccc3[nH]6)C=C5)C=C4)cc2)C1
REMARK SMILES IDX 26 1 25 2 23 3 24 4 8 5 1 6 2 7 3 8 94 9 4 10 5 11 6 12 7 13
REMARK SMILES IDX 9 14 10 15 11 16 12 17 13 19 14 20 22 21 15 22 17 23 16 24
REMARK SMILES IDX 18 25 19 26 20 27 21 28 27 29 28 30 29 31 30 32 31 33 32 34
REMARK SMILES IDX 93 35 33 36 92 37 34 38 35 39 36 40 86 41 37 42 91 43 85 44
REMARK SMILES IDX 87 45 38 46 90 47 84 48 83 49 39 51 71 52 51 53 70 54 52 55
REMARK SMILES IDX 55 56 69 57 88 58 53 59 54 60 68 62 89 63 56 64 40 65 41 66
REMARK SMILES IDX 49 67 42 68 43 69 47 70 50 71 44 72 45 73 48 74 46 75 72 76
REMARK SMILES IDX 73 77 81 78 74 79 75 80 79 81 82 82 76 83 77 84 80 85 78 86
REMARK SMILES IDX 57 87 58 88 66 89 59 90 60 91 64 92 67 93 61 94 62 95 65 96
REMARK SMILES IDX 63 97
REMARK H PARENT 12 18 87 50 55 61
REMARK Flexibility Score: inf
ROOT
ATOM      1  C   UNL A   1      36.003  20.476  25.364  1.00  0.00     0.274 C 
ENDROOT
BRANCH   1   2
ATOM      2  O   UNL A   1      35.739  21.688  26.116  1.00  0.00    -0.462 OA
BRANCH   2   3
ATOM      3  C   UNL A   1      34.423  21.869  26.444  1.00  0.00     0.312 C 
ATOM      4  O   UNL A   1      33.864  21.189  27.294  1.00  0.00    -0.252 OA
BRANCH   3   5
ATOM      5  C   UNL A   1      33.671  22.857  25.497  1.00  0.00     0.078 C 
ATOM      6  C   UNL A   1      33.651  25.580  23.497  1.00  0.00     0.008 C 
ATOM      7  C   UNL A   1      34.266  24.202  23.288  1.00  0.00    -0.013 C 
ATOM      8  C   UNL A   1      33.418  23.263  22.453  1.00  0.00     0.009 C 
ATOM      9  C   UNL A   1      34.721  23.479  24.548  1.00  0.00     0.022 C 
ATOM     10  C   UNL A   1      32.277  22.543  23.204  1.00  0.00    -0.034 C 
ATOM     11  C   UNL A   1      31.036  23.443  23.320  1.00  0.00     0.011 C 
ATOM     12  C   UNL A   1      31.877  21.351  22.294  1.00  0.00     0.011 C 
ATOM     13  C   UNL A   1      32.697  21.999  24.613  1.00  0.00     0.025 C 
BRANCH   5  14
ATOM     14  C   UNL A   1      32.961  23.819  26.498  1.00  0.00     0.119 C 
BRANCH  14  15
ATOM     15  C   UNL A   1      31.476  23.972  26.745  1.00  0.00     0.225 C 
ATOM     16  O   UNL A   1      30.909  23.035  27.335  1.00  0.00    -0.275 OA
ATOM     17  N   UNL A   1      30.665  25.022  26.495  1.00  0.00    -0.326 N 
ATOM     18  H   UNL A   1      29.796  24.888  26.938  1.00  0.00     0.169 HD
BRANCH  17  19
ATOM     19  C   UNL A   1      30.665  26.247  25.805  1.00  0.00     0.041 A 
ATOM     20  C   UNL A   1      29.789  26.291  24.709  1.00  0.00     0.026 A 
ATOM     21  C   UNL A   1      31.512  27.331  26.009  1.00  0.00     0.039 A 
ATOM     22  C   UNL A   1      29.862  27.308  23.760  1.00  0.00     0.003 A 
ATOM     23  C   UNL A   1      31.674  28.315  25.003  1.00  0.00     0.058 A 
ATOM     24  C   UNL A   1      30.830  28.294  23.885  1.00  0.00     0.013 A 
BRANCH  23  25
ATOM     25  C   UNL A   1      32.810  29.321  25.051  1.00  0.00     0.416 C 
ATOM     26  F   UNL A   1      33.907  28.846  25.715  1.00  0.00    -0.166 F 
ATOM     27  F   UNL A   1      33.255  29.688  23.821  1.00  0.00    -0.166 F 
ATOM     28  F   UNL A   1      32.478  30.461  25.715  1.00  0.00    -0.166 F 
ENDBRANCH  23  25
ENDBRANCH  17  19
ENDBRANCH  14  15
ENDBRANCH   5  14
ENDBRANCH   3   5
ENDBRANCH   2   3
ENDBRANCH   1   2
BRANCH   1  29
ATOM     29  C   UNL A   1      37.465  20.223  24.987  1.00  0.00     0.275 C 
BRANCH  29  30
ATOM     30  O   UNL A   1      38.284  21.372  25.236  1.00  0.00    -0.458 OA
BRANCH  30  31
ATOM     31  C   UNL A   1      39.279  21.136  26.125  1.00  0.00     0.338 C 
ATOM     32  O   UNL A   1      39.817  20.078  26.361  1.00  0.00    -0.246 OA
BRANCH  31  33
ATOM     33  C   UNL A   1      39.784  22.424  26.643  1.00  0.00     0.060 A 
ATOM     34  C   UNL A   1      39.196  23.579  26.115  1.00  0.00     0.016 A 
ATOM     35  C   UNL A   1      40.796  22.510  27.599  1.00  0.00     0.016 A 
ATOM     36  C   UNL A   1      39.614  24.832  26.541  1.00  0.00     0.010 A 
ATOM     37  C   UNL A   1      41.239  23.771  28.005  1.00  0.00     0.010 A 
ATOM     38  C   UNL A   1      40.659  24.934  27.464  1.00  0.00    -0.014 A 
BRANCH  38  39
ATOM     39  C   UNL A   1      41.235  26.266  27.742  1.00  0.00     0.031 A 
ATOM     40  C   UNL A   1      42.626  26.560  27.259  1.00  0.00     0.074 A 
ATOM     41  C   UNL A   1      40.510  27.207  28.371  1.00  0.00     0.049 A 
ATOM     42  N   UNL A   1      43.347  27.641  27.414  1.00  0.00    -0.248 NA
ATOM     43  C   UNL A   1      43.295  25.493  26.496  1.00  0.00     0.031 C 
ATOM     44  C   UNL A   1      39.134  27.043  28.837  1.00  0.00     0.029 A 
ATOM     45  N   UNL A   1      40.841  28.488  28.735  1.00  0.00    -0.354 N 
ATOM     46  C   UNL A   1      44.556  27.377  26.786  1.00  0.00     0.074 A 
ATOM     47  C   UNL A   1      44.480  26.034  26.255  1.00  0.00     0.031 C 
ATOM     48  C   UNL A   1      38.744  28.177  29.445  1.00  0.00     0.029 A 
ATOM     49  C   UNL A   1      39.853  29.129  29.440  1.00  0.00     0.049 A 
ATOM     50  H   UNL A   1      41.703  28.906  28.512  1.00  0.00     0.167 HD
ATOM     51  C   UNL A   1      45.631  28.188  26.666  1.00  0.00     0.037 A 
ATOM     52  C   UNL A   1      39.865  30.336  30.037  1.00  0.00     0.037 A 
ATOM     53  C   UNL A   1      45.692  29.529  27.182  1.00  0.00     0.049 A 
ATOM     54  C   UNL A   1      41.103  31.194  29.936  1.00  0.00     0.074 A 
ATOM     55  C   UNL A   1      46.723  30.445  27.077  1.00  0.00     0.029 A 
ATOM     56  N   UNL A   1      44.681  30.139  27.908  1.00  0.00    -0.354 N 
ATOM     57  N   UNL A   1      42.228  30.957  29.305  1.00  0.00    -0.248 NA
ATOM     58  C   UNL A   1      41.070  32.490  30.630  1.00  0.00     0.031 C 
ATOM     59  C   UNL A   1      46.359  31.591  27.790  1.00  0.00     0.029 A 
ATOM     60  C   UNL A   1      45.078  31.410  28.288  1.00  0.00     0.049 A 
ATOM     61  H   UNL A   1      43.812  29.731  28.122  1.00  0.00     0.167 HD
ATOM     62  C   UNL A   1      43.020  32.081  29.499  1.00  0.00     0.074 A 
ATOM     63  C   UNL A   1      42.243  33.008  30.292  1.00  0.00     0.031 C 
ATOM     64  C   UNL A   1      44.280  32.326  29.062  1.00  0.00     0.037 A 
BRANCH  51  65
ATOM     65  C   UNL A   1      46.848  27.643  25.982  1.00  0.00     0.064 A 
ATOM     66  C   UNL A   1      47.010  27.711  24.592  1.00  0.00     0.173 A 
ATOM     67  C   UNL A   1      47.897  27.104  26.742  1.00  0.00     0.173 A 
ATOM     68  F   UNL A   1      46.029  28.205  23.821  1.00  0.00    -0.203 F 
ATOM     69  C   UNL A   1      48.177  27.254  23.985  1.00  0.00     0.198 A 
ATOM     70  C   UNL A   1      49.072  26.670  26.136  1.00  0.00     0.198 A 
ATOM     71  F   UNL A   1      47.789  27.017  28.077  1.00  0.00    -0.203 F 
ATOM     72  F   UNL A   1      48.302  27.304  22.652  1.00  0.00    -0.200 F 
ATOM     73  C   UNL A   1      49.210  26.743  24.758  1.00  0.00     0.200 A 
ATOM     74  F   UNL A   1      50.072  26.189  26.886  1.00  0.00    -0.200 F 
ATOM     75  F   UNL A   1      50.340  26.320  24.174  1.00  0.00    -0.200 F 
ENDBRANCH  51  65
BRANCH  52  76
ATOM     76  C   UNL A   1      38.690  30.801  30.822  1.00  0.00     0.064 A 
ATOM     77  C   UNL A   1      37.647  31.516  30.217  1.00  0.00     0.173 A 
ATOM     78  C   UNL A   1      38.617  30.593  32.208  1.00  0.00     0.173 A 
ATOM     79  F   UNL A   1      37.683  31.765  28.899  1.00  0.00    -0.203 F 
ATOM     80  C   UNL A   1      36.597  32.035  30.972  1.00  0.00     0.198 A 
ATOM     81  C   UNL A   1      37.549  31.083  32.956  1.00  0.00     0.198 A 
ATOM     82  F   UNL A   1      39.590  29.919  32.840  1.00  0.00    -0.203 F 
ATOM     83  F   UNL A   1      35.650  32.774  30.377  1.00  0.00    -0.200 F 
ATOM     84  C   UNL A   1      36.548  31.816  32.340  1.00  0.00     0.200 A 
ATOM     85  F   UNL A   1      37.500  30.860  34.276  1.00  0.00    -0.200 F 
ATOM     86  F   UNL A   1      35.543  32.324  33.067  1.00  0.00    -0.200 F 
ENDBRANCH  52  76
BRANCH  64  87
ATOM     87  C   UNL A   1      44.879  33.663  29.389  1.00  0.00     0.064 A 
ATOM     88  C   UNL A   1      44.712  34.772  28.546  1.00  0.00     0.173 A 
ATOM     89  C   UNL A   1      45.587  33.847  30.587  1.00  0.00     0.173 A 
ATOM     90  F   UNL A   1      44.056  34.644  27.383  1.00  0.00    -0.203 F 
ATOM     91  C   UNL A   1      45.254  36.011  28.880  1.00  0.00     0.198 A 
ATOM     92  C   UNL A   1      46.097  35.095  30.933  1.00  0.00     0.198 A 
ATOM     93  F   UNL A   1      45.765  32.822  31.432  1.00  0.00    -0.203 F 
ATOM     94  F   UNL A   1      45.123  37.045  28.037  1.00  0.00    -0.200 F 
ATOM     95  C   UNL A   1      45.938  36.173  30.075  1.00  0.00     0.200 A 
ATOM     96  F   UNL A   1      46.743  35.253  32.096  1.00  0.00    -0.200 F 
ATOM     97  F   UNL A   1      46.449  37.369  30.400  1.00  0.00    -0.200 F 
ENDBRANCH  64  87
ENDBRANCH  38  39
ENDBRANCH  31  33
ENDBRANCH  30  31
ENDBRANCH  29  30
ENDBRANCH   1  29
TORSDOF 15
ENDMDL
MODEL 2
REMARK VINA RESULT:     -13.2      4.311      6.608
REMARK SMILES C[C@@H]1CC(C)(C)C[C@@](CC(=O)Nc2cccc(C(F)(F)F)c2)(C(=O)OCCOC(=O)c2ccc(-c3c4nc(c(-c5c(F)c(F)c(F)c(F)c5F)c5ccc([nH]5)c(-c5c(F)c(F)c(F)c(F)c5F)c5nc(c(-c6c(F)c(F)c(F)c(F)c6F)c6ccc3[nH]6)C=C5)C=C4)cc2)C1
REMARK SMILES IDX 26 1 25 2 23 3 24 4 8 5 1 6 2 7 3 8 94 9 4 10 5 11 6 12 7 13
REMARK SMILES IDX 9 14 10 15 11 16 12 17 13 19 14 20 22 21 15 22 17 23 16 24
REMARK SMILES IDX 18 25 19 26 20 27 21 28 27 29 28 30 29 31 30 32 31 33 32 34
REMARK SMILES IDX 93 35 33 36 92 37 34 38 35 39 36 40 86 41 37 42 91 43 85 44
REMARK SMILES IDX 87 45 38 46 90 47 84 48 83 49 39 51 71 52 51 53 70 54 52 55
REMARK SMILES IDX 55 56 69 57 88 58 53 59 54 60 68 62 89 63 56 64 40 65 41 66
REMARK SMILES IDX 49 67 42 68 43 69 47 70 50 71 44 72 45 73 48 74 46 75 72 76
REMARK SMILES IDX 73 77 81 78 74 79 75 80 79 81 82 82 76 83 77 84 80 85 78 86
REMARK SMILES IDX 57 87 58 88 66 89 59 90 60 91 64 92 67 93 61 94 62 95 65 96
REMARK SMILES IDX 63 97
REMARK H PARENT 12 18 87 50 55 61
REMARK Flexibility Score: inf
ROOT
ATOM      1  C   UNL A   1      31.452  28.685  26.106  1.00  0.00     0.274 C 
ENDROOT
BRANCH   1   2
ATOM      2  O   UNL A   1      32.534  27.755  25.848  1.00  0.00    -0.462 OA
BRANCH   2   3
ATOM      3  C   UNL A   1      32.169  26.437  25.914  1.00  0.00     0.312 C 
ATOM      4  O   UNL A   1      31.305  26.038  26.683  1.00  0.00    -0.252 OA
BRANCH   3   5
ATOM      5  C   UNL A   1      33.094  25.489  25.087  1.00  0.00     0.078 C 
ATOM      6  C   UNL A   1      36.062  23.949  24.608  1.00  0.00     0.008 C 
ATOM      7  C   UNL A   1      34.972  23.699  25.642  1.00  0.00    -0.013 C 
ATOM      8  C   UNL A   1      34.034  22.561  25.293  1.00  0.00     0.009 C 
ATOM      9  C   UNL A   1      34.155  24.915  26.054  1.00  0.00     0.022 C 
ATOM     10  C   UNL A   1      32.897  22.909  24.309  1.00  0.00    -0.034 C 
ATOM     11  C   UNL A   1      33.389  22.852  22.852  1.00  0.00     0.011 C 
ATOM     12  C   UNL A   1      31.855  21.769  24.469  1.00  0.00     0.011 C 
ATOM     13  C   UNL A   1      32.207  24.285  24.604  1.00  0.00     0.025 C 
BRANCH   5  14
ATOM     14  C   UNL A   1      33.603  26.417  23.943  1.00  0.00     0.119 C 
BRANCH  14  15
ATOM     15  C   UNL A   1      33.062  26.543  22.536  1.00  0.00     0.225 C 
ATOM     16  O   UNL A   1      33.796  26.138  21.617  1.00  0.00    -0.275 OA
ATOM     17  N   UNL A   1      31.847  26.956  22.114  1.00  0.00    -0.326 N 
ATOM     18  H   UNL A   1      31.735  26.746  21.158  1.00  0.00     0.169 HD
BRANCH  17  19
ATOM     19  C   UNL A   1      30.692  27.589  22.603  1.00  0.00     0.041 A 
ATOM     20  C   UNL A   1      29.827  26.741  23.314  1.00  0.00     0.026 A 
ATOM     21  C   UNL A   1      30.268  28.889  22.348  1.00  0.00     0.039 A 
ATOM     22  C   UNL A   1      28.524  27.125  23.623  1.00  0.00     0.003 A 
ATOM     23  C   UNL A   1      28.917  29.260  22.558  1.00  0.00     0.058 A 
ATOM     24  C   UNL A   1      28.058  28.365  23.210  1.00  0.00     0.013 A 
BRANCH  23  25
ATOM     25  C   UNL A   1      28.351  30.551  21.997  1.00  0.00     0.416 C 
ATOM     26  F   UNL A   1      29.309  31.508  21.808  1.00  0.00    -0.166 F 
ATOM     27  F   UNL A   1      27.746  30.393  20.792  1.00  0.00    -0.166 F 
ATOM     28  F   UNL A   1      27.446  31.136  22.828  1.00  0.00    -0.166 F 
ENDBRANCH  23  25
ENDBRANCH  17  19
ENDBRANCH  14  15
ENDBRANCH   5  14
ENDBRANCH   3   5
ENDBRANCH   2   3
ENDBRANCH   1   2
BRANCH   1  29
ATOM     29  C   UNL A   1      31.837  30.164  26.175  1.00  0.00     0.275 C 
BRANCH  29  30
ATOM     30  O   UNL A   1      33.252  30.338  26.314  1.00  0.00    -0.458 OA
BRANCH  30  31
ATOM     31  C   UNL A   1      33.587  31.373  27.121  1.00  0.00     0.338 C 
ATOM     32  O   UNL A   1      32.889  32.309  27.443  1.00  0.00    -0.246 OA
BRANCH  31  33
ATOM     33  C   UNL A   1      34.895  31.098  27.749  1.00  0.00     0.060 A 
ATOM     34  C   UNL A   1      35.139  29.771  28.119  1.00  0.00     0.016 A 
ATOM     35  C   UNL A   1      35.848  32.090  27.978  1.00  0.00     0.016 A 
ATOM     36  C   UNL A   1      36.340  29.423  28.720  1.00  0.00     0.010 A 
ATOM     37  C   UNL A   1      37.045  31.747  28.611  1.00  0.00     0.010 A 
ATOM     38  C   UNL A   1      37.286  30.416  28.998  1.00  0.00    -0.014 A 
BRANCH  38  39
ATOM     39  C   UNL A   1      38.458  30.068  29.828  1.00  0.00     0.031 A 
ATOM     40  C   UNL A   1      39.471  29.111  29.271  1.00  0.00     0.074 A 
ATOM     41  C   UNL A   1      38.633  30.633  31.035  1.00  0.00     0.049 A 
ATOM     42  N   UNL A   1      40.556  28.635  29.827  1.00  0.00    -0.248 NA
ATOM     43  C   UNL A   1      39.232  28.625  27.902  1.00  0.00     0.031 C 
ATOM     44  C   UNL A   1      37.737  31.612  31.648  1.00  0.00     0.029 A 
ATOM     45  N   UNL A   1      39.626  30.453  31.965  1.00  0.00    -0.354 N 
ATOM     46  C   UNL A   1      41.116  27.784  28.884  1.00  0.00     0.074 A 
ATOM     47  C   UNL A   1      40.251  27.798  27.725  1.00  0.00     0.031 C 
ATOM     48  C   UNL A   1      38.211  31.932  32.865  1.00  0.00     0.029 A 
ATOM     49  C   UNL A   1      39.423  31.156  33.126  1.00  0.00     0.049 A 
ATOM     50  H   UNL A   1      40.409  29.877  31.812  1.00  0.00     0.167 HD
ATOM     51  C   UNL A   1      42.252  27.056  28.984  1.00  0.00     0.037 A 
ATOM     52  C   UNL A   1      40.123  31.142  34.276  1.00  0.00     0.037 A 
ATOM     53  C   UNL A   1      43.116  27.062  30.134  1.00  0.00     0.049 A 
ATOM     54  C   UNL A   1      41.354  30.274  34.376  1.00  0.00     0.074 A 
ATOM     55  C   UNL A   1      44.311  26.390  30.315  1.00  0.00     0.029 A 
ATOM     56  N   UNL A   1      42.869  27.769  31.300  1.00  0.00    -0.354 N 
ATOM     57  N   UNL A   1      41.903  29.503  33.468  1.00  0.00    -0.248 NA
ATOM     58  C   UNL A   1      42.064  30.276  35.664  1.00  0.00     0.031 C 
ATOM     59  C   UNL A   1      44.759  26.645  31.614  1.00  0.00     0.029 A 
ATOM     60  C   UNL A   1      43.873  27.522  32.221  1.00  0.00     0.049 A 
ATOM     61  H   UNL A   1      42.095  28.359  31.452  1.00  0.00     0.167 HD
ATOM     62  C   UNL A   1      43.033  28.957  34.060  1.00  0.00     0.074 A 
ATOM     63  C   UNL A   1      43.103  29.497  35.401  1.00  0.00     0.031 C 
ATOM     64  C   UNL A   1      43.935  28.086  33.544  1.00  0.00     0.037 A 
BRANCH  51  65
ATOM     65  C   UNL A   1      42.615  26.164  27.837  1.00  0.00     0.064 A 
ATOM     66  C   UNL A   1      43.514  26.567  26.839  1.00  0.00     0.173 A 
ATOM     67  C   UNL A   1      42.105  24.858  27.776  1.00  0.00     0.173 A 
ATOM     68  F   UNL A   1      44.016  27.811  26.846  1.00  0.00    -0.203 F 
ATOM     69  C   UNL A   1      43.884  25.697  25.817  1.00  0.00     0.198 A 
ATOM     70  C   UNL A   1      42.496  23.983  26.768  1.00  0.00     0.198 A 
ATOM     71  F   UNL A   1      41.243  24.425  28.708  1.00  0.00    -0.203 F 
ATOM     72  F   UNL A   1      44.723  26.110  24.857  1.00  0.00    -0.200 F 
ATOM     73  C   UNL A   1      43.382  24.403  25.788  1.00  0.00     0.200 A 
ATOM     74  F   UNL A   1      42.020  22.730  26.748  1.00  0.00    -0.200 F 
ATOM     75  F   UNL A   1      43.754  23.561  24.813  1.00  0.00    -0.200 F 
ENDBRANCH  51  65
BRANCH  52  76
ATOM     76  C   UNL A   1      39.667  31.939  35.446  1.00  0.00     0.064 A 
ATOM     77  C   UNL A   1      38.720  31.433  36.347  1.00  0.00     0.173 A 
ATOM     78  C   UNL A   1      40.124  33.251  35.651  1.00  0.00     0.173 A 
ATOM     79  F   UNL A   1      38.231  30.196  36.180  1.00  0.00    -0.203 F 
ATOM     80  C   UNL A   1      38.221  32.220  37.385  1.00  0.00     0.198 A 
ATOM     81  C   UNL A   1      39.651  34.023  36.708  1.00  0.00     0.198 A 
ATOM     82  F   UNL A   1      41.027  33.786  34.816  1.00  0.00    -0.203 F 
ATOM     83  F   UNL A   1      37.265  31.734  38.189  1.00  0.00    -0.200 F 
ATOM     84  C   UNL A   1      38.689  33.512  37.566  1.00  0.00     0.200 A 
ATOM     85  F   UNL A   1      40.112  35.268  36.886  1.00  0.00    -0.200 F 
ATOM     86  F   UNL A   1      38.202  34.270  38.558  1.00  0.00    -0.200 F 
ENDBRANCH  52  76
BRANCH  64  87
ATOM     87  C   UNL A   1      45.098  27.697  34.411  1.00  0.00     0.064 A 
ATOM     88  C   UNL A   1      46.268  28.468  34.462  1.00  0.00     0.173 A 
ATOM     89  C   UNL A   1      45.017  26.565  35.237  1.00  0.00     0.173 A 
ATOM     90  F   UNL A   1      46.400  29.551  33.682  1.00  0.00    -0.203 F 
ATOM     91  C   UNL A   1      47.326  28.105  35.293  1.00  0.00     0.198 A 
ATOM     92  C   UNL A   1      46.063  26.225  36.089  1.00  0.00     0.198 A 
ATOM     93  F   UNL A   1      43.916  25.801  35.232  1.00  0.00    -0.203 F 
ATOM     94  F   UNL A   1      48.454  28.829  35.291  1.00  0.00    -0.200 F 
ATOM     95  C   UNL A   1      47.220  26.990  36.110  1.00  0.00     0.200 A 
ATOM     96  F   UNL A   1      45.952  25.157  36.890  1.00  0.00    -0.200 F 
ATOM     97  F   UNL A   1      48.235  26.649  36.916  1.00  0.00    -0.200 F 
ENDBRANCH  64  87
ENDBRANCH  38  39
ENDBRANCH  31  33
ENDBRANCH  30  31
ENDBRANCH  29  30
ENDBRANCH   1  29
TORSDOF 15
ENDMDL
MODEL 3
REMARK VINA RESULT:     -13.1      4.244      9.146
REMARK SMILES C[C@@H]1CC(C)(C)C[C@@](CC(=O)Nc2cccc(C(F)(F)F)c2)(C(=O)OCCOC(=O)c2ccc(-c3c4nc(c(-c5c(F)c(F)c(F)c(F)c5F)c5ccc([nH]5)c(-c5c(F)c(F)c(F)c(F)c5F)c5nc(c(-c6c(F)c(F)c(F)c(F)c6F)c6ccc3[nH]6)C=C5)C=C4)cc2)C1
REMARK SMILES IDX 26 1 25 2 23 3 24 4 8 5 1 6 2 7 3 8 94 9 4 10 5 11 6 12 7 13
REMARK SMILES IDX 9 14 10 15 11 16 12 17 13 19 14 20 22 21 15 22 17 23 16 24
REMARK SMILES IDX 18 25 19 26 20 27 21 28 27 29 28 30 29 31 30 32 31 33 32 34
REMARK SMILES IDX 93 35 33 36 92 37 34 38 35 39 36 40 86 41 37 42 91 43 85 44
REMARK SMILES IDX 87 45 38 46 90 47 84 48 83 49 39 51 71 52 51 53 70 54 52 55
REMARK SMILES IDX 55 56 69 57 88 58 53 59 54 60 68 62 89 63 56 64 40 65 41 66
REMARK SMILES IDX 49 67 42 68 43 69 47 70 50 71 44 72 45 73 48 74 46 75 72 76
REMARK SMILES IDX 73 77 81 78 74 79 75 80 79 81 82 82 76 83 77 84 80 85 78 86
REMARK SMILES IDX 57 87 58 88 66 89 59 90 60 91 64 92 67 93 61 94 62 95 65 96
REMARK SMILES IDX 63 97
REMARK H PARENT 12 18 87 50 55 61
REMARK Flexibility Score: inf
ROOT
ATOM      1  C   UNL A   1      31.704  28.675  25.980  1.00  0.00     0.274 C 
ENDROOT
BRANCH   1   2
ATOM      2  O   UNL A   1      32.772  27.701  25.851  1.00  0.00    -0.462 OA
BRANCH   2   3
ATOM      3  C   UNL A   1      32.362  26.400  25.971  1.00  0.00     0.312 C 
ATOM      4  O   UNL A   1      31.508  26.058  26.777  1.00  0.00    -0.252 OA
BRANCH   3   5
ATOM      5  C   UNL A   1      33.225  25.393  25.147  1.00  0.00     0.078 C 
ATOM      6  C   UNL A   1      36.142  23.782  24.590  1.00  0.00     0.008 C 
ATOM      7  C   UNL A   1      35.110  23.608  25.696  1.00  0.00    -0.013 C 
ATOM      8  C   UNL A   1      34.139  22.467  25.465  1.00  0.00     0.009 C 
ATOM      9  C   UNL A   1      34.333  24.858  26.084  1.00  0.00     0.022 C 
ATOM     10  C   UNL A   1      32.951  22.777  24.529  1.00  0.00    -0.034 C 
ATOM     11  C   UNL A   1      33.358  22.632  23.052  1.00  0.00     0.011 C 
ATOM     12  C   UNL A   1      31.906  21.665  24.811  1.00  0.00     0.011 C 
ATOM     13  C   UNL A   1      32.297  24.178  24.785  1.00  0.00     0.025 C 
BRANCH   5  14
ATOM     14  C   UNL A   1      33.680  26.248  23.927  1.00  0.00     0.119 C 
BRANCH  14  15
ATOM     15  C   UNL A   1      33.071  26.290  22.542  1.00  0.00     0.225 C 
ATOM     16  O   UNL A   1      33.763  25.838  21.613  1.00  0.00    -0.275 OA
ATOM     17  N   UNL A   1      31.834  26.672  22.156  1.00  0.00    -0.326 N 
ATOM     18  H   UNL A   1      31.678  26.408  21.220  1.00  0.00     0.169 HD
BRANCH  17  19
ATOM     19  C   UNL A   1      30.698  27.326  22.663  1.00  0.00     0.041 A 
ATOM     20  C   UNL A   1      29.839  26.499  23.404  1.00  0.00     0.026 A 
ATOM     21  C   UNL A   1      30.286  28.629  22.402  1.00  0.00     0.039 A 
ATOM     22  C   UNL A   1      28.549  26.903  23.738  1.00  0.00     0.003 A 
ATOM     23  C   UNL A   1      28.945  29.019  22.638  1.00  0.00     0.058 A 
ATOM     24  C   UNL A   1      28.089  28.144  23.320  1.00  0.00     0.013 A 
BRANCH  23  25
ATOM     25  C   UNL A   1      28.383  30.311  22.075  1.00  0.00     0.416 C 
ATOM     26  F   UNL A   1      27.853  30.155  20.824  1.00  0.00    -0.166 F 
ATOM     27  F   UNL A   1      27.388  30.840  22.833  1.00  0.00    -0.166 F 
ATOM     28  F   UNL A   1      29.329  31.277  21.924  1.00  0.00    -0.166 F 
ENDBRANCH  23  25
ENDBRANCH  17  19
ENDBRANCH  14  15
ENDBRANCH   5  14
ENDBRANCH   3   5
ENDBRANCH   2   3
ENDBRANCH   1   2
BRANCH   1  29
ATOM     29  C   UNL A   1      32.013  29.903  26.839  1.00  0.00     0.275 C 
BRANCH  29  30
ATOM     30  O   UNL A   1      33.201  30.573  26.399  1.00  0.00    -0.458 OA
BRANCH  30  31
ATOM     31  C   UNL A   1      33.610  31.547  27.248  1.00  0.00     0.338 C 
ATOM     32  O   UNL A   1      32.970  32.498  27.637  1.00  0.00    -0.246 OA
BRANCH  31  33
ATOM     33  C   UNL A   1      34.919  31.174  27.822  1.00  0.00     0.060 A 
ATOM     34  C   UNL A   1      35.091  29.824  28.149  1.00  0.00     0.016 A 
ATOM     35  C   UNL A   1      35.940  32.099  28.042  1.00  0.00     0.016 A 
ATOM     36  C   UNL A   1      36.288  29.387  28.699  1.00  0.00     0.010 A 
ATOM     37  C   UNL A   1      37.133  31.664  28.624  1.00  0.00     0.010 A 
ATOM     38  C   UNL A   1      37.303  30.311  28.968  1.00  0.00    -0.014 A 
BRANCH  38  39
ATOM     39  C   UNL A   1      38.478  29.869  29.747  1.00  0.00     0.031 A 
ATOM     40  C   UNL A   1      38.647  30.389  31.145  1.00  0.00     0.074 A 
ATOM     41  C   UNL A   1      39.349  28.986  29.230  1.00  0.00     0.049 A 
ATOM     42  N   UNL A   1      39.611  30.168  32.002  1.00  0.00    -0.248 NA
ATOM     43  C   UNL A   1      37.585  31.275  31.649  1.00  0.00     0.031 C 
ATOM     44  C   UNL A   1      39.251  28.380  27.902  1.00  0.00     0.029 A 
ATOM     45  N   UNL A   1      40.496  28.453  29.762  1.00  0.00    -0.354 N 
ATOM     46  C   UNL A   1      39.281  30.900  33.133  1.00  0.00     0.074 A 
ATOM     47  C   UNL A   1      38.035  31.580  32.857  1.00  0.00     0.031 C 
ATOM     48  C   UNL A   1      40.310  27.573  27.715  1.00  0.00     0.029 A 
ATOM     49  C   UNL A   1      41.172  27.632  28.895  1.00  0.00     0.049 A 
ATOM     50  H   UNL A   1      40.803  28.641  30.678  1.00  0.00     0.167 HD
ATOM     51  C   UNL A   1      39.962  30.994  34.298  1.00  0.00     0.037 A 
ATOM     52  C   UNL A   1      42.368  27.028  29.034  1.00  0.00     0.037 A 
ATOM     53  C   UNL A   1      41.193  30.301  34.571  1.00  0.00     0.049 A 
ATOM     54  C   UNL A   1      43.132  27.200  30.324  1.00  0.00     0.074 A 
ATOM     55  C   UNL A   1      41.939  30.299  35.736  1.00  0.00     0.029 A 
ATOM     56  N   UNL A   1      41.860  29.494  33.663  1.00  0.00    -0.354 N 
ATOM     57  N   UNL A   1      42.795  27.859  31.407  1.00  0.00    -0.248 NA
ATOM     58  C   UNL A   1      44.443  26.540  30.411  1.00  0.00     0.031 C 
ATOM     59  C   UNL A   1      43.089  29.536  35.513  1.00  0.00     0.029 A 
ATOM     60  C   UNL A   1      43.029  29.016  34.230  1.00  0.00     0.049 A 
ATOM     61  H   UNL A   1      41.550  29.291  32.751  1.00  0.00     0.167 HD
ATOM     62  C   UNL A   1      43.833  27.668  32.310  1.00  0.00     0.074 A 
ATOM     63  C   UNL A   1      44.804  26.818  31.656  1.00  0.00     0.031 C 
ATOM     64  C   UNL A   1      43.973  28.153  33.568  1.00  0.00     0.037 A 
BRANCH  51  65
ATOM     65  C   UNL A   1      39.418  31.903  35.357  1.00  0.00     0.064 A 
ATOM     66  C   UNL A   1      38.538  31.445  36.347  1.00  0.00     0.173 A 
ATOM     67  C   UNL A   1      39.841  33.240  35.419  1.00  0.00     0.173 A 
ATOM     68  F   UNL A   1      38.094  30.179  36.322  1.00  0.00    -0.203 F 
ATOM     69  C   UNL A   1      38.095  32.294  37.358  1.00  0.00     0.198 A 
ATOM     70  C   UNL A   1      39.416  34.079  36.443  1.00  0.00     0.198 A 
ATOM     71  F   UNL A   1      40.683  33.725  34.494  1.00  0.00    -0.203 F 
ATOM     72  F   UNL A   1      37.233  31.845  38.280  1.00  0.00    -0.200 F 
ATOM     73  C   UNL A   1      38.542  33.607  37.410  1.00  0.00     0.200 A 
ATOM     74  F   UNL A   1      39.859  35.343  36.499  1.00  0.00    -0.200 F 
ATOM     75  F   UNL A   1      38.128  34.418  38.394  1.00  0.00    -0.200 F 
ENDBRANCH  51  65
BRANCH  52  76
ATOM     76  C   UNL A   1      42.947  26.235  27.916  1.00  0.00     0.064 A 
ATOM     77  C   UNL A   1      43.760  26.833  26.945  1.00  0.00     0.173 A 
ATOM     78  C   UNL A   1      42.645  24.872  27.763  1.00  0.00     0.173 A 
ATOM     79  F   UNL A   1      44.055  28.139  27.030  1.00  0.00    -0.203 F 
ATOM     80  C   UNL A   1      44.219  26.110  25.844  1.00  0.00     0.198 A 
ATOM     81  C   UNL A   1      43.133  24.142  26.682  1.00  0.00     0.198 A 
ATOM     82  F   UNL A   1      41.867  24.250  28.662  1.00  0.00    -0.203 F 
ATOM     83  F   UNL A   1      44.938  26.725  24.895  1.00  0.00    -0.200 F 
ATOM     84  C   UNL A   1      43.908  24.765  25.716  1.00  0.00     0.200 A 
ATOM     85  F   UNL A   1      42.838  22.841  26.567  1.00  0.00    -0.200 F 
ATOM     86  F   UNL A   1      44.341  24.073  24.653  1.00  0.00    -0.200 F 
ENDBRANCH  52  76
BRANCH  64  87
ATOM     87  C   UNL A   1      45.194  27.741  34.338  1.00  0.00     0.064 A 
ATOM     88  C   UNL A   1      45.223  26.563  35.099  1.00  0.00     0.173 A 
ATOM     89  C   UNL A   1      46.366  28.510  34.271  1.00  0.00     0.173 A 
ATOM     90  F   UNL A   1      44.124  25.801  35.206  1.00  0.00    -0.203 F 
ATOM     91  C   UNL A   1      46.375  26.184  35.785  1.00  0.00     0.198 A 
ATOM     92  C   UNL A   1      47.524  28.111  34.931  1.00  0.00     0.198 A 
ATOM     93  F   UNL A   1      46.394  29.639  33.549  1.00  0.00    -0.203 F 
ATOM     94  F   UNL A   1      46.365  25.080  36.545  1.00  0.00    -0.200 F 
ATOM     95  C   UNL A   1      47.525  26.953  35.694  1.00  0.00     0.200 A 
ATOM     96  F   UNL A   1      48.640  28.845  34.828  1.00  0.00    -0.200 F 
ATOM     97  F   UNL A   1      48.635  26.580  36.346  1.00  0.00    -0.200 F 
ENDBRANCH  64  87
ENDBRANCH  38  39
ENDBRANCH  31  33
ENDBRANCH  30  31
ENDBRANCH  29  30
ENDBRANCH   1  29
TORSDOF 15
ENDMDL
