MODEL 1
REMARK VINA RESULT:     -13.4      0.000      0.000
REMARK SMILES Cc1coc2cc3c(cc12)[C@@H](C)[C@H](CCC(=O)N[C@@H](Cc1c[nH]c2ccccc12)C(=O)OCCOC(=O)c1ccc(-c2c4nc(c(-c5c(F)c(F)c(F)c(F)c5F)c5ccc([nH]5)c(-c5c(F)c(F)c(F)c(F)c5F)c5nc(c(-c6c(F)c(F)c(F)c(F)c6F)c6ccc2[nH]6)C=C5)C=C4)cc1)C(=O)O3
REMARK SMILES IDX 33 1 32 2 30 3 31 4 19 5 18 6 16 7 17 8 15 10 14 11 13 12
REMARK SMILES IDX 1 13 2 14 3 15 10 16 4 17 5 18 9 19 6 20 8 21 7 22 11 23
REMARK SMILES IDX 103 24 12 25 101 26 102 27 20 28 21 29 22 30 29 31 23 32
REMARK SMILES IDX 24 33 28 34 25 36 27 37 26 38 34 39 35 40 36 41 37 42 38 43
REMARK SMILES IDX 39 44 100 45 40 46 99 47 41 48 42 49 43 50 93 51 44 52 98 53
REMARK SMILES IDX 92 54 94 55 45 56 97 57 91 58 90 59 46 61 78 62 58 63 77 64
REMARK SMILES IDX 59 65 62 66 76 67 95 68 60 69 61 70 75 72 96 73 63 74 47 75
REMARK SMILES IDX 48 76 56 77 49 78 50 79 54 80 57 81 51 82 52 83 55 84 53 85
REMARK SMILES IDX 79 86 80 87 88 88 81 89 82 90 86 91 89 92 83 93 84 94 87 95
REMARK SMILES IDX 85 96 64 97 65 98 73 99 66 100 67 101 71 102 74 103 68 104
REMARK SMILES IDX 69 105 72 106 70 107
REMARK H PARENT 18 9 23 35 94 60 62 71
REMARK Flexibility Score: inf
ROOT
ATOM      1  C   UNL A   1      45.755  23.901  26.567  1.00  0.00     0.274 C 
ENDROOT
BRANCH   1   2
ATOM      2  O   UNL A   1      44.441  23.304  26.830  1.00  0.00    -0.461 OA
BRANCH   2   3
ATOM      3  C   UNL A   1      43.615  23.338  25.755  1.00  0.00     0.329 C 
ATOM      4  O   UNL A   1      44.073  23.278  24.610  1.00  0.00    -0.250 OA
BRANCH   3   5
ATOM      5  C   UNL A   1      42.017  23.231  26.044  1.00  0.00     0.196 C 
BRANCH   5   6
ATOM      6  N   UNL A   1      40.785  22.371  25.746  1.00  0.00    -0.342 N 
ATOM      7  C   UNL A   1      39.451  22.353  26.142  1.00  0.00     0.220 C 
ATOM      8  O   UNL A   1      38.982  21.197  26.112  1.00  0.00    -0.275 OA
ATOM      9  H   UNL A   1      40.989  21.644  25.114  1.00  0.00     0.164 HD
BRANCH   7  10
ATOM     10  C   UNL A   1      38.325  23.497  26.445  1.00  0.00     0.101 C 
BRANCH  10  11
ATOM     11  C   UNL A   1      37.066  24.103  25.718  1.00  0.00     0.026 C 
BRANCH  11  12
ATOM     12  C   UNL A   1      36.111  23.183  24.975  1.00  0.00     0.107 C 
ATOM     13  C   UNL A   1      31.587  28.917  27.250  1.00  0.00     0.048 C 
ATOM     14  C   UNL A   1      31.895  28.619  25.821  1.00  0.00    -0.005 A 
ATOM     15  C   UNL A   1      31.111  29.082  24.752  1.00  0.00     0.199 A 
ATOM     16  C   UNL A   1      32.763  27.601  25.308  1.00  0.00     0.024 A 
ATOM     17  O   UNL A   1      30.954  28.217  23.693  1.00  0.00    -0.464 OA
ATOM     18  C   UNL A   1      31.725  27.123  23.947  1.00  0.00     0.137 A 
ATOM     19  C   UNL A   1      34.022  26.408  25.926  1.00  0.00     0.020 A 
ATOM     20  C   UNL A   1      31.904  25.448  23.164  1.00  0.00     0.095 A 
ATOM     21  C   UNL A   1      34.131  24.712  25.202  1.00  0.00    -0.001 A 
ATOM     22  C   UNL A   1      33.140  24.312  23.856  1.00  0.00     0.138 A 
ATOM     23  C   UNL A   1      34.766  23.302  25.503  1.00  0.00     0.034 C 
ATOM     24  O   UNL A   1      34.351  23.558  23.137  1.00  0.00    -0.426 OA
ATOM     25  C   UNL A   1      33.970  21.964  24.997  1.00  0.00     0.014 C 
ATOM     26  C   UNL A   1      35.860  23.244  23.526  1.00  0.00     0.314 C 
ATOM     27  O   UNL A   1      36.798  23.038  22.757  1.00  0.00    -0.251 OA
ENDBRANCH  11  12
ENDBRANCH  10  11
ENDBRANCH   7  10
ENDBRANCH   5   6
BRANCH   5  28
ATOM     28  C   UNL A   1      41.590  24.153  27.265  1.00  0.00     0.074 C 
BRANCH  28  29
ATOM     29  C   UNL A   1      41.447  25.568  26.880  1.00  0.00    -0.020 A 
ATOM     30  C   UNL A   1      42.236  26.121  25.896  1.00  0.00     0.087 A 
ATOM     31  C   UNL A   1      40.508  26.562  27.314  1.00  0.00     0.003 A 
ATOM     32  N   UNL A   1      41.771  27.370  25.655  1.00  0.00    -0.361 N 
ATOM     33  C   UNL A   1      40.828  27.712  26.593  1.00  0.00     0.046 A 
ATOM     34  C   UNL A   1      39.432  26.635  28.235  1.00  0.00     0.010 A 
ATOM     35  H   UNL A   1      42.066  27.948  24.916  1.00  0.00     0.166 HD
ATOM     36  C   UNL A   1      40.237  28.951  26.831  1.00  0.00     0.026 A 
ATOM     37  C   UNL A   1      38.827  27.878  28.485  1.00  0.00     0.001 A 
ATOM     38  C   UNL A   1      39.256  29.023  27.819  1.00  0.00     0.002 A 
ENDBRANCH  28  29
ENDBRANCH   5  28
ENDBRANCH   3   5
ENDBRANCH   2   3
ENDBRANCH   1   2
BRANCH   1  39
ATOM     39  C   UNL A   1      46.010  25.120  27.470  1.00  0.00     0.275 C 
BRANCH  39  40
ATOM     40  O   UNL A   1      45.621  26.419  26.889  1.00  0.00    -0.458 OA
BRANCH  40  41
ATOM     41  C   UNL A   1      45.158  27.477  27.849  1.00  0.00     0.338 C 
ATOM     42  O   UNL A   1      45.570  28.483  27.208  1.00  0.00    -0.246 OA
BRANCH  41  43
ATOM     43  C   UNL A   1      44.226  27.254  29.774  1.00  0.00     0.060 A 
ATOM     44  C   UNL A   1      42.936  26.614  30.193  1.00  0.00     0.016 A 
ATOM     45  C   UNL A   1      44.455  27.844  31.061  1.00  0.00     0.016 A 
ATOM     46  C   UNL A   1      41.840  27.420  30.560  1.00  0.00     0.010 A 
ATOM     47  C   UNL A   1      43.410  28.610  31.626  1.00  0.00     0.010 A 
ATOM     48  C   UNL A   1      42.165  28.686  30.955  1.00  0.00    -0.014 A 
BRANCH  48  49
ATOM     49  C   UNL A   1      41.216  29.960  31.039  1.00  0.00     0.031 A 
ATOM     50  C   UNL A   1      42.196  30.894  30.526  1.00  0.00     0.074 A 
ATOM     51  C   UNL A   1      39.859  30.313  31.312  1.00  0.00     0.049 A 
ATOM     52  N   UNL A   1      43.130  31.303  31.332  1.00  0.00    -0.248 NA
ATOM     53  C   UNL A   1      42.619  30.880  29.111  1.00  0.00     0.031 C 
ATOM     54  C   UNL A   1      38.673  29.524  31.802  1.00  0.00     0.029 A 
ATOM     55  N   UNL A   1      39.135  31.503  31.023  1.00  0.00    -0.354 N 
ATOM     56  C   UNL A   1      43.887  32.074  30.507  1.00  0.00     0.074 A 
ATOM     57  C   UNL A   1      43.848  31.402  29.236  1.00  0.00     0.031 C 
ATOM     58  C   UNL A   1      37.471  30.013  31.383  1.00  0.00     0.029 A 
ATOM     59  C   UNL A   1      37.682  31.340  30.844  1.00  0.00     0.049 A 
ATOM     60  H   UNL A   1      39.577  32.380  30.946  1.00  0.00     0.167 HD
ATOM     61  C   UNL A   1      43.753  33.407  30.736  1.00  0.00     0.037 A 
ATOM     62  C   UNL A   1      36.698  32.307  30.674  1.00  0.00     0.037 A 
ATOM     63  C   UNL A   1      43.125  33.655  32.033  1.00  0.00     0.049 A 
ATOM     64  C   UNL A   1      37.311  33.553  31.173  1.00  0.00     0.074 A 
ATOM     65  C   UNL A   1      43.403  33.246  33.331  1.00  0.00     0.029 A 
ATOM     66  N   UNL A   1      41.758  33.820  31.979  1.00  0.00    -0.354 N 
ATOM     67  N   UNL A   1      37.560  33.768  32.433  1.00  0.00    -0.248 NA
ATOM     68  C   UNL A   1      38.110  34.285  30.211  1.00  0.00     0.031 C 
ATOM     69  C   UNL A   1      42.159  33.146  34.019  1.00  0.00     0.029 A 
ATOM     70  C   UNL A   1      41.156  33.653  33.201  1.00  0.00     0.049 A 
ATOM     71  H   UNL A   1      41.266  34.034  31.153  1.00  0.00     0.167 HD
ATOM     72  C   UNL A   1      38.869  34.208  32.408  1.00  0.00     0.074 A 
ATOM     73  C   UNL A   1      39.116  34.624  31.021  1.00  0.00     0.031 C 
ATOM     74  C   UNL A   1      39.727  33.784  33.384  1.00  0.00     0.037 A 
BRANCH  61  75
ATOM     75  C   UNL A   1      43.687  34.375  29.600  1.00  0.00     0.064 A 
ATOM     76  C   UNL A   1      44.815  35.157  29.367  1.00  0.00     0.173 A 
ATOM     77  C   UNL A   1      42.545  34.679  28.819  1.00  0.00     0.173 A 
ATOM     78  F   UNL A   1      45.911  34.995  30.121  1.00  0.00    -0.203 F 
ATOM     79  C   UNL A   1      44.814  36.144  28.386  1.00  0.00     0.198 A 
ATOM     80  C   UNL A   1      42.570  35.602  27.788  1.00  0.00     0.198 A 
ATOM     81  F   UNL A   1      41.330  34.190  29.075  1.00  0.00    -0.203 F 
ATOM     82  F   UNL A   1      45.891  36.923  28.237  1.00  0.00    -0.200 F 
ATOM     83  C   UNL A   1      43.704  36.345  27.578  1.00  0.00     0.200 A 
ATOM     84  F   UNL A   1      41.468  35.797  27.050  1.00  0.00    -0.200 F 
ATOM     85  F   UNL A   1      43.710  37.290  26.632  1.00  0.00    -0.200 F 
ENDBRANCH  61  75
BRANCH  62  86
ATOM     86  C   UNL A   1      35.366  32.438  29.944  1.00  0.00     0.064 A 
ATOM     87  C   UNL A   1      34.536  33.596  30.072  1.00  0.00     0.173 A 
ATOM     88  C   UNL A   1      35.058  31.628  28.842  1.00  0.00     0.173 A 
ATOM     89  F   UNL A   1      34.718  34.455  31.086  1.00  0.00    -0.203 F 
ATOM     90  C   UNL A   1      33.554  33.949  29.122  1.00  0.00     0.198 A 
ATOM     91  C   UNL A   1      34.081  31.986  27.887  1.00  0.00     0.198 A 
ATOM     92  F   UNL A   1      35.762  30.510  28.622  1.00  0.00    -0.203 F 
ATOM     93  F   UNL A   1      32.860  35.092  29.250  1.00  0.00    -0.200 F 
ATOM     94  C   UNL A   1      33.350  33.156  28.012  1.00  0.00     0.200 A 
ATOM     95  F   UNL A   1      33.900  31.218  26.802  1.00  0.00    -0.200 F 
ATOM     96  F   UNL A   1      32.485  33.529  27.055  1.00  0.00    -0.200 F 
ENDBRANCH  62  86
BRANCH  74  97
ATOM     97  C   UNL A   1      39.151  33.324  34.703  1.00  0.00     0.064 A 
ATOM     98  C   UNL A   1      38.831  32.002  35.058  1.00  0.00     0.173 A 
ATOM     99  C   UNL A   1      39.055  34.290  35.712  1.00  0.00     0.173 A 
ATOM    100  F   UNL A   1      38.938  31.003  34.175  1.00  0.00    -0.203 F 
ATOM    101  C   UNL A   1      38.439  31.670  36.359  1.00  0.00     0.198 A 
ATOM    102  C   UNL A   1      38.690  33.956  37.012  1.00  0.00     0.198 A 
ATOM    103  F   UNL A   1      39.378  35.565  35.445  1.00  0.00    -0.203 F 
ATOM    104  F   UNL A   1      38.156  30.396  36.677  1.00  0.00    -0.200 F 
ATOM    105  C   UNL A   1      38.378  32.648  37.337  1.00  0.00     0.200 A 
ATOM    106  F   UNL A   1      38.676  34.904  37.959  1.00  0.00    -0.200 F 
ATOM    107  F   UNL A   1      38.041  32.329  38.595  1.00  0.00    -0.200 F 
ENDBRANCH  74  97
ENDBRANCH  48  49
ENDBRANCH  41  43
ENDBRANCH  40  41
ENDBRANCH  39  40
ENDBRANCH   1  39
TORSDOF 17
ENDMDL
MODEL 2
REMARK VINA RESULT:     -13.1      5.530     11.655
REMARK SMILES Cc1coc2cc3c(cc12)[C@@H](C)[C@H](CCC(=O)N[C@@H](Cc1c[nH]c2ccccc12)C(=O)OCCOC(=O)c1ccc(-c2c4nc(c(-c5c(F)c(F)c(F)c(F)c5F)c5ccc([nH]5)c(-c5c(F)c(F)c(F)c(F)c5F)c5nc(c(-c6c(F)c(F)c(F)c(F)c6F)c6ccc2[nH]6)C=C5)C=C4)cc1)C(=O)O3
REMARK SMILES IDX 33 1 32 2 30 3 31 4 19 5 18 6 16 7 17 8 15 10 14 11 13 12
REMARK SMILES IDX 1 13 2 14 3 15 10 16 4 17 5 18 9 19 6 20 8 21 7 22 11 23
REMARK SMILES IDX 103 24 12 25 101 26 102 27 20 28 21 29 22 30 29 31 23 32
REMARK SMILES IDX 24 33 28 34 25 36 27 37 26 38 34 39 35 40 36 41 37 42 38 43
REMARK SMILES IDX 39 44 100 45 40 46 99 47 41 48 42 49 43 50 93 51 44 52 98 53
REMARK SMILES IDX 92 54 94 55 45 56 97 57 91 58 90 59 46 61 78 62 58 63 77 64
REMARK SMILES IDX 59 65 62 66 76 67 95 68 60 69 61 70 75 72 96 73 63 74 47 75
REMARK SMILES IDX 48 76 56 77 49 78 50 79 54 80 57 81 51 82 52 83 55 84 53 85
REMARK SMILES IDX 79 86 80 87 88 88 81 89 82 90 86 91 89 92 83 93 84 94 87 95
REMARK SMILES IDX 85 96 64 97 65 98 73 99 66 100 67 101 71 102 74 103 68 104
REMARK SMILES IDX 69 105 72 106 70 107
REMARK H PARENT 18 9 23 35 94 60 62 71
REMARK Flexibility Score: inf
ROOT
ATOM      1  C   UNL A   1      37.576  30.333  31.156  1.00  0.00     0.274 C 
ENDROOT
BRANCH   1   2
ATOM      2  O   UNL A   1      36.408  30.477  30.280  1.00  0.00    -0.461 OA
BRANCH   2   3
ATOM      3  C   UNL A   1      36.577  31.415  29.315  1.00  0.00     0.329 C 
ATOM      4  O   UNL A   1      37.704  31.671  28.881  1.00  0.00    -0.250 OA
BRANCH   3   5
ATOM      5  C   UNL A   1      35.234  32.004  28.610  1.00  0.00     0.196 C 
BRANCH   5   6
ATOM      6  N   UNL A   1      33.790  31.637  28.254  1.00  0.00    -0.342 N 
ATOM      7  C   UNL A   1      33.155  30.898  27.260  1.00  0.00     0.220 C 
ATOM      8  O   UNL A   1      32.006  31.331  27.035  1.00  0.00    -0.275 OA
ATOM      9  H   UNL A   1      33.146  32.022  28.892  1.00  0.00     0.164 HD
BRANCH   7  10
ATOM     10  C   UNL A   1      33.487  29.508  26.470  1.00  0.00     0.101 C 
BRANCH  10  11
ATOM     11  C   UNL A   1      32.833  28.642  25.328  1.00  0.00     0.026 C 
BRANCH  11  12
ATOM     12  C   UNL A   1      31.606  27.798  25.632  1.00  0.00     0.107 C 
ATOM     13  C   UNL A   1      36.771  22.617  23.394  1.00  0.00     0.048 C 
ATOM     14  C   UNL A   1      36.213  22.691  24.776  1.00  0.00    -0.005 A 
ATOM     15  C   UNL A   1      36.264  21.621  25.684  1.00  0.00     0.199 A 
ATOM     16  C   UNL A   1      35.283  23.650  25.293  1.00  0.00     0.024 A 
ATOM     17  O   UNL A   1      35.165  21.459  26.496  1.00  0.00    -0.464 OA
ATOM     18  C   UNL A   1      34.321  22.499  26.246  1.00  0.00     0.137 A 
ATOM     19  C   UNL A   1      34.519  25.251  24.798  1.00  0.00     0.020 A 
ATOM     20  C   UNL A   1      32.573  22.903  26.730  1.00  0.00     0.095 A 
ATOM     21  C   UNL A   1      32.753  25.604  25.206  1.00  0.00    -0.001 A 
ATOM     22  C   UNL A   1      31.877  24.483  26.170  1.00  0.00     0.138 A 
ATOM     23  C   UNL A   1      31.593  26.598  24.819  1.00  0.00     0.034 C 
ATOM     24  O   UNL A   1      31.215  25.665  27.016  1.00  0.00    -0.426 OA
ATOM     25  C   UNL A   1      30.050  26.051  24.862  1.00  0.00     0.014 C 
ATOM     26  C   UNL A   1      31.284  27.253  26.961  1.00  0.00     0.314 C 
ATOM     27  O   UNL A   1      31.084  28.038  27.887  1.00  0.00    -0.251 OA
ENDBRANCH  11  12
ENDBRANCH  10  11
ENDBRANCH   7  10
ENDBRANCH   5   6
BRANCH   5  28
ATOM     28  C   UNL A   1      35.305  33.584  28.467  1.00  0.00     0.074 C 
BRANCH  28  29
ATOM     29  C   UNL A   1      34.567  34.280  29.536  1.00  0.00    -0.020 A 
ATOM     30  C   UNL A   1      33.363  34.898  29.284  1.00  0.00     0.087 A 
ATOM     31  C   UNL A   1      34.842  34.390  30.940  1.00  0.00     0.003 A 
ATOM     32  N   UNL A   1      32.856  35.303  30.472  1.00  0.00    -0.361 N 
ATOM     33  C   UNL A   1      33.790  35.140  31.465  1.00  0.00     0.046 A 
ATOM     34  C   UNL A   1      35.856  33.955  31.831  1.00  0.00     0.010 A 
ATOM     35  H   UNL A   1      31.949  35.663  30.605  1.00  0.00     0.166 HD
ATOM     36  C   UNL A   1      33.759  35.594  32.782  1.00  0.00     0.026 A 
ATOM     37  C   UNL A   1      35.837  34.404  33.162  1.00  0.00     0.001 A 
ATOM     38  C   UNL A   1      34.823  35.245  33.613  1.00  0.00     0.002 A 
ENDBRANCH  28  29
ENDBRANCH   5  28
ENDBRANCH   3   5
ENDBRANCH   2   3
ENDBRANCH   1   2
BRANCH   1  39
ATOM     39  C   UNL A   1      37.482  29.059  32.014  1.00  0.00     0.275 C 
BRANCH  39  40
ATOM     40  O   UNL A   1      38.557  28.075  31.789  1.00  0.00    -0.458 OA
BRANCH  40  41
ATOM     41  C   UNL A   1      38.947  27.815  30.361  1.00  0.00     0.338 C 
ATOM     42  O   UNL A   1      38.580  26.609  30.301  1.00  0.00    -0.246 OA
BRANCH  41  43
ATOM     43  C   UNL A   1      39.955  29.106  28.970  1.00  0.00     0.060 A 
ATOM     44  C   UNL A   1      39.981  29.136  27.471  1.00  0.00     0.016 A 
ATOM     45  C   UNL A   1      41.010  30.070  29.096  1.00  0.00     0.016 A 
ATOM     46  C   UNL A   1      41.127  28.696  26.780  1.00  0.00     0.010 A 
ATOM     47  C   UNL A   1      42.206  29.830  28.382  1.00  0.00     0.010 A 
ATOM     48  C   UNL A   1      42.281  28.717  27.510  1.00  0.00    -0.014 A 
BRANCH  48  49
ATOM     49  C   UNL A   1      43.637  27.937  27.222  1.00  0.00     0.031 A 
ATOM     50  C   UNL A   1      43.052  26.615  27.290  1.00  0.00     0.074 A 
ATOM     51  C   UNL A   1      44.995  28.179  26.849  1.00  0.00     0.049 A 
ATOM     52  N   UNL A   1      42.797  26.119  28.464  1.00  0.00    -0.248 NA
ATOM     53  C   UNL A   1      42.142  26.111  26.241  1.00  0.00     0.031 C 
ATOM     54  C   UNL A   1      45.802  29.439  26.673  1.00  0.00     0.029 A 
ATOM     55  N   UNL A   1      45.985  27.297  26.331  1.00  0.00    -0.354 N 
ATOM     56  C   UNL A   1      42.196  24.943  28.142  1.00  0.00     0.074 A 
ATOM     57  C   UNL A   1      41.428  25.233  26.961  1.00  0.00     0.031 C 
ATOM     58  C   UNL A   1      46.819  29.325  25.772  1.00  0.00     0.029 A 
ATOM     59  C   UNL A   1      47.015  27.920  25.482  1.00  0.00     0.049 A 
ATOM     60  H   UNL A   1      45.982  26.332  26.528  1.00  0.00     0.167 HD
ATOM     61  C   UNL A   1      42.978  23.854  28.368  1.00  0.00     0.037 A 
ATOM     62  C   UNL A   1      48.164  27.362  24.933  1.00  0.00     0.037 A 
ATOM     63  C   UNL A   1      44.109  24.192  29.232  1.00  0.00     0.049 A 
ATOM     64  C   UNL A   1      48.413  26.153  25.741  1.00  0.00     0.074 A 
ATOM     65  C   UNL A   1      44.221  24.793  30.479  1.00  0.00     0.029 A 
ATOM     66  N   UNL A   1      45.262  24.522  28.553  1.00  0.00    -0.354 N 
ATOM     67  N   UNL A   1      48.807  26.195  26.982  1.00  0.00    -0.248 NA
ATOM     68  C   UNL A   1      47.706  24.961  25.316  1.00  0.00     0.031 C 
ATOM     69  C   UNL A   1      45.455  25.507  30.495  1.00  0.00     0.029 A 
ATOM     70  C   UNL A   1      46.160  25.202  29.337  1.00  0.00     0.049 A 
ATOM     71  H   UNL A   1      45.425  24.294  27.609  1.00  0.00     0.167 HD
ATOM     72  C   UNL A   1      47.933  25.323  27.602  1.00  0.00     0.074 A 
ATOM     73  C   UNL A   1      47.365  24.504  26.523  1.00  0.00     0.031 C 
ATOM     74  C   UNL A   1      47.444  25.646  28.837  1.00  0.00     0.037 A 
BRANCH  61  75
ATOM     75  C   UNL A   1      43.003  22.718  27.399  1.00  0.00     0.064 A 
ATOM     76  C   UNL A   1      42.243  21.596  27.718  1.00  0.00     0.173 A 
ATOM     77  C   UNL A   1      43.831  22.606  26.255  1.00  0.00     0.173 A 
ATOM     78  F   UNL A   1      41.498  21.585  28.832  1.00  0.00    -0.203 F 
ATOM     79  C   UNL A   1      42.273  20.458  26.917  1.00  0.00     0.198 A 
ATOM     80  C   UNL A   1      43.797  21.508  25.414  1.00  0.00     0.198 A 
ATOM     81  F   UNL A   1      44.784  23.490  25.949  1.00  0.00    -0.203 F 
ATOM     82  F   UNL A   1      41.584  19.375  27.291  1.00  0.00    -0.200 F 
ATOM     83  C   UNL A   1      43.025  20.425  25.752  1.00  0.00     0.200 A 
ATOM     84  F   UNL A   1      44.565  21.494  24.314  1.00  0.00    -0.200 F 
ATOM     85  F   UNL A   1      43.045  19.331  24.982  1.00  0.00    -0.200 F 
ENDBRANCH  61  75
BRANCH  62  86
ATOM     86  C   UNL A   1      49.006  27.536  23.674  1.00  0.00     0.064 A 
ATOM     87  C   UNL A   1      50.395  27.198  23.632  1.00  0.00     0.173 A 
ATOM     88  C   UNL A   1      48.408  27.673  22.414  1.00  0.00     0.173 A 
ATOM     89  F   UNL A   1      51.092  27.042  24.768  1.00  0.00    -0.203 F 
ATOM     90  C   UNL A   1      51.087  26.930  22.432  1.00  0.00     0.198 A 
ATOM     91  C   UNL A   1      49.099  27.398  21.213  1.00  0.00     0.198 A 
ATOM     92  F   UNL A   1      47.111  27.996  22.324  1.00  0.00    -0.203 F 
ATOM     93  F   UNL A   1      52.371  26.537  22.458  1.00  0.00    -0.200 F 
ATOM     94  C   UNL A   1      50.427  27.001  21.223  1.00  0.00     0.200 A 
ATOM     95  F   UNL A   1      48.446  27.452  20.043  1.00  0.00    -0.200 F 
ATOM     96  F   UNL A   1      51.049  26.659  20.083  1.00  0.00    -0.200 F 
ENDBRANCH  62  86
BRANCH  74  97
ATOM     97  C   UNL A   1      48.231  26.605  29.698  1.00  0.00     0.064 A 
ATOM     98  C   UNL A   1      47.868  27.924  30.026  1.00  0.00     0.173 A 
ATOM     99  C   UNL A   1      49.360  26.082  30.341  1.00  0.00     0.173 A 
ATOM    100  F   UNL A   1      46.778  28.492  29.500  1.00  0.00    -0.203 F 
ATOM    101  C   UNL A   1      48.601  28.674  30.951  1.00  0.00     0.198 A 
ATOM    102  C   UNL A   1      50.074  26.819  31.280  1.00  0.00     0.198 A 
ATOM    103  F   UNL A   1      49.740  24.819  30.095  1.00  0.00    -0.203 F 
ATOM    104  F   UNL A   1      48.223  29.925  31.260  1.00  0.00    -0.200 F 
ATOM    105  C   UNL A   1      49.699  28.116  31.584  1.00  0.00     0.200 A 
ATOM    106  F   UNL A   1      51.108  26.254  31.916  1.00  0.00    -0.200 F 
ATOM    107  F   UNL A   1      50.381  28.817  32.500  1.00  0.00    -0.200 F 
ENDBRANCH  74  97
ENDBRANCH  48  49
ENDBRANCH  41  43
ENDBRANCH  40  41
ENDBRANCH  39  40
ENDBRANCH   1  39
TORSDOF 17
ENDMDL
MODEL 3
REMARK VINA RESULT:     -13.0      4.919     10.801
REMARK SMILES Cc1coc2cc3c(cc12)[C@@H](C)[C@H](CCC(=O)N[C@@H](Cc1c[nH]c2ccccc12)C(=O)OCCOC(=O)c1ccc(-c2c4nc(c(-c5c(F)c(F)c(F)c(F)c5F)c5ccc([nH]5)c(-c5c(F)c(F)c(F)c(F)c5F)c5nc(c(-c6c(F)c(F)c(F)c(F)c6F)c6ccc2[nH]6)C=C5)C=C4)cc1)C(=O)O3
REMARK SMILES IDX 33 1 32 2 30 3 31 4 19 5 18 6 16 7 17 8 15 10 14 11 13 12
REMARK SMILES IDX 1 13 2 14 3 15 10 16 4 17 5 18 9 19 6 20 8 21 7 22 11 23
REMARK SMILES IDX 103 24 12 25 101 26 102 27 20 28 21 29 22 30 29 31 23 32
REMARK SMILES IDX 24 33 28 34 25 36 27 37 26 38 34 39 35 40 36 41 37 42 38 43
REMARK SMILES IDX 39 44 100 45 40 46 99 47 41 48 42 49 43 50 93 51 44 52 98 53
REMARK SMILES IDX 92 54 94 55 45 56 97 57 91 58 90 59 46 61 78 62 58 63 77 64
REMARK SMILES IDX 59 65 62 66 76 67 95 68 60 69 61 70 75 72 96 73 63 74 47 75
REMARK SMILES IDX 48 76 56 77 49 78 50 79 54 80 57 81 51 82 52 83 55 84 53 85
REMARK SMILES IDX 79 86 80 87 88 88 81 89 82 90 86 91 89 92 83 93 84 94 87 95
REMARK SMILES IDX 85 96 64 97 65 98 73 99 66 100 67 101 71 102 74 103 68 104
REMARK SMILES IDX 69 105 72 106 70 107
REMARK H PARENT 18 9 23 35 94 60 62 71
REMARK Flexibility Score: inf
ROOT
ATOM      1  C   UNL A   1      37.430  29.392  32.901  1.00  0.00     0.274 C 
ENDROOT
BRANCH   1   2
ATOM      2  O   UNL A   1      36.644  30.375  32.147  1.00  0.00    -0.461 OA
BRANCH   2   3
ATOM      3  C   UNL A   1      36.723  30.204  30.803  1.00  0.00     0.329 C 
ATOM      4  O   UNL A   1      37.232  29.183  30.331  1.00  0.00    -0.250 OA
BRANCH   3   5
ATOM      5  C   UNL A   1      35.926  31.274  29.871  1.00  0.00     0.196 C 
BRANCH   5   6
ATOM      6  N   UNL A   1      34.589  31.504  29.159  1.00  0.00    -0.342 N 
ATOM      7  C   UNL A   1      34.076  31.275  27.886  1.00  0.00     0.220 C 
ATOM      8  O   UNL A   1      33.189  32.105  27.597  1.00  0.00    -0.275 OA
ATOM      9  H   UNL A   1      33.923  31.920  29.753  1.00  0.00     0.164 HD
BRANCH   7  10
ATOM     10  C   UNL A   1      34.226  30.082  26.782  1.00  0.00     0.101 C 
BRANCH  10  11
ATOM     11  C   UNL A   1      33.857  28.554  26.672  1.00  0.00     0.026 C 
BRANCH  11  12
ATOM     12  C   UNL A   1      32.452  28.147  26.259  1.00  0.00     0.107 C 
ATOM     13  C   UNL A   1      36.760  22.365  23.702  1.00  0.00     0.048 C 
ATOM     14  C   UNL A   1      35.741  22.227  24.784  1.00  0.00    -0.005 A 
ATOM     15  C   UNL A   1      35.191  20.994  25.169  1.00  0.00     0.199 A 
ATOM     16  C   UNL A   1      34.927  23.258  25.354  1.00  0.00     0.024 A 
ATOM     17  O   UNL A   1      33.857  21.002  25.507  1.00  0.00    -0.464 OA
ATOM     18  C   UNL A   1      33.436  22.297  25.463  1.00  0.00     0.137 A 
ATOM     19  C   UNL A   1      34.800  25.095  25.340  1.00  0.00     0.020 A 
ATOM     20  C   UNL A   1      31.779  23.131  25.556  1.00  0.00     0.095 A 
ATOM     21  C   UNL A   1      33.144  25.913  25.341  1.00  0.00    -0.001 A 
ATOM     22  C   UNL A   1      31.733  24.945  25.496  1.00  0.00     0.138 A 
ATOM     23  C   UNL A   1      32.484  27.318  25.070  1.00  0.00     0.034 C 
ATOM     24  O   UNL A   1      31.082  25.986  26.517  1.00  0.00    -0.426 OA
ATOM     25  C   UNL A   1      30.966  27.362  24.459  1.00  0.00     0.014 C 
ATOM     26  C   UNL A   1      31.524  27.390  27.116  1.00  0.00     0.314 C 
ATOM     27  O   UNL A   1      31.163  27.892  28.180  1.00  0.00    -0.251 OA
ENDBRANCH  11  12
ENDBRANCH  10  11
ENDBRANCH   7  10
ENDBRANCH   5   6
BRANCH   5  28
ATOM     28  C   UNL A   1      36.623  32.701  29.908  1.00  0.00     0.074 C 
BRANCH  28  29
ATOM     29  C   UNL A   1      36.037  33.589  30.927  1.00  0.00    -0.020 A 
ATOM     30  C   UNL A   1      36.630  33.746  32.160  1.00  0.00     0.087 A 
ATOM     31  C   UNL A   1      34.904  34.466  30.859  1.00  0.00     0.003 A 
ATOM     32  N   UNL A   1      35.964  34.730  32.810  1.00  0.00    -0.361 N 
ATOM     33  C   UNL A   1      34.835  35.078  32.110  1.00  0.00     0.046 A 
ATOM     34  C   UNL A   1      33.921  34.811  29.897  1.00  0.00     0.010 A 
ATOM     35  H   UNL A   1      36.249  35.137  33.659  1.00  0.00     0.166 HD
ATOM     36  C   UNL A   1      33.780  35.900  32.501  1.00  0.00     0.026 A 
ATOM     37  C   UNL A   1      32.851  35.639  30.277  1.00  0.00     0.001 A 
ATOM     38  C   UNL A   1      32.766  36.138  31.574  1.00  0.00     0.002 A 
ENDBRANCH  28  29
ENDBRANCH   5  28
ENDBRANCH   3   5
ENDBRANCH   2   3
ENDBRANCH   1   2
BRANCH   1  39
ATOM     39  C   UNL A   1      38.271  30.068  33.998  1.00  0.00     0.275 C 
BRANCH  39  40
ATOM     40  O   UNL A   1      38.805  31.397  33.644  1.00  0.00    -0.458 OA
BRANCH  40  41
ATOM     41  C   UNL A   1      40.193  31.435  33.068  1.00  0.00     0.338 C 
ATOM     42  O   UNL A   1      40.830  31.449  34.157  1.00  0.00    -0.246 OA
BRANCH  41  43
ATOM     43  C   UNL A   1      40.810  31.578  31.014  1.00  0.00     0.060 A 
ATOM     44  C   UNL A   1      40.129  31.189  29.736  1.00  0.00     0.016 A 
ATOM     45  C   UNL A   1      42.066  31.836  30.371  1.00  0.00     0.016 A 
ATOM     46  C   UNL A   1      40.559  30.046  29.031  1.00  0.00     0.010 A 
ATOM     47  C   UNL A   1      42.597  30.823  29.540  1.00  0.00     0.010 A 
ATOM     48  C   UNL A   1      41.837  29.652  29.303  1.00  0.00    -0.014 A 
BRANCH  48  49
ATOM     49  C   UNL A   1      42.502  28.232  29.033  1.00  0.00     0.031 A 
ATOM     50  C   UNL A   1      42.931  28.020  30.399  1.00  0.00     0.074 A 
ATOM     51  C   UNL A   1      42.633  27.249  28.005  1.00  0.00     0.049 A 
ATOM     52  N   UNL A   1      43.990  28.648  30.813  1.00  0.00    -0.248 NA
ATOM     53  C   UNL A   1      41.965  27.742  31.483  1.00  0.00     0.031 C 
ATOM     54  C   UNL A   1      42.237  27.224  26.552  1.00  0.00     0.029 A 
ATOM     55  N   UNL A   1      43.018  25.880  28.076  1.00  0.00    -0.354 N 
ATOM     56  C   UNL A   1      44.035  28.283  32.121  1.00  0.00     0.074 A 
ATOM     57  C   UNL A   1      42.658  28.213  32.531  1.00  0.00     0.031 C 
ATOM     58  C   UNL A   1      41.975  25.976  26.070  1.00  0.00     0.029 A 
ATOM     59  C   UNL A   1      42.465  25.006  27.027  1.00  0.00     0.049 A 
ATOM     60  H   UNL A   1      43.615  25.539  28.781  1.00  0.00     0.167 HD
ATOM     61  C   UNL A   1      45.023  27.393  32.404  1.00  0.00     0.037 A 
ATOM     62  C   UNL A   1      42.740  23.671  26.753  1.00  0.00     0.037 A 
ATOM     63  C   UNL A   1      46.004  27.339  31.320  1.00  0.00     0.049 A 
ATOM     64  C   UNL A   1      44.034  23.415  27.412  1.00  0.00     0.074 A 
ATOM     65  C   UNL A   1      46.766  28.298  30.663  1.00  0.00     0.029 A 
ATOM     66  N   UNL A   1      45.770  26.348  30.392  1.00  0.00    -0.354 N 
ATOM     67  N   UNL A   1      45.159  23.921  26.991  1.00  0.00    -0.248 NA
ATOM     68  C   UNL A   1      43.962  23.049  28.813  1.00  0.00     0.031 C 
ATOM     69  C   UNL A   1      46.940  27.851  29.321  1.00  0.00     0.029 A 
ATOM     70  C   UNL A   1      46.438  26.560  29.212  1.00  0.00     0.049 A 
ATOM     71  H   UNL A   1      45.188  25.571  30.557  1.00  0.00     0.167 HD
ATOM     72  C   UNL A   1      45.705  24.438  28.149  1.00  0.00     0.074 A 
ATOM     73  C   UNL A   1      44.996  23.771  29.249  1.00  0.00     0.031 C 
ATOM     74  C   UNL A   1      46.346  25.645  28.095  1.00  0.00     0.037 A 
BRANCH  61  75
ATOM     75  C   UNL A   1      44.782  26.257  33.343  1.00  0.00     0.064 A 
ATOM     76  C   UNL A   1      45.350  26.351  34.610  1.00  0.00     0.173 A 
ATOM     77  C   UNL A   1      44.151  25.027  33.032  1.00  0.00     0.173 A 
ATOM     78  F   UNL A   1      46.042  27.446  34.956  1.00  0.00    -0.203 F 
ATOM     79  C   UNL A   1      45.250  25.303  35.521  1.00  0.00     0.198 A 
ATOM     80  C   UNL A   1      43.979  24.020  33.964  1.00  0.00     0.198 A 
ATOM     81  F   UNL A   1      43.768  24.691  31.798  1.00  0.00    -0.203 F 
ATOM     82  F   UNL A   1      45.867  25.401  36.703  1.00  0.00    -0.200 F 
ATOM     83  C   UNL A   1      44.541  24.153  35.209  1.00  0.00     0.200 A 
ATOM     84  F   UNL A   1      43.319  22.905  33.618  1.00  0.00    -0.200 F 
ATOM     85  F   UNL A   1      44.442  23.151  36.090  1.00  0.00    -0.200 F 
ENDBRANCH  61  75
BRANCH  62  86
ATOM     86  C   UNL A   1      41.992  22.459  26.207  1.00  0.00     0.064 A 
ATOM     87  C   UNL A   1      42.634  21.200  25.992  1.00  0.00     0.173 A 
ATOM     88  C   UNL A   1      40.592  22.395  26.240  1.00  0.00     0.173 A 
ATOM     89  F   UNL A   1      43.972  21.119  25.932  1.00  0.00    -0.203 F 
ATOM     90  C   UNL A   1      41.930  19.980  25.913  1.00  0.00     0.198 A 
ATOM     91  C   UNL A   1      39.888  21.172  26.169  1.00  0.00     0.198 A 
ATOM     92  F   UNL A   1      39.878  23.512  26.427  1.00  0.00    -0.203 F 
ATOM     93  F   UNL A   1      42.591  18.817  25.792  1.00  0.00    -0.200 F 
ATOM     94  C   UNL A   1      40.556  19.966  26.033  1.00  0.00     0.200 A 
ATOM     95  F   UNL A   1      38.554  21.165  26.304  1.00  0.00    -0.200 F 
ATOM     96  F   UNL A   1      39.883  18.804  26.054  1.00  0.00    -0.200 F 
ENDBRANCH  62  86
BRANCH  74  97
ATOM     97  C   UNL A   1      46.904  26.108  26.771  1.00  0.00     0.064 A 
ATOM     98  C   UNL A   1      46.333  27.064  25.912  1.00  0.00     0.173 A 
ATOM     99  C   UNL A   1      48.180  25.639  26.433  1.00  0.00     0.173 A 
ATOM    100  F   UNL A   1      45.139  27.605  26.176  1.00  0.00    -0.203 F 
ATOM    101  C   UNL A   1      47.010  27.525  24.777  1.00  0.00     0.198 A 
ATOM    102  C   UNL A   1      48.864  26.115  25.320  1.00  0.00     0.198 A 
ATOM    103  F   UNL A   1      48.793  24.750  27.229  1.00  0.00    -0.203 F 
ATOM    104  F   UNL A   1      46.450  28.451  23.984  1.00  0.00    -0.200 F 
ATOM    105  C   UNL A   1      48.280  27.054  24.488  1.00  0.00     0.200 A 
ATOM    106  F   UNL A   1      50.109  25.685  25.075  1.00  0.00    -0.200 F 
ATOM    107  F   UNL A   1      48.949  27.522  23.425  1.00  0.00    -0.200 F 
ENDBRANCH  74  97
ENDBRANCH  48  49
ENDBRANCH  41  43
ENDBRANCH  40  41
ENDBRANCH  39  40
ENDBRANCH   1  39
TORSDOF 17
ENDMDL
