MODEL 1
REMARK VINA RESULT:     -12.7      0.000      0.000
REMARK SMILES C[C@@H](C(=O)OCCOC(=O)c1ccc(-c2c3nc(c(-c4c(F)c(F)c(F)c(F)c4F)c4ccc([nH]4)c(-c4c(F)c(F)c(F)c(F)c4F)c4nc(c(-c5c(F)c(F)c(F)c(F)c5F)c5ccc2[nH]5)C=C4)C=C3)cc1)S(=O)(=O)N[C@@]12C[C@@H]3C[C@@](C)(C[C@@](C)(C3)C1)C2
REMARK SMILES IDX 6 1 5 2 3 3 4 4 2 5 1 6 74 7 75 8 76 9 77 10 78 12 79 13
REMARK SMILES IDX 88 14 89 15 80 16 85 17 82 18 87 19 81 20 84 21 86 22 83 23
REMARK SMILES IDX 7 24 8 25 9 26 10 27 11 28 12 29 73 30 13 31 72 32 14 33
REMARK SMILES IDX 15 34 16 35 66 36 17 37 71 38 65 39 67 40 18 41 70 42 64 43
REMARK SMILES IDX 63 44 19 46 51 47 31 48 50 49 32 50 35 51 49 52 68 53 33 54
REMARK SMILES IDX 34 55 48 57 69 58 36 59 20 60 21 61 29 62 22 63 23 64 27 65
REMARK SMILES IDX 30 66 24 67 25 68 28 69 26 70 52 71 53 72 61 73 54 74 55 75
REMARK SMILES IDX 59 76 62 77 56 78 57 79 60 80 58 81 37 82 38 83 46 84 39 85
REMARK SMILES IDX 40 86 44 87 47 88 41 89 42 90 45 91 43 92
REMARK H PARENT 77 11 67 45 35 56
REMARK Flexibility Score: inf
ROOT
ATOM      1  C   UNL A   1      31.897  27.993  25.598  1.00  0.00     0.274 C 
ENDROOT
BRANCH   1   2
ATOM      2  O   UNL A   1      31.168  27.505  24.446  1.00  0.00    -0.461 OA
BRANCH   2   3
ATOM      3  C   UNL A   1      31.636  27.869  23.215  1.00  0.00     0.325 C 
ATOM      4  O   UNL A   1      30.955  28.462  22.388  1.00  0.00    -0.251 OA
BRANCH   3   5
ATOM      5  C   UNL A   1      33.009  27.324  22.925  1.00  0.00     0.230 C 
ATOM      6  C   UNL A   1      33.981  28.334  22.341  1.00  0.00     0.039 C 
BRANCH   5   7
ATOM      7  S   UNL A   1      32.964  25.735  22.092  1.00  0.00     0.225 S 
ATOM      8  O   UNL A   1      31.727  25.062  22.435  1.00  0.00    -0.212 OA
ATOM      9  O   UNL A   1      33.277  25.953  20.697  1.00  0.00    -0.212 OA
BRANCH   7  10
ATOM     10  N   UNL A   1      34.235  24.806  22.641  1.00  0.00    -0.208 NA
ATOM     11  H   UNL A   1      34.945  25.476  22.938  1.00  0.00     0.141 HD
BRANCH  10  12
ATOM     12  C   UNL A   1      34.181  23.790  23.726  1.00  0.00     0.034 C 
ATOM     13  C   UNL A   1      33.707  24.373  25.061  1.00  0.00     0.027 C 
ATOM     14  C   UNL A   1      33.326  22.560  23.343  1.00  0.00     0.030 C 
ATOM     15  C   UNL A   1      35.638  23.287  23.907  1.00  0.00     0.030 C 
ATOM     16  C   UNL A   1      33.765  23.323  26.171  1.00  0.00    -0.008 C 
ATOM     17  C   UNL A   1      33.388  21.487  24.470  1.00  0.00    -0.030 C 
ATOM     18  C   UNL A   1      35.746  22.246  25.039  1.00  0.00    -0.030 C 
ATOM     19  C   UNL A   1      32.885  22.125  25.785  1.00  0.00     0.010 C 
ATOM     20  C   UNL A   1      35.222  22.878  26.346  1.00  0.00     0.010 C 
ATOM     21  C   UNL A   1      34.856  21.039  24.678  1.00  0.00     0.013 C 
ATOM     22  C   UNL A   1      32.527  20.270  24.116  1.00  0.00     0.011 C 
ATOM     23  C   UNL A   1      37.205  21.811  25.214  1.00  0.00     0.011 C 
ENDBRANCH  10  12
ENDBRANCH   7  10
ENDBRANCH   5   7
ENDBRANCH   3   5
ENDBRANCH   2   3
ENDBRANCH   1   2
BRANCH   1  24
ATOM     24  C   UNL A   1      31.598  29.463  25.874  1.00  0.00     0.275 C 
BRANCH  24  25
ATOM     25  O   UNL A   1      32.816  30.216  25.749  1.00  0.00    -0.458 OA
BRANCH  25  26
ATOM     26  C   UNL A   1      33.078  31.054  26.773  1.00  0.00     0.338 C 
ATOM     27  O   UNL A   1      32.345  31.925  27.221  1.00  0.00    -0.246 OA
BRANCH  26  28
ATOM     28  C   UNL A   1      34.406  30.773  27.341  1.00  0.00     0.060 A 
ATOM     29  C   UNL A   1      34.784  29.466  27.628  1.00  0.00     0.016 A 
ATOM     30  C   UNL A   1      35.215  31.833  27.748  1.00  0.00     0.016 A 
ATOM     31  C   UNL A   1      35.900  29.224  28.428  1.00  0.00     0.010 A 
ATOM     32  C   UNL A   1      36.407  31.576  28.436  1.00  0.00     0.010 A 
ATOM     33  C   UNL A   1      36.751  30.267  28.820  1.00  0.00    -0.014 A 
BRANCH  33  34
ATOM     34  C   UNL A   1      37.980  29.987  29.625  1.00  0.00     0.031 A 
ATOM     35  C   UNL A   1      39.102  29.146  29.065  1.00  0.00     0.074 A 
ATOM     36  C   UNL A   1      38.114  30.499  30.866  1.00  0.00     0.049 A 
ATOM     37  N   UNL A   1      40.139  28.633  29.682  1.00  0.00    -0.248 NA
ATOM     38  C   UNL A   1      39.048  28.830  27.630  1.00  0.00     0.031 C 
ATOM     39  C   UNL A   1      37.144  31.367  31.535  1.00  0.00     0.029 A 
ATOM     40  N   UNL A   1      39.131  30.380  31.783  1.00  0.00    -0.354 N 
ATOM     41  C   UNL A   1      40.820  27.884  28.732  1.00  0.00     0.074 A 
ATOM     42  C   UNL A   1      40.086  28.015  27.491  1.00  0.00     0.031 C 
ATOM     43  C   UNL A   1      37.641  31.760  32.715  1.00  0.00     0.029 A 
ATOM     44  C   UNL A   1      38.906  31.075  32.947  1.00  0.00     0.049 A 
ATOM     45  H   UNL A   1      39.943  29.847  31.622  1.00  0.00     0.167 HD
ATOM     46  C   UNL A   1      41.949  27.147  28.885  1.00  0.00     0.037 A 
ATOM     47  C   UNL A   1      39.598  31.121  34.100  1.00  0.00     0.037 A 
ATOM     48  C   UNL A   1      42.719  27.072  30.101  1.00  0.00     0.049 A 
ATOM     49  C   UNL A   1      40.833  30.284  34.253  1.00  0.00     0.074 A 
ATOM     50  C   UNL A   1      43.881  26.355  30.344  1.00  0.00     0.029 A 
ATOM     51  N   UNL A   1      42.424  27.755  31.271  1.00  0.00    -0.354 N 
ATOM     52  N   UNL A   1      41.408  29.495  33.379  1.00  0.00    -0.248 NA
ATOM     53  C   UNL A   1      41.496  30.316  35.564  1.00  0.00     0.031 C 
ATOM     54  C   UNL A   1      44.270  26.580  31.670  1.00  0.00     0.029 A 
ATOM     55  C   UNL A   1      43.375  27.469  32.240  1.00  0.00     0.049 A 
ATOM     56  H   UNL A   1      41.654  28.355  31.395  1.00  0.00     0.167 HD
ATOM     57  C   UNL A   1      42.494  28.932  34.033  1.00  0.00     0.074 A 
ATOM     58  C   UNL A   1      42.517  29.492  35.368  1.00  0.00     0.031 C 
ATOM     59  C   UNL A   1      43.383  28.021  33.569  1.00  0.00     0.037 A 
BRANCH  46  60
ATOM     60  C   UNL A   1      42.410  26.323  27.718  1.00  0.00     0.064 A 
ATOM     61  C   UNL A   1      43.397  26.771  26.830  1.00  0.00     0.173 A 
ATOM     62  C   UNL A   1      41.893  25.031  27.527  1.00  0.00     0.173 A 
ATOM     63  F   UNL A   1      43.913  28.003  26.961  1.00  0.00    -0.203 F 
ATOM     64  C   UNL A   1      43.839  25.963  25.785  1.00  0.00     0.198 A 
ATOM     65  C   UNL A   1      42.356  24.217  26.497  1.00  0.00     0.198 A 
ATOM     66  F   UNL A   1      40.951  24.550  28.353  1.00  0.00    -0.203 F 
ATOM     67  F   UNL A   1      44.759  26.425  24.927  1.00  0.00    -0.200 F 
ATOM     68  C   UNL A   1      43.325  24.685  25.624  1.00  0.00     0.200 A 
ATOM     69  F   UNL A   1      41.867  22.977  26.352  1.00  0.00    -0.200 F 
ATOM     70  F   UNL A   1      43.761  23.906  24.625  1.00  0.00    -0.200 F 
ENDBRANCH  46  60
BRANCH  47  71
ATOM     71  C   UNL A   1      39.090  31.948  35.225  1.00  0.00     0.064 A 
ATOM     72  C   UNL A   1      38.342  31.378  36.263  1.00  0.00     0.173 A 
ATOM     73  C   UNL A   1      39.370  33.321  35.299  1.00  0.00     0.173 A 
ATOM     74  F   UNL A   1      38.020  30.076  36.219  1.00  0.00    -0.203 F 
ATOM     75  C   UNL A   1      37.898  32.149  37.335  1.00  0.00     0.198 A 
ATOM     76  C   UNL A   1      38.956  34.083  36.388  1.00  0.00     0.198 A 
ATOM     77  F   UNL A   1      40.079  33.916  34.327  1.00  0.00    -0.203 F 
ATOM     78  F   UNL A   1      37.157  31.587  38.300  1.00  0.00    -0.200 F 
ATOM     79  C   UNL A   1      38.217  33.497  37.402  1.00  0.00     0.200 A 
ATOM     80  F   UNL A   1      39.281  35.381  36.455  1.00  0.00    -0.200 F 
ATOM     81  F   UNL A   1      37.806  34.234  38.444  1.00  0.00    -0.200 F 
ENDBRANCH  47  71
BRANCH  59  82
ATOM     82  C   UNL A   1      44.461  27.583  34.514  1.00  0.00     0.064 A 
ATOM     83  C   UNL A   1      44.315  26.433  35.304  1.00  0.00     0.173 A 
ATOM     84  C   UNL A   1      45.654  28.312  34.623  1.00  0.00     0.173 A 
ATOM     85  F   UNL A   1      43.184  25.714  35.248  1.00  0.00    -0.203 F 
ATOM     86  C   UNL A   1      45.317  26.042  36.188  1.00  0.00     0.198 A 
ATOM     87  C   UNL A   1      46.663  27.905  35.491  1.00  0.00     0.198 A 
ATOM     88  F   UNL A   1      45.841  29.417  33.886  1.00  0.00    -0.203 F 
ATOM     89  F   UNL A   1      45.139  24.967  36.967  1.00  0.00    -0.200 F 
ATOM     90  C   UNL A   1      46.492  26.776  36.279  1.00  0.00     0.200 A 
ATOM     91  F   UNL A   1      47.799  28.610  35.573  1.00  0.00    -0.200 F 
ATOM     92  F   UNL A   1      47.454  26.399  37.132  1.00  0.00    -0.200 F 
ENDBRANCH  59  82
ENDBRANCH  33  34
ENDBRANCH  26  28
ENDBRANCH  25  26
ENDBRANCH  24  25
ENDBRANCH   1  24
TORSDOF 14
ENDMDL
MODEL 2
REMARK VINA RESULT:     -12.7      0.215      1.962
REMARK SMILES C[C@@H](C(=O)OCCOC(=O)c1ccc(-c2c3nc(c(-c4c(F)c(F)c(F)c(F)c4F)c4ccc([nH]4)c(-c4c(F)c(F)c(F)c(F)c4F)c4nc(c(-c5c(F)c(F)c(F)c(F)c5F)c5ccc2[nH]5)C=C4)C=C3)cc1)S(=O)(=O)N[C@@]12C[C@@H]3C[C@@](C)(C[C@@](C)(C3)C1)C2
REMARK SMILES IDX 6 1 5 2 3 3 4 4 2 5 1 6 74 7 75 8 76 9 77 10 78 12 79 13
REMARK SMILES IDX 88 14 89 15 80 16 85 17 82 18 87 19 81 20 84 21 86 22 83 23
REMARK SMILES IDX 7 24 8 25 9 26 10 27 11 28 12 29 73 30 13 31 72 32 14 33
REMARK SMILES IDX 15 34 16 35 66 36 17 37 71 38 65 39 67 40 18 41 70 42 64 43
REMARK SMILES IDX 63 44 19 46 51 47 31 48 50 49 32 50 35 51 49 52 68 53 33 54
REMARK SMILES IDX 34 55 48 57 69 58 36 59 20 60 21 61 29 62 22 63 23 64 27 65
REMARK SMILES IDX 30 66 24 67 25 68 28 69 26 70 52 71 53 72 61 73 54 74 55 75
REMARK SMILES IDX 59 76 62 77 56 78 57 79 60 80 58 81 37 82 38 83 46 84 39 85
REMARK SMILES IDX 40 86 44 87 47 88 41 89 42 90 45 91 43 92
REMARK H PARENT 77 11 67 45 35 56
REMARK Flexibility Score: inf
ROOT
ATOM      1  C   UNL A   1      31.913  28.130  25.272  1.00  0.00     0.274 C 
ENDROOT
BRANCH   1   2
ATOM      2  O   UNL A   1      30.945  27.828  24.238  1.00  0.00    -0.461 OA
BRANCH   2   3
ATOM      3  C   UNL A   1      31.403  27.782  22.952  1.00  0.00     0.325 C 
ATOM      4  O   UNL A   1      30.696  28.016  21.980  1.00  0.00    -0.251 OA
BRANCH   3   5
ATOM      5  C   UNL A   1      32.810  27.257  22.849  1.00  0.00     0.230 C 
ATOM      6  C   UNL A   1      33.830  28.272  22.364  1.00  0.00     0.039 C 
BRANCH   5   7
ATOM      7  S   UNL A   1      32.896  25.648  22.060  1.00  0.00     0.225 S 
ATOM      8  O   UNL A   1      31.685  24.913  22.365  1.00  0.00    -0.212 OA
ATOM      9  O   UNL A   1      33.261  25.848  20.676  1.00  0.00    -0.212 OA
BRANCH   7  10
ATOM     10  N   UNL A   1      34.191  24.810  22.692  1.00  0.00    -0.208 NA
ATOM     11  H   UNL A   1      34.841  25.527  23.013  1.00  0.00     0.141 HD
BRANCH  10  12
ATOM     12  C   UNL A   1      34.142  23.810  23.794  1.00  0.00     0.034 C 
ATOM     13  C   UNL A   1      33.651  24.409  25.115  1.00  0.00     0.027 C 
ATOM     14  C   UNL A   1      33.305  22.564  23.425  1.00  0.00     0.030 C 
ATOM     15  C   UNL A   1      35.603  23.328  23.993  1.00  0.00     0.030 C 
ATOM     16  C   UNL A   1      33.714  23.377  26.243  1.00  0.00    -0.008 C 
ATOM     17  C   UNL A   1      33.371  21.510  24.570  1.00  0.00    -0.030 C 
ATOM     18  C   UNL A   1      35.716  22.307  25.143  1.00  0.00    -0.030 C 
ATOM     19  C   UNL A   1      32.852  22.163  25.871  1.00  0.00     0.010 C 
ATOM     20  C   UNL A   1      35.175  22.953  26.435  1.00  0.00     0.010 C 
ATOM     21  C   UNL A   1      34.843  21.084  24.795  1.00  0.00     0.013 C 
ATOM     22  C   UNL A   1      32.529  20.276  24.230  1.00  0.00     0.011 C 
ATOM     23  C   UNL A   1      37.179  21.893  25.335  1.00  0.00     0.011 C 
ENDBRANCH  10  12
ENDBRANCH   7  10
ENDBRANCH   5   7
ENDBRANCH   3   5
ENDBRANCH   2   3
ENDBRANCH   1   2
BRANCH   1  24
ATOM     24  C   UNL A   1      31.762  29.557  25.787  1.00  0.00     0.275 C 
BRANCH  24  25
ATOM     25  O   UNL A   1      33.046  30.201  25.759  1.00  0.00    -0.458 OA
BRANCH  25  26
ATOM     26  C   UNL A   1      33.299  31.020  26.801  1.00  0.00     0.338 C 
ATOM     27  O   UNL A   1      32.560  31.879  27.262  1.00  0.00    -0.246 OA
BRANCH  26  28
ATOM     28  C   UNL A   1      34.625  30.732  27.372  1.00  0.00     0.060 A 
ATOM     29  C   UNL A   1      34.990  29.424  27.673  1.00  0.00     0.016 A 
ATOM     30  C   UNL A   1      35.444  31.788  27.766  1.00  0.00     0.016 A 
ATOM     31  C   UNL A   1      36.105  29.180  28.474  1.00  0.00     0.010 A 
ATOM     32  C   UNL A   1      36.634  31.527  28.457  1.00  0.00     0.010 A 
ATOM     33  C   UNL A   1      36.966  30.220  28.855  1.00  0.00    -0.014 A 
BRANCH  33  34
ATOM     34  C   UNL A   1      38.193  29.936  29.661  1.00  0.00     0.031 A 
ATOM     35  C   UNL A   1      39.309  29.083  29.108  1.00  0.00     0.074 A 
ATOM     36  C   UNL A   1      38.330  30.456  30.898  1.00  0.00     0.049 A 
ATOM     37  N   UNL A   1      40.342  28.568  29.729  1.00  0.00    -0.248 NA
ATOM     38  C   UNL A   1      39.253  28.757  27.675  1.00  0.00     0.031 C 
ATOM     39  C   UNL A   1      37.367  31.337  31.561  1.00  0.00     0.029 A 
ATOM     40  N   UNL A   1      39.346  30.336  31.817  1.00  0.00    -0.354 N 
ATOM     41  C   UNL A   1      41.018  27.806  28.784  1.00  0.00     0.074 A 
ATOM     42  C   UNL A   1      40.284  27.934  27.542  1.00  0.00     0.031 C 
ATOM     43  C   UNL A   1      37.866  31.734  32.739  1.00  0.00     0.029 A 
ATOM     44  C   UNL A   1      39.126  31.041  32.976  1.00  0.00     0.049 A 
ATOM     45  H   UNL A   1      40.155  29.797  31.660  1.00  0.00     0.167 HD
ATOM     46  C   UNL A   1      42.141  27.063  28.943  1.00  0.00     0.037 A 
ATOM     47  C   UNL A   1      39.819  31.091  34.129  1.00  0.00     0.037 A 
ATOM     48  C   UNL A   1      42.911  26.991  30.159  1.00  0.00     0.049 A 
ATOM     49  C   UNL A   1      41.048  30.246  34.287  1.00  0.00     0.074 A 
ATOM     50  C   UNL A   1      44.067  26.268  30.408  1.00  0.00     0.029 A 
ATOM     51  N   UNL A   1      42.621  27.685  31.324  1.00  0.00    -0.354 N 
ATOM     52  N   UNL A   1      41.617  29.447  33.419  1.00  0.00    -0.248 NA
ATOM     53  C   UNL A   1      41.711  30.283  35.598  1.00  0.00     0.031 C 
ATOM     54  C   UNL A   1      44.458  26.499  31.732  1.00  0.00     0.029 A 
ATOM     55  C   UNL A   1      43.569  27.398  32.296  1.00  0.00     0.049 A 
ATOM     56  H   UNL A   1      41.855  28.290  31.444  1.00  0.00     0.167 HD
ATOM     57  C   UNL A   1      42.698  28.881  34.078  1.00  0.00     0.074 A 
ATOM     58  C   UNL A   1      42.726  29.451  35.409  1.00  0.00     0.031 C 
ATOM     59  C   UNL A   1      43.581  27.960  33.621  1.00  0.00     0.037 A 
BRANCH  46  60
ATOM     60  C   UNL A   1      42.597  26.227  27.782  1.00  0.00     0.064 A 
ATOM     61  C   UNL A   1      42.044  24.970  27.504  1.00  0.00     0.173 A 
ATOM     62  C   UNL A   1      43.565  26.728  26.896  1.00  0.00     0.173 A 
ATOM     63  F   UNL A   1      41.126  24.439  28.327  1.00  0.00    -0.203 F 
ATOM     64  C   UNL A   1      42.453  24.238  26.391  1.00  0.00     0.198 A 
ATOM     65  C   UNL A   1      43.953  26.006  25.771  1.00  0.00     0.198 A 
ATOM     66  F   UNL A   1      44.121  27.930  27.112  1.00  0.00    -0.203 F 
ATOM     67  F   UNL A   1      41.936  23.023  26.163  1.00  0.00    -0.200 F 
ATOM     68  C   UNL A   1      43.400  24.760  25.522  1.00  0.00     0.200 A 
ATOM     69  F   UNL A   1      44.858  26.518  24.925  1.00  0.00    -0.200 F 
ATOM     70  F   UNL A   1      43.782  24.059  24.445  1.00  0.00    -0.200 F 
ENDBRANCH  46  60
BRANCH  47  71
ATOM     71  C   UNL A   1      39.316  31.930  35.247  1.00  0.00     0.064 A 
ATOM     72  C   UNL A   1      39.611  33.297  35.315  1.00  0.00     0.173 A 
ATOM     73  C   UNL A   1      38.503  31.386  36.252  1.00  0.00     0.173 A 
ATOM     74  F   UNL A   1      40.413  33.857  34.396  1.00  0.00    -0.203 F 
ATOM     75  C   UNL A   1      39.107  34.090  36.345  1.00  0.00     0.198 A 
ATOM     76  C   UNL A   1      37.972  32.185  37.261  1.00  0.00     0.198 A 
ATOM     77  F   UNL A   1      38.195  30.079  36.235  1.00  0.00    -0.203 F 
ATOM     78  F   UNL A   1      39.430  35.389  36.407  1.00  0.00    -0.200 F 
ATOM     79  C   UNL A   1      38.278  33.535  37.308  1.00  0.00     0.200 A 
ATOM     80  F   UNL A   1      37.159  31.647  38.180  1.00  0.00    -0.200 F 
ATOM     81  F   UNL A   1      37.778  34.302  38.287  1.00  0.00    -0.200 F 
ENDBRANCH  47  71
BRANCH  59  82
ATOM     82  C   UNL A   1      44.656  27.521  34.569  1.00  0.00     0.064 A 
ATOM     83  C   UNL A   1      45.857  28.236  34.691  1.00  0.00     0.173 A 
ATOM     84  C   UNL A   1      44.480  26.384  35.370  1.00  0.00     0.173 A 
ATOM     85  F   UNL A   1      46.078  29.320  33.932  1.00  0.00    -0.203 F 
ATOM     86  C   UNL A   1      46.854  27.812  35.565  1.00  0.00     0.198 A 
ATOM     87  C   UNL A   1      45.470  25.977  36.260  1.00  0.00     0.198 A 
ATOM     88  F   UNL A   1      43.348  25.670  35.291  1.00  0.00    -0.203 F 
ATOM     89  F   UNL A   1      48.012  28.483  35.633  1.00  0.00    -0.200 F 
ATOM     90  C   UNL A   1      46.659  26.686  36.352  1.00  0.00     0.200 A 
ATOM     91  F   UNL A   1      45.278  24.893  37.024  1.00  0.00    -0.200 F 
ATOM     92  F   UNL A   1      47.621  26.279  37.191  1.00  0.00    -0.200 F 
ENDBRANCH  59  82
ENDBRANCH  33  34
ENDBRANCH  26  28
ENDBRANCH  25  26
ENDBRANCH  24  25
ENDBRANCH   1  24
TORSDOF 14
ENDMDL
MODEL 3
REMARK VINA RESULT:     -12.3      1.163      1.962
REMARK SMILES C[C@@H](C(=O)OCCOC(=O)c1ccc(-c2c3nc(c(-c4c(F)c(F)c(F)c(F)c4F)c4ccc([nH]4)c(-c4c(F)c(F)c(F)c(F)c4F)c4nc(c(-c5c(F)c(F)c(F)c(F)c5F)c5ccc2[nH]5)C=C4)C=C3)cc1)S(=O)(=O)N[C@@]12C[C@@H]3C[C@@](C)(C[C@@](C)(C3)C1)C2
REMARK SMILES IDX 6 1 5 2 3 3 4 4 2 5 1 6 74 7 75 8 76 9 77 10 78 12 79 13
REMARK SMILES IDX 88 14 89 15 80 16 85 17 82 18 87 19 81 20 84 21 86 22 83 23
REMARK SMILES IDX 7 24 8 25 9 26 10 27 11 28 12 29 73 30 13 31 72 32 14 33
REMARK SMILES IDX 15 34 16 35 66 36 17 37 71 38 65 39 67 40 18 41 70 42 64 43
REMARK SMILES IDX 63 44 19 46 51 47 31 48 50 49 32 50 35 51 49 52 68 53 33 54
REMARK SMILES IDX 34 55 48 57 69 58 36 59 20 60 21 61 29 62 22 63 23 64 27 65
REMARK SMILES IDX 30 66 24 67 25 68 28 69 26 70 52 71 53 72 61 73 54 74 55 75
REMARK SMILES IDX 59 76 62 77 56 78 57 79 60 80 58 81 37 82 38 83 46 84 39 85
REMARK SMILES IDX 40 86 44 87 47 88 41 89 42 90 45 91 43 92
REMARK H PARENT 77 11 67 45 35 56
REMARK Flexibility Score: inf
ROOT
ATOM      1  C   UNL A   1      31.506  29.337  23.967  1.00  0.00     0.274 C 
ENDROOT
BRANCH   1   2
ATOM      2  O   UNL A   1      30.578  28.225  23.985  1.00  0.00    -0.461 OA
BRANCH   2   3
ATOM      3  C   UNL A   1      31.107  26.976  24.137  1.00  0.00     0.325 C 
ATOM      4  O   UNL A   1      32.276  26.707  23.887  1.00  0.00    -0.251 OA
BRANCH   3   5
ATOM      5  C   UNL A   1      30.073  25.938  24.483  1.00  0.00     0.230 C 
ATOM      6  C   UNL A   1      28.645  26.329  24.146  1.00  0.00     0.039 C 
BRANCH   5   7
ATOM      7  S   UNL A   1      30.309  25.240  26.119  1.00  0.00     0.225 S 
ATOM      8  O   UNL A   1      31.411  25.926  26.765  1.00  0.00    -0.212 OA
ATOM      9  O   UNL A   1      29.024  25.205  26.780  1.00  0.00    -0.212 OA
BRANCH   7  10
ATOM     10  N   UNL A   1      30.715  23.630  25.961  1.00  0.00    -0.208 NA
ATOM     11  H   UNL A   1      29.837  23.154  25.753  1.00  0.00     0.141 HD
BRANCH  10  12
ATOM     12  C   UNL A   1      31.703  23.059  25.006  1.00  0.00     0.034 C 
ATOM     13  C   UNL A   1      31.266  23.203  23.545  1.00  0.00     0.027 C 
ATOM     14  C   UNL A   1      33.122  23.641  25.203  1.00  0.00     0.030 C 
ATOM     15  C   UNL A   1      31.787  21.546  25.340  1.00  0.00     0.030 C 
ATOM     16  C   UNL A   1      32.256  22.513  22.605  1.00  0.00    -0.008 C 
ATOM     17  C   UNL A   1      34.132  22.937  24.250  1.00  0.00    -0.030 C 
ATOM     18  C   UNL A   1      32.754  20.805  24.394  1.00  0.00    -0.030 C 
ATOM     19  C   UNL A   1      33.650  23.127  22.794  1.00  0.00     0.010 C 
ATOM     20  C   UNL A   1      32.285  21.017  22.939  1.00  0.00     0.010 C 
ATOM     21  C   UNL A   1      34.160  21.419  24.557  1.00  0.00     0.013 C 
ATOM     22  C   UNL A   1      35.540  23.518  24.417  1.00  0.00     0.011 C 
ATOM     23  C   UNL A   1      32.773  19.310  24.728  1.00  0.00     0.011 C 
ENDBRANCH  10  12
ENDBRANCH   7  10
ENDBRANCH   5   7
ENDBRANCH   3   5
ENDBRANCH   2   3
ENDBRANCH   1   2
BRANCH   1  24
ATOM     24  C   UNL A   1      31.513  30.088  25.293  1.00  0.00     0.275 C 
BRANCH  24  25
ATOM     25  O   UNL A   1      32.813  29.963  25.893  1.00  0.00    -0.458 OA
BRANCH  25  26
ATOM     26  C   UNL A   1      33.100  30.883  26.836  1.00  0.00     0.338 C 
ATOM     27  O   UNL A   1      32.379  31.791  27.226  1.00  0.00    -0.246 OA
BRANCH  26  28
ATOM     28  C   UNL A   1      34.440  30.646  27.395  1.00  0.00     0.060 A 
ATOM     29  C   UNL A   1      34.877  29.349  27.643  1.00  0.00     0.016 A 
ATOM     30  C   UNL A   1      35.201  31.728  27.834  1.00  0.00     0.016 A 
ATOM     31  C   UNL A   1      36.005  29.134  28.435  1.00  0.00     0.010 A 
ATOM     32  C   UNL A   1      36.405  31.505  28.514  1.00  0.00     0.010 A 
ATOM     33  C   UNL A   1      36.808  30.203  28.858  1.00  0.00    -0.014 A 
BRANCH  33  34
ATOM     34  C   UNL A   1      38.050  29.954  29.654  1.00  0.00     0.031 A 
ATOM     35  C   UNL A   1      39.186  29.136  29.089  1.00  0.00     0.074 A 
ATOM     36  C   UNL A   1      38.182  30.475  30.891  1.00  0.00     0.049 A 
ATOM     37  N   UNL A   1      40.240  28.650  29.700  1.00  0.00    -0.248 NA
ATOM     38  C   UNL A   1      39.127  28.811  27.656  1.00  0.00     0.031 C 
ATOM     39  C   UNL A   1      37.199  31.325  31.564  1.00  0.00     0.029 A 
ATOM     40  N   UNL A   1      39.209  30.384  31.800  1.00  0.00    -0.354 N 
ATOM     41  C   UNL A   1      40.930  27.911  28.748  1.00  0.00     0.074 A 
ATOM     42  C   UNL A   1      40.182  28.019  27.512  1.00  0.00     0.031 C 
ATOM     43  C   UNL A   1      37.696  31.735  32.739  1.00  0.00     0.029 A 
ATOM     44  C   UNL A   1      38.978  31.079  32.963  1.00  0.00     0.049 A 
ATOM     45  H   UNL A   1      40.032  29.869  31.635  1.00  0.00     0.167 HD
ATOM     46  C   UNL A   1      42.076  27.201  28.895  1.00  0.00     0.037 A 
ATOM     47  C   UNL A   1      39.679  31.147  34.110  1.00  0.00     0.037 A 
ATOM     48  C   UNL A   1      42.858  27.150  30.104  1.00  0.00     0.049 A 
ATOM     49  C   UNL A   1      40.934  30.339  34.256  1.00  0.00     0.074 A 
ATOM     50  C   UNL A   1      44.037  26.461  30.341  1.00  0.00     0.029 A 
ATOM     51  N   UNL A   1      42.557  27.832  31.274  1.00  0.00    -0.354 N 
ATOM     52  N   UNL A   1      41.519  29.559  33.382  1.00  0.00    -0.248 NA
ATOM     53  C   UNL A   1      41.607  30.393  35.562  1.00  0.00     0.031 C 
ATOM     54  C   UNL A   1      44.432  26.701  31.662  1.00  0.00     0.029 A 
ATOM     55  C   UNL A   1      43.522  27.572  32.236  1.00  0.00     0.049 A 
ATOM     56  H   UNL A   1      41.774  28.414  31.401  1.00  0.00     0.167 HD
ATOM     57  C   UNL A   1      42.622  29.024  34.030  1.00  0.00     0.074 A 
ATOM     58  C   UNL A   1      42.644  29.591  35.361  1.00  0.00     0.031 C 
ATOM     59  C   UNL A   1      43.528  28.131  33.563  1.00  0.00     0.037 A 
BRANCH  46  60
ATOM     60  C   UNL A   1      42.546  26.382  27.728  1.00  0.00     0.064 A 
ATOM     61  C   UNL A   1      43.505  26.853  26.821  1.00  0.00     0.173 A 
ATOM     62  C   UNL A   1      42.069  25.072  27.556  1.00  0.00     0.173 A 
ATOM     63  F   UNL A   1      43.982  28.102  26.933  1.00  0.00    -0.203 F 
ATOM     64  C   UNL A   1      43.957  26.051  25.776  1.00  0.00     0.198 A 
ATOM     65  C   UNL A   1      42.542  24.264  26.526  1.00  0.00     0.198 A 
ATOM     66  F   UNL A   1      41.155  24.569  28.400  1.00  0.00    -0.203 F 
ATOM     67  F   UNL A   1      44.848  26.534  24.900  1.00  0.00    -0.200 F 
ATOM     68  C   UNL A   1      43.482  24.755  25.634  1.00  0.00     0.200 A 
ATOM     69  F   UNL A   1      42.091  23.007  26.399  1.00  0.00    -0.200 F 
ATOM     70  F   UNL A   1      43.928  23.981  24.635  1.00  0.00    -0.200 F 
ENDBRANCH  46  60
BRANCH  47  71
ATOM     71  C   UNL A   1      39.161  31.968  35.235  1.00  0.00     0.064 A 
ATOM     72  C   UNL A   1      38.432  31.387  36.280  1.00  0.00     0.173 A 
ATOM     73  C   UNL A   1      39.414  33.347  35.302  1.00  0.00     0.173 A 
ATOM     74  F   UNL A   1      38.135  30.079  36.243  1.00  0.00    -0.203 F 
ATOM     75  C   UNL A   1      37.980  32.153  37.352  1.00  0.00     0.198 A 
ATOM     76  C   UNL A   1      38.992  34.105  36.390  1.00  0.00     0.198 A 
ATOM     77  F   UNL A   1      40.105  33.952  34.323  1.00  0.00    -0.203 F 
ATOM     78  F   UNL A   1      37.256  31.581  38.323  1.00  0.00    -0.200 F 
ATOM     79  C   UNL A   1      38.271  33.508  37.412  1.00  0.00     0.200 A 
ATOM     80  F   UNL A   1      39.291  35.410  36.450  1.00  0.00    -0.200 F 
ATOM     81  F   UNL A   1      37.853  34.240  38.453  1.00  0.00    -0.200 F 
ENDBRANCH  47  71
BRANCH  59  82
ATOM     82  C   UNL A   1      44.624  27.722  34.500  1.00  0.00     0.064 A 
ATOM     83  C   UNL A   1      44.492  26.600  35.332  1.00  0.00     0.173 A 
ATOM     84  C   UNL A   1      45.820  28.451  34.562  1.00  0.00     0.173 A 
ATOM     85  F   UNL A   1      43.358  25.882  35.321  1.00  0.00    -0.203 F 
ATOM     86  C   UNL A   1      45.510  26.237  36.209  1.00  0.00     0.198 A 
ATOM     87  C   UNL A   1      46.845  28.071  35.423  1.00  0.00     0.198 A 
ATOM     88  F   UNL A   1      45.994  29.530  33.784  1.00  0.00    -0.203 F 
ATOM     89  F   UNL A   1      45.345  25.189  37.027  1.00  0.00    -0.200 F 
ATOM     90  C   UNL A   1      46.687  26.970  36.251  1.00  0.00     0.200 A 
ATOM     91  F   UNL A   1      47.984  28.776  35.459  1.00  0.00    -0.200 F 
ATOM     92  F   UNL A   1      47.665  26.620  37.098  1.00  0.00    -0.200 F 
ENDBRANCH  59  82
ENDBRANCH  33  34
ENDBRANCH  26  28
ENDBRANCH  25  26
ENDBRANCH  24  25
ENDBRANCH   1  24
TORSDOF 14
ENDMDL
