MODEL 1
REMARK VINA RESULT:     -11.8      0.000      0.000
REMARK SMILES O=C(OCCOC(=O)C1(Cc2cccc(Cl)c2)CCCC1)c1ccc(-c2c3nc(c(-c4c(F)c(F)c(F)c(F)c4F)c4ccc([nH]4)c(-c4c(F)c(F)c(F)c(F)c4F)c4nc(c(-c5c(F)c(F)c(F)c(F)c5F)c5ccc2[nH]5)C=C4)C=C3)cc1
REMARK SMILES IDX 4 1 3 2 2 3 1 4 22 5 23 6 84 7 24 8 83 9 25 10 26 11 27 12
REMARK SMILES IDX 77 13 28 14 82 15 76 16 78 17 29 18 81 19 75 20 74 21 30 23
REMARK SMILES IDX 62 24 42 25 61 26 43 27 46 28 60 29 79 30 44 31 45 32 59 34
REMARK SMILES IDX 80 35 47 36 31 37 32 38 40 39 33 40 34 41 38 42 41 43 35 44
REMARK SMILES IDX 36 45 39 46 37 47 63 48 64 49 72 50 65 51 66 52 70 53 73 54
REMARK SMILES IDX 67 55 68 56 71 57 69 58 48 59 49 60 57 61 50 62 51 63 55 64
REMARK SMILES IDX 58 65 52 66 53 67 56 68 54 69 5 70 6 71 7 72 8 73 9 74 18 75
REMARK SMILES IDX 21 76 19 77 20 78 10 79 11 80 12 81 17 82 13 83 15 84 14 85
REMARK SMILES IDX 16 86
REMARK H PARENT 78 22 46 33
REMARK Flexibility Score: inf
ROOT
ATOM      1  C   UNL A   1      31.873  32.852  26.508  1.00  0.00     0.275 C 
ENDROOT
BRANCH   1   2
ATOM      2  O   UNL A   1      32.304  33.456  27.733  1.00  0.00    -0.458 OA
BRANCH   2   3
ATOM      3  C   UNL A   1      33.466  34.077  28.038  1.00  0.00     0.338 C 
ATOM      4  O   UNL A   1      33.537  35.291  27.852  1.00  0.00    -0.246 OA
BRANCH   3   5
ATOM      5  C   UNL A   1      34.715  33.376  28.492  1.00  0.00     0.060 A 
ATOM      6  C   UNL A   1      36.038  33.784  28.281  1.00  0.00     0.016 A 
ATOM      7  C   UNL A   1      34.510  32.217  29.265  1.00  0.00     0.016 A 
ATOM      8  C   UNL A   1      37.115  33.146  28.918  1.00  0.00     0.010 A 
ATOM      9  C   UNL A   1      35.578  31.586  29.913  1.00  0.00     0.010 A 
ATOM     10  C   UNL A   1      36.893  32.061  29.763  1.00  0.00    -0.014 A 
BRANCH  10  11
ATOM     11  C   UNL A   1      38.020  31.315  30.379  1.00  0.00     0.031 A 
ATOM     12  C   UNL A   1      38.404  31.690  31.774  1.00  0.00     0.074 A 
ATOM     13  C   UNL A   1      38.714  30.359  29.728  1.00  0.00     0.049 A 
ATOM     14  N   UNL A   1      39.355  31.207  32.526  1.00  0.00    -0.248 NA
ATOM     15  C   UNL A   1      37.599  32.744  32.414  1.00  0.00     0.031 C 
ATOM     16  C   UNL A   1      38.400  29.837  28.407  1.00  0.00     0.029 A 
ATOM     17  N   UNL A   1      39.855  29.672  30.077  1.00  0.00    -0.354 N 
ATOM     18  C   UNL A   1      39.227  31.865  33.735  1.00  0.00     0.074 A 
ATOM     19  C   UNL A   1      38.210  32.878  33.577  1.00  0.00     0.031 C 
ATOM     20  C   UNL A   1      39.385  29.022  28.000  1.00  0.00     0.029 A 
ATOM     21  C   UNL A   1      40.350  28.870  29.072  1.00  0.00     0.049 A 
ATOM     22  H   UNL A   1      40.280  29.748  30.961  1.00  0.00     0.167 HD
ATOM     23  C   UNL A   1      39.841  31.589  34.904  1.00  0.00     0.037 A 
ATOM     24  C   UNL A   1      41.425  28.058  29.030  1.00  0.00     0.037 A 
ATOM     25  C   UNL A   1      40.854  30.586  35.053  1.00  0.00     0.049 A 
ATOM     26  C   UNL A   1      42.186  27.852  30.310  1.00  0.00     0.074 A 
ATOM     27  C   UNL A   1      41.548  30.222  36.189  1.00  0.00     0.029 A 
ATOM     28  N   UNL A   1      41.327  29.793  34.016  1.00  0.00    -0.354 N 
ATOM     29  N   UNL A   1      41.982  28.403  31.483  1.00  0.00    -0.248 NA
ATOM     30  C   UNL A   1      43.276  26.867  30.289  1.00  0.00     0.031 C 
ATOM     31  C   UNL A   1      42.481  29.244  35.828  1.00  0.00     0.029 A 
ATOM     32  C   UNL A   1      42.330  28.960  34.478  1.00  0.00     0.049 A 
ATOM     33  H   UNL A   1      40.998  29.821  33.088  1.00  0.00     0.167 HD
ATOM     34  C   UNL A   1      42.869  27.789  32.351  1.00  0.00     0.074 A 
ATOM     35  C   UNL A   1      43.612  26.819  31.570  1.00  0.00     0.031 C 
ATOM     36  C   UNL A   1      43.046  27.999  33.678  1.00  0.00     0.037 A 
BRANCH  23  37
ATOM     37  C   UNL A   1      39.393  32.391  36.086  1.00  0.00     0.064 A 
ATOM     38  C   UNL A   1      40.010  33.613  36.409  1.00  0.00     0.173 A 
ATOM     39  C   UNL A   1      38.409  31.899  36.950  1.00  0.00     0.173 A 
ATOM     40  F   UNL A   1      40.987  34.104  35.630  1.00  0.00    -0.203 F 
ATOM     41  C   UNL A   1      39.691  34.285  37.584  1.00  0.00     0.198 A 
ATOM     42  C   UNL A   1      38.069  32.592  38.108  1.00  0.00     0.198 A 
ATOM     43  F   UNL A   1      37.804  30.730  36.692  1.00  0.00    -0.203 F 
ATOM     44  F   UNL A   1      40.354  35.401  37.916  1.00  0.00    -0.200 F 
ATOM     45  C   UNL A   1      38.719  33.776  38.431  1.00  0.00     0.200 A 
ATOM     46  F   UNL A   1      37.132  32.101  38.929  1.00  0.00    -0.200 F 
ATOM     47  F   UNL A   1      38.424  34.415  39.571  1.00  0.00    -0.200 F 
ENDBRANCH  23  37
BRANCH  24  48
ATOM     48  C   UNL A   1      41.779  27.293  27.797  1.00  0.00     0.064 A 
ATOM     49  C   UNL A   1      41.249  26.016  27.554  1.00  0.00     0.173 A 
ATOM     50  C   UNL A   1      42.696  27.797  26.860  1.00  0.00     0.173 A 
ATOM     51  F   UNL A   1      40.379  25.481  28.423  1.00  0.00    -0.203 F 
ATOM     52  C   UNL A   1      41.655  25.256  26.457  1.00  0.00     0.198 A 
ATOM     53  C   UNL A   1      43.084  27.045  25.749  1.00  0.00     0.198 A 
ATOM     54  F   UNL A   1      43.231  29.014  27.031  1.00  0.00    -0.203 F 
ATOM     55  F   UNL A   1      41.181  24.013  26.295  1.00  0.00    -0.200 F 
ATOM     56  C   UNL A   1      42.574  25.769  25.556  1.00  0.00     0.200 A 
ATOM     57  F   UNL A   1      43.968  27.547  24.875  1.00  0.00    -0.200 F 
ATOM     58  F   UNL A   1      42.981  25.030  24.515  1.00  0.00    -0.200 F 
ENDBRANCH  24  48
BRANCH  36  59
ATOM     59  C   UNL A   1      44.064  27.147  34.372  1.00  0.00     0.064 A 
ATOM     60  C   UNL A   1      45.391  27.570  34.529  1.00  0.00     0.173 A 
ATOM     61  C   UNL A   1      43.691  25.917  34.933  1.00  0.00     0.173 A 
ATOM     62  F   UNL A   1      45.798  28.732  33.995  1.00  0.00    -0.203 F 
ATOM     63  C   UNL A   1      46.316  26.781  35.204  1.00  0.00     0.198 A 
ATOM     64  C   UNL A   1      44.608  25.147  35.639  1.00  0.00     0.198 A 
ATOM     65  F   UNL A   1      42.431  25.471  34.812  1.00  0.00    -0.203 F 
ATOM     66  F   UNL A   1      47.590  27.181  35.298  1.00  0.00    -0.200 F 
ATOM     67  C   UNL A   1      45.921  25.576  35.767  1.00  0.00     0.200 A 
ATOM     68  F   UNL A   1      44.221  23.993  36.200  1.00  0.00    -0.200 F 
ATOM     69  F   UNL A   1      46.809  24.825  36.432  1.00  0.00    -0.200 F 
ENDBRANCH  36  59
ENDBRANCH  10  11
ENDBRANCH   3   5
ENDBRANCH   2   3
ENDBRANCH   1   2
BRANCH   1  70
ATOM     70  C   UNL A   1      31.334  31.430  26.655  1.00  0.00     0.274 C 
BRANCH  70  71
ATOM     71  O   UNL A   1      32.250  30.398  26.245  1.00  0.00    -0.462 OA
BRANCH  71  72
ATOM     72  C   UNL A   1      31.885  29.114  26.541  1.00  0.00     0.312 C 
ATOM     73  O   UNL A   1      31.426  28.765  27.617  1.00  0.00    -0.252 OA
BRANCH  72  74
ATOM     74  C   UNL A   1      32.236  28.114  25.427  1.00  0.00     0.072 C 
ATOM     75  C   UNL A   1      33.734  27.751  25.583  1.00  0.00     0.019 C 
ATOM     76  C   UNL A   1      31.600  26.746  25.576  1.00  0.00     0.019 C 
ATOM     77  C   UNL A   1      33.905  26.275  25.201  1.00  0.00     0.001 C 
ATOM     78  C   UNL A   1      32.517  25.753  24.891  1.00  0.00     0.001 C 
BRANCH  74  79
ATOM     79  C   UNL A   1      31.884  28.734  24.042  1.00  0.00     0.054 C 
BRANCH  79  80
ATOM     80  C   UNL A   1      30.390  28.856  23.741  1.00  0.00    -0.045 A 
ATOM     81  C   UNL A   1      29.596  27.716  23.547  1.00  0.00     0.004 A 
ATOM     82  C   UNL A   1      29.766  30.110  23.638  1.00  0.00     0.024 A 
ATOM     83  C   UNL A   1      28.267  27.813  23.128  1.00  0.00     0.002 A 
ATOM     84  C   UNL A   1      28.408  30.201  23.305  1.00  0.00     0.041 A 
ATOM     85  C   UNL A   1      27.672  29.061  22.998  1.00  0.00     0.020 A 
ATOM     86  Cl  UNL A   1      27.614  31.732  23.298  1.00  0.00    -0.084 Cl
ENDBRANCH  79  80
ENDBRANCH  74  79
ENDBRANCH  72  74
ENDBRANCH  71  72
ENDBRANCH  70  71
ENDBRANCH   1  70
TORSDOF 13
ENDMDL
MODEL 2
REMARK VINA RESULT:     -11.8      1.304      2.552
REMARK SMILES O=C(OCCOC(=O)C1(Cc2cccc(Cl)c2)CCCC1)c1ccc(-c2c3nc(c(-c4c(F)c(F)c(F)c(F)c4F)c4ccc([nH]4)c(-c4c(F)c(F)c(F)c(F)c4F)c4nc(c(-c5c(F)c(F)c(F)c(F)c5F)c5ccc2[nH]5)C=C4)C=C3)cc1
REMARK SMILES IDX 4 1 3 2 2 3 1 4 22 5 23 6 84 7 24 8 83 9 25 10 26 11 27 12
REMARK SMILES IDX 77 13 28 14 82 15 76 16 78 17 29 18 81 19 75 20 74 21 30 23
REMARK SMILES IDX 62 24 42 25 61 26 43 27 46 28 60 29 79 30 44 31 45 32 59 34
REMARK SMILES IDX 80 35 47 36 31 37 32 38 40 39 33 40 34 41 38 42 41 43 35 44
REMARK SMILES IDX 36 45 39 46 37 47 63 48 64 49 72 50 65 51 66 52 70 53 73 54
REMARK SMILES IDX 67 55 68 56 71 57 69 58 48 59 49 60 57 61 50 62 51 63 55 64
REMARK SMILES IDX 58 65 52 66 53 67 56 68 54 69 5 70 6 71 7 72 8 73 9 74 18 75
REMARK SMILES IDX 21 76 19 77 20 78 10 79 11 80 12 81 17 82 13 83 15 84 14 85
REMARK SMILES IDX 16 86
REMARK H PARENT 78 22 46 33
REMARK Flexibility Score: inf
ROOT
ATOM      1  C   UNL A   1      32.044  32.709  26.835  1.00  0.00     0.275 C 
ENDROOT
BRANCH   1   2
ATOM      2  O   UNL A   1      32.566  33.470  27.931  1.00  0.00    -0.458 OA
BRANCH   2   3
ATOM      3  C   UNL A   1      33.782  34.038  28.098  1.00  0.00     0.338 C 
ATOM      4  O   UNL A   1      33.915  35.219  27.779  1.00  0.00    -0.246 OA
BRANCH   3   5
ATOM      5  C   UNL A   1      35.012  33.303  28.549  1.00  0.00     0.060 A 
ATOM      6  C   UNL A   1      36.345  33.671  28.329  1.00  0.00     0.016 A 
ATOM      7  C   UNL A   1      34.777  32.156  29.331  1.00  0.00     0.016 A 
ATOM      8  C   UNL A   1      37.407  33.005  28.963  1.00  0.00     0.010 A 
ATOM      9  C   UNL A   1      35.830  31.498  29.977  1.00  0.00     0.010 A 
ATOM     10  C   UNL A   1      37.157  31.932  29.816  1.00  0.00    -0.014 A 
BRANCH  10  11
ATOM     11  C   UNL A   1      38.265  31.158  30.431  1.00  0.00     0.031 A 
ATOM     12  C   UNL A   1      38.647  31.508  31.833  1.00  0.00     0.074 A 
ATOM     13  C   UNL A   1      38.946  30.196  29.773  1.00  0.00     0.049 A 
ATOM     14  N   UNL A   1      39.583  30.998  32.585  1.00  0.00    -0.248 NA
ATOM     15  C   UNL A   1      37.858  32.569  32.481  1.00  0.00     0.031 C 
ATOM     16  C   UNL A   1      38.631  29.696  28.444  1.00  0.00     0.029 A 
ATOM     17  N   UNL A   1      40.071  29.483  30.121  1.00  0.00    -0.354 N 
ATOM     18  C   UNL A   1      39.460  31.644  33.802  1.00  0.00     0.074 A 
ATOM     19  C   UNL A   1      38.463  32.678  33.649  1.00  0.00     0.031 C 
ATOM     20  C   UNL A   1      39.603  28.867  28.034  1.00  0.00     0.029 A 
ATOM     21  C   UNL A   1      40.557  28.684  29.110  1.00  0.00     0.049 A 
ATOM     22  H   UNL A   1      40.491  29.540  31.010  1.00  0.00     0.167 HD
ATOM     23  C   UNL A   1      40.060  31.342  34.972  1.00  0.00     0.037 A 
ATOM     24  C   UNL A   1      41.617  27.852  29.066  1.00  0.00     0.037 A 
ATOM     25  C   UNL A   1      41.052  30.318  35.115  1.00  0.00     0.049 A 
ATOM     26  C   UNL A   1      42.365  27.616  30.348  1.00  0.00     0.074 A 
ATOM     27  C   UNL A   1      41.731  29.927  36.251  1.00  0.00     0.029 A 
ATOM     28  N   UNL A   1      41.517  29.529  34.071  1.00  0.00    -0.354 N 
ATOM     29  N   UNL A   1      42.163  28.156  31.526  1.00  0.00    -0.248 NA
ATOM     30  C   UNL A   1      43.435  26.610  30.322  1.00  0.00     0.031 C 
ATOM     31  C   UNL A   1      42.647  28.935  35.884  1.00  0.00     0.029 A 
ATOM     32  C   UNL A   1      42.500  28.670  34.531  1.00  0.00     0.049 A 
ATOM     33  H   UNL A   1      41.196  29.573  33.142  1.00  0.00     0.167 HD
ATOM     34  C   UNL A   1      43.032  27.514  32.393  1.00  0.00     0.074 A 
ATOM     35  C   UNL A   1      43.761  26.541  31.605  1.00  0.00     0.031 C 
ATOM     36  C   UNL A   1      43.204  27.706  33.723  1.00  0.00     0.037 A 
BRANCH  23  37
ATOM     37  C   UNL A   1      39.619  32.138  36.159  1.00  0.00     0.064 A 
ATOM     38  C   UNL A   1      38.472  31.776  36.889  1.00  0.00     0.173 A 
ATOM     39  C   UNL A   1      40.285  33.315  36.518  1.00  0.00     0.173 A 
ATOM     40  F   UNL A   1      37.778  30.676  36.556  1.00  0.00    -0.203 F 
ATOM     41  C   UNL A   1      37.982  32.594  37.901  1.00  0.00     0.198 A 
ATOM     42  C   UNL A   1      39.810  34.114  37.553  1.00  0.00     0.198 A 
ATOM     43  F   UNL A   1      41.374  33.709  35.840  1.00  0.00    -0.203 F 
ATOM     44  F   UNL A   1      36.839  32.276  38.523  1.00  0.00    -0.200 F 
ATOM     45  C   UNL A   1      38.653  33.760  38.235  1.00  0.00     0.200 A 
ATOM     46  F   UNL A   1      40.456  35.242  37.876  1.00  0.00    -0.200 F 
ATOM     47  F   UNL A   1      38.172  34.557  39.198  1.00  0.00    -0.200 F 
ENDBRANCH  23  37
BRANCH  24  48
ATOM     48  C   UNL A   1      41.965  27.095  27.826  1.00  0.00     0.064 A 
ATOM     49  C   UNL A   1      41.403  25.837  27.559  1.00  0.00     0.173 A 
ATOM     50  C   UNL A   1      42.906  27.587  26.907  1.00  0.00     0.173 A 
ATOM     51  F   UNL A   1      40.509  25.313  28.409  1.00  0.00    -0.203 F 
ATOM     52  C   UNL A   1      41.802  25.081  26.455  1.00  0.00     0.198 A 
ATOM     53  C   UNL A   1      43.287  26.841  25.789  1.00  0.00     0.198 A 
ATOM     54  F   UNL A   1      43.471  28.787  27.101  1.00  0.00    -0.203 F 
ATOM     55  F   UNL A   1      41.296  23.854  26.270  1.00  0.00    -0.200 F 
ATOM     56  C   UNL A   1      42.745  25.582  25.572  1.00  0.00     0.200 A 
ATOM     57  F   UNL A   1      44.194  27.331  24.933  1.00  0.00    -0.200 F 
ATOM     58  F   UNL A   1      43.144  24.847  24.525  1.00  0.00    -0.200 F 
ENDBRANCH  24  48
BRANCH  36  59
ATOM     59  C   UNL A   1      44.201  26.826  34.414  1.00  0.00     0.064 A 
ATOM     60  C   UNL A   1      45.533  27.223  34.588  1.00  0.00     0.173 A 
ATOM     61  C   UNL A   1      43.800  25.595  34.955  1.00  0.00     0.173 A 
ATOM     62  F   UNL A   1      45.966  28.384  34.073  1.00  0.00    -0.203 F 
ATOM     63  C   UNL A   1      46.438  26.407  35.259  1.00  0.00     0.198 A 
ATOM     64  C   UNL A   1      44.697  24.799  35.658  1.00  0.00     0.198 A 
ATOM     65  F   UNL A   1      42.533  25.174  34.817  1.00  0.00    -0.203 F 
ATOM     66  F   UNL A   1      47.719  26.782  35.369  1.00  0.00    -0.200 F 
ATOM     67  C   UNL A   1      46.017  25.202  35.802  1.00  0.00     0.200 A 
ATOM     68  F   UNL A   1      44.285  23.644  36.199  1.00  0.00    -0.200 F 
ATOM     69  F   UNL A   1      46.885  24.426  36.464  1.00  0.00    -0.200 F 
ENDBRANCH  36  59
ENDBRANCH  10  11
ENDBRANCH   3   5
ENDBRANCH   2   3
ENDBRANCH   1   2
BRANCH   1  70
ATOM     70  C   UNL A   1      32.164  31.196  26.997  1.00  0.00     0.274 C 
BRANCH  70  71
ATOM     71  O   UNL A   1      31.876  30.441  25.805  1.00  0.00    -0.462 OA
BRANCH  71  72
ATOM     72  C   UNL A   1      31.776  29.086  25.957  1.00  0.00     0.312 C 
ATOM     73  O   UNL A   1      31.983  28.500  27.008  1.00  0.00    -0.252 OA
BRANCH  72  74
ATOM     74  C   UNL A   1      31.510  28.348  24.636  1.00  0.00     0.072 C 
ATOM     75  C   UNL A   1      30.654  27.099  24.964  1.00  0.00     0.019 C 
ATOM     76  C   UNL A   1      30.587  29.075  23.676  1.00  0.00     0.019 C 
ATOM     77  C   UNL A   1      29.677  26.876  23.802  1.00  0.00     0.001 C 
ATOM     78  C   UNL A   1      29.903  28.019  22.832  1.00  0.00     0.001 C 
BRANCH  74  79
ATOM     79  C   UNL A   1      32.865  28.013  23.944  1.00  0.00     0.054 C 
BRANCH  79  80
ATOM     80  C   UNL A   1      33.335  26.566  24.093  1.00  0.00    -0.045 A 
ATOM     81  C   UNL A   1      33.990  26.135  25.258  1.00  0.00     0.004 A 
ATOM     82  C   UNL A   1      33.138  25.626  23.069  1.00  0.00     0.024 A 
ATOM     83  C   UNL A   1      34.554  24.861  25.349  1.00  0.00     0.002 A 
ATOM     84  C   UNL A   1      33.628  24.319  23.204  1.00  0.00     0.041 A 
ATOM     85  C   UNL A   1      34.380  23.950  24.315  1.00  0.00     0.020 A 
ATOM     86  Cl  UNL A   1      33.281  23.133  22.001  1.00  0.00    -0.084 Cl
ENDBRANCH  79  80
ENDBRANCH  74  79
ENDBRANCH  72  74
ENDBRANCH  71  72
ENDBRANCH  70  71
ENDBRANCH   1  70
TORSDOF 13
ENDMDL
MODEL 3
REMARK VINA RESULT:     -11.7      1.315      2.571
REMARK SMILES O=C(OCCOC(=O)C1(Cc2cccc(Cl)c2)CCCC1)c1ccc(-c2c3nc(c(-c4c(F)c(F)c(F)c(F)c4F)c4ccc([nH]4)c(-c4c(F)c(F)c(F)c(F)c4F)c4nc(c(-c5c(F)c(F)c(F)c(F)c5F)c5ccc2[nH]5)C=C4)C=C3)cc1
REMARK SMILES IDX 4 1 3 2 2 3 1 4 22 5 23 6 84 7 24 8 83 9 25 10 26 11 27 12
REMARK SMILES IDX 77 13 28 14 82 15 76 16 78 17 29 18 81 19 75 20 74 21 30 23
REMARK SMILES IDX 62 24 42 25 61 26 43 27 46 28 60 29 79 30 44 31 45 32 59 34
REMARK SMILES IDX 80 35 47 36 31 37 32 38 40 39 33 40 34 41 38 42 41 43 35 44
REMARK SMILES IDX 36 45 39 46 37 47 63 48 64 49 72 50 65 51 66 52 70 53 73 54
REMARK SMILES IDX 67 55 68 56 71 57 69 58 48 59 49 60 57 61 50 62 51 63 55 64
REMARK SMILES IDX 58 65 52 66 53 67 56 68 54 69 5 70 6 71 7 72 8 73 9 74 18 75
REMARK SMILES IDX 21 76 19 77 20 78 10 79 11 80 12 81 17 82 13 83 15 84 14 85
REMARK SMILES IDX 16 86
REMARK H PARENT 78 22 46 33
REMARK Flexibility Score: inf
ROOT
ATOM      1  C   UNL A   1      31.583  32.529  26.875  1.00  0.00     0.275 C 
ENDROOT
BRANCH   1   2
ATOM      2  O   UNL A   1      32.596  33.532  27.019  1.00  0.00    -0.458 OA
BRANCH   2   3
ATOM      3  C   UNL A   1      33.312  33.899  28.105  1.00  0.00     0.338 C 
ATOM      4  O   UNL A   1      32.952  34.903  28.721  1.00  0.00    -0.246 OA
BRANCH   3   5
ATOM      5  C   UNL A   1      34.578  33.231  28.559  1.00  0.00     0.060 A 
ATOM      6  C   UNL A   1      35.889  33.684  28.365  1.00  0.00     0.016 A 
ATOM      7  C   UNL A   1      34.404  32.056  29.315  1.00  0.00     0.016 A 
ATOM      8  C   UNL A   1      36.981  33.071  29.002  1.00  0.00     0.010 A 
ATOM      9  C   UNL A   1      35.486  31.450  29.963  1.00  0.00     0.010 A 
ATOM     10  C   UNL A   1      36.786  31.967  29.830  1.00  0.00    -0.014 A 
BRANCH  10  11
ATOM     11  C   UNL A   1      37.931  31.248  30.445  1.00  0.00     0.031 A 
ATOM     12  C   UNL A   1      38.326  31.651  31.829  1.00  0.00     0.074 A 
ATOM     13  C   UNL A   1      38.633  30.292  29.802  1.00  0.00     0.049 A 
ATOM     14  N   UNL A   1      39.292  31.195  32.578  1.00  0.00    -0.248 NA
ATOM     15  C   UNL A   1      37.512  32.704  32.462  1.00  0.00     0.031 C 
ATOM     16  C   UNL A   1      38.311  29.744  28.493  1.00  0.00     0.029 A 
ATOM     17  N   UNL A   1      39.788  29.628  30.148  1.00  0.00    -0.354 N 
ATOM     18  C   UNL A   1      39.168  31.871  33.778  1.00  0.00     0.074 A 
ATOM     19  C   UNL A   1      38.134  32.866  33.615  1.00  0.00     0.031 C 
ATOM     20  C   UNL A   1      39.304  28.937  28.088  1.00  0.00     0.029 A 
ATOM     21  C   UNL A   1      40.283  28.817  29.151  1.00  0.00     0.049 A 
ATOM     22  H   UNL A   1      40.221  29.724  31.026  1.00  0.00     0.167 HD
ATOM     23  C   UNL A   1      39.800  31.623  34.944  1.00  0.00     0.037 A 
ATOM     24  C   UNL A   1      41.370  28.020  29.110  1.00  0.00     0.037 A 
ATOM     25  C   UNL A   1      40.829  30.638  35.097  1.00  0.00     0.049 A 
ATOM     26  C   UNL A   1      42.148  27.847  30.384  1.00  0.00     0.074 A 
ATOM     27  C   UNL A   1      41.541  30.303  36.231  1.00  0.00     0.029 A 
ATOM     28  N   UNL A   1      41.302  29.835  34.067  1.00  0.00    -0.354 N 
ATOM     29  N   UNL A   1      41.949  28.413  31.550  1.00  0.00    -0.248 NA
ATOM     30  C   UNL A   1      43.252  26.878  30.366  1.00  0.00     0.031 C 
ATOM     31  C   UNL A   1      42.484  29.333  35.875  1.00  0.00     0.029 A 
ATOM     32  C   UNL A   1      42.322  29.024  34.532  1.00  0.00     0.049 A 
ATOM     33  H   UNL A   1      40.962  29.843  33.143  1.00  0.00     0.167 HD
ATOM     34  C   UNL A   1      42.855  27.827  32.417  1.00  0.00     0.074 A 
ATOM     35  C   UNL A   1      43.603  26.856  31.643  1.00  0.00     0.031 C 
ATOM     36  C   UNL A   1      43.044  28.062  33.738  1.00  0.00     0.037 A 
BRANCH  23  37
ATOM     37  C   UNL A   1      39.353  32.438  36.117  1.00  0.00     0.064 A 
ATOM     38  C   UNL A   1      39.964  33.667  36.422  1.00  0.00     0.173 A 
ATOM     39  C   UNL A   1      38.377  31.951  36.994  1.00  0.00     0.173 A 
ATOM     40  F   UNL A   1      40.934  34.154  35.631  1.00  0.00    -0.203 F 
ATOM     41  C   UNL A   1      39.648  34.353  37.589  1.00  0.00     0.198 A 
ATOM     42  C   UNL A   1      38.039  32.657  38.144  1.00  0.00     0.198 A 
ATOM     43  F   UNL A   1      37.778  30.775  36.753  1.00  0.00    -0.203 F 
ATOM     44  F   UNL A   1      40.306  35.476  37.904  1.00  0.00    -0.200 F 
ATOM     45  C   UNL A   1      38.683  33.849  38.448  1.00  0.00     0.200 A 
ATOM     46  F   UNL A   1      37.109  32.170  38.976  1.00  0.00    -0.200 F 
ATOM     47  F   UNL A   1      38.390  34.500  39.582  1.00  0.00    -0.200 F 
ENDBRANCH  23  37
BRANCH  24  48
ATOM     48  C   UNL A   1      41.721  27.241  27.885  1.00  0.00     0.064 A 
ATOM     49  C   UNL A   1      41.184  25.965  27.655  1.00  0.00     0.173 A 
ATOM     50  C   UNL A   1      42.642  27.730  26.944  1.00  0.00     0.173 A 
ATOM     51  F   UNL A   1      40.310  25.443  28.528  1.00  0.00    -0.203 F 
ATOM     52  C   UNL A   1      41.588  25.190  26.566  1.00  0.00     0.198 A 
ATOM     53  C   UNL A   1      43.027  26.964  25.841  1.00  0.00     0.198 A 
ATOM     54  F   UNL A   1      43.183  28.946  27.103  1.00  0.00    -0.203 F 
ATOM     55  F   UNL A   1      41.107  23.949  26.416  1.00  0.00    -0.200 F 
ATOM     56  C   UNL A   1      42.511  25.689  25.661  1.00  0.00     0.200 A 
ATOM     57  F   UNL A   1      43.915  27.453  24.963  1.00  0.00    -0.200 F 
ATOM     58  F   UNL A   1      42.914  24.937  24.628  1.00  0.00    -0.200 F 
ENDBRANCH  24  48
BRANCH  36  59
ATOM     59  C   UNL A   1      44.083  27.236  34.434  1.00  0.00     0.064 A 
ATOM     60  C   UNL A   1      43.778  25.984  34.984  1.00  0.00     0.173 A 
ATOM     61  C   UNL A   1      45.411  27.684  34.503  1.00  0.00     0.173 A 
ATOM     62  F   UNL A   1      42.518  25.522  34.957  1.00  0.00    -0.203 F 
ATOM     63  C   UNL A   1      44.761  25.217  35.599  1.00  0.00     0.198 A 
ATOM     64  C   UNL A   1      46.399  26.899  35.085  1.00  0.00     0.198 A 
ATOM     65  F   UNL A   1      45.752  28.875  33.987  1.00  0.00    -0.203 F 
ATOM     66  F   UNL A   1      44.438  24.046  36.163  1.00  0.00    -0.200 F 
ATOM     67  C   UNL A   1      46.072  25.670  35.639  1.00  0.00     0.200 A 
ATOM     68  F   UNL A   1      47.668  27.328  35.107  1.00  0.00    -0.200 F 
ATOM     69  F   UNL A   1      47.022  24.921  36.217  1.00  0.00    -0.200 F 
ENDBRANCH  36  59
ENDBRANCH  10  11
ENDBRANCH   3   5
ENDBRANCH   2   3
ENDBRANCH   1   2
BRANCH   1  70
ATOM     70  C   UNL A   1      32.109  31.095  26.840  1.00  0.00     0.274 C 
BRANCH  70  71
ATOM     71  O   UNL A   1      31.616  30.303  25.744  1.00  0.00    -0.462 OA
BRANCH  71  72
ATOM     72  C   UNL A   1      31.753  28.948  25.868  1.00  0.00     0.312 C 
ATOM     73  O   UNL A   1      32.142  28.391  26.882  1.00  0.00    -0.252 OA
BRANCH  72  74
ATOM     74  C   UNL A   1      31.497  28.193  24.554  1.00  0.00     0.072 C 
ATOM     75  C   UNL A   1      30.655  26.937  24.895  1.00  0.00     0.019 C 
ATOM     76  C   UNL A   1      30.568  28.898  23.585  1.00  0.00     0.019 C 
ATOM     77  C   UNL A   1      29.684  26.690  23.733  1.00  0.00     0.001 C 
ATOM     78  C   UNL A   1      29.898  27.824  22.752  1.00  0.00     0.001 C 
BRANCH  74  79
ATOM     79  C   UNL A   1      32.857  27.866  23.869  1.00  0.00     0.054 C 
BRANCH  79  80
ATOM     80  C   UNL A   1      33.345  26.426  24.034  1.00  0.00    -0.045 A 
ATOM     81  C   UNL A   1      34.027  26.022  25.193  1.00  0.00     0.004 A 
ATOM     82  C   UNL A   1      33.135  25.466  23.032  1.00  0.00     0.024 A 
ATOM     83  C   UNL A   1      34.605  24.755  25.296  1.00  0.00     0.002 A 
ATOM     84  C   UNL A   1      33.639  24.166  23.180  1.00  0.00     0.041 A 
ATOM     85  C   UNL A   1      34.418  23.825  24.281  1.00  0.00     0.020 A 
ATOM     86  Cl  UNL A   1      33.279  22.955  22.007  1.00  0.00    -0.084 Cl
ENDBRANCH  79  80
ENDBRANCH  74  79
ENDBRANCH  72  74
ENDBRANCH  71  72
ENDBRANCH  70  71
ENDBRANCH   1  70
TORSDOF 13
ENDMDL
