MODEL 1
REMARK VINA RESULT:     -11.0      0.000      0.000
REMARK SMILES CC[C@H](C)CN(CC)C(=O)c1ccc(/C=C/C(=O)OCCOC(=O)c2ccc(-c3c4nc(c(-c5c(F)c(F)c(F)c(F)c5F)c5ccc([nH]5)c(-c5c(F)c(F)c(F)c(F)c5F)c5nc(c(-c6c(F)c(F)c(F)c(F)c6F)c6ccc3[nH]6)C=C5)C=C4)cc2)cn1
REMARK SMILES IDX 17 1 18 2 16 3 15 4 14 5 11 6 12 7 89 8 13 9 88 10 9 11
REMARK SMILES IDX 10 12 6 13 5 14 3 15 4 16 2 17 1 18 7 19 8 20 19 21 20 22
REMARK SMILES IDX 21 23 22 24 23 25 24 26 25 27 26 28 87 29 27 30 86 31 28 32
REMARK SMILES IDX 29 33 30 34 80 35 31 36 85 37 79 38 81 39 32 40 84 41 78 42
REMARK SMILES IDX 77 43 33 45 65 46 45 47 64 48 46 49 49 50 63 51 82 52 47 53
REMARK SMILES IDX 48 54 62 56 83 57 50 58 34 59 35 60 43 61 36 62 37 63 41 64
REMARK SMILES IDX 44 65 38 66 39 67 42 68 40 69 66 70 67 71 75 72 68 73 69 74
REMARK SMILES IDX 73 75 76 76 70 77 71 78 74 79 72 80 51 81 52 82 60 83 53 84
REMARK SMILES IDX 54 85 58 86 61 87 55 88 56 89 59 90 57 91
REMARK H PARENT 81 44 49 55
REMARK Flexibility Score: inf
ROOT
ATOM      1  C   UNL A   1      40.352  21.478  26.592  1.00  0.00     0.330 C 
ATOM      2  O   UNL A   1      40.434  21.273  27.794  1.00  0.00    -0.247 OA
ENDROOT
BRANCH   1   3
ATOM      3  C   UNL A   1      39.136  22.079  26.007  1.00  0.00     0.094 C 
ATOM      4  C   UNL A   1      38.149  21.398  25.402  1.00  0.00     0.017 C 
BRANCH   4   5
ATOM      5  C   UNL A   1      36.984  22.020  24.747  1.00  0.00    -0.007 A 
ATOM      6  C   UNL A   1      34.784  23.113  23.507  1.00  0.00     0.128 A 
ATOM      7  C   UNL A   1      34.612  22.520  24.748  1.00  0.00     0.035 A 
ATOM      8  N   UNL A   1      35.971  23.179  22.855  1.00  0.00    -0.250 NA
ATOM      9  C   UNL A   1      35.735  21.984  25.379  1.00  0.00     0.012 A 
ATOM     10  C   UNL A   1      37.027  22.607  23.480  1.00  0.00     0.120 A 
BRANCH   6  11
ATOM     11  C   UNL A   1      33.615  23.719  22.819  1.00  0.00     0.272 C 
ATOM     12  O   UNL A   1      33.352  23.333  21.681  1.00  0.00    -0.267 OA
BRANCH  11  13
ATOM     13  N   UNL A   1      32.865  24.681  23.506  1.00  0.00    -0.337 N 
BRANCH  13  14
ATOM     14  C   UNL A   1      31.572  24.294  24.074  1.00  0.00     0.123 C 
BRANCH  14  15
ATOM     15  C   UNL A   1      31.401  24.751  25.543  1.00  0.00     0.005 C 
ATOM     16  C   UNL A   1      30.107  25.553  25.724  1.00  0.00     0.009 C 
BRANCH  15  17
ATOM     17  C   UNL A   1      31.448  23.516  26.467  1.00  0.00     0.002 C 
ATOM     18  C   UNL A   1      30.078  22.980  26.865  1.00  0.00     0.004 C 
ENDBRANCH  15  17
ENDBRANCH  14  15
ENDBRANCH  13  14
BRANCH  13  19
ATOM     19  C   UNL A   1      33.329  26.048  23.760  1.00  0.00     0.116 C 
ATOM     20  C   UNL A   1      33.486  26.831  22.460  1.00  0.00     0.027 C 
ENDBRANCH  13  19
ENDBRANCH  11  13
ENDBRANCH   6  11
ENDBRANCH   4   5
ENDBRANCH   1   3
BRANCH   1  21
ATOM     21  O   UNL A   1      41.313  21.241  25.670  1.00  0.00    -0.459 OA
BRANCH  21  22
ATOM     22  C   UNL A   1      42.664  21.199  26.167  1.00  0.00     0.275 C 
BRANCH  22  23
ATOM     23  C   UNL A   1      43.612  22.008  25.276  1.00  0.00     0.275 C 
BRANCH  23  24
ATOM     24  O   UNL A   1      43.031  23.264  24.872  1.00  0.00    -0.458 OA
BRANCH  24  25
ATOM     25  C   UNL A   1      43.783  24.356  25.139  1.00  0.00     0.338 C 
ATOM     26  O   UNL A   1      44.799  24.710  24.554  1.00  0.00    -0.246 OA
BRANCH  25  27
ATOM     27  C   UNL A   1      43.146  25.175  26.184  1.00  0.00     0.060 A 
ATOM     28  C   UNL A   1      43.687  26.439  26.442  1.00  0.00     0.016 A 
ATOM     29  C   UNL A   1      42.082  24.693  26.951  1.00  0.00     0.016 A 
ATOM     30  C   UNL A   1      43.174  27.220  27.477  1.00  0.00     0.010 A 
ATOM     31  C   UNL A   1      41.571  25.477  27.993  1.00  0.00     0.010 A 
ATOM     32  C   UNL A   1      42.124  26.739  28.271  1.00  0.00    -0.014 A 
BRANCH  32  33
ATOM     33  C   UNL A   1      41.654  27.545  29.424  1.00  0.00     0.031 A 
ATOM     34  C   UNL A   1      42.384  27.478  30.734  1.00  0.00     0.074 A 
ATOM     35  C   UNL A   1      40.600  28.369  29.282  1.00  0.00     0.049 A 
ATOM     36  N   UNL A   1      42.140  28.112  31.854  1.00  0.00    -0.248 NA
ATOM     37  C   UNL A   1      43.544  26.575  30.794  1.00  0.00     0.031 C 
ATOM     38  C   UNL A   1      39.825  28.541  28.054  1.00  0.00     0.029 A 
ATOM     39  N   UNL A   1      40.005  29.222  30.178  1.00  0.00    -0.354 N 
ATOM     40  C   UNL A   1      43.111  27.686  32.750  1.00  0.00     0.074 A 
ATOM     41  C   UNL A   1      43.932  26.717  32.054  1.00  0.00     0.031 C 
ATOM     42  C   UNL A   1      38.860  29.448  28.271  1.00  0.00     0.029 A 
ATOM     43  C   UNL A   1      38.931  29.900  29.659  1.00  0.00     0.049 A 
ATOM     44  H   UNL A   1      40.319  29.335  31.105  1.00  0.00     0.167 HD
ATOM     45  C   UNL A   1      43.306  28.077  34.032  1.00  0.00     0.037 A 
ATOM     46  C   UNL A   1      38.092  30.779  30.243  1.00  0.00     0.037 A 
ATOM     47  C   UNL A   1      42.497  29.047  34.722  1.00  0.00     0.049 A 
ATOM     48  C   UNL A   1      38.303  31.158  31.684  1.00  0.00     0.074 A 
ATOM     49  C   UNL A   1      42.632  29.522  36.016  1.00  0.00     0.029 A 
ATOM     50  N   UNL A   1      41.395  29.688  34.175  1.00  0.00    -0.354 N 
ATOM     51  N   UNL A   1      39.239  30.770  32.515  1.00  0.00    -0.248 NA
ATOM     52  C   UNL A   1      37.339  32.102  32.268  1.00  0.00     0.031 C 
ATOM     53  C   UNL A   1      41.588  30.420  36.264  1.00  0.00     0.029 A 
ATOM     54  C   UNL A   1      40.827  30.537  35.112  1.00  0.00     0.049 A 
ATOM     55  H   UNL A   1      41.065  29.560  33.256  1.00  0.00     0.167 HD
ATOM     56  C   UNL A   1      38.990  31.433  33.709  1.00  0.00     0.074 A 
ATOM     57  C   UNL A   1      37.825  32.263  33.491  1.00  0.00     0.031 C 
ATOM     58  C   UNL A   1      39.667  31.359  34.882  1.00  0.00     0.037 A 
BRANCH  45  59
ATOM     59  C   UNL A   1      44.435  27.438  34.785  1.00  0.00     0.064 A 
ATOM     60  C   UNL A   1      45.685  28.064  34.909  1.00  0.00     0.173 A 
ATOM     61  C   UNL A   1      44.255  26.201  35.421  1.00  0.00     0.173 A 
ATOM     62  F   UNL A   1      45.911  29.242  34.309  1.00  0.00    -0.203 F 
ATOM     63  C   UNL A   1      46.717  27.465  35.624  1.00  0.00     0.198 A 
ATOM     64  C   UNL A   1      45.282  25.616  36.156  1.00  0.00     0.198 A 
ATOM     65  F   UNL A   1      43.077  25.563  35.337  1.00  0.00    -0.203 F 
ATOM     66  F   UNL A   1      47.915  28.062  35.698  1.00  0.00    -0.200 F 
ATOM     67  C   UNL A   1      46.513  26.245  36.253  1.00  0.00     0.200 A 
ATOM     68  F   UNL A   1      45.080  24.442  36.771  1.00  0.00    -0.200 F 
ATOM     69  F   UNL A   1      47.507  25.672  36.946  1.00  0.00    -0.200 F 
ENDBRANCH  45  59
BRANCH  46  70
ATOM     70  C   UNL A   1      36.970  31.359  29.462  1.00  0.00     0.064 A 
ATOM     71  C   UNL A   1      36.971  32.710  29.090  1.00  0.00     0.173 A 
ATOM     72  C   UNL A   1      35.869  30.577  29.085  1.00  0.00     0.173 A 
ATOM     73  F   UNL A   1      37.989  33.503  29.451  1.00  0.00    -0.203 F 
ATOM     74  C   UNL A   1      35.905  33.260  28.380  1.00  0.00     0.198 A 
ATOM     75  C   UNL A   1      34.817  31.122  28.353  1.00  0.00     0.198 A 
ATOM     76  F   UNL A   1      35.819  29.280  29.421  1.00  0.00    -0.203 F 
ATOM     77  F   UNL A   1      35.910  34.565  28.074  1.00  0.00    -0.200 F 
ATOM     78  C   UNL A   1      34.832  32.465  28.008  1.00  0.00     0.200 A 
ATOM     79  F   UNL A   1      33.785  30.348  27.988  1.00  0.00    -0.200 F 
ATOM     80  F   UNL A   1      33.808  32.994  27.325  1.00  0.00    -0.200 F 
ENDBRANCH  46  70
BRANCH  58  81
ATOM     81  C   UNL A   1      39.175  32.213  36.012  1.00  0.00     0.064 A 
ATOM     82  C   UNL A   1      38.264  31.722  36.959  1.00  0.00     0.173 A 
ATOM     83  C   UNL A   1      39.646  33.525  36.171  1.00  0.00     0.173 A 
ATOM     84  F   UNL A   1      37.773  30.480  36.843  1.00  0.00    -0.203 F 
ATOM     85  C   UNL A   1      37.825  32.523  38.010  1.00  0.00     0.198 A 
ATOM     86  C   UNL A   1      39.224  34.314  37.238  1.00  0.00     0.198 A 
ATOM     87  F   UNL A   1      40.522  34.040  35.295  1.00  0.00    -0.203 F 
ATOM     88  F   UNL A   1      36.920  32.048  38.879  1.00  0.00    -0.200 F 
ATOM     89  C   UNL A   1      38.310  33.815  38.152  1.00  0.00     0.200 A 
ATOM     90  F   UNL A   1      39.702  35.559  37.379  1.00  0.00    -0.200 F 
ATOM     91  F   UNL A   1      37.888  34.583  39.167  1.00  0.00    -0.200 F 
ENDBRANCH  58  81
ENDBRANCH  32  33
ENDBRANCH  25  27
ENDBRANCH  24  25
ENDBRANCH  23  24
ENDBRANCH  22  23
ENDBRANCH  21  22
ENDBRANCH   1  21
TORSDOF 18
ENDMDL
MODEL 2
REMARK VINA RESULT:     -10.9      0.873      2.127
REMARK SMILES CC[C@H](C)CN(CC)C(=O)c1ccc(/C=C/C(=O)OCCOC(=O)c2ccc(-c3c4nc(c(-c5c(F)c(F)c(F)c(F)c5F)c5ccc([nH]5)c(-c5c(F)c(F)c(F)c(F)c5F)c5nc(c(-c6c(F)c(F)c(F)c(F)c6F)c6ccc3[nH]6)C=C5)C=C4)cc2)cn1
REMARK SMILES IDX 17 1 18 2 16 3 15 4 14 5 11 6 12 7 89 8 13 9 88 10 9 11
REMARK SMILES IDX 10 12 6 13 5 14 3 15 4 16 2 17 1 18 7 19 8 20 19 21 20 22
REMARK SMILES IDX 21 23 22 24 23 25 24 26 25 27 26 28 87 29 27 30 86 31 28 32
REMARK SMILES IDX 29 33 30 34 80 35 31 36 85 37 79 38 81 39 32 40 84 41 78 42
REMARK SMILES IDX 77 43 33 45 65 46 45 47 64 48 46 49 49 50 63 51 82 52 47 53
REMARK SMILES IDX 48 54 62 56 83 57 50 58 34 59 35 60 43 61 36 62 37 63 41 64
REMARK SMILES IDX 44 65 38 66 39 67 42 68 40 69 66 70 67 71 75 72 68 73 69 74
REMARK SMILES IDX 73 75 76 76 70 77 71 78 74 79 72 80 51 81 52 82 60 83 53 84
REMARK SMILES IDX 54 85 58 86 61 87 55 88 56 89 59 90 57 91
REMARK H PARENT 81 44 49 55
REMARK Flexibility Score: inf
ROOT
ATOM      1  C   UNL A   1      40.775  20.470  26.597  1.00  0.00     0.330 C 
ATOM      2  O   UNL A   1      40.913  20.217  27.784  1.00  0.00    -0.247 OA
ENDROOT
BRANCH   1   3
ATOM      3  C   UNL A   1      39.454  20.838  26.047  1.00  0.00     0.094 C 
ATOM      4  C   UNL A   1      38.896  22.057  26.122  1.00  0.00     0.017 C 
BRANCH   4   5
ATOM      5  C   UNL A   1      37.541  22.387  25.645  1.00  0.00    -0.007 A 
ATOM      6  C   UNL A   1      34.987  23.003  24.825  1.00  0.00     0.128 A 
ATOM      7  C   UNL A   1      35.749  24.003  25.409  1.00  0.00     0.035 A 
ATOM      8  N   UNL A   1      35.417  21.730  24.642  1.00  0.00    -0.250 NA
ATOM      9  C   UNL A   1      37.050  23.688  25.806  1.00  0.00     0.012 A 
ATOM     10  C   UNL A   1      36.667  21.453  25.082  1.00  0.00     0.120 A 
BRANCH   6  11
ATOM     11  C   UNL A   1      33.608  23.309  24.365  1.00  0.00     0.272 C 
ATOM     12  O   UNL A   1      33.231  22.814  23.305  1.00  0.00    -0.267 OA
BRANCH  11  13
ATOM     13  N   UNL A   1      32.806  24.129  25.168  1.00  0.00    -0.337 N 
BRANCH  13  14
ATOM     14  C   UNL A   1      32.359  25.418  24.635  1.00  0.00     0.123 C 
BRANCH  14  15
ATOM     15  C   UNL A   1      32.853  26.620  25.478  1.00  0.00     0.005 C 
ATOM     16  C   UNL A   1      33.773  27.529  24.655  1.00  0.00     0.009 C 
BRANCH  15  17
ATOM     17  C   UNL A   1      31.633  27.384  26.033  1.00  0.00     0.002 C 
ATOM     18  C   UNL A   1      31.537  28.832  25.567  1.00  0.00     0.004 C 
ENDBRANCH  15  17
ENDBRANCH  14  15
ENDBRANCH  13  14
BRANCH  13  19
ATOM     19  C   UNL A   1      32.317  23.744  26.495  1.00  0.00     0.116 C 
ATOM     20  C   UNL A   1      31.009  22.966  26.399  1.00  0.00     0.027 C 
ENDBRANCH  13  19
ENDBRANCH  11  13
ENDBRANCH   6  11
ENDBRANCH   4   5
ENDBRANCH   1   3
BRANCH   1  21
ATOM     21  O   UNL A   1      41.753  20.490  25.662  1.00  0.00    -0.459 OA
BRANCH  21  22
ATOM     22  C   UNL A   1      43.031  20.988  26.102  1.00  0.00     0.275 C 
BRANCH  22  23
ATOM     23  C   UNL A   1      43.755  21.737  24.978  1.00  0.00     0.275 C 
BRANCH  23  24
ATOM     24  O   UNL A   1      43.132  23.003  24.687  1.00  0.00    -0.458 OA
BRANCH  24  25
ATOM     25  C   UNL A   1      43.892  24.091  24.949  1.00  0.00     0.338 C 
ATOM     26  O   UNL A   1      44.913  24.433  24.364  1.00  0.00    -0.246 OA
BRANCH  25  27
ATOM     27  C   UNL A   1      43.260  24.922  25.987  1.00  0.00     0.060 A 
ATOM     28  C   UNL A   1      43.773  26.206  26.197  1.00  0.00     0.016 A 
ATOM     29  C   UNL A   1      42.228  24.433  26.794  1.00  0.00     0.016 A 
ATOM     30  C   UNL A   1      43.265  27.001  27.224  1.00  0.00     0.010 A 
ATOM     31  C   UNL A   1      41.722  25.232  27.826  1.00  0.00     0.010 A 
ATOM     32  C   UNL A   1      42.248  26.515  28.056  1.00  0.00    -0.014 A 
BRANCH  32  33
ATOM     33  C   UNL A   1      41.785  27.340  29.199  1.00  0.00     0.031 A 
ATOM     34  C   UNL A   1      42.548  27.327  30.492  1.00  0.00     0.074 A 
ATOM     35  C   UNL A   1      40.708  28.134  29.061  1.00  0.00     0.049 A 
ATOM     36  N   UNL A   1      42.315  27.985  31.600  1.00  0.00    -0.248 NA
ATOM     37  C   UNL A   1      43.732  26.456  30.547  1.00  0.00     0.031 C 
ATOM     38  C   UNL A   1      39.900  28.253  27.849  1.00  0.00     0.029 A 
ATOM     39  N   UNL A   1      40.113  28.995  29.949  1.00  0.00    -0.354 N 
ATOM     40  C   UNL A   1      43.318  27.608  32.483  1.00  0.00     0.074 A 
ATOM     41  C   UNL A   1      44.146  26.641  31.793  1.00  0.00     0.031 C 
ATOM     42  C   UNL A   1      38.917  29.141  28.066  1.00  0.00     0.029 A 
ATOM     43  C   UNL A   1      39.009  29.632  29.439  1.00  0.00     0.049 A 
ATOM     44  H   UNL A   1      40.445  29.141  30.864  1.00  0.00     0.167 HD
ATOM     45  C   UNL A   1      43.534  28.038  33.749  1.00  0.00     0.037 A 
ATOM     46  C   UNL A   1      38.163  30.505  30.020  1.00  0.00     0.037 A 
ATOM     47  C   UNL A   1      42.716  29.006  34.433  1.00  0.00     0.049 A 
ATOM     48  C   UNL A   1      38.398  30.929  31.444  1.00  0.00     0.074 A 
ATOM     49  C   UNL A   1      42.870  29.519  35.710  1.00  0.00     0.029 A 
ATOM     50  N   UNL A   1      41.586  29.604  33.896  1.00  0.00    -0.354 N 
ATOM     51  N   UNL A   1      39.363  30.586  32.262  1.00  0.00    -0.248 NA
ATOM     52  C   UNL A   1      37.424  31.864  32.027  1.00  0.00     0.031 C 
ATOM     53  C   UNL A   1      41.810  30.397  35.960  1.00  0.00     0.029 A 
ATOM     54  C   UNL A   1      41.019  30.464  34.824  1.00  0.00     0.049 A 
ATOM     55  H   UNL A   1      41.238  29.443  32.990  1.00  0.00     0.167 HD
ATOM     56  C   UNL A   1      39.127  31.275  33.444  1.00  0.00     0.074 A 
ATOM     57  C   UNL A   1      37.935  32.070  33.232  1.00  0.00     0.031 C 
ATOM     58  C   UNL A   1      39.833  31.249  34.601  1.00  0.00     0.037 A 
BRANCH  45  59
ATOM     59  C   UNL A   1      44.697  27.448  34.490  1.00  0.00     0.064 A 
ATOM     60  C   UNL A   1      45.963  28.053  34.475  1.00  0.00     0.173 A 
ATOM     61  C   UNL A   1      44.534  26.284  35.256  1.00  0.00     0.173 A 
ATOM     62  F   UNL A   1      46.172  29.161  33.749  1.00  0.00    -0.203 F 
ATOM     63  C   UNL A   1      47.028  27.501  35.181  1.00  0.00     0.198 A 
ATOM     64  C   UNL A   1      45.595  25.749  35.980  1.00  0.00     0.198 A 
ATOM     65  F   UNL A   1      43.342  25.670  35.308  1.00  0.00    -0.203 F 
ATOM     66  F   UNL A   1      48.238  28.073  35.121  1.00  0.00    -0.200 F 
ATOM     67  C   UNL A   1      46.842  26.354  35.939  1.00  0.00     0.200 A 
ATOM     68  F   UNL A   1      45.411  24.645  36.720  1.00  0.00    -0.200 F 
ATOM     69  F   UNL A   1      47.867  25.827  36.622  1.00  0.00    -0.200 F 
ENDBRANCH  45  59
BRANCH  46  70
ATOM     70  C   UNL A   1      37.007  31.036  29.251  1.00  0.00     0.064 A 
ATOM     71  C   UNL A   1      35.897  30.229  28.967  1.00  0.00     0.173 A 
ATOM     72  C   UNL A   1      36.998  32.354  28.776  1.00  0.00     0.173 A 
ATOM     73  F   UNL A   1      35.873  28.953  29.376  1.00  0.00    -0.203 F 
ATOM     74  C   UNL A   1      34.826  30.720  28.222  1.00  0.00     0.198 A 
ATOM     75  C   UNL A   1      35.915  32.852  28.055  1.00  0.00     0.198 A 
ATOM     76  F   UNL A   1      38.040  33.164  29.019  1.00  0.00    -0.203 F 
ATOM     77  F   UNL A   1      33.796  29.916  27.926  1.00  0.00    -0.200 F 
ATOM     78  C   UNL A   1      34.833  32.032  27.772  1.00  0.00     0.200 A 
ATOM     79  F   UNL A   1      35.922  34.122  27.629  1.00  0.00    -0.200 F 
ATOM     80  F   UNL A   1      33.802  32.503  27.059  1.00  0.00    -0.200 F 
ENDBRANCH  46  70
BRANCH  58  81
ATOM     81  C   UNL A   1      39.347  32.122  35.720  1.00  0.00     0.064 A 
ATOM     82  C   UNL A   1      39.771  33.453  35.849  1.00  0.00     0.173 A 
ATOM     83  C   UNL A   1      38.420  31.634  36.653  1.00  0.00     0.173 A 
ATOM     84  F   UNL A   1      40.667  33.961  34.991  1.00  0.00    -0.203 F 
ATOM     85  C   UNL A   1      39.303  34.255  36.886  1.00  0.00     0.198 A 
ATOM     86  C   UNL A   1      37.934  32.447  37.673  1.00  0.00     0.198 A 
ATOM     87  F   UNL A   1      37.978  30.369  36.570  1.00  0.00    -0.203 F 
ATOM     88  F   UNL A   1      39.755  35.511  37.016  1.00  0.00    -0.200 F 
ATOM     89  C   UNL A   1      38.380  33.754  37.793  1.00  0.00     0.200 A 
ATOM     90  F   UNL A   1      37.035  31.964  38.543  1.00  0.00    -0.200 F 
ATOM     91  F   UNL A   1      37.928  34.529  38.788  1.00  0.00    -0.200 F 
ENDBRANCH  58  81
ENDBRANCH  32  33
ENDBRANCH  25  27
ENDBRANCH  24  25
ENDBRANCH  23  24
ENDBRANCH  22  23
ENDBRANCH  21  22
ENDBRANCH   1  21
TORSDOF 18
ENDMDL
MODEL 3
REMARK VINA RESULT:     -10.8      3.462      8.738
REMARK SMILES CC[C@H](C)CN(CC)C(=O)c1ccc(/C=C/C(=O)OCCOC(=O)c2ccc(-c3c4nc(c(-c5c(F)c(F)c(F)c(F)c5F)c5ccc([nH]5)c(-c5c(F)c(F)c(F)c(F)c5F)c5nc(c(-c6c(F)c(F)c(F)c(F)c6F)c6ccc3[nH]6)C=C5)C=C4)cc2)cn1
REMARK SMILES IDX 17 1 18 2 16 3 15 4 14 5 11 6 12 7 89 8 13 9 88 10 9 11
REMARK SMILES IDX 10 12 6 13 5 14 3 15 4 16 2 17 1 18 7 19 8 20 19 21 20 22
REMARK SMILES IDX 21 23 22 24 23 25 24 26 25 27 26 28 87 29 27 30 86 31 28 32
REMARK SMILES IDX 29 33 30 34 80 35 31 36 85 37 79 38 81 39 32 40 84 41 78 42
REMARK SMILES IDX 77 43 33 45 65 46 45 47 64 48 46 49 49 50 63 51 82 52 47 53
REMARK SMILES IDX 48 54 62 56 83 57 50 58 34 59 35 60 43 61 36 62 37 63 41 64
REMARK SMILES IDX 44 65 38 66 39 67 42 68 40 69 66 70 67 71 75 72 68 73 69 74
REMARK SMILES IDX 73 75 76 76 70 77 71 78 74 79 72 80 51 81 52 82 60 83 53 84
REMARK SMILES IDX 54 85 58 86 61 87 55 88 56 89 59 90 57 91
REMARK H PARENT 81 44 49 55
REMARK Flexibility Score: inf
ROOT
ATOM      1  C   UNL A   1      29.888  29.774  23.450  1.00  0.00     0.330 C 
ATOM      2  O   UNL A   1      29.244  29.972  22.431  1.00  0.00    -0.247 OA
ENDROOT
BRANCH   1   3
ATOM      3  C   UNL A   1      30.404  28.427  23.772  1.00  0.00     0.094 C 
ATOM      4  C   UNL A   1      29.677  27.297  23.772  1.00  0.00     0.017 C 
BRANCH   4   5
ATOM      5  C   UNL A   1      30.186  25.976  24.179  1.00  0.00    -0.007 A 
ATOM      6  C   UNL A   1      31.207  23.534  24.936  1.00  0.00     0.128 A 
ATOM      7  C   UNL A   1      31.176  24.554  25.875  1.00  0.00     0.035 A 
ATOM      8  N   UNL A   1      30.775  23.667  23.657  1.00  0.00    -0.250 NA
ATOM      9  C   UNL A   1      30.641  25.784  25.489  1.00  0.00     0.012 A 
ATOM     10  C   UNL A   1      30.306  24.888  23.310  1.00  0.00     0.120 A 
BRANCH   6  11
ATOM     11  C   UNL A   1      31.744  22.204  25.320  1.00  0.00     0.272 C 
ATOM     12  O   UNL A   1      30.948  21.352  25.708  1.00  0.00    -0.267 OA
BRANCH  11  13
ATOM     13  N   UNL A   1      33.122  21.984  25.204  1.00  0.00    -0.337 N 
BRANCH  13  14
ATOM     14  C   UNL A   1      33.766  22.217  23.909  1.00  0.00     0.123 C 
BRANCH  14  15
ATOM     15  C   UNL A   1      34.785  23.382  23.947  1.00  0.00     0.005 C 
ATOM     16  C   UNL A   1      36.147  22.941  23.400  1.00  0.00     0.009 C 
BRANCH  15  17
ATOM     17  C   UNL A   1      34.210  24.582  23.165  1.00  0.00     0.002 C 
ATOM     18  C   UNL A   1      34.002  25.835  24.007  1.00  0.00     0.004 C 
ENDBRANCH  15  17
ENDBRANCH  14  15
ENDBRANCH  13  14
BRANCH  13  19
ATOM     19  C   UNL A   1      33.984  21.604  26.326  1.00  0.00     0.116 C 
ATOM     20  C   UNL A   1      33.706  22.464  27.555  1.00  0.00     0.027 C 
ENDBRANCH  13  19
ENDBRANCH  11  13
ENDBRANCH   6  11
ENDBRANCH   4   5
ENDBRANCH   1   3
BRANCH   1  21
ATOM     21  O   UNL A   1      30.244  30.701  24.368  1.00  0.00    -0.459 OA
BRANCH  21  22
ATOM     22  C   UNL A   1      31.216  30.278  25.343  1.00  0.00     0.275 C 
BRANCH  22  23
ATOM     23  C   UNL A   1      31.601  31.427  26.281  1.00  0.00     0.275 C 
BRANCH  23  24
ATOM     24  O   UNL A   1      32.748  31.102  27.090  1.00  0.00    -0.458 OA
BRANCH  24  25
ATOM     25  C   UNL A   1      33.493  32.159  27.483  1.00  0.00     0.338 C 
ATOM     26  O   UNL A   1      33.150  33.336  27.498  1.00  0.00    -0.246 OA
BRANCH  25  27
ATOM     27  C   UNL A   1      34.783  31.705  28.028  1.00  0.00     0.060 A 
ATOM     28  C   UNL A   1      34.886  30.370  28.434  1.00  0.00     0.016 A 
ATOM     29  C   UNL A   1      35.857  32.582  28.207  1.00  0.00     0.016 A 
ATOM     30  C   UNL A   1      36.058  29.911  29.033  1.00  0.00     0.010 A 
ATOM     31  C   UNL A   1      37.031  32.120  28.812  1.00  0.00     0.010 A 
ATOM     32  C   UNL A   1      37.134  30.785  29.242  1.00  0.00    -0.014 A 
BRANCH  32  33
ATOM     33  C   UNL A   1      38.336  30.302  29.963  1.00  0.00     0.031 A 
ATOM     34  C   UNL A   1      38.595  30.747  31.373  1.00  0.00     0.074 A 
ATOM     35  C   UNL A   1      39.171  29.430  29.368  1.00  0.00     0.049 A 
ATOM     36  N   UNL A   1      39.580  30.429  32.176  1.00  0.00    -0.248 NA
ATOM     37  C   UNL A   1      37.617  31.676  31.959  1.00  0.00     0.031 C 
ATOM     38  C   UNL A   1      39.013  28.905  28.013  1.00  0.00     0.029 A 
ATOM     39  N   UNL A   1      40.314  28.828  29.832  1.00  0.00    -0.354 N 
ATOM     40  C   UNL A   1      39.342  31.116  33.359  1.00  0.00     0.074 A 
ATOM     41  C   UNL A   1      38.137  31.893  33.160  1.00  0.00     0.031 C 
ATOM     42  C   UNL A   1      40.018  28.053  27.756  1.00  0.00     0.029 A 
ATOM     43  C   UNL A   1      40.905  27.994  28.916  1.00  0.00     0.049 A 
ATOM     44  H   UNL A   1      40.675  28.980  30.735  1.00  0.00     0.167 HD
ATOM     45  C   UNL A   1      40.058  31.093  34.508  1.00  0.00     0.037 A 
ATOM     46  C   UNL A   1      42.040  27.274  29.001  1.00  0.00     0.037 A 
ATOM     47  C   UNL A   1      41.252  30.314  34.710  1.00  0.00     0.049 A 
ATOM     48  C   UNL A   1      42.843  27.304  30.273  1.00  0.00     0.074 A 
ATOM     49  C   UNL A   1      42.033  30.210  35.849  1.00  0.00     0.029 A 
ATOM     50  N   UNL A   1      41.840  29.508  33.748  1.00  0.00    -0.354 N 
ATOM     51  N   UNL A   1      42.596  27.937  31.394  1.00  0.00    -0.248 NA
ATOM     52  C   UNL A   1      44.084  26.516  30.292  1.00  0.00     0.031 C 
ATOM     53  C   UNL A   1      43.117  29.373  35.561  1.00  0.00     0.029 A 
ATOM     54  C   UNL A   1      42.988  28.921  34.258  1.00  0.00     0.049 A 
ATOM     55  H   UNL A   1      41.494  29.371  32.836  1.00  0.00     0.167 HD
ATOM     56  C   UNL A   1      43.635  27.611  32.255  1.00  0.00     0.074 A 
ATOM     57  C   UNL A   1      44.508  26.708  31.534  1.00  0.00     0.031 C 
ATOM     58  C   UNL A   1      43.847  28.024  33.529  1.00  0.00     0.037 A 
BRANCH  45  59
ATOM     59  C   UNL A   1      39.578  31.953  35.639  1.00  0.00     0.064 A 
ATOM     60  C   UNL A   1      38.603  31.506  36.542  1.00  0.00     0.173 A 
ATOM     61  C   UNL A   1      40.128  33.228  35.844  1.00  0.00     0.173 A 
ATOM     62  F   UNL A   1      38.039  30.299  36.382  1.00  0.00    -0.203 F 
ATOM     63  C   UNL A   1      38.180  32.311  37.596  1.00  0.00     0.198 A 
ATOM     64  C   UNL A   1      39.720  34.021  36.913  1.00  0.00     0.198 A 
ATOM     65  F   UNL A   1      41.067  33.701  35.011  1.00  0.00    -0.203 F 
ATOM     66  F   UNL A   1      37.219  31.879  38.424  1.00  0.00    -0.200 F 
ATOM     67  C   UNL A   1      38.743  33.565  37.785  1.00  0.00     0.200 A 
ATOM     68  F   UNL A   1      40.272  35.228  37.099  1.00  0.00    -0.200 F 
ATOM     69  F   UNL A   1      38.339  34.336  38.803  1.00  0.00    -0.200 F 
ENDBRANCH  45  59
BRANCH  46  70
ATOM     70  C   UNL A   1      42.488  26.462  27.840  1.00  0.00     0.064 A 
ATOM     71  C   UNL A   1      43.393  26.979  26.904  1.00  0.00     0.173 A 
ATOM     72  C   UNL A   1      42.009  25.160  27.639  1.00  0.00     0.173 A 
ATOM     73  F   UNL A   1      43.857  28.229  27.039  1.00  0.00    -0.203 F 
ATOM     74  C   UNL A   1      43.792  26.226  25.800  1.00  0.00     0.198 A 
ATOM     75  C   UNL A   1      42.429  24.399  26.551  1.00  0.00     0.198 A 
ATOM     76  F   UNL A   1      41.138  24.622  28.506  1.00  0.00    -0.203 F 
ATOM     77  F   UNL A   1      44.625  26.759  24.895  1.00  0.00    -0.200 F 
ATOM     78  C   UNL A   1      43.315  24.936  25.628  1.00  0.00     0.200 A 
ATOM     79  F   UNL A   1      41.972  23.150  26.392  1.00  0.00    -0.200 F 
ATOM     80  F   UNL A   1      43.700  24.212  24.568  1.00  0.00    -0.200 F 
ENDBRANCH  46  70
BRANCH  58  81
ATOM     81  C   UNL A   1      45.060  27.487  34.231  1.00  0.00     0.064 A 
ATOM     82  C   UNL A   1      45.017  26.281  34.947  1.00  0.00     0.173 A 
ATOM     83  C   UNL A   1      46.285  28.165  34.157  1.00  0.00     0.173 A 
ATOM     84  F   UNL A   1      43.867  25.603  35.059  1.00  0.00    -0.203 F 
ATOM     85  C   UNL A   1      46.154  25.788  35.584  1.00  0.00     0.198 A 
ATOM     86  C   UNL A   1      47.425  27.656  34.773  1.00  0.00     0.198 A 
ATOM     87  F   UNL A   1      46.379  29.320  33.480  1.00  0.00    -0.203 F 
ATOM     88  F   UNL A   1      46.080  24.657  36.300  1.00  0.00    -0.200 F 
ATOM     89  C   UNL A   1      47.357  26.472  35.491  1.00  0.00     0.200 A 
ATOM     90  F   UNL A   1      48.589  28.313  34.674  1.00  0.00    -0.200 F 
ATOM     91  F   UNL A   1      48.450  25.993  36.102  1.00  0.00    -0.200 F 
ENDBRANCH  58  81
ENDBRANCH  32  33
ENDBRANCH  25  27
ENDBRANCH  24  25
ENDBRANCH  23  24
ENDBRANCH  22  23
ENDBRANCH  21  22
ENDBRANCH   1  21
TORSDOF 18
ENDMDL
