MODEL 1
REMARK VINA RESULT:     -12.2      0.000      0.000
REMARK SMILES NC(=O)[C@@H]1CCCCN1c1cncc(C(=O)OCCOC(=O)c2ccc(-c3c4nc(c(-c5c(F)c(F)c(F)c(F)c5F)c5ccc([nH]5)c(-c5c(F)c(F)c(F)c(F)c5F)c5nc(c(-c6c(F)c(F)c(F)c(F)c6F)c6ccc3[nH]6)C=C5)C=C4)cc2)n1
REMARK SMILES IDX 18 1 17 2 15 3 16 4 14 5 10 6 11 7 86 8 12 9 13 10 9 11 4 12
REMARK SMILES IDX 5 13 6 14 8 15 7 16 2 17 1 18 3 21 19 22 20 23 21 24 22 25
REMARK SMILES IDX 23 26 24 27 85 28 25 29 84 30 26 31 27 32 28 33 78 34 29 35
REMARK SMILES IDX 83 36 77 37 79 38 30 39 82 40 76 41 75 42 31 44 63 45 43 46
REMARK SMILES IDX 62 47 44 48 47 49 61 50 80 51 45 52 46 53 60 55 81 56 48 57
REMARK SMILES IDX 32 58 33 59 41 60 34 61 35 62 39 63 42 64 36 65 37 66 40 67
REMARK SMILES IDX 38 68 64 69 65 70 73 71 66 72 67 73 71 74 74 75 68 76 69 77
REMARK SMILES IDX 72 78 70 79 49 80 50 81 58 82 51 83 52 84 56 85 59 86 53 87
REMARK SMILES IDX 54 88 57 89 55 90
REMARK H PARENT 1 19 1 20 79 43 47 54
REMARK Flexibility Score: inf
ROOT
ATOM      1  C   UNL A   1      30.965  29.788  24.624  1.00  0.00     0.275 C 
ENDROOT
BRANCH   1   2
ATOM      2  O   UNL A   1      31.650  29.153  23.525  1.00  0.00    -0.457 OA
BRANCH   2   3
ATOM      3  C   UNL A   1      31.104  27.994  23.077  1.00  0.00     0.358 C 
ATOM      4  O   UNL A   1      30.177  27.883  22.291  1.00  0.00    -0.244 OA
BRANCH   3   5
ATOM      5  C   UNL A   1      31.870  26.825  23.563  1.00  0.00     0.169 A 
ATOM      6  C   UNL A   1      31.995  24.596  24.124  1.00  0.00     0.148 A 
ATOM      7  C   UNL A   1      33.371  24.783  24.345  1.00  0.00     0.157 A 
ATOM      8  N   UNL A   1      31.227  25.646  23.768  1.00  0.00    -0.220 NA
ATOM      9  N   UNL A   1      34.027  25.952  24.152  1.00  0.00    -0.258 NA
ATOM     10  C   UNL A   1      33.242  26.959  23.720  1.00  0.00     0.147 A 
BRANCH   6  11
ATOM     11  N   UNL A   1      31.457  23.321  24.143  1.00  0.00    -0.343 N 
ATOM     12  C   UNL A   1      31.143  22.637  25.424  1.00  0.00     0.172 C 
ATOM     13  C   UNL A   1      32.247  21.644  25.787  1.00  0.00     0.035 C 
ATOM     14  C   UNL A   1      32.493  20.677  24.630  1.00  0.00     0.004 C 
ATOM     15  C   UNL A   1      31.740  22.450  22.999  1.00  0.00     0.119 C 
ATOM     16  C   UNL A   1      32.837  21.444  23.355  1.00  0.00     0.022 C 
BRANCH  12  17
ATOM     17  C   UNL A   1      30.781  23.570  26.603  1.00  0.00     0.240 C 
ATOM     18  N   UNL A   1      29.566  24.197  26.497  1.00  0.00    -0.368 N 
ATOM     19  H   UNL A   1      29.263  24.807  27.209  1.00  0.00     0.159 HD
ATOM     20  H   UNL A   1      28.995  24.037  25.712  1.00  0.00     0.159 HD
ATOM     21  O   UNL A   1      31.452  23.705  27.623  1.00  0.00    -0.273 OA
ENDBRANCH  12  17
ENDBRANCH   6  11
ENDBRANCH   3   5
ENDBRANCH   2   3
ENDBRANCH   1   2
BRANCH   1  22
ATOM     22  C   UNL A   1      31.737  29.609  25.931  1.00  0.00     0.275 C 
BRANCH  22  23
ATOM     23  O   UNL A   1      32.995  30.307  25.850  1.00  0.00    -0.458 OA
BRANCH  23  24
ATOM     24  C   UNL A   1      33.253  31.185  26.841  1.00  0.00     0.338 C 
ATOM     25  O   UNL A   1      32.529  32.076  27.260  1.00  0.00    -0.246 OA
BRANCH  24  26
ATOM     26  C   UNL A   1      34.582  30.910  27.417  1.00  0.00     0.060 A 
ATOM     27  C   UNL A   1      34.971  29.593  27.642  1.00  0.00     0.016 A 
ATOM     28  C   UNL A   1      35.386  31.955  27.863  1.00  0.00     0.016 A 
ATOM     29  C   UNL A   1      36.098  29.311  28.410  1.00  0.00     0.010 A 
ATOM     30  C   UNL A   1      36.583  31.670  28.533  1.00  0.00     0.010 A 
ATOM     31  C   UNL A   1      36.932  30.346  28.857  1.00  0.00    -0.014 A 
BRANCH  31  32
ATOM     32  C   UNL A   1      38.131  30.049  29.694  1.00  0.00     0.031 A 
ATOM     33  C   UNL A   1      39.254  29.211  29.139  1.00  0.00     0.074 A 
ATOM     34  C   UNL A   1      38.238  30.539  30.947  1.00  0.00     0.049 A 
ATOM     35  N   UNL A   1      40.281  28.681  29.758  1.00  0.00    -0.248 NA
ATOM     36  C   UNL A   1      39.208  28.915  27.699  1.00  0.00     0.031 C 
ATOM     37  C   UNL A   1      37.264  31.410  31.605  1.00  0.00     0.029 A 
ATOM     38  N   UNL A   1      39.228  30.383  31.888  1.00  0.00    -0.354 N 
ATOM     39  C   UNL A   1      40.953  27.927  28.803  1.00  0.00     0.074 A 
ATOM     40  C   UNL A   1      40.226  28.078  27.559  1.00  0.00     0.031 C 
ATOM     41  C   UNL A   1      37.729  31.759  32.814  1.00  0.00     0.029 A 
ATOM     42  C   UNL A   1      38.985  31.058  33.060  1.00  0.00     0.049 A 
ATOM     43  H   UNL A   1      40.034  29.839  31.737  1.00  0.00     0.167 HD
ATOM     44  C   UNL A   1      42.069  27.174  28.953  1.00  0.00     0.037 A 
ATOM     45  C   UNL A   1      39.668  31.080  34.219  1.00  0.00     0.037 A 
ATOM     46  C   UNL A   1      42.841  27.095  30.166  1.00  0.00     0.049 A 
ATOM     47  C   UNL A   1      40.895  30.226  34.367  1.00  0.00     0.074 A 
ATOM     48  C   UNL A   1      44.011  26.393  30.400  1.00  0.00     0.029 A 
ATOM     49  N   UNL A   1      42.530  27.759  31.342  1.00  0.00    -0.354 N 
ATOM     50  N   UNL A   1      41.482  29.462  33.480  1.00  0.00    -0.248 NA
ATOM     51  C   UNL A   1      41.535  30.214  35.690  1.00  0.00     0.031 C 
ATOM     52  C   UNL A   1      44.392  26.607  31.731  1.00  0.00     0.029 A 
ATOM     53  C   UNL A   1      43.479  27.471  32.312  1.00  0.00     0.049 A 
ATOM     54  H   UNL A   1      41.752  28.348  31.471  1.00  0.00     0.167 HD
ATOM     55  C   UNL A   1      42.561  28.883  34.132  1.00  0.00     0.074 A 
ATOM     56  C   UNL A   1      42.562  29.400  35.485  1.00  0.00     0.031 C 
ATOM     57  C   UNL A   1      43.466  27.995  33.653  1.00  0.00     0.037 A 
BRANCH  44  58
ATOM     58  C   UNL A   1      42.503  26.334  27.786  1.00  0.00     0.064 A 
ATOM     59  C   UNL A   1      43.496  26.753  26.888  1.00  0.00     0.173 A 
ATOM     60  C   UNL A   1      41.931  25.067  27.588  1.00  0.00     0.173 A 
ATOM     61  F   UNL A   1      44.065  27.960  27.028  1.00  0.00    -0.203 F 
ATOM     62  C   UNL A   1      43.879  25.946  25.819  1.00  0.00     0.198 A 
ATOM     63  C   UNL A   1      42.335  24.253  26.534  1.00  0.00     0.198 A 
ATOM     64  F   UNL A   1      40.982  24.616  28.422  1.00  0.00    -0.203 F 
ATOM     65  F   UNL A   1      44.797  26.384  24.947  1.00  0.00    -0.200 F 
ATOM     66  C   UNL A   1      43.304  24.695  25.646  1.00  0.00     0.200 A 
ATOM     67  F   UNL A   1      41.787  23.039  26.377  1.00  0.00    -0.200 F 
ATOM     68  F   UNL A   1      43.678  23.919  24.620  1.00  0.00    -0.200 F 
ENDBRANCH  44  58
BRANCH  45  69
ATOM     69  C   UNL A   1      39.184  31.919  35.347  1.00  0.00     0.064 A 
ATOM     70  C   UNL A   1      39.489  33.285  35.405  1.00  0.00     0.173 A 
ATOM     71  C   UNL A   1      38.397  31.380  36.375  1.00  0.00     0.173 A 
ATOM     72  F   UNL A   1      40.264  33.839  34.461  1.00  0.00    -0.203 F 
ATOM     73  C   UNL A   1      39.023  34.081  36.449  1.00  0.00     0.198 A 
ATOM     74  C   UNL A   1      37.908  32.183  37.403  1.00  0.00     0.198 A 
ATOM     75  F   UNL A   1      38.082  30.077  36.367  1.00  0.00    -0.203 F 
ATOM     76  F   UNL A   1      39.355  35.379  36.499  1.00  0.00    -0.200 F 
ATOM     77  C   UNL A   1      38.225  33.532  37.442  1.00  0.00     0.200 A 
ATOM     78  F   UNL A   1      37.126  31.650  38.352  1.00  0.00    -0.200 F 
ATOM     79  F   UNL A   1      37.765  34.301  38.438  1.00  0.00    -0.200 F 
ENDBRANCH  45  69
BRANCH  57  80
ATOM     80  C   UNL A   1      44.546  27.549  34.593  1.00  0.00     0.064 A 
ATOM     81  C   UNL A   1      45.743  28.268  34.725  1.00  0.00     0.173 A 
ATOM     82  C   UNL A   1      44.371  26.406  35.386  1.00  0.00     0.173 A 
ATOM     83  F   UNL A   1      45.963  29.357  33.974  1.00  0.00    -0.203 F 
ATOM     84  C   UNL A   1      46.736  27.843  35.603  1.00  0.00     0.198 A 
ATOM     85  C   UNL A   1      45.356  25.998  36.280  1.00  0.00     0.198 A 
ATOM     86  F   UNL A   1      43.242  25.687  35.297  1.00  0.00    -0.203 F 
ATOM     87  F   UNL A   1      47.891  28.520  35.683  1.00  0.00    -0.200 F 
ATOM     88  C   UNL A   1      46.540  26.714  36.383  1.00  0.00     0.200 A 
ATOM     89  F   UNL A   1      45.163  24.911  37.038  1.00  0.00    -0.200 F 
ATOM     90  F   UNL A   1      47.497  26.308  37.230  1.00  0.00    -0.200 F 
ENDBRANCH  57  80
ENDBRANCH  31  32
ENDBRANCH  24  26
ENDBRANCH  23  24
ENDBRANCH  22  23
ENDBRANCH   1  22
TORSDOF 13
ENDMDL
MODEL 2
REMARK VINA RESULT:     -12.1      0.237      1.995
REMARK SMILES NC(=O)[C@@H]1CCCCN1c1cncc(C(=O)OCCOC(=O)c2ccc(-c3c4nc(c(-c5c(F)c(F)c(F)c(F)c5F)c5ccc([nH]5)c(-c5c(F)c(F)c(F)c(F)c5F)c5nc(c(-c6c(F)c(F)c(F)c(F)c6F)c6ccc3[nH]6)C=C5)C=C4)cc2)n1
REMARK SMILES IDX 18 1 17 2 15 3 16 4 14 5 10 6 11 7 86 8 12 9 13 10 9 11 4 12
REMARK SMILES IDX 5 13 6 14 8 15 7 16 2 17 1 18 3 21 19 22 20 23 21 24 22 25
REMARK SMILES IDX 23 26 24 27 85 28 25 29 84 30 26 31 27 32 28 33 78 34 29 35
REMARK SMILES IDX 83 36 77 37 79 38 30 39 82 40 76 41 75 42 31 44 63 45 43 46
REMARK SMILES IDX 62 47 44 48 47 49 61 50 80 51 45 52 46 53 60 55 81 56 48 57
REMARK SMILES IDX 32 58 33 59 41 60 34 61 35 62 39 63 42 64 36 65 37 66 40 67
REMARK SMILES IDX 38 68 64 69 65 70 73 71 66 72 67 73 71 74 74 75 68 76 69 77
REMARK SMILES IDX 72 78 70 79 49 80 50 81 58 82 51 83 52 84 56 85 59 86 53 87
REMARK SMILES IDX 54 88 57 89 55 90
REMARK H PARENT 1 19 1 20 79 43 47 54
REMARK Flexibility Score: inf
ROOT
ATOM      1  C   UNL A   1      31.030  29.964  24.844  1.00  0.00     0.275 C 
ENDROOT
BRANCH   1   2
ATOM      2  O   UNL A   1      31.730  29.318  23.760  1.00  0.00    -0.457 OA
BRANCH   2   3
ATOM      3  C   UNL A   1      31.152  28.193  23.268  1.00  0.00     0.358 C 
ATOM      4  O   UNL A   1      30.217  28.139  22.485  1.00  0.00    -0.244 OA
BRANCH   3   5
ATOM      5  C   UNL A   1      31.891  26.986  23.699  1.00  0.00     0.169 A 
ATOM      6  C   UNL A   1      31.963  24.732  24.162  1.00  0.00     0.148 A 
ATOM      7  C   UNL A   1      33.344  24.876  24.383  1.00  0.00     0.157 A 
ATOM      8  N   UNL A   1      31.219  25.816  23.855  1.00  0.00    -0.220 NA
ATOM      9  N   UNL A   1      34.028  26.035  24.238  1.00  0.00    -0.258 NA
ATOM     10  C   UNL A   1      33.266  27.079  23.854  1.00  0.00     0.147 A 
BRANCH   6  11
ATOM     11  N   UNL A   1      31.393  23.472  24.128  1.00  0.00    -0.343 N 
ATOM     12  C   UNL A   1      31.064  22.742  25.380  1.00  0.00     0.172 C 
ATOM     13  C   UNL A   1      32.143  21.708  25.699  1.00  0.00     0.035 C 
ATOM     14  C   UNL A   1      32.365  20.785  24.502  1.00  0.00     0.004 C 
ATOM     15  C   UNL A   1      31.655  22.643  22.948  1.00  0.00     0.119 C 
ATOM     16  C   UNL A   1      32.727  21.596  23.259  1.00  0.00     0.022 C 
BRANCH  12  17
ATOM     17  C   UNL A   1      30.726  23.633  26.597  1.00  0.00     0.240 C 
ATOM     18  N   UNL A   1      29.533  24.304  26.514  1.00  0.00    -0.368 N 
ATOM     19  H   UNL A   1      29.245  24.892  27.251  1.00  0.00     0.159 HD
ATOM     20  H   UNL A   1      28.962  24.198  25.719  1.00  0.00     0.159 HD
ATOM     21  O   UNL A   1      31.394  23.700  27.626  1.00  0.00    -0.273 OA
ENDBRANCH  12  17
ENDBRANCH   6  11
ENDBRANCH   3   5
ENDBRANCH   2   3
ENDBRANCH   1   2
BRANCH   1  22
ATOM     22  C   UNL A   1      31.756  29.750  26.172  1.00  0.00     0.275 C 
BRANCH  22  23
ATOM     23  O   UNL A   1      33.085  30.299  26.091  1.00  0.00    -0.458 OA
BRANCH  23  24
ATOM     24  C   UNL A   1      33.401  31.233  27.012  1.00  0.00     0.338 C 
ATOM     25  O   UNL A   1      32.725  32.182  27.379  1.00  0.00    -0.246 OA
BRANCH  24  26
ATOM     26  C   UNL A   1      34.727  30.939  27.585  1.00  0.00     0.060 A 
ATOM     27  C   UNL A   1      35.087  29.618  27.836  1.00  0.00     0.016 A 
ATOM     28  C   UNL A   1      35.560  31.975  28.001  1.00  0.00     0.016 A 
ATOM     29  C   UNL A   1      36.213  29.328  28.603  1.00  0.00     0.010 A 
ATOM     30  C   UNL A   1      36.754  31.677  28.669  1.00  0.00     0.010 A 
ATOM     31  C   UNL A   1      37.074  30.352  29.020  1.00  0.00    -0.014 A 
BRANCH  31  32
ATOM     32  C   UNL A   1      38.273  30.046  29.855  1.00  0.00     0.031 A 
ATOM     33  C   UNL A   1      39.393  29.207  29.294  1.00  0.00     0.074 A 
ATOM     34  C   UNL A   1      38.382  30.528  31.111  1.00  0.00     0.049 A 
ATOM     35  N   UNL A   1      40.418  28.670  29.909  1.00  0.00    -0.248 NA
ATOM     36  C   UNL A   1      39.345  28.920  27.852  1.00  0.00     0.031 C 
ATOM     37  C   UNL A   1      37.412  31.399  31.774  1.00  0.00     0.029 A 
ATOM     38  N   UNL A   1      39.372  30.363  32.050  1.00  0.00    -0.354 N 
ATOM     39  C   UNL A   1      41.087  27.919  28.949  1.00  0.00     0.074 A 
ATOM     40  C   UNL A   1      40.361  28.081  27.707  1.00  0.00     0.031 C 
ATOM     41  C   UNL A   1      37.879  31.738  32.985  1.00  0.00     0.029 A 
ATOM     42  C   UNL A   1      39.132  31.031  33.226  1.00  0.00     0.049 A 
ATOM     43  H   UNL A   1      40.176  29.817  31.896  1.00  0.00     0.167 HD
ATOM     44  C   UNL A   1      42.201  27.161  29.094  1.00  0.00     0.037 A 
ATOM     45  C   UNL A   1      39.816  31.044  34.386  1.00  0.00     0.037 A 
ATOM     46  C   UNL A   1      42.973  27.073  30.306  1.00  0.00     0.049 A 
ATOM     47  C   UNL A   1      41.040  30.185  34.527  1.00  0.00     0.074 A 
ATOM     48  C   UNL A   1      44.140  26.365  30.536  1.00  0.00     0.029 A 
ATOM     49  N   UNL A   1      42.665  27.731  31.487  1.00  0.00    -0.354 N 
ATOM     50  N   UNL A   1      41.623  29.424  33.636  1.00  0.00    -0.248 NA
ATOM     51  C   UNL A   1      41.680  30.163  35.850  1.00  0.00     0.031 C 
ATOM     52  C   UNL A   1      44.523  26.569  31.868  1.00  0.00     0.029 A 
ATOM     53  C   UNL A   1      43.612  27.434  32.455  1.00  0.00     0.049 A 
ATOM     54  H   UNL A   1      41.889  28.322  31.620  1.00  0.00     0.167 HD
ATOM     55  C   UNL A   1      42.701  28.838  34.284  1.00  0.00     0.074 A 
ATOM     56  C   UNL A   1      42.704  29.346  35.640  1.00  0.00     0.031 C 
ATOM     57  C   UNL A   1      43.602  27.949  33.799  1.00  0.00     0.037 A 
BRANCH  44  58
ATOM     58  C   UNL A   1      42.631  26.327  27.922  1.00  0.00     0.064 A 
ATOM     59  C   UNL A   1      42.125  25.040  27.692  1.00  0.00     0.173 A 
ATOM     60  C   UNL A   1      43.547  26.849  26.994  1.00  0.00     0.173 A 
ATOM     61  F   UNL A   1      41.257  24.492  28.555  1.00  0.00    -0.203 F 
ATOM     62  C   UNL A   1      42.541  24.295  26.590  1.00  0.00     0.198 A 
ATOM     63  C   UNL A   1      43.940  26.112  25.881  1.00  0.00     0.198 A 
ATOM     64  F   UNL A   1      44.056  28.078  27.164  1.00  0.00    -0.203 F 
ATOM     65  F   UNL A   1      42.080  23.049  26.414  1.00  0.00    -0.200 F 
ATOM     66  C   UNL A   1      43.442  24.833  25.683  1.00  0.00     0.200 A 
ATOM     67  F   UNL A   1      44.801  26.640  24.999  1.00  0.00    -0.200 F 
ATOM     68  F   UNL A   1      43.837  24.117  24.622  1.00  0.00    -0.200 F 
ENDBRANCH  44  58
BRANCH  45  69
ATOM     69  C   UNL A   1      39.335  31.878  35.519  1.00  0.00     0.064 A 
ATOM     70  C   UNL A   1      38.461  31.347  36.477  1.00  0.00     0.173 A 
ATOM     71  C   UNL A   1      39.748  33.209  35.675  1.00  0.00     0.173 A 
ATOM     72  F   UNL A   1      38.014  30.089  36.352  1.00  0.00    -0.203 F 
ATOM     73  C   UNL A   1      38.020  32.117  37.551  1.00  0.00     0.198 A 
ATOM     74  C   UNL A   1      39.329  33.968  36.766  1.00  0.00     0.198 A 
ATOM     75  F   UNL A   1      40.579  33.764  34.782  1.00  0.00    -0.203 F 
ATOM     76  F   UNL A   1      37.160  31.596  38.437  1.00  0.00    -0.200 F 
ATOM     77  C   UNL A   1      38.462  33.423  37.701  1.00  0.00     0.200 A 
ATOM     78  F   UNL A   1      39.769  35.225  36.912  1.00  0.00    -0.200 F 
ATOM     79  F   UNL A   1      38.049  34.158  38.742  1.00  0.00    -0.200 F 
ENDBRANCH  45  69
BRANCH  57  80
ATOM     80  C   UNL A   1      44.681  27.493  34.735  1.00  0.00     0.064 A 
ATOM     81  C   UNL A   1      44.529  26.341  35.519  1.00  0.00     0.173 A 
ATOM     82  C   UNL A   1      45.887  28.202  34.830  1.00  0.00     0.173 A 
ATOM     83  F   UNL A   1      43.386  25.640  35.476  1.00  0.00    -0.203 F 
ATOM     84  C   UNL A   1      45.541  25.927  36.383  1.00  0.00     0.198 A 
ATOM     85  C   UNL A   1      46.905  27.773  35.675  1.00  0.00     0.198 A 
ATOM     86  F   UNL A   1      46.080  29.310  34.097  1.00  0.00    -0.203 F 
ATOM     87  F   UNL A   1      45.359  24.847  37.155  1.00  0.00    -0.200 F 
ATOM     88  C   UNL A   1      46.728  26.639  36.455  1.00  0.00     0.200 A 
ATOM     89  F   UNL A   1      48.055  28.457  35.740  1.00  0.00    -0.200 F 
ATOM     90  F   UNL A   1      47.702  26.238  37.286  1.00  0.00    -0.200 F 
ENDBRANCH  57  80
ENDBRANCH  31  32
ENDBRANCH  24  26
ENDBRANCH  23  24
ENDBRANCH  22  23
ENDBRANCH   1  22
TORSDOF 13
ENDMDL
MODEL 3
REMARK VINA RESULT:     -12.0      1.051      2.283
REMARK SMILES NC(=O)[C@@H]1CCCCN1c1cncc(C(=O)OCCOC(=O)c2ccc(-c3c4nc(c(-c5c(F)c(F)c(F)c(F)c5F)c5ccc([nH]5)c(-c5c(F)c(F)c(F)c(F)c5F)c5nc(c(-c6c(F)c(F)c(F)c(F)c6F)c6ccc3[nH]6)C=C5)C=C4)cc2)n1
REMARK SMILES IDX 18 1 17 2 15 3 16 4 14 5 10 6 11 7 86 8 12 9 13 10 9 11 4 12
REMARK SMILES IDX 5 13 6 14 8 15 7 16 2 17 1 18 3 21 19 22 20 23 21 24 22 25
REMARK SMILES IDX 23 26 24 27 85 28 25 29 84 30 26 31 27 32 28 33 78 34 29 35
REMARK SMILES IDX 83 36 77 37 79 38 30 39 82 40 76 41 75 42 31 44 63 45 43 46
REMARK SMILES IDX 62 47 44 48 47 49 61 50 80 51 45 52 46 53 60 55 81 56 48 57
REMARK SMILES IDX 32 58 33 59 41 60 34 61 35 62 39 63 42 64 36 65 37 66 40 67
REMARK SMILES IDX 38 68 64 69 65 70 73 71 66 72 67 73 71 74 74 75 68 76 69 77
REMARK SMILES IDX 72 78 70 79 49 80 50 81 58 82 51 83 52 84 56 85 59 86 53 87
REMARK SMILES IDX 54 88 57 89 55 90
REMARK H PARENT 1 19 1 20 79 43 47 54
REMARK Flexibility Score: inf
ROOT
ATOM      1  C   UNL A   1      31.748  29.453  24.421  1.00  0.00     0.275 C 
ENDROOT
BRANCH   1   2
ATOM      2  O   UNL A   1      30.463  28.891  24.083  1.00  0.00    -0.457 OA
BRANCH   2   3
ATOM      3  C   UNL A   1      30.482  27.852  23.209  1.00  0.00     0.358 C 
ATOM      4  O   UNL A   1      30.278  27.910  22.007  1.00  0.00    -0.244 OA
BRANCH   3   5
ATOM      5  C   UNL A   1      30.925  26.607  23.875  1.00  0.00     0.169 A 
ATOM      6  C   UNL A   1      32.522  24.998  24.271  1.00  0.00     0.148 A 
ATOM      7  C   UNL A   1      31.639  24.426  25.204  1.00  0.00     0.157 A 
ATOM      8  N   UNL A   1      32.139  26.082  23.565  1.00  0.00    -0.220 NA
ATOM      9  N   UNL A   1      30.425  24.933  25.520  1.00  0.00    -0.258 NA
ATOM     10  C   UNL A   1      30.107  26.061  24.854  1.00  0.00     0.147 A 
BRANCH   6  11
ATOM     11  N   UNL A   1      33.822  24.533  24.170  1.00  0.00    -0.343 N 
ATOM     12  C   UNL A   1      34.168  23.405  23.267  1.00  0.00     0.172 C 
ATOM     13  C   UNL A   1      34.285  22.101  24.056  1.00  0.00     0.035 C 
ATOM     14  C   UNL A   1      35.264  22.268  25.217  1.00  0.00     0.004 C 
ATOM     15  C   UNL A   1      34.701  24.726  25.326  1.00  0.00     0.119 C 
ATOM     16  C   UNL A   1      34.834  23.424  26.118  1.00  0.00     0.022 C 
BRANCH  12  17
ATOM     17  C   UNL A   1      33.270  23.256  22.017  1.00  0.00     0.240 C 
ATOM     18  N   UNL A   1      32.347  22.243  22.079  1.00  0.00    -0.368 N 
ATOM     19  H   UNL A   1      31.738  22.085  21.321  1.00  0.00     0.159 HD
ATOM     20  H   UNL A   1      32.292  21.675  22.881  1.00  0.00     0.159 HD
ATOM     21  O   UNL A   1      33.279  24.016  21.051  1.00  0.00    -0.273 OA
ENDBRANCH  12  17
ENDBRANCH   6  11
ENDBRANCH   3   5
ENDBRANCH   2   3
ENDBRANCH   1   2
BRANCH   1  22
ATOM     22  C   UNL A   1      31.666  30.282  25.702  1.00  0.00     0.275 C 
BRANCH  22  23
ATOM     23  O   UNL A   1      32.867  30.100  26.475  1.00  0.00    -0.458 OA
BRANCH  23  24
ATOM     24  C   UNL A   1      33.338  31.193  27.111  1.00  0.00     0.338 C 
ATOM     25  O   UNL A   1      32.785  32.273  27.252  1.00  0.00    -0.246 OA
BRANCH  24  26
ATOM     26  C   UNL A   1      34.669  30.906  27.677  1.00  0.00     0.060 A 
ATOM     27  C   UNL A   1      35.014  29.592  27.981  1.00  0.00     0.016 A 
ATOM     28  C   UNL A   1      35.521  31.947  28.035  1.00  0.00     0.016 A 
ATOM     29  C   UNL A   1      36.147  29.320  28.744  1.00  0.00     0.010 A 
ATOM     30  C   UNL A   1      36.721  31.662  28.699  1.00  0.00     0.010 A 
ATOM     31  C   UNL A   1      37.028  30.349  29.103  1.00  0.00    -0.014 A 
BRANCH  31  32
ATOM     32  C   UNL A   1      38.235  30.063  29.934  1.00  0.00     0.031 A 
ATOM     33  C   UNL A   1      39.370  29.248  29.367  1.00  0.00     0.074 A 
ATOM     34  C   UNL A   1      38.338  30.541  31.191  1.00  0.00     0.049 A 
ATOM     35  N   UNL A   1      40.407  28.728  29.977  1.00  0.00    -0.248 NA
ATOM     36  C   UNL A   1      39.324  28.966  27.924  1.00  0.00     0.031 C 
ATOM     37  C   UNL A   1      37.353  31.390  31.861  1.00  0.00     0.029 A 
ATOM     38  N   UNL A   1      39.333  30.392  32.128  1.00  0.00    -0.354 N 
ATOM     39  C   UNL A   1      41.087  27.995  29.012  1.00  0.00     0.074 A 
ATOM     40  C   UNL A   1      40.355  28.147  27.773  1.00  0.00     0.031 C 
ATOM     41  C   UNL A   1      37.816  31.734  33.072  1.00  0.00     0.029 A 
ATOM     42  C   UNL A   1      39.083  31.050  33.307  1.00  0.00     0.049 A 
ATOM     43  H   UNL A   1      40.148  29.862  31.969  1.00  0.00     0.167 HD
ATOM     44  C   UNL A   1      42.216  27.258  29.151  1.00  0.00     0.037 A 
ATOM     45  C   UNL A   1      39.770  31.072  34.465  1.00  0.00     0.037 A 
ATOM     46  C   UNL A   1      42.992  27.180  30.361  1.00  0.00     0.049 A 
ATOM     47  C   UNL A   1      41.010  30.236  34.600  1.00  0.00     0.074 A 
ATOM     48  C   UNL A   1      44.174  26.494  30.585  1.00  0.00     0.029 A 
ATOM     49  N   UNL A   1      42.675  27.826  31.545  1.00  0.00    -0.354 N 
ATOM     50  N   UNL A   1      41.606  29.490  33.704  1.00  0.00    -0.248 NA
ATOM     51  C   UNL A   1      41.654  30.221  35.921  1.00  0.00     0.031 C 
ATOM     52  C   UNL A   1      44.556  26.700  31.917  1.00  0.00     0.029 A 
ATOM     53  C   UNL A   1      43.631  27.544  32.509  1.00  0.00     0.049 A 
ATOM     54  H   UNL A   1      41.888  28.401  31.682  1.00  0.00     0.167 HD
ATOM     55  C   UNL A   1      42.697  28.922  34.347  1.00  0.00     0.074 A 
ATOM     56  C   UNL A   1      42.693  29.425  35.705  1.00  0.00     0.031 C 
ATOM     57  C   UNL A   1      43.614  28.054  33.856  1.00  0.00     0.037 A 
BRANCH  44  58
ATOM     58  C   UNL A   1      42.659  26.437  27.975  1.00  0.00     0.064 A 
ATOM     59  C   UNL A   1      42.215  25.124  27.767  1.00  0.00     0.173 A 
ATOM     60  C   UNL A   1      43.523  26.998  27.019  1.00  0.00     0.173 A 
ATOM     61  F   UNL A   1      41.399  24.539  28.656  1.00  0.00    -0.203 F 
ATOM     62  C   UNL A   1      42.642  24.392  26.660  1.00  0.00     0.198 A 
ATOM     63  C   UNL A   1      43.925  26.273  25.902  1.00  0.00     0.198 A 
ATOM     64  F   UNL A   1      43.971  28.254  27.167  1.00  0.00    -0.203 F 
ATOM     65  F   UNL A   1      42.242  23.122  26.504  1.00  0.00    -0.200 F 
ATOM     66  C   UNL A   1      43.490  24.968  25.726  1.00  0.00     0.200 A 
ATOM     67  F   UNL A   1      44.735  26.837  24.994  1.00  0.00    -0.200 F 
ATOM     68  F   UNL A   1      43.895  24.264  24.661  1.00  0.00    -0.200 F 
ENDBRANCH  44  58
BRANCH  45  69
ATOM     69  C   UNL A   1      39.275  31.891  35.602  1.00  0.00     0.064 A 
ATOM     70  C   UNL A   1      39.667  33.228  35.744  1.00  0.00     0.173 A 
ATOM     71  C   UNL A   1      38.393  31.363  36.556  1.00  0.00     0.173 A 
ATOM     72  F   UNL A   1      40.533  33.768  34.875  1.00  0.00    -0.203 F 
ATOM     73  C   UNL A   1      39.194  34.008  36.798  1.00  0.00     0.198 A 
ATOM     74  C   UNL A   1      37.898  32.151  37.593  1.00  0.00     0.198 A 
ATOM     75  F   UNL A   1      37.992  30.086  36.467  1.00  0.00    -0.203 F 
ATOM     76  F   UNL A   1      39.608  35.275  36.930  1.00  0.00    -0.200 F 
ATOM     77  C   UNL A   1      38.302  33.472  37.715  1.00  0.00     0.200 A 
ATOM     78  F   UNL A   1      37.026  31.632  38.469  1.00  0.00    -0.200 F 
ATOM     79  F   UNL A   1      37.836  34.226  38.720  1.00  0.00    -0.200 F 
ENDBRANCH  45  69
BRANCH  57  80
ATOM     80  C   UNL A   1      44.704  27.615  34.787  1.00  0.00     0.064 A 
ATOM     81  C   UNL A   1      44.577  26.455  35.566  1.00  0.00     0.173 A 
ATOM     82  C   UNL A   1      45.896  28.347  34.882  1.00  0.00     0.173 A 
ATOM     83  F   UNL A   1      43.448  25.733  35.523  1.00  0.00    -0.203 F 
ATOM     84  C   UNL A   1      45.598  26.058  36.425  1.00  0.00     0.198 A 
ATOM     85  C   UNL A   1      46.924  27.934  35.724  1.00  0.00     0.198 A 
ATOM     86  F   UNL A   1      46.065  29.461  34.154  1.00  0.00    -0.203 F 
ATOM     87  F   UNL A   1      45.440  24.971  37.193  1.00  0.00    -0.200 F 
ATOM     88  C   UNL A   1      46.771  26.793  36.499  1.00  0.00     0.200 A 
ATOM     89  F   UNL A   1      48.061  28.640  35.789  1.00  0.00    -0.200 F 
ATOM     90  F   UNL A   1      47.755  26.408  37.325  1.00  0.00    -0.200 F 
ENDBRANCH  57  80
ENDBRANCH  31  32
ENDBRANCH  24  26
ENDBRANCH  23  24
ENDBRANCH  22  23
ENDBRANCH   1  22
TORSDOF 13
ENDMDL
