MODEL 1
REMARK VINA RESULT:     -12.3      0.000      0.000
REMARK SMILES CCc1cccc(CC)c1NC(=O)C[C@@](C)(C(=O)OCCOC(=O)c1ccc(-c2c3nc(c(-c4c(F)c(F)c(F)c(F)c4F)c4ccc([nH]4)c(-c4c(F)c(F)c(F)c(F)c4F)c4nc(c(-c5c(F)c(F)c(F)c(F)c5F)c5ccc2[nH]5)C=C4)C=C3)cc1)c1ccccc1
REMARK SMILES IDX 20 1 19 2 17 3 18 4 15 5 16 6 14 7 12 8 11 9 13 11 10 12
REMARK SMILES IDX 3 13 4 14 5 15 7 16 6 17 2 18 1 19 8 20 9 21 88 22 89 23
REMARK SMILES IDX 93 24 90 25 92 26 91 27 21 28 22 29 23 30 24 31 25 32 26 33
REMARK SMILES IDX 87 34 27 35 86 36 28 37 29 38 30 39 80 40 31 41 85 42 79 43
REMARK SMILES IDX 81 44 32 45 84 46 78 47 77 48 33 50 65 51 45 52 64 53 46 54
REMARK SMILES IDX 49 55 63 56 82 57 47 58 48 59 62 61 83 62 50 63 34 64 35 65
REMARK SMILES IDX 43 66 36 67 37 68 41 69 44 70 38 71 39 72 42 73 40 74 66 75
REMARK SMILES IDX 67 76 75 77 68 78 69 79 73 80 76 81 70 82 71 83 74 84 72 85
REMARK SMILES IDX 51 86 52 87 60 88 53 89 54 90 58 91 61 92 55 93 56 94 59 95
REMARK SMILES IDX 57 96
REMARK H PARENT 11 10 81 49 49 60
REMARK Flexibility Score: inf
ROOT
ATOM      1  C   UNL A   1      32.481  29.328  25.135  1.00  0.00     0.274 C 
ENDROOT
BRANCH   1   2
ATOM      2  O   UNL A   1      31.614  28.199  24.878  1.00  0.00    -0.461 OA
BRANCH   2   3
ATOM      3  C   UNL A   1      31.698  27.136  25.734  1.00  0.00     0.316 C 
ATOM      4  O   UNL A   1      31.178  27.125  26.845  1.00  0.00    -0.251 OA
BRANCH   3   5
ATOM      5  C   UNL A   1      32.570  25.977  25.179  1.00  0.00     0.099 C 
ATOM      6  C   UNL A   1      34.009  26.351  25.612  1.00  0.00     0.029 C 
BRANCH   5   7
ATOM      7  C   UNL A   1      32.438  25.954  23.627  1.00  0.00     0.123 C 
BRANCH   7   8
ATOM      8  C   UNL A   1      33.571  25.413  22.813  1.00  0.00     0.225 C 
ATOM      9  N   UNL A   1      34.114  24.183  22.841  1.00  0.00    -0.326 N 
ATOM     10  H   UNL A   1      34.794  24.152  22.129  1.00  0.00     0.169 HD
ATOM     11  O   UNL A   1      34.076  26.169  21.965  1.00  0.00    -0.275 OA
BRANCH   9  12
ATOM     12  C   UNL A   1      34.114  22.911  23.470  1.00  0.00     0.047 A 
ATOM     13  C   UNL A   1      35.249  22.728  24.349  1.00  0.00    -0.024 A 
ATOM     14  C   UNL A   1      35.349  21.589  25.166  1.00  0.00     0.006 A 
ATOM     15  C   UNL A   1      34.377  20.612  25.140  1.00  0.00     0.001 A 
ATOM     16  C   UNL A   1      33.158  21.868  23.404  1.00  0.00    -0.024 A 
ATOM     17  C   UNL A   1      33.308  20.755  24.275  1.00  0.00     0.006 A 
BRANCH  13  18
ATOM     18  C   UNL A   1      36.388  23.754  24.390  1.00  0.00     0.034 C 
ATOM     19  C   UNL A   1      37.279  23.789  25.627  1.00  0.00     0.009 C 
ENDBRANCH  13  18
BRANCH  16  20
ATOM     20  C   UNL A   1      31.894  21.777  22.586  1.00  0.00     0.034 C 
ATOM     21  C   UNL A   1      31.812  20.510  21.723  1.00  0.00     0.009 C 
ENDBRANCH  16  20
ENDBRANCH   9  12
ENDBRANCH   7   8
ENDBRANCH   5   7
BRANCH   5  22
ATOM     22  C   UNL A   1      32.156  24.616  25.807  1.00  0.00    -0.030 A 
ATOM     23  C   UNL A   1      30.961  23.950  25.459  1.00  0.00     0.005 A 
ATOM     24  C   UNL A   1      32.959  23.995  26.783  1.00  0.00     0.005 A 
ATOM     25  C   UNL A   1      30.576  22.748  26.065  1.00  0.00     0.000 A 
ATOM     26  C   UNL A   1      32.562  22.804  27.407  1.00  0.00     0.000 A 
ATOM     27  C   UNL A   1      31.374  22.178  27.046  1.00  0.00     0.000 A 
ENDBRANCH   5  22
ENDBRANCH   3   5
ENDBRANCH   2   3
ENDBRANCH   1   2
BRANCH   1  28
ATOM     28  C   UNL A   1      31.795  30.376  26.000  1.00  0.00     0.275 C 
BRANCH  28  29
ATOM     29  O   UNL A   1      32.546  30.485  27.211  1.00  0.00    -0.458 OA
BRANCH  29  30
ATOM     30  C   UNL A   1      33.251  31.622  27.364  1.00  0.00     0.338 C 
ATOM     31  O   UNL A   1      32.825  32.771  27.350  1.00  0.00    -0.246 OA
BRANCH  30  32
ATOM     32  C   UNL A   1      34.645  31.276  27.691  1.00  0.00     0.060 A 
ATOM     33  C   UNL A   1      34.981  29.942  27.924  1.00  0.00     0.016 A 
ATOM     34  C   UNL A   1      35.573  32.282  27.944  1.00  0.00     0.016 A 
ATOM     35  C   UNL A   1      36.178  29.620  28.547  1.00  0.00     0.010 A 
ATOM     36  C   UNL A   1      36.822  31.944  28.474  1.00  0.00     0.010 A 
ATOM     37  C   UNL A   1      37.108  30.619  28.853  1.00  0.00    -0.014 A 
BRANCH  37  38
ATOM     38  C   UNL A   1      38.291  30.315  29.704  1.00  0.00     0.031 A 
ATOM     39  C   UNL A   1      39.407  29.480  29.129  1.00  0.00     0.074 A 
ATOM     40  C   UNL A   1      38.425  30.815  30.947  1.00  0.00     0.049 A 
ATOM     41  N   UNL A   1      40.383  28.859  29.741  1.00  0.00    -0.248 NA
ATOM     42  C   UNL A   1      39.417  29.309  27.667  1.00  0.00     0.031 C 
ATOM     43  C   UNL A   1      37.493  31.729  31.607  1.00  0.00     0.029 A 
ATOM     44  N   UNL A   1      39.419  30.628  31.877  1.00  0.00    -0.354 N 
ATOM     45  C   UNL A   1      41.053  28.147  28.754  1.00  0.00     0.074 A 
ATOM     46  C   UNL A   1      40.403  28.442  27.497  1.00  0.00     0.031 C 
ATOM     47  C   UNL A   1      37.983  32.064  32.810  1.00  0.00     0.029 A 
ATOM     48  C   UNL A   1      39.201  31.300  33.054  1.00  0.00     0.049 A 
ATOM     49  H   UNL A   1      40.210  30.066  31.715  1.00  0.00     0.167 HD
ATOM     50  C   UNL A   1      42.101  27.303  28.895  1.00  0.00     0.037 A 
ATOM     51  C   UNL A   1      39.873  31.261  34.220  1.00  0.00     0.037 A 
ATOM     52  C   UNL A   1      42.791  27.079  30.137  1.00  0.00     0.049 A 
ATOM     53  C   UNL A   1      41.039  30.321  34.360  1.00  0.00     0.074 A 
ATOM     54  C   UNL A   1      43.842  26.220  30.404  1.00  0.00     0.029 A 
ATOM     55  N   UNL A   1      42.517  27.758  31.315  1.00  0.00    -0.354 N 
ATOM     56  N   UNL A   1      41.567  29.519  33.468  1.00  0.00    -0.248 NA
ATOM     57  C   UNL A   1      41.676  30.255  35.682  1.00  0.00     0.031 C 
ATOM     58  C   UNL A   1      44.196  26.370  31.751  1.00  0.00     0.029 A 
ATOM     59  C   UNL A   1      43.387  27.346  32.310  1.00  0.00     0.049 A 
ATOM     60  H   UNL A   1      41.809  28.432  31.427  1.00  0.00     0.167 HD
ATOM     61  C   UNL A   1      42.587  28.842  34.121  1.00  0.00     0.074 A 
ATOM     62  C   UNL A   1      42.629  29.355  35.475  1.00  0.00     0.031 C 
ATOM     63  C   UNL A   1      43.404  27.869  33.650  1.00  0.00     0.037 A 
BRANCH  50  64
ATOM     64  C   UNL A   1      42.524  26.518  27.691  1.00  0.00     0.064 A 
ATOM     65  C   UNL A   1      43.531  26.959  26.825  1.00  0.00     0.173 A 
ATOM     66  C   UNL A   1      41.910  25.285  27.413  1.00  0.00     0.173 A 
ATOM     67  F   UNL A   1      44.130  28.141  27.034  1.00  0.00    -0.203 F 
ATOM     68  C   UNL A   1      43.899  26.204  25.712  1.00  0.00     0.198 A 
ATOM     69  C   UNL A   1      42.295  24.523  26.315  1.00  0.00     0.198 A 
ATOM     70  F   UNL A   1      40.936  24.820  28.211  1.00  0.00    -0.203 F 
ATOM     71  F   UNL A   1      44.837  26.665  24.873  1.00  0.00    -0.200 F 
ATOM     72  C   UNL A   1      43.286  24.985  25.463  1.00  0.00     0.200 A 
ATOM     73  F   UNL A   1      41.706  23.342  26.080  1.00  0.00    -0.200 F 
ATOM     74  F   UNL A   1      43.645  24.259  24.395  1.00  0.00    -0.200 F 
ENDBRANCH  50  64
BRANCH  51  75
ATOM     75  C   UNL A   1      39.414  32.085  35.366  1.00  0.00     0.064 A 
ATOM     76  C   UNL A   1      38.544  31.557  36.330  1.00  0.00     0.173 A 
ATOM     77  C   UNL A   1      39.844  33.411  35.531  1.00  0.00     0.173 A 
ATOM     78  F   UNL A   1      38.081  30.305  36.198  1.00  0.00    -0.203 F 
ATOM     79  C   UNL A   1      38.122  32.325  37.414  1.00  0.00     0.198 A 
ATOM     80  C   UNL A   1      39.445  34.167  36.630  1.00  0.00     0.198 A 
ATOM     81  F   UNL A   1      40.672  33.965  34.632  1.00  0.00    -0.203 F 
ATOM     82  F   UNL A   1      37.262  31.808  38.302  1.00  0.00    -0.200 F 
ATOM     83  C   UNL A   1      38.581  33.624  37.568  1.00  0.00     0.200 A 
ATOM     84  F   UNL A   1      39.902  35.417  36.781  1.00  0.00    -0.200 F 
ATOM     85  F   UNL A   1      38.184  34.357  38.618  1.00  0.00    -0.200 F 
ENDBRANCH  51  75
BRANCH  63  86
ATOM     86  C   UNL A   1      44.413  27.312  34.605  1.00  0.00     0.064 A 
ATOM     87  C   UNL A   1      45.673  27.910  34.761  1.00  0.00     0.173 A 
ATOM     88  C   UNL A   1      44.112  26.186  35.383  1.00  0.00     0.173 A 
ATOM     89  F   UNL A   1      46.009  28.979  34.026  1.00  0.00    -0.203 F 
ATOM     90  C   UNL A   1      46.605  27.382  35.650  1.00  0.00     0.198 A 
ATOM     91  C   UNL A   1      45.040  25.674  36.284  1.00  0.00     0.198 A 
ATOM     92  F   UNL A   1      42.919  25.585  35.268  1.00  0.00    -0.203 F 
ATOM     93  F   UNL A   1      47.818  27.941  35.755  1.00  0.00    -0.200 F 
ATOM     94  C   UNL A   1      46.287  26.269  36.413  1.00  0.00     0.200 A 
ATOM     95  F   UNL A   1      44.729  24.601  37.026  1.00  0.00    -0.200 F 
ATOM     96  F   UNL A   1      47.187  25.760  37.266  1.00  0.00    -0.200 F 
ENDBRANCH  63  86
ENDBRANCH  37  38
ENDBRANCH  30  32
ENDBRANCH  29  30
ENDBRANCH  28  29
ENDBRANCH   1  28
TORSDOF 17
ENDMDL
MODEL 2
REMARK VINA RESULT:     -12.2      0.142      1.976
REMARK SMILES CCc1cccc(CC)c1NC(=O)C[C@@](C)(C(=O)OCCOC(=O)c1ccc(-c2c3nc(c(-c4c(F)c(F)c(F)c(F)c4F)c4ccc([nH]4)c(-c4c(F)c(F)c(F)c(F)c4F)c4nc(c(-c5c(F)c(F)c(F)c(F)c5F)c5ccc2[nH]5)C=C4)C=C3)cc1)c1ccccc1
REMARK SMILES IDX 20 1 19 2 17 3 18 4 15 5 16 6 14 7 12 8 11 9 13 11 10 12
REMARK SMILES IDX 3 13 4 14 5 15 7 16 6 17 2 18 1 19 8 20 9 21 88 22 89 23
REMARK SMILES IDX 93 24 90 25 92 26 91 27 21 28 22 29 23 30 24 31 25 32 26 33
REMARK SMILES IDX 87 34 27 35 86 36 28 37 29 38 30 39 80 40 31 41 85 42 79 43
REMARK SMILES IDX 81 44 32 45 84 46 78 47 77 48 33 50 65 51 45 52 64 53 46 54
REMARK SMILES IDX 49 55 63 56 82 57 47 58 48 59 62 61 83 62 50 63 34 64 35 65
REMARK SMILES IDX 43 66 36 67 37 68 41 69 44 70 38 71 39 72 42 73 40 74 66 75
REMARK SMILES IDX 67 76 75 77 68 78 69 79 73 80 76 81 70 82 71 83 74 84 72 85
REMARK SMILES IDX 51 86 52 87 60 88 53 89 54 90 58 91 61 92 55 93 56 94 59 95
REMARK SMILES IDX 57 96
REMARK H PARENT 11 10 81 49 49 60
REMARK Flexibility Score: inf
ROOT
ATOM      1  C   UNL A   1      32.319  29.317  24.934  1.00  0.00     0.274 C 
ENDROOT
BRANCH   1   2
ATOM      2  O   UNL A   1      31.462  28.160  24.797  1.00  0.00    -0.461 OA
BRANCH   2   3
ATOM      3  C   UNL A   1      31.620  27.151  25.706  1.00  0.00     0.316 C 
ATOM      4  O   UNL A   1      31.143  27.183  26.837  1.00  0.00    -0.251 OA
BRANCH   3   5
ATOM      5  C   UNL A   1      32.515  25.995  25.183  1.00  0.00     0.099 C 
ATOM      6  C   UNL A   1      33.945  26.405  25.614  1.00  0.00     0.029 C 
BRANCH   5   7
ATOM      7  C   UNL A   1      32.391  25.935  23.631  1.00  0.00     0.123 C 
BRANCH   7   8
ATOM      8  C   UNL A   1      33.546  25.416  22.833  1.00  0.00     0.225 C 
ATOM      9  N   UNL A   1      34.095  24.187  22.849  1.00  0.00    -0.326 N 
ATOM     10  H   UNL A   1      34.792  24.174  22.153  1.00  0.00     0.169 HD
ATOM     11  O   UNL A   1      34.068  26.191  22.013  1.00  0.00    -0.275 OA
BRANCH   9  12
ATOM     12  C   UNL A   1      34.086  22.903  23.451  1.00  0.00     0.047 A 
ATOM     13  C   UNL A   1      35.175  22.722  24.386  1.00  0.00    -0.024 A 
ATOM     14  C   UNL A   1      35.253  21.568  25.184  1.00  0.00     0.006 A 
ATOM     15  C   UNL A   1      34.303  20.574  25.086  1.00  0.00     0.001 A 
ATOM     16  C   UNL A   1      33.154  21.845  23.312  1.00  0.00    -0.024 A 
ATOM     17  C   UNL A   1      33.279  20.716  24.168  1.00  0.00     0.006 A 
BRANCH  13  18
ATOM     18  C   UNL A   1      36.290  23.767  24.508  1.00  0.00     0.034 C 
ATOM     19  C   UNL A   1      37.054  23.852  25.826  1.00  0.00     0.009 C 
ENDBRANCH  13  18
BRANCH  16  20
ATOM     20  C   UNL A   1      31.937  21.748  22.426  1.00  0.00     0.034 C 
ATOM     21  C   UNL A   1      31.800  20.392  21.720  1.00  0.00     0.009 C 
ENDBRANCH  16  20
ENDBRANCH   9  12
ENDBRANCH   7   8
ENDBRANCH   5   7
BRANCH   5  22
ATOM     22  C   UNL A   1      32.123  24.641  25.839  1.00  0.00    -0.030 A 
ATOM     23  C   UNL A   1      32.897  24.036  26.853  1.00  0.00     0.005 A 
ATOM     24  C   UNL A   1      30.974  23.942  25.424  1.00  0.00     0.005 A 
ATOM     25  C   UNL A   1      32.558  22.795  27.405  1.00  0.00     0.000 A 
ATOM     26  C   UNL A   1      30.649  22.687  25.960  1.00  0.00     0.000 A 
ATOM     27  C   UNL A   1      31.437  22.115  26.952  1.00  0.00     0.000 A 
ENDBRANCH   5  22
ENDBRANCH   3   5
ENDBRANCH   2   3
ENDBRANCH   1   2
BRANCH   1  28
ATOM     28  C   UNL A   1      31.751  30.319  25.930  1.00  0.00     0.275 C 
BRANCH  28  29
ATOM     29  O   UNL A   1      32.603  30.305  27.078  1.00  0.00    -0.458 OA
BRANCH  29  30
ATOM     30  C   UNL A   1      33.271  31.447  27.327  1.00  0.00     0.338 C 
ATOM     31  O   UNL A   1      32.811  32.581  27.391  1.00  0.00    -0.246 OA
BRANCH  30  32
ATOM     32  C   UNL A   1      34.670  31.119  27.652  1.00  0.00     0.060 A 
ATOM     33  C   UNL A   1      35.020  29.790  27.895  1.00  0.00     0.016 A 
ATOM     34  C   UNL A   1      35.588  32.136  27.891  1.00  0.00     0.016 A 
ATOM     35  C   UNL A   1      36.223  29.486  28.516  1.00  0.00     0.010 A 
ATOM     36  C   UNL A   1      36.843  31.816  28.418  1.00  0.00     0.010 A 
ATOM     37  C   UNL A   1      37.144  30.497  28.809  1.00  0.00    -0.014 A 
BRANCH  37  38
ATOM     38  C   UNL A   1      38.333  30.213  29.657  1.00  0.00     0.031 A 
ATOM     39  C   UNL A   1      39.449  29.371  29.090  1.00  0.00     0.074 A 
ATOM     40  C   UNL A   1      38.474  30.737  30.890  1.00  0.00     0.049 A 
ATOM     41  N   UNL A   1      40.430  28.764  29.707  1.00  0.00    -0.248 NA
ATOM     42  C   UNL A   1      39.449  29.172  27.631  1.00  0.00     0.031 C 
ATOM     43  C   UNL A   1      37.544  31.660  31.539  1.00  0.00     0.029 A 
ATOM     44  N   UNL A   1      39.475  30.570  31.816  1.00  0.00    -0.354 N 
ATOM     45  C   UNL A   1      41.096  28.037  28.729  1.00  0.00     0.074 A 
ATOM     46  C   UNL A   1      40.437  28.306  27.471  1.00  0.00     0.031 C 
ATOM     47  C   UNL A   1      38.040  32.019  32.732  1.00  0.00     0.029 A 
ATOM     48  C   UNL A   1      39.262  31.263  32.982  1.00  0.00     0.049 A 
ATOM     49  H   UNL A   1      40.267  30.008  31.659  1.00  0.00     0.167 HD
ATOM     50  C   UNL A   1      42.149  27.199  28.879  1.00  0.00     0.037 A 
ATOM     51  C   UNL A   1      39.943  31.248  34.144  1.00  0.00     0.037 A 
ATOM     52  C   UNL A   1      42.848  27.001  30.120  1.00  0.00     0.049 A 
ATOM     53  C   UNL A   1      41.113  30.315  34.293  1.00  0.00     0.074 A 
ATOM     54  C   UNL A   1      43.903  26.150  30.396  1.00  0.00     0.029 A 
ATOM     55  N   UNL A   1      42.579  27.700  31.287  1.00  0.00    -0.354 N 
ATOM     56  N   UNL A   1      41.637  29.498  33.413  1.00  0.00    -0.248 NA
ATOM     57  C   UNL A   1      41.759  30.276  35.612  1.00  0.00     0.031 C 
ATOM     58  C   UNL A   1      44.266  26.327  31.737  1.00  0.00     0.029 A 
ATOM     59  C   UNL A   1      43.457  27.310  32.284  1.00  0.00     0.049 A 
ATOM     60  H   UNL A   1      41.869  28.374  31.391  1.00  0.00     0.167 HD
ATOM     61  C   UNL A   1      42.664  28.837  34.072  1.00  0.00     0.074 A 
ATOM     62  C   UNL A   1      42.713  29.376  35.416  1.00  0.00     0.031 C 
ATOM     63  C   UNL A   1      43.482  27.858  33.613  1.00  0.00     0.037 A 
BRANCH  50  64
ATOM     64  C   UNL A   1      42.566  26.393  27.687  1.00  0.00     0.064 A 
ATOM     65  C   UNL A   1      41.985  25.156  27.379  1.00  0.00     0.173 A 
ATOM     66  C   UNL A   1      43.564  26.883  26.829  1.00  0.00     0.173 A 
ATOM     67  F   UNL A   1      41.046  24.634  28.182  1.00  0.00    -0.203 F 
ATOM     68  C   UNL A   1      42.398  24.430  26.263  1.00  0.00     0.198 A 
ATOM     69  C   UNL A   1      43.958  26.168  25.703  1.00  0.00     0.198 A 
ATOM     70  F   UNL A   1      44.154  28.062  27.083  1.00  0.00    -0.203 F 
ATOM     71  F   UNL A   1      41.858  23.230  26.009  1.00  0.00    -0.200 F 
ATOM     72  C   UNL A   1      43.378  24.940  25.423  1.00  0.00     0.200 A 
ATOM     73  F   UNL A   1      44.900  26.665  24.890  1.00  0.00    -0.200 F 
ATOM     74  F   UNL A   1      43.771  24.242  24.349  1.00  0.00    -0.200 F 
ENDBRANCH  50  64
BRANCH  51  75
ATOM     75  C   UNL A   1      39.488  32.092  35.278  1.00  0.00     0.064 A 
ATOM     76  C   UNL A   1      39.920  33.420  35.404  1.00  0.00     0.173 A 
ATOM     77  C   UNL A   1      38.605  31.597  36.249  1.00  0.00     0.173 A 
ATOM     78  F   UNL A   1      40.789  33.928  34.519  1.00  0.00    -0.203 F 
ATOM     79  C   UNL A   1      39.485  34.218  36.461  1.00  0.00     0.198 A 
ATOM     80  C   UNL A   1      38.148  32.405  37.287  1.00  0.00     0.198 A 
ATOM     81  F   UNL A   1      38.167  30.330  36.176  1.00  0.00    -0.203 F 
ATOM     82  F   UNL A   1      39.940  35.473  36.580  1.00  0.00    -0.200 F 
ATOM     83  C   UNL A   1      38.592  33.713  37.394  1.00  0.00     0.200 A 
ATOM     84  F   UNL A   1      37.275  31.916  38.178  1.00  0.00    -0.200 F 
ATOM     85  F   UNL A   1      38.165  34.487  38.402  1.00  0.00    -0.200 F 
ENDBRANCH  51  75
BRANCH  63  86
ATOM     86  C   UNL A   1      44.499  27.322  34.572  1.00  0.00     0.064 A 
ATOM     87  C   UNL A   1      44.198  26.250  35.425  1.00  0.00     0.173 A 
ATOM     88  C   UNL A   1      45.788  27.869  34.622  1.00  0.00     0.173 A 
ATOM     89  F   UNL A   1      42.972  25.707  35.422  1.00  0.00    -0.203 F 
ATOM     90  C   UNL A   1      45.150  25.761  36.315  1.00  0.00     0.198 A 
ATOM     91  C   UNL A   1      46.743  27.364  35.499  1.00  0.00     0.198 A 
ATOM     92  F   UNL A   1      46.120  28.892  33.821  1.00  0.00    -0.203 F 
ATOM     93  F   UNL A   1      44.832  24.764  37.152  1.00  0.00    -0.200 F 
ATOM     94  C   UNL A   1      46.421  26.314  36.348  1.00  0.00     0.200 A 
ATOM     95  F   UNL A   1      47.973  27.895  35.526  1.00  0.00    -0.200 F 
ATOM     96  F   UNL A   1      47.336  25.844  37.207  1.00  0.00    -0.200 F 
ENDBRANCH  63  86
ENDBRANCH  37  38
ENDBRANCH  30  32
ENDBRANCH  29  30
ENDBRANCH  28  29
ENDBRANCH   1  28
TORSDOF 17
ENDMDL
MODEL 3
REMARK VINA RESULT:     -12.1      0.249      2.181
REMARK SMILES CCc1cccc(CC)c1NC(=O)C[C@@](C)(C(=O)OCCOC(=O)c1ccc(-c2c3nc(c(-c4c(F)c(F)c(F)c(F)c4F)c4ccc([nH]4)c(-c4c(F)c(F)c(F)c(F)c4F)c4nc(c(-c5c(F)c(F)c(F)c(F)c5F)c5ccc2[nH]5)C=C4)C=C3)cc1)c1ccccc1
REMARK SMILES IDX 20 1 19 2 17 3 18 4 15 5 16 6 14 7 12 8 11 9 13 11 10 12
REMARK SMILES IDX 3 13 4 14 5 15 7 16 6 17 2 18 1 19 8 20 9 21 88 22 89 23
REMARK SMILES IDX 93 24 90 25 92 26 91 27 21 28 22 29 23 30 24 31 25 32 26 33
REMARK SMILES IDX 87 34 27 35 86 36 28 37 29 38 30 39 80 40 31 41 85 42 79 43
REMARK SMILES IDX 81 44 32 45 84 46 78 47 77 48 33 50 65 51 45 52 64 53 46 54
REMARK SMILES IDX 49 55 63 56 82 57 47 58 48 59 62 61 83 62 50 63 34 64 35 65
REMARK SMILES IDX 43 66 36 67 37 68 41 69 44 70 38 71 39 72 42 73 40 74 66 75
REMARK SMILES IDX 67 76 75 77 68 78 69 79 73 80 76 81 70 82 71 83 74 84 72 85
REMARK SMILES IDX 51 86 52 87 60 88 53 89 54 90 58 91 61 92 55 93 56 94 59 95
REMARK SMILES IDX 57 96
REMARK H PARENT 11 10 81 49 49 60
REMARK Flexibility Score: inf
ROOT
ATOM      1  C   UNL A   1      32.343  29.330  24.916  1.00  0.00     0.274 C 
ENDROOT
BRANCH   1   2
ATOM      2  O   UNL A   1      31.504  28.165  24.743  1.00  0.00    -0.461 OA
BRANCH   2   3
ATOM      3  C   UNL A   1      31.629  27.158  25.660  1.00  0.00     0.316 C 
ATOM      4  O   UNL A   1      31.125  27.202  26.778  1.00  0.00    -0.251 OA
BRANCH   3   5
ATOM      5  C   UNL A   1      32.525  25.991  25.164  1.00  0.00     0.099 C 
ATOM      6  C   UNL A   1      33.954  26.409  25.593  1.00  0.00     0.029 C 
BRANCH   5   7
ATOM      7  C   UNL A   1      32.408  25.899  23.614  1.00  0.00     0.123 C 
BRANCH   7   8
ATOM      8  C   UNL A   1      33.576  25.389  22.829  1.00  0.00     0.225 C 
ATOM      9  N   UNL A   1      34.318  24.288  23.046  1.00  0.00    -0.326 N 
ATOM     10  H   UNL A   1      34.960  24.222  22.301  1.00  0.00     0.169 HD
ATOM     11  O   UNL A   1      33.907  26.030  21.817  1.00  0.00    -0.275 OA
BRANCH   9  12
ATOM     12  C   UNL A   1      34.561  23.183  23.902  1.00  0.00     0.047 A 
ATOM     13  C   UNL A   1      33.630  22.098  23.682  1.00  0.00    -0.024 A 
ATOM     14  C   UNL A   1      33.796  20.864  24.335  1.00  0.00     0.006 A 
ATOM     15  C   UNL A   1      34.840  20.664  25.212  1.00  0.00     0.001 A 
ATOM     16  C   UNL A   1      35.590  22.985  24.855  1.00  0.00    -0.024 A 
ATOM     17  C   UNL A   1      35.714  21.705  25.462  1.00  0.00     0.006 A 
BRANCH  13  18
ATOM     18  C   UNL A   1      32.420  22.273  22.757  1.00  0.00     0.034 C 
ATOM     19  C   UNL A   1      31.890  21.043  22.026  1.00  0.00     0.009 C 
ENDBRANCH  13  18
BRANCH  16  20
ATOM     20  C   UNL A   1      36.687  23.924  25.292  1.00  0.00     0.034 C 
ATOM     21  C   UNL A   1      37.875  23.213  25.953  1.00  0.00     0.009 C 
ENDBRANCH  16  20
ENDBRANCH   9  12
ENDBRANCH   7   8
ENDBRANCH   5   7
BRANCH   5  22
ATOM     22  C   UNL A   1      32.128  24.652  25.848  1.00  0.00    -0.030 A 
ATOM     23  C   UNL A   1      32.939  24.025  26.819  1.00  0.00     0.005 A 
ATOM     24  C   UNL A   1      30.937  23.987  25.500  1.00  0.00     0.005 A 
ATOM     25  C   UNL A   1      32.594  22.796  27.394  1.00  0.00     0.000 A 
ATOM     26  C   UNL A   1      30.604  22.744  26.058  1.00  0.00     0.000 A 
ATOM     27  C   UNL A   1      31.429  22.151  27.007  1.00  0.00     0.000 A 
ENDBRANCH   5  22
ENDBRANCH   3   5
ENDBRANCH   2   3
ENDBRANCH   1   2
BRANCH   1  28
ATOM     28  C   UNL A   1      31.745  30.306  25.919  1.00  0.00     0.275 C 
BRANCH  28  29
ATOM     29  O   UNL A   1      32.585  30.294  27.076  1.00  0.00    -0.458 OA
BRANCH  29  30
ATOM     30  C   UNL A   1      33.249  31.437  27.331  1.00  0.00     0.338 C 
ATOM     31  O   UNL A   1      32.785  32.569  27.401  1.00  0.00    -0.246 OA
BRANCH  30  32
ATOM     32  C   UNL A   1      34.649  31.112  27.654  1.00  0.00     0.060 A 
ATOM     33  C   UNL A   1      35.003  29.784  27.894  1.00  0.00     0.016 A 
ATOM     34  C   UNL A   1      35.565  32.131  27.896  1.00  0.00     0.016 A 
ATOM     35  C   UNL A   1      36.207  29.481  28.513  1.00  0.00     0.010 A 
ATOM     36  C   UNL A   1      36.820  31.813  28.421  1.00  0.00     0.010 A 
ATOM     37  C   UNL A   1      37.125  30.494  28.808  1.00  0.00    -0.014 A 
BRANCH  37  38
ATOM     38  C   UNL A   1      38.316  30.211  29.656  1.00  0.00     0.031 A 
ATOM     39  C   UNL A   1      39.434  29.374  29.086  1.00  0.00     0.074 A 
ATOM     40  C   UNL A   1      38.456  30.732  30.889  1.00  0.00     0.049 A 
ATOM     41  N   UNL A   1      40.417  28.768  29.701  1.00  0.00    -0.248 NA
ATOM     42  C   UNL A   1      39.434  29.179  27.627  1.00  0.00     0.031 C 
ATOM     43  C   UNL A   1      37.523  31.651  31.541  1.00  0.00     0.029 A 
ATOM     44  N   UNL A   1      39.457  30.566  31.815  1.00  0.00    -0.354 N 
ATOM     45  C   UNL A   1      41.085  28.045  28.721  1.00  0.00     0.074 A 
ATOM     46  C   UNL A   1      40.424  28.316  27.464  1.00  0.00     0.031 C 
ATOM     47  C   UNL A   1      38.019  32.008  32.735  1.00  0.00     0.029 A 
ATOM     48  C   UNL A   1      39.244  31.256  32.983  1.00  0.00     0.049 A 
ATOM     49  H   UNL A   1      40.251  30.006  31.656  1.00  0.00     0.167 HD
ATOM     50  C   UNL A   1      42.140  27.210  28.868  1.00  0.00     0.037 A 
ATOM     51  C   UNL A   1      39.925  31.239  34.144  1.00  0.00     0.037 A 
ATOM     52  C   UNL A   1      42.840  27.010  30.108  1.00  0.00     0.049 A 
ATOM     53  C   UNL A   1      41.097  30.309  34.291  1.00  0.00     0.074 A 
ATOM     54  C   UNL A   1      43.898  26.162  30.382  1.00  0.00     0.029 A 
ATOM     55  N   UNL A   1      42.569  27.706  31.277  1.00  0.00    -0.354 N 
ATOM     56  N   UNL A   1      41.624  29.496  33.408  1.00  0.00    -0.248 NA
ATOM     57  C   UNL A   1      41.744  30.269  35.609  1.00  0.00     0.031 C 
ATOM     58  C   UNL A   1      44.261  26.336  31.723  1.00  0.00     0.029 A 
ATOM     59  C   UNL A   1      43.449  27.316  32.273  1.00  0.00     0.049 A 
ATOM     60  H   UNL A   1      41.858  28.378  31.383  1.00  0.00     0.167 HD
ATOM     61  C   UNL A   1      42.653  28.836  34.065  1.00  0.00     0.074 A 
ATOM     62  C   UNL A   1      42.701  29.372  35.410  1.00  0.00     0.031 C 
ATOM     63  C   UNL A   1      43.473  27.861  33.603  1.00  0.00     0.037 A 
BRANCH  50  64
ATOM     64  C   UNL A   1      42.559  26.408  27.674  1.00  0.00     0.064 A 
ATOM     65  C   UNL A   1      41.971  25.178  27.355  1.00  0.00     0.173 A 
ATOM     66  C   UNL A   1      43.565  26.896  26.824  1.00  0.00     0.173 A 
ATOM     67  F   UNL A   1      41.024  24.657  28.149  1.00  0.00    -0.203 F 
ATOM     68  C   UNL A   1      42.386  24.455  26.237  1.00  0.00     0.198 A 
ATOM     69  C   UNL A   1      43.961  26.185  25.697  1.00  0.00     0.198 A 
ATOM     70  F   UNL A   1      44.162  28.069  27.089  1.00  0.00    -0.203 F 
ATOM     71  F   UNL A   1      41.839  23.261  25.972  1.00  0.00    -0.200 F 
ATOM     72  C   UNL A   1      43.374  24.963  25.406  1.00  0.00     0.200 A 
ATOM     73  F   UNL A   1      44.912  26.681  24.892  1.00  0.00    -0.200 F 
ATOM     74  F   UNL A   1      43.768  24.269  24.330  1.00  0.00    -0.200 F 
ENDBRANCH  50  64
BRANCH  51  75
ATOM     75  C   UNL A   1      39.468  32.080  35.280  1.00  0.00     0.064 A 
ATOM     76  C   UNL A   1      39.898  33.407  35.411  1.00  0.00     0.173 A 
ATOM     77  C   UNL A   1      38.585  31.580  36.249  1.00  0.00     0.173 A 
ATOM     78  F   UNL A   1      40.767  33.919  34.528  1.00  0.00    -0.203 F 
ATOM     79  C   UNL A   1      39.462  34.202  36.470  1.00  0.00     0.198 A 
ATOM     80  C   UNL A   1      38.127  32.384  37.289  1.00  0.00     0.198 A 
ATOM     81  F   UNL A   1      38.149  30.313  36.172  1.00  0.00    -0.203 F 
ATOM     82  F   UNL A   1      39.915  35.457  36.593  1.00  0.00    -0.200 F 
ATOM     83  C   UNL A   1      38.568  33.693  37.401  1.00  0.00     0.200 A 
ATOM     84  F   UNL A   1      37.254  31.891  38.179  1.00  0.00    -0.200 F 
ATOM     85  F   UNL A   1      38.140  34.462  38.412  1.00  0.00    -0.200 F 
ENDBRANCH  51  75
BRANCH  63  86
ATOM     86  C   UNL A   1      44.492  27.325  34.560  1.00  0.00     0.064 A 
ATOM     87  C   UNL A   1      45.735  27.954  34.724  1.00  0.00     0.173 A 
ATOM     88  C   UNL A   1      44.217  26.189  35.332  1.00  0.00     0.173 A 
ATOM     89  F   UNL A   1      46.047  29.036  33.994  1.00  0.00    -0.203 F 
ATOM     90  C   UNL A   1      46.677  27.447  35.614  1.00  0.00     0.198 A 
ATOM     91  C   UNL A   1      45.153  25.696  36.235  1.00  0.00     0.198 A 
ATOM     92  F   UNL A   1      43.039  25.558  35.210  1.00  0.00    -0.203 F 
ATOM     93  F   UNL A   1      47.875  28.036  35.727  1.00  0.00    -0.200 F 
ATOM     94  C   UNL A   1      46.384  26.322  36.370  1.00  0.00     0.200 A 
ATOM     95  F   UNL A   1      44.868  24.613  36.971  1.00  0.00    -0.200 F 
ATOM     96  F   UNL A   1      47.294  25.833  37.225  1.00  0.00    -0.200 F 
ENDBRANCH  63  86
ENDBRANCH  37  38
ENDBRANCH  30  32
ENDBRANCH  29  30
ENDBRANCH  28  29
ENDBRANCH   1  28
TORSDOF 17
ENDMDL
