MODEL 1
REMARK VINA RESULT:     -11.6      0.000      0.000
REMARK SMILES O=C(COc1ccc(Br)cc1/C=N/Nc1ncccc1[N+](=O)[O-])OCCOC(=O)c1ccc(-c2c3nc(c(-c4c(F)c(F)c(F)c(F)c4F)c4ccc([nH]4)c(-c4c(F)c(F)c(F)c(F)c4F)c4nc(c(-c5c(F)c(F)c(F)c(F)c5F)c5ccc2[nH]5)C=C4)C=C3)cc1
REMARK SMILES IDX 1 1 2 2 3 3 4 4 5 5 6 6 11 7 7 8 10 9 8 10 9 11 12 12 13 13
REMARK SMILES IDX 14 14 15 16 16 17 20 18 17 19 19 20 18 21 21 22 22 23 23 24
REMARK SMILES IDX 24 25 25 26 26 27 27 28 28 29 29 30 30 31 31 32 92 33 32 34
REMARK SMILES IDX 91 35 33 36 34 37 35 38 85 39 36 40 90 41 84 42 86 43 37 44
REMARK SMILES IDX 89 45 83 46 82 47 38 49 70 50 50 51 69 52 51 53 54 54 68 55
REMARK SMILES IDX 87 56 52 57 53 58 67 60 88 61 55 62 39 63 40 64 48 65 41 66
REMARK SMILES IDX 42 67 46 68 49 69 43 70 44 71 47 72 45 73 71 74 72 75 80 76
REMARK SMILES IDX 73 77 74 78 78 79 81 80 75 81 76 82 79 83 77 84 56 85 57 86
REMARK SMILES IDX 65 87 58 88 59 89 63 90 66 91 60 92 61 93 64 94 62 95
REMARK H PARENT 14 15 86 48 54 59
REMARK Flexibility Score: inf
ROOT
ATOM      1  O   UNL A   1      34.429  34.598  27.622  1.00  0.00    -0.248 OA
ATOM      2  C   UNL A   1      33.855  33.841  28.401  1.00  0.00     0.344 C 
ENDROOT
BRANCH   2   3
ATOM      3  C   UNL A   1      33.847  32.338  28.171  1.00  0.00     0.352 C 
BRANCH   3   4
ATOM      4  O   UNL A   1      32.816  31.905  27.279  1.00  0.00    -0.481 OA
BRANCH   4   5
ATOM      5  C   UNL A   1      33.033  30.598  26.923  1.00  0.00     0.129 A 
ATOM      6  C   UNL A   1      34.152  29.935  27.432  1.00  0.00     0.048 A 
ATOM      7  C   UNL A   1      32.162  29.945  26.041  1.00  0.00     0.038 A 
ATOM      8  C   UNL A   1      34.446  28.643  27.004  1.00  0.00     0.019 A 
ATOM      9  C   UNL A   1      32.471  28.656  25.593  1.00  0.00     0.029 A 
ATOM     10  C   UNL A   1      33.615  28.018  26.074  1.00  0.00     0.018 A 
ATOM     11  Br  UNL A   1      34.042  26.276  25.474  1.00  0.00    -0.051 Br
BRANCH   7  12
ATOM     12  C   UNL A   1      30.917  30.610  25.604  1.00  0.00     0.145 C 
ATOM     13  N   UNL A   1      30.597  30.727  24.351  1.00  0.00    -0.181 NA
BRANCH  13  14
ATOM     14  N   UNL A   1      29.408  31.329  24.097  1.00  0.00    -0.256 N 
ATOM     15  H   UNL A   1      28.925  31.685  24.878  1.00  0.00     0.192 HD
BRANCH  14  16
ATOM     16  C   UNL A   1      28.786  31.502  22.858  1.00  0.00     0.225 A 
ATOM     17  N   UNL A   1      28.502  32.794  22.554  1.00  0.00    -0.232 NA
ATOM     18  C   UNL A   1      28.515  30.511  21.924  1.00  0.00     0.313 A 
ATOM     19  C   UNL A   1      28.006  33.087  21.327  1.00  0.00     0.114 A 
ATOM     20  C   UNL A   1      28.032  30.818  20.645  1.00  0.00     0.091 A 
ATOM     21  C   UNL A   1      27.780  32.145  20.338  1.00  0.00     0.027 A 
BRANCH  18  22
ATOM     22  N   UNL A   1      28.635  29.129  22.280  1.00  0.00     0.066 N 
ATOM     23  O   UNL A   1      29.689  28.557  21.990  1.00  0.00    -0.258 OA
ATOM     24  O   UNL A   1      27.690  28.629  22.908  1.00  0.00    -0.258 OA
ENDBRANCH  18  22
ENDBRANCH  14  16
ENDBRANCH  13  14
ENDBRANCH   7  12
ENDBRANCH   4   5
ENDBRANCH   3   4
ENDBRANCH   2   3
BRANCH   2  25
ATOM     25  O   UNL A   1      33.252  34.326  29.513  1.00  0.00    -0.460 OA
BRANCH  25  26
ATOM     26  C   UNL A   1      33.780  35.409  30.307  1.00  0.00     0.274 C 
BRANCH  26  27
ATOM     27  C   UNL A   1      34.403  34.880  31.602  1.00  0.00     0.275 C 
BRANCH  27  28
ATOM     28  O   UNL A   1      35.520  34.017  31.312  1.00  0.00    -0.458 OA
BRANCH  28  29
ATOM     29  C   UNL A   1      35.377  32.715  31.666  1.00  0.00     0.338 C 
ATOM     30  O   UNL A   1      34.391  32.193  32.156  1.00  0.00    -0.246 OA
BRANCH  29  31
ATOM     31  C   UNL A   1      36.569  31.961  31.219  1.00  0.00     0.060 A 
ATOM     32  C   UNL A   1      37.345  31.294  32.177  1.00  0.00     0.016 A 
ATOM     33  C   UNL A   1      36.925  31.918  29.870  1.00  0.00     0.016 A 
ATOM     34  C   UNL A   1      38.491  30.590  31.787  1.00  0.00     0.010 A 
ATOM     35  C   UNL A   1      38.069  31.217  29.485  1.00  0.00     0.010 A 
ATOM     36  C   UNL A   1      38.872  30.562  30.441  1.00  0.00    -0.014 A 
BRANCH  36  37
ATOM     37  C   UNL A   1      40.167  29.987  29.993  1.00  0.00     0.031 A 
ATOM     38  C   UNL A   1      41.322  30.913  29.764  1.00  0.00     0.074 A 
ATOM     39  C   UNL A   1      40.303  28.685  29.691  1.00  0.00     0.049 A 
ATOM     40  N   UNL A   1      42.460  30.691  29.160  1.00  0.00    -0.248 NA
ATOM     41  C   UNL A   1      41.167  32.278  30.291  1.00  0.00     0.031 C 
ATOM     42  C   UNL A   1      39.307  27.656  29.937  1.00  0.00     0.029 A 
ATOM     43  N   UNL A   1      41.315  28.023  29.031  1.00  0.00    -0.354 N 
ATOM     44  C   UNL A   1      43.167  31.879  29.256  1.00  0.00     0.074 A 
ATOM     45  C   UNL A   1      42.303  32.839  29.911  1.00  0.00     0.031 C 
ATOM     46  C   UNL A   1      39.686  26.523  29.321  1.00  0.00     0.029 A 
ATOM     47  C   UNL A   1      40.956  26.753  28.644  1.00  0.00     0.049 A 
ATOM     48  H   UNL A   1      42.200  28.417  28.855  1.00  0.00     0.167 HD
ATOM     49  C   UNL A   1      44.436  32.134  28.862  1.00  0.00     0.037 A 
ATOM     50  C   UNL A   1      41.555  25.895  27.796  1.00  0.00     0.037 A 
ATOM     51  C   UNL A   1      45.291  31.183  28.204  1.00  0.00     0.049 A 
ATOM     52  C   UNL A   1      42.899  26.239  27.221  1.00  0.00     0.074 A 
ATOM     53  C   UNL A   1      46.608  31.331  27.810  1.00  0.00     0.029 A 
ATOM     54  N   UNL A   1      44.902  29.906  27.825  1.00  0.00    -0.354 N 
ATOM     55  N   UNL A   1      43.594  27.342  27.359  1.00  0.00    -0.248 NA
ATOM     56  C   UNL A   1      43.563  25.209  26.410  1.00  0.00     0.031 C 
ATOM     57  C   UNL A   1      46.999  30.164  27.145  1.00  0.00     0.029 A 
ATOM     58  C   UNL A   1      45.941  29.269  27.168  1.00  0.00     0.049 A 
ATOM     59  H   UNL A   1      44.016  29.511  27.998  1.00  0.00     0.167 HD
ATOM     60  C   UNL A   1      44.801  27.115  26.713  1.00  0.00     0.074 A 
ATOM     61  C   UNL A   1      44.732  25.782  26.152  1.00  0.00     0.031 C 
ATOM     62  C   UNL A   1      45.877  27.934  26.627  1.00  0.00     0.037 A 
BRANCH  49  63
ATOM     63  C   UNL A   1      44.958  33.513  29.128  1.00  0.00     0.064 A 
ATOM     64  C   UNL A   1      45.597  33.834  30.336  1.00  0.00     0.173 A 
ATOM     65  C   UNL A   1      44.792  34.531  28.179  1.00  0.00     0.173 A 
ATOM     66  F   UNL A   1      45.762  32.898  31.283  1.00  0.00    -0.203 F 
ATOM     67  C   UNL A   1      46.012  35.136  30.601  1.00  0.00     0.198 A 
ATOM     68  C   UNL A   1      45.235  35.825  28.436  1.00  0.00     0.198 A 
ATOM     69  F   UNL A   1      44.187  34.274  27.010  1.00  0.00    -0.203 F 
ATOM     70  F   UNL A   1      46.557  35.435  31.788  1.00  0.00    -0.200 F 
ATOM     71  C   UNL A   1      45.833  36.129  29.651  1.00  0.00     0.200 A 
ATOM     72  F   UNL A   1      45.067  36.784  27.515  1.00  0.00    -0.200 F 
ATOM     73  F   UNL A   1      46.221  37.385  29.911  1.00  0.00    -0.200 F 
ENDBRANCH  49  63
BRANCH  50  74
ATOM     74  C   UNL A   1      40.873  24.626  27.437  1.00  0.00     0.064 A 
ATOM     75  C   UNL A   1      41.303  23.400  27.958  1.00  0.00     0.173 A 
ATOM     76  C   UNL A   1      39.774  24.619  26.563  1.00  0.00     0.173 A 
ATOM     77  F   UNL A   1      42.369  23.354  28.770  1.00  0.00    -0.203 F 
ATOM     78  C   UNL A   1      40.665  22.210  27.611  1.00  0.00     0.198 A 
ATOM     79  C   UNL A   1      39.127  23.431  26.231  1.00  0.00     0.198 A 
ATOM     80  F   UNL A   1      39.339  25.768  26.022  1.00  0.00    -0.203 F 
ATOM     81  F   UNL A   1      41.120  21.045  28.091  1.00  0.00    -0.200 F 
ATOM     82  C   UNL A   1      39.575  22.227  26.753  1.00  0.00     0.200 A 
ATOM     83  F   UNL A   1      38.082  23.449  25.391  1.00  0.00    -0.200 F 
ATOM     84  F   UNL A   1      38.970  21.079  26.414  1.00  0.00    -0.200 F 
ENDBRANCH  50  74
BRANCH  62  85
ATOM     85  C   UNL A   1      47.111  27.396  25.963  1.00  0.00     0.064 A 
ATOM     86  C   UNL A   1      47.359  27.581  24.597  1.00  0.00     0.173 A 
ATOM     87  C   UNL A   1      48.091  26.743  26.729  1.00  0.00     0.173 A 
ATOM     88  F   UNL A   1      46.446  28.182  23.819  1.00  0.00    -0.203 F 
ATOM     89  C   UNL A   1      48.541  27.125  24.018  1.00  0.00     0.198 A 
ATOM     90  C   UNL A   1      49.283  26.314  26.153  1.00  0.00     0.198 A 
ATOM     91  F   UNL A   1      47.901  26.545  28.041  1.00  0.00    -0.203 F 
ATOM     92  F   UNL A   1      48.748  27.287  22.704  1.00  0.00    -0.200 F 
ATOM     93  C   UNL A   1      49.506  26.503  24.797  1.00  0.00     0.200 A 
ATOM     94  F   UNL A   1      50.218  25.724  26.911  1.00  0.00    -0.200 F 
ATOM     95  F   UNL A   1      50.651  26.083  24.242  1.00  0.00    -0.200 F 
ENDBRANCH  62  85
ENDBRANCH  36  37
ENDBRANCH  29  31
ENDBRANCH  28  29
ENDBRANCH  27  28
ENDBRANCH  26  27
ENDBRANCH  25  26
ENDBRANCH   2  25
TORSDOF 17
ENDMDL
MODEL 2
REMARK VINA RESULT:     -11.5      5.095      9.405
REMARK SMILES O=C(COc1ccc(Br)cc1/C=N/Nc1ncccc1[N+](=O)[O-])OCCOC(=O)c1ccc(-c2c3nc(c(-c4c(F)c(F)c(F)c(F)c4F)c4ccc([nH]4)c(-c4c(F)c(F)c(F)c(F)c4F)c4nc(c(-c5c(F)c(F)c(F)c(F)c5F)c5ccc2[nH]5)C=C4)C=C3)cc1
REMARK SMILES IDX 1 1 2 2 3 3 4 4 5 5 6 6 11 7 7 8 10 9 8 10 9 11 12 12 13 13
REMARK SMILES IDX 14 14 15 16 16 17 20 18 17 19 19 20 18 21 21 22 22 23 23 24
REMARK SMILES IDX 24 25 25 26 26 27 27 28 28 29 29 30 30 31 31 32 92 33 32 34
REMARK SMILES IDX 91 35 33 36 34 37 35 38 85 39 36 40 90 41 84 42 86 43 37 44
REMARK SMILES IDX 89 45 83 46 82 47 38 49 70 50 50 51 69 52 51 53 54 54 68 55
REMARK SMILES IDX 87 56 52 57 53 58 67 60 88 61 55 62 39 63 40 64 48 65 41 66
REMARK SMILES IDX 42 67 46 68 49 69 43 70 44 71 47 72 45 73 71 74 72 75 80 76
REMARK SMILES IDX 73 77 74 78 78 79 81 80 75 81 76 82 79 83 77 84 56 85 57 86
REMARK SMILES IDX 65 87 58 88 59 89 63 90 66 91 60 92 61 93 64 94 62 95
REMARK H PARENT 14 15 86 48 54 59
REMARK Flexibility Score: inf
ROOT
ATOM      1  O   UNL A   1      34.248  28.546  27.070  1.00  0.00    -0.248 OA
ATOM      2  C   UNL A   1      33.689  29.392  26.374  1.00  0.00     0.344 C 
ENDROOT
BRANCH   2   3
ATOM      3  C   UNL A   1      33.494  29.175  24.882  1.00  0.00     0.352 C 
BRANCH   3   4
ATOM      4  O   UNL A   1      32.908  27.909  24.565  1.00  0.00    -0.481 OA
BRANCH   4   5
ATOM      5  C   UNL A   1      31.634  28.096  24.091  1.00  0.00     0.129 A 
ATOM      6  C   UNL A   1      31.200  29.394  23.813  1.00  0.00     0.048 A 
ATOM      7  C   UNL A   1      30.771  27.007  23.914  1.00  0.00     0.038 A 
ATOM      8  C   UNL A   1      29.880  29.616  23.429  1.00  0.00     0.019 A 
ATOM      9  C   UNL A   1      29.439  27.232  23.551  1.00  0.00     0.029 A 
ATOM     10  C   UNL A   1      29.002  28.537  23.318  1.00  0.00     0.018 A 
ATOM     11  Br  UNL A   1      27.204  28.853  22.827  1.00  0.00    -0.051 Br
BRANCH   7  12
ATOM     12  C   UNL A   1      31.274  25.629  24.091  1.00  0.00     0.145 C 
ATOM     13  N   UNL A   1      30.549  24.586  23.821  1.00  0.00    -0.181 NA
BRANCH  13  14
ATOM     14  N   UNL A   1      31.151  23.383  23.999  1.00  0.00    -0.256 N 
ATOM     15  H   UNL A   1      30.979  22.705  23.306  1.00  0.00     0.192 HD
BRANCH  14  16
ATOM     16  C   UNL A   1      31.984  22.993  25.050  1.00  0.00     0.225 A 
ATOM     17  N   UNL A   1      33.274  22.780  24.686  1.00  0.00    -0.232 NA
ATOM     18  C   UNL A   1      31.630  22.883  26.388  1.00  0.00     0.313 A 
ATOM     19  C   UNL A   1      34.192  22.513  25.648  1.00  0.00     0.114 A 
ATOM     20  C   UNL A   1      32.585  22.637  27.383  1.00  0.00     0.091 A 
ATOM     21  C   UNL A   1      33.904  22.457  27.000  1.00  0.00     0.027 A 
BRANCH  18  22
ATOM     22  N   UNL A   1      30.253  22.924  26.778  1.00  0.00     0.066 N 
ATOM     23  O   UNL A   1      29.835  23.972  27.279  1.00  0.00    -0.258 OA
ATOM     24  O   UNL A   1      29.569  21.921  26.525  1.00  0.00    -0.258 OA
ENDBRANCH  18  22
ENDBRANCH  14  16
ENDBRANCH  13  14
ENDBRANCH   7  12
ENDBRANCH   4   5
ENDBRANCH   3   4
ENDBRANCH   2   3
BRANCH   2  25
ATOM     25  O   UNL A   1      33.192  30.522  26.932  1.00  0.00    -0.460 OA
BRANCH  25  26
ATOM     26  C   UNL A   1      31.844  30.994  26.728  1.00  0.00     0.274 C 
BRANCH  26  27
ATOM     27  C   UNL A   1      31.702  32.446  27.191  1.00  0.00     0.275 C 
BRANCH  27  28
ATOM     28  O   UNL A   1      32.986  33.099  27.216  1.00  0.00    -0.458 OA
BRANCH  28  29
ATOM     29  C   UNL A   1      33.178  34.001  28.212  1.00  0.00     0.338 C 
ATOM     30  O   UNL A   1      32.419  34.890  28.551  1.00  0.00    -0.246 OA
BRANCH  29  31
ATOM     31  C   UNL A   1      34.409  33.644  28.952  1.00  0.00     0.060 A 
ATOM     32  C   UNL A   1      35.616  34.262  28.594  1.00  0.00     0.016 A 
ATOM     33  C   UNL A   1      34.378  32.706  29.985  1.00  0.00     0.016 A 
ATOM     34  C   UNL A   1      36.802  33.930  29.261  1.00  0.00     0.010 A 
ATOM     35  C   UNL A   1      35.563  32.376  30.647  1.00  0.00     0.010 A 
ATOM     36  C   UNL A   1      36.786  32.971  30.280  1.00  0.00    -0.014 A 
BRANCH  36  37
ATOM     37  C   UNL A   1      38.033  32.449  30.898  1.00  0.00     0.031 A 
ATOM     38  C   UNL A   1      38.713  31.277  30.260  1.00  0.00     0.074 A 
ATOM     39  C   UNL A   1      38.508  32.928  32.061  1.00  0.00     0.049 A 
ATOM     40  N   UNL A   1      39.660  30.507  30.730  1.00  0.00    -0.248 NA
ATOM     41  C   UNL A   1      38.260  30.929  28.906  1.00  0.00     0.031 C 
ATOM     42  C   UNL A   1      38.009  34.106  32.751  1.00  0.00     0.029 A 
ATOM     43  N   UNL A   1      39.470  32.424  32.906  1.00  0.00    -0.354 N 
ATOM     44  C   UNL A   1      39.934  29.599  29.720  1.00  0.00     0.074 A 
ATOM     45  C   UNL A   1      39.005  29.867  28.642  1.00  0.00     0.031 C 
ATOM     46  C   UNL A   1      38.566  34.166  33.973  1.00  0.00     0.029 A 
ATOM     47  C   UNL A   1      39.463  33.029  34.142  1.00  0.00     0.049 A 
ATOM     48  H   UNL A   1      40.096  31.707  32.655  1.00  0.00     0.167 HD
ATOM     49  C   UNL A   1      40.896  28.649  29.684  1.00  0.00     0.037 A 
ATOM     50  C   UNL A   1      40.067  32.677  35.292  1.00  0.00     0.037 A 
ATOM     51  C   UNL A   1      41.813  28.378  30.758  1.00  0.00     0.049 A 
ATOM     52  C   UNL A   1      41.021  31.517  35.302  1.00  0.00     0.074 A 
ATOM     53  C   UNL A   1      42.855  27.469  30.798  1.00  0.00     0.029 A 
ATOM     54  N   UNL A   1      41.783  29.006  31.995  1.00  0.00    -0.354 N 
ATOM     55  N   UNL A   1      41.322  30.692  34.330  1.00  0.00    -0.248 NA
ATOM     56  C   UNL A   1      41.750  31.261  36.552  1.00  0.00     0.031 C 
ATOM     57  C   UNL A   1      43.420  27.509  32.077  1.00  0.00     0.029 A 
ATOM     58  C   UNL A   1      42.763  28.478  32.819  1.00  0.00     0.049 A 
ATOM     59  H   UNL A   1      41.156  29.721  32.251  1.00  0.00     0.167 HD
ATOM     60  C   UNL A   1      42.322  29.867  34.825  1.00  0.00     0.074 A 
ATOM     61  C   UNL A   1      42.552  30.266  36.197  1.00  0.00     0.031 C 
ATOM     62  C   UNL A   1      43.004  28.889  34.180  1.00  0.00     0.037 A 
BRANCH  49  63
ATOM     63  C   UNL A   1      40.983  27.828  28.433  1.00  0.00     0.064 A 
ATOM     64  C   UNL A   1      40.289  26.615  28.303  1.00  0.00     0.173 A 
ATOM     65  C   UNL A   1      41.790  28.246  27.366  1.00  0.00     0.173 A 
ATOM     66  F   UNL A   1      39.519  26.166  29.305  1.00  0.00    -0.203 F 
ATOM     67  C   UNL A   1      40.436  25.827  27.165  1.00  0.00     0.198 A 
ATOM     68  C   UNL A   1      41.911  27.469  26.217  1.00  0.00     0.198 A 
ATOM     69  F   UNL A   1      42.473  29.397  27.443  1.00  0.00    -0.203 F 
ATOM     70  F   UNL A   1      39.819  24.640  27.090  1.00  0.00    -0.200 F 
ATOM     71  C   UNL A   1      41.244  26.255  26.123  1.00  0.00     0.200 A 
ATOM     72  F   UNL A   1      42.688  27.885  25.208  1.00  0.00    -0.200 F 
ATOM     73  F   UNL A   1      41.394  25.491  25.033  1.00  0.00    -0.200 F 
ENDBRANCH  49  63
BRANCH  50  74
ATOM     74  C   UNL A   1      39.774  33.435  36.535  1.00  0.00     0.064 A 
ATOM     75  C   UNL A   1      38.736  33.052  37.391  1.00  0.00     0.173 A 
ATOM     76  C   UNL A   1      40.534  34.563  36.887  1.00  0.00     0.173 A 
ATOM     77  F   UNL A   1      37.964  32.001  37.078  1.00  0.00    -0.203 F 
ATOM     78  C   UNL A   1      38.460  33.772  38.552  1.00  0.00     0.198 A 
ATOM     79  C   UNL A   1      40.268  35.272  38.056  1.00  0.00     0.198 A 
ATOM     80  F   UNL A   1      41.526  34.981  36.086  1.00  0.00    -0.203 F 
ATOM     81  F   UNL A   1      37.436  33.409  39.335  1.00  0.00    -0.200 F 
ATOM     82  C   UNL A   1      39.229  34.878  38.886  1.00  0.00     0.200 A 
ATOM     83  F   UNL A   1      41.004  36.348  38.370  1.00  0.00    -0.200 F 
ATOM     84  F   UNL A   1      38.955  35.575  39.999  1.00  0.00    -0.200 F 
ENDBRANCH  50  74
BRANCH  62  85
ATOM     85  C   UNL A   1      44.126  28.220  34.918  1.00  0.00     0.064 A 
ATOM     86  C   UNL A   1      43.942  27.021  35.619  1.00  0.00     0.173 A 
ATOM     87  C   UNL A   1      45.422  28.757  34.861  1.00  0.00     0.173 A 
ATOM     88  F   UNL A   1      42.720  26.477  35.718  1.00  0.00    -0.203 F 
ATOM     89  C   UNL A   1      45.014  26.387  36.243  1.00  0.00     0.198 A 
ATOM     90  C   UNL A   1      46.496  28.107  35.463  1.00  0.00     0.198 A 
ATOM     91  F   UNL A   1      45.651  29.901  34.199  1.00  0.00    -0.203 F 
ATOM     92  F   UNL A   1      44.812  25.256  36.933  1.00  0.00    -0.200 F 
ATOM     93  C   UNL A   1      46.290  26.924  36.156  1.00  0.00     0.200 A 
ATOM     94  F   UNL A   1      47.729  28.622  35.365  1.00  0.00    -0.200 F 
ATOM     95  F   UNL A   1      47.323  26.303  36.741  1.00  0.00    -0.200 F 
ENDBRANCH  62  85
ENDBRANCH  36  37
ENDBRANCH  29  31
ENDBRANCH  28  29
ENDBRANCH  27  28
ENDBRANCH  26  27
ENDBRANCH  25  26
ENDBRANCH   2  25
TORSDOF 17
ENDMDL
MODEL 3
REMARK VINA RESULT:     -11.3      5.773     10.429
REMARK SMILES O=C(COc1ccc(Br)cc1/C=N/Nc1ncccc1[N+](=O)[O-])OCCOC(=O)c1ccc(-c2c3nc(c(-c4c(F)c(F)c(F)c(F)c4F)c4ccc([nH]4)c(-c4c(F)c(F)c(F)c(F)c4F)c4nc(c(-c5c(F)c(F)c(F)c(F)c5F)c5ccc2[nH]5)C=C4)C=C3)cc1
REMARK SMILES IDX 1 1 2 2 3 3 4 4 5 5 6 6 11 7 7 8 10 9 8 10 9 11 12 12 13 13
REMARK SMILES IDX 14 14 15 16 16 17 20 18 17 19 19 20 18 21 21 22 22 23 23 24
REMARK SMILES IDX 24 25 25 26 26 27 27 28 28 29 29 30 30 31 31 32 92 33 32 34
REMARK SMILES IDX 91 35 33 36 34 37 35 38 85 39 36 40 90 41 84 42 86 43 37 44
REMARK SMILES IDX 89 45 83 46 82 47 38 49 70 50 50 51 69 52 51 53 54 54 68 55
REMARK SMILES IDX 87 56 52 57 53 58 67 60 88 61 55 62 39 63 40 64 48 65 41 66
REMARK SMILES IDX 42 67 46 68 49 69 43 70 44 71 47 72 45 73 71 74 72 75 80 76
REMARK SMILES IDX 73 77 74 78 78 79 81 80 75 81 76 82 79 83 77 84 56 85 57 86
REMARK SMILES IDX 65 87 58 88 59 89 63 90 66 91 60 92 61 93 64 94 62 95
REMARK H PARENT 14 15 86 48 54 59
REMARK Flexibility Score: inf
ROOT
ATOM      1  O   UNL A   1      38.325  23.529  26.379  1.00  0.00    -0.248 OA
ATOM      2  C   UNL A   1      38.731  22.386  26.178  1.00  0.00     0.344 C 
ENDROOT
BRANCH   2   3
ATOM      3  C   UNL A   1      38.064  21.488  25.147  1.00  0.00     0.352 C 
BRANCH   3   4
ATOM      4  O   UNL A   1      36.901  22.072  24.553  1.00  0.00    -0.481 OA
BRANCH   4   5
ATOM      5  C   UNL A   1      35.854  21.188  24.623  1.00  0.00     0.129 A 
ATOM      6  C   UNL A   1      36.122  19.841  24.874  1.00  0.00     0.048 A 
ATOM      7  C   UNL A   1      34.538  21.623  24.420  1.00  0.00     0.038 A 
ATOM      8  C   UNL A   1      35.086  18.911  24.848  1.00  0.00     0.019 A 
ATOM      9  C   UNL A   1      33.500  20.686  24.371  1.00  0.00     0.029 A 
ATOM     10  C   UNL A   1      33.784  19.336  24.579  1.00  0.00     0.018 A 
ATOM     11  Br  UNL A   1      32.389  18.061  24.514  1.00  0.00    -0.051 Br
BRANCH   7  12
ATOM     12  C   UNL A   1      34.250  23.065  24.278  1.00  0.00     0.145 C 
ATOM     13  N   UNL A   1      33.446  23.694  25.081  1.00  0.00    -0.181 NA
BRANCH  13  14
ATOM     14  N   UNL A   1      33.301  25.024  24.854  1.00  0.00    -0.256 N 
ATOM     15  H   UNL A   1      34.059  25.595  25.118  1.00  0.00     0.192 HD
BRANCH  14  16
ATOM     16  C   UNL A   1      32.203  25.679  24.292  1.00  0.00     0.225 A 
ATOM     17  N   UNL A   1      31.016  25.375  24.877  1.00  0.00    -0.232 NA
ATOM     18  C   UNL A   1      32.236  26.628  23.279  1.00  0.00     0.313 A 
ATOM     19  C   UNL A   1      29.902  26.043  24.489  1.00  0.00     0.114 A 
ATOM     20  C   UNL A   1      31.089  27.339  22.900  1.00  0.00     0.091 A 
ATOM     21  C   UNL A   1      29.892  27.042  23.531  1.00  0.00     0.027 A 
BRANCH  18  22
ATOM     22  N   UNL A   1      33.433  26.838  22.524  1.00  0.00     0.066 N 
ATOM     23  O   UNL A   1      33.711  26.007  21.655  1.00  0.00    -0.258 OA
ATOM     24  O   UNL A   1      34.070  27.876  22.761  1.00  0.00    -0.258 OA
ENDBRANCH  18  22
ENDBRANCH  14  16
ENDBRANCH  13  14
ENDBRANCH   7  12
ENDBRANCH   4   5
ENDBRANCH   3   4
ENDBRANCH   2   3
BRANCH   2  25
ATOM     25  O   UNL A   1      39.815  21.914  26.839  1.00  0.00    -0.460 OA
BRANCH  25  26
ATOM     26  C   UNL A   1      40.509  20.701  26.483  1.00  0.00     0.274 C 
BRANCH  26  27
ATOM     27  C   UNL A   1      41.940  21.005  26.033  1.00  0.00     0.275 C 
BRANCH  27  28
ATOM     28  O   UNL A   1      42.022  22.324  25.460  1.00  0.00    -0.458 OA
BRANCH  28  29
ATOM     29  C   UNL A   1      43.138  23.037  25.757  1.00  0.00     0.338 C 
ATOM     30  O   UNL A   1      44.263  22.848  25.331  1.00  0.00    -0.246 OA
BRANCH  29  31
ATOM     31  C   UNL A   1      42.755  24.208  26.578  1.00  0.00     0.060 A 
ATOM     32  C   UNL A   1      43.401  25.432  26.351  1.00  0.00     0.016 A 
ATOM     33  C   UNL A   1      41.776  24.101  27.566  1.00  0.00     0.016 A 
ATOM     34  C   UNL A   1      43.076  26.553  27.125  1.00  0.00     0.010 A 
ATOM     35  C   UNL A   1      41.456  25.220  28.338  1.00  0.00     0.010 A 
ATOM     36  C   UNL A   1      42.115  26.450  28.137  1.00  0.00    -0.014 A 
BRANCH  36  37
ATOM     37  C   UNL A   1      41.858  27.549  29.104  1.00  0.00     0.031 A 
ATOM     38  C   UNL A   1      42.602  27.547  30.404  1.00  0.00     0.074 A 
ATOM     39  C   UNL A   1      40.912  28.479  28.892  1.00  0.00     0.049 A 
ATOM     40  N   UNL A   1      42.387  28.249  31.487  1.00  0.00    -0.248 NA
ATOM     41  C   UNL A   1      43.745  26.627  30.491  1.00  0.00     0.031 C 
ATOM     42  C   UNL A   1      40.173  28.659  27.654  1.00  0.00     0.029 A 
ATOM     43  N   UNL A   1      40.357  29.399  29.753  1.00  0.00    -0.354 N 
ATOM     44  C   UNL A   1      43.381  27.872  32.375  1.00  0.00     0.074 A 
ATOM     45  C   UNL A   1      44.156  26.831  31.733  1.00  0.00     0.031 C 
ATOM     46  C   UNL A   1      39.170  29.530  27.866  1.00  0.00     0.029 A 
ATOM     47  C   UNL A   1      39.208  29.968  29.255  1.00  0.00     0.049 A 
ATOM     48  H   UNL A   1      40.741  29.624  30.631  1.00  0.00     0.167 HD
ATOM     49  C   UNL A   1      43.644  28.376  33.603  1.00  0.00     0.037 A 
ATOM     50  C   UNL A   1      38.266  30.712  29.865  1.00  0.00     0.037 A 
ATOM     51  C   UNL A   1      42.870  29.404  34.244  1.00  0.00     0.049 A 
ATOM     52  C   UNL A   1      38.470  31.146  31.288  1.00  0.00     0.074 A 
ATOM     53  C   UNL A   1      43.086  30.015  35.465  1.00  0.00     0.029 A 
ATOM     54  N   UNL A   1      41.714  29.962  33.716  1.00  0.00    -0.354 N 
ATOM     55  N   UNL A   1      39.442  30.836  32.110  1.00  0.00    -0.248 NA
ATOM     56  C   UNL A   1      37.475  32.066  31.856  1.00  0.00     0.031 C 
ATOM     57  C   UNL A   1      42.030  30.903  35.702  1.00  0.00     0.029 A 
ATOM     58  C   UNL A   1      41.184  30.882  34.605  1.00  0.00     0.049 A 
ATOM     59  H   UNL A   1      41.327  29.736  32.840  1.00  0.00     0.167 HD
ATOM     60  C   UNL A   1      39.215  31.571  33.264  1.00  0.00     0.074 A 
ATOM     61  C   UNL A   1      37.993  32.318  33.051  1.00  0.00     0.031 C 
ATOM     62  C   UNL A   1      39.976  31.639  34.384  1.00  0.00     0.037 A 
BRANCH  49  63
ATOM     63  C   UNL A   1      44.819  27.795  34.329  1.00  0.00     0.064 A 
ATOM     64  C   UNL A   1      44.686  26.671  35.158  1.00  0.00     0.173 A 
ATOM     65  C   UNL A   1      46.085  28.387  34.216  1.00  0.00     0.173 A 
ATOM     66  F   UNL A   1      43.490  26.082  35.312  1.00  0.00    -0.203 F 
ATOM     67  C   UNL A   1      45.770  26.185  35.884  1.00  0.00     0.198 A 
ATOM     68  C   UNL A   1      47.174  27.880  34.921  1.00  0.00     0.198 A 
ATOM     69  F   UNL A   1      46.263  29.463  33.437  1.00  0.00    -0.203 F 
ATOM     70  F   UNL A   1      45.606  25.154  36.723  1.00  0.00    -0.200 F 
ATOM     71  C   UNL A   1      47.013  26.789  35.763  1.00  0.00     0.200 A 
ATOM     72  F   UNL A   1      48.376  28.460  34.800  1.00  0.00    -0.200 F 
ATOM     73  F   UNL A   1      48.053  26.329  36.470  1.00  0.00    -0.200 F 
ENDBRANCH  49  63
BRANCH  50  74
ATOM     74  C   UNL A   1      37.035  31.086  29.122  1.00  0.00     0.064 A 
ATOM     75  C   UNL A   1      36.844  32.387  28.643  1.00  0.00     0.173 A 
ATOM     76  C   UNL A   1      36.025  30.141  28.878  1.00  0.00     0.173 A 
ATOM     77  F   UNL A   1      37.767  33.330  28.881  1.00  0.00    -0.203 F 
ATOM     78  C   UNL A   1      35.683  32.735  27.954  1.00  0.00     0.198 A 
ATOM     79  C   UNL A   1      34.873  30.486  28.174  1.00  0.00     0.198 A 
ATOM     80  F   UNL A   1      36.154  28.886  29.337  1.00  0.00    -0.203 F 
ATOM     81  F   UNL A   1      35.506  33.996  27.540  1.00  0.00    -0.200 F 
ATOM     82  C   UNL A   1      34.702  31.783  27.716  1.00  0.00     0.200 A 
ATOM     83  F   UNL A   1      33.920  29.568  27.957  1.00  0.00    -0.200 F 
ATOM     84  F   UNL A   1      33.582  32.123  27.061  1.00  0.00    -0.200 F 
ENDBRANCH  50  74
BRANCH  62  85
ATOM     85  C   UNL A   1      39.561  32.609  35.450  1.00  0.00     0.064 A 
ATOM     86  C   UNL A   1      38.729  32.233  36.512  1.00  0.00     0.173 A 
ATOM     87  C   UNL A   1      40.065  33.920  35.441  1.00  0.00     0.173 A 
ATOM     88  F   UNL A   1      38.207  30.998  36.558  1.00  0.00    -0.203 F 
ATOM     89  C   UNL A   1      38.409  33.136  37.524  1.00  0.00     0.198 A 
ATOM     90  C   UNL A   1      39.766  34.812  36.467  1.00  0.00     0.198 A 
ATOM     91  F   UNL A   1      40.869  34.328  34.448  1.00  0.00    -0.203 F 
ATOM     92  F   UNL A   1      37.588  32.766  38.516  1.00  0.00    -0.200 F 
ATOM     93  C   UNL A   1      38.936  34.420  37.506  1.00  0.00     0.200 A 
ATOM     94  F   UNL A   1      40.287  36.046  36.454  1.00  0.00    -0.200 F 
ATOM     95  F   UNL A   1      38.643  35.281  38.490  1.00  0.00    -0.200 F 
ENDBRANCH  62  85
ENDBRANCH  36  37
ENDBRANCH  29  31
ENDBRANCH  28  29
ENDBRANCH  27  28
ENDBRANCH  26  27
ENDBRANCH  25  26
ENDBRANCH   2  25
TORSDOF 17
ENDMDL
