MODEL 1
REMARK VINA RESULT:     -12.8      0.000      0.000
REMARK SMILES Cc1nc(Oc2ccc(F)cc2)c(C(=O)OCCOC(=O)c2ccc(-c3c4nc(c(-c5c(F)c(F)c(F)c(F)c5F)c5ccc([nH]5)c(-c5c(F)c(F)c(F)c(F)c5F)c5nc(c(-c6c(F)c(F)c(F)c(F)c6F)c6ccc3[nH]6)C=C5)C=C4)cc2)c(C)c1Cl
REMARK SMILES IDX 17 1 16 2 14 3 15 4 13 5 1 6 2 7 3 8 87 9 4 10 85 11 88 12
REMARK SMILES IDX 86 13 5 14 6 15 7 16 12 17 8 18 11 19 9 20 10 21 18 22 19 23
REMARK SMILES IDX 20 24 21 25 22 26 23 27 84 28 24 29 83 30 25 31 26 32 27 33
REMARK SMILES IDX 77 34 28 35 82 36 76 37 78 38 29 39 81 40 75 41 74 42 30 44
REMARK SMILES IDX 62 45 42 46 61 47 43 48 46 49 60 50 79 51 44 52 45 53 59 55
REMARK SMILES IDX 80 56 47 57 31 58 32 59 40 60 33 61 34 62 38 63 41 64 35 65
REMARK SMILES IDX 36 66 39 67 37 68 63 69 64 70 72 71 65 72 66 73 70 74 73 75
REMARK SMILES IDX 67 76 68 77 71 78 69 79 48 80 49 81 57 82 50 83 51 84 55 85
REMARK SMILES IDX 58 86 52 87 53 88 56 89 54 90
REMARK H PARENT 78 43 46 54
REMARK Flexibility Score: inf
ROOT
ATOM      1  C   UNL A   1      36.268  20.180  24.988  1.00  0.00     0.275 C 
ENDROOT
BRANCH   1   2
ATOM      2  O   UNL A   1      35.750  21.487  25.286  1.00  0.00    -0.458 OA
BRANCH   2   3
ATOM      3  C   UNL A   1      35.199  22.198  24.262  1.00  0.00     0.344 C 
ATOM      4  O   UNL A   1      35.712  22.547  23.230  1.00  0.00    -0.246 OA
BRANCH   3   5
ATOM      5  C   UNL A   1      33.805  22.420  24.683  1.00  0.00     0.127 A 
ATOM      6  C   UNL A   1      30.029  22.794  26.590  1.00  0.00     0.068 C 
ATOM      7  C   UNL A   1      31.372  22.723  25.913  1.00  0.00     0.060 A 
ATOM      8  N   UNL A   1      31.646  21.561  25.256  1.00  0.00    -0.216 NA
ATOM      9  C   UNL A   1      32.253  23.808  25.919  1.00  0.00     0.066 A 
ATOM     10  C   UNL A   1      32.847  21.407  24.636  1.00  0.00     0.234 A 
ATOM     11  C   UNL A   1      33.493  23.670  25.279  1.00  0.00    -0.011 A 
ATOM     12  Cl  UNL A   1      31.818  25.283  26.716  1.00  0.00    -0.082 Cl
ATOM     13  C   UNL A   1      34.499  24.796  25.247  1.00  0.00     0.047 C 
BRANCH  10  14
ATOM     14  O   UNL A   1      32.837  20.301  23.818  1.00  0.00    -0.438 OA
BRANCH  14  15
ATOM     15  C   UNL A   1      32.948  19.001  24.231  1.00  0.00     0.129 A 
ATOM     16  C   UNL A   1      33.310  18.074  23.250  1.00  0.00     0.050 A 
ATOM     17  C   UNL A   1      32.664  18.529  25.501  1.00  0.00     0.050 A 
ATOM     18  C   UNL A   1      33.455  16.717  23.567  1.00  0.00     0.043 A 
ATOM     19  C   UNL A   1      32.815  17.181  25.836  1.00  0.00     0.043 A 
ATOM     20  C   UNL A   1      33.222  16.285  24.866  1.00  0.00     0.123 A 
ATOM     21  F   UNL A   1      33.382  14.996  25.184  1.00  0.00    -0.207 F 
ENDBRANCH  14  15
ENDBRANCH  10  14
ENDBRANCH   3   5
ENDBRANCH   2   3
ENDBRANCH   1   2
BRANCH   1  22
ATOM     22  C   UNL A   1      37.800  20.266  24.878  1.00  0.00     0.275 C 
BRANCH  22  23
ATOM     23  O   UNL A   1      38.333  21.314  25.725  1.00  0.00    -0.458 OA
BRANCH  23  24
ATOM     24  C   UNL A   1      39.564  21.099  26.262  1.00  0.00     0.338 C 
ATOM     25  O   UNL A   1      40.251  20.100  26.134  1.00  0.00    -0.246 OA
BRANCH  24  26
ATOM     26  C   UNL A   1      40.074  22.374  26.838  1.00  0.00     0.060 A 
ATOM     27  C   UNL A   1      39.411  23.556  26.478  1.00  0.00     0.016 A 
ATOM     28  C   UNL A   1      41.092  22.415  27.800  1.00  0.00     0.016 A 
ATOM     29  C   UNL A   1      39.735  24.764  27.099  1.00  0.00     0.010 A 
ATOM     30  C   UNL A   1      41.451  23.640  28.387  1.00  0.00     0.010 A 
ATOM     31  C   UNL A   1      40.780  24.825  28.033  1.00  0.00    -0.014 A 
BRANCH  31  32
ATOM     32  C   UNL A   1      41.326  26.162  28.389  1.00  0.00     0.031 A 
ATOM     33  C   UNL A   1      42.747  26.446  27.984  1.00  0.00     0.074 A 
ATOM     34  C   UNL A   1      40.594  27.136  28.964  1.00  0.00     0.049 A 
ATOM     35  N   UNL A   1      43.418  27.569  28.016  1.00  0.00    -0.248 NA
ATOM     36  C   UNL A   1      43.506  25.305  27.443  1.00  0.00     0.031 C 
ATOM     37  C   UNL A   1      39.196  27.029  29.368  1.00  0.00     0.029 A 
ATOM     38  N   UNL A   1      40.941  28.430  29.289  1.00  0.00    -0.354 N 
ATOM     39  C   UNL A   1      44.646  27.282  27.439  1.00  0.00     0.074 A 
ATOM     40  C   UNL A   1      44.656  25.872  27.120  1.00  0.00     0.031 C 
ATOM     41  C   UNL A   1      38.799  28.210  29.881  1.00  0.00     0.029 A 
ATOM     42  C   UNL A   1      39.917  29.157  29.848  1.00  0.00     0.049 A 
ATOM     43  H   UNL A   1      41.839  28.800  29.133  1.00  0.00     0.167 HD
ATOM     44  C   UNL A   1      45.676  28.118  27.176  1.00  0.00     0.037 A 
ATOM     45  C   UNL A   1      39.890  30.438  30.275  1.00  0.00     0.037 A 
ATOM     46  C   UNL A   1      45.718  29.500  27.557  1.00  0.00     0.049 A 
ATOM     47  C   UNL A   1      41.122  31.306  30.139  1.00  0.00     0.074 A 
ATOM     48  C   UNL A   1      46.741  30.412  27.370  1.00  0.00     0.029 A 
ATOM     49  N   UNL A   1      44.705  30.160  28.234  1.00  0.00    -0.354 N 
ATOM     50  N   UNL A   1      42.258  31.045  29.539  1.00  0.00    -0.248 NA
ATOM     51  C   UNL A   1      41.068  32.646  30.747  1.00  0.00     0.031 C 
ATOM     52  C   UNL A   1      46.372  31.609  27.989  1.00  0.00     0.029 A 
ATOM     53  C   UNL A   1      45.099  31.456  28.516  1.00  0.00     0.049 A 
ATOM     54  H   UNL A   1      43.836  29.766  28.477  1.00  0.00     0.167 HD
ATOM     55  C   UNL A   1      43.039  32.189  29.678  1.00  0.00     0.074 A 
ATOM     56  C   UNL A   1      42.246  33.153  30.407  1.00  0.00     0.031 C 
ATOM     57  C   UNL A   1      44.303  32.413  29.242  1.00  0.00     0.037 A 
BRANCH  44  58
ATOM     58  C   UNL A   1      46.853  27.535  26.461  1.00  0.00     0.064 A 
ATOM     59  C   UNL A   1      47.907  26.939  27.168  1.00  0.00     0.173 A 
ATOM     60  C   UNL A   1      46.927  27.569  25.062  1.00  0.00     0.173 A 
ATOM     61  F   UNL A   1      47.886  26.905  28.509  1.00  0.00    -0.203 F 
ATOM     62  C   UNL A   1      49.007  26.412  26.498  1.00  0.00     0.198 A 
ATOM     63  C   UNL A   1      48.018  27.021  24.395  1.00  0.00     0.198 A 
ATOM     64  F   UNL A   1      45.944  28.136  24.346  1.00  0.00    -0.203 F 
ATOM     65  F   UNL A   1      50.024  25.886  27.193  1.00  0.00    -0.200 F 
ATOM     66  C   UNL A   1      49.058  26.449  25.112  1.00  0.00     0.200 A 
ATOM     67  F   UNL A   1      48.066  27.054  23.056  1.00  0.00    -0.200 F 
ATOM     68  F   UNL A   1      50.118  25.943  24.468  1.00  0.00    -0.200 F 
ENDBRANCH  44  58
BRANCH  45  69
ATOM     69  C   UNL A   1      38.653  31.003  30.885  1.00  0.00     0.064 A 
ATOM     70  C   UNL A   1      38.448  30.966  32.272  1.00  0.00     0.173 A 
ATOM     71  C   UNL A   1      37.628  31.538  30.091  1.00  0.00     0.173 A 
ATOM     72  F   UNL A   1      39.380  30.427  33.073  1.00  0.00    -0.203 F 
ATOM     73  C   UNL A   1      37.262  31.433  32.840  1.00  0.00     0.198 A 
ATOM     74  C   UNL A   1      36.454  32.027  30.662  1.00  0.00     0.198 A 
ATOM     75  F   UNL A   1      37.762  31.578  28.757  1.00  0.00    -0.203 F 
ATOM     76  F   UNL A   1      37.074  31.341  34.164  1.00  0.00    -0.200 F 
ATOM     77  C   UNL A   1      36.269  31.969  32.035  1.00  0.00     0.200 A 
ATOM     78  F   UNL A   1      35.495  32.544  29.880  1.00  0.00    -0.200 F 
ATOM     79  F   UNL A   1      35.129  32.414  32.580  1.00  0.00    -0.200 F 
ENDBRANCH  45  69
BRANCH  57  80
ATOM     80  C   UNL A   1      44.938  33.742  29.537  1.00  0.00     0.064 A 
ATOM     81  C   UNL A   1      44.760  34.837  28.681  1.00  0.00     0.173 A 
ATOM     82  C   UNL A   1      45.611  33.958  30.750  1.00  0.00     0.173 A 
ATOM     83  F   UNL A   1      44.132  34.681  27.506  1.00  0.00    -0.203 F 
ATOM     84  C   UNL A   1      45.227  36.102  29.030  1.00  0.00     0.198 A 
ATOM     85  C   UNL A   1      46.053  35.230  31.108  1.00  0.00     0.198 A 
ATOM     86  F   UNL A   1      45.799  32.946  31.610  1.00  0.00    -0.203 F 
ATOM     87  F   UNL A   1      45.054  37.134  28.191  1.00  0.00    -0.200 F 
ATOM     88  C   UNL A   1      45.859  36.301  30.249  1.00  0.00     0.200 A 
ATOM     89  F   UNL A   1      46.644  35.423  32.295  1.00  0.00    -0.200 F 
ATOM     90  F   UNL A   1      46.276  37.525  30.598  1.00  0.00    -0.200 F 
ENDBRANCH  57  80
ENDBRANCH  31  32
ENDBRANCH  24  26
ENDBRANCH  23  24
ENDBRANCH  22  23
ENDBRANCH   1  22
TORSDOF 13
ENDMDL
MODEL 2
REMARK VINA RESULT:     -12.7      0.153      1.609
REMARK SMILES Cc1nc(Oc2ccc(F)cc2)c(C(=O)OCCOC(=O)c2ccc(-c3c4nc(c(-c5c(F)c(F)c(F)c(F)c5F)c5ccc([nH]5)c(-c5c(F)c(F)c(F)c(F)c5F)c5nc(c(-c6c(F)c(F)c(F)c(F)c6F)c6ccc3[nH]6)C=C5)C=C4)cc2)c(C)c1Cl
REMARK SMILES IDX 17 1 16 2 14 3 15 4 13 5 1 6 2 7 3 8 87 9 4 10 85 11 88 12
REMARK SMILES IDX 86 13 5 14 6 15 7 16 12 17 8 18 11 19 9 20 10 21 18 22 19 23
REMARK SMILES IDX 20 24 21 25 22 26 23 27 84 28 24 29 83 30 25 31 26 32 27 33
REMARK SMILES IDX 77 34 28 35 82 36 76 37 78 38 29 39 81 40 75 41 74 42 30 44
REMARK SMILES IDX 62 45 42 46 61 47 43 48 46 49 60 50 79 51 44 52 45 53 59 55
REMARK SMILES IDX 80 56 47 57 31 58 32 59 40 60 33 61 34 62 38 63 41 64 35 65
REMARK SMILES IDX 36 66 39 67 37 68 63 69 64 70 72 71 65 72 66 73 70 74 73 75
REMARK SMILES IDX 67 76 68 77 71 78 69 79 48 80 49 81 57 82 50 83 51 84 55 85
REMARK SMILES IDX 58 86 52 87 53 88 56 89 54 90
REMARK H PARENT 78 43 46 54
REMARK Flexibility Score: inf
ROOT
ATOM      1  C   UNL A   1      36.325  20.104  24.929  1.00  0.00     0.275 C 
ENDROOT
BRANCH   1   2
ATOM      2  O   UNL A   1      35.902  21.440  25.249  1.00  0.00    -0.458 OA
BRANCH   2   3
ATOM      3  C   UNL A   1      35.379  22.196  24.243  1.00  0.00     0.344 C 
ATOM      4  O   UNL A   1      35.908  22.558  23.224  1.00  0.00    -0.246 OA
BRANCH   3   5
ATOM      5  C   UNL A   1      33.990  22.448  24.663  1.00  0.00     0.127 A 
ATOM      6  C   UNL A   1      30.220  22.900  26.566  1.00  0.00     0.068 C 
ATOM      7  C   UNL A   1      31.562  22.801  25.890  1.00  0.00     0.060 A 
ATOM      8  N   UNL A   1      31.810  21.636  25.229  1.00  0.00    -0.216 NA
ATOM      9  C   UNL A   1      32.467  23.866  25.903  1.00  0.00     0.066 A 
ATOM     10  C   UNL A   1      33.009  21.457  24.610  1.00  0.00     0.234 A 
ATOM     11  C   UNL A   1      33.705  23.702  25.264  1.00  0.00    -0.011 A 
ATOM     12  Cl  UNL A   1      32.066  25.347  26.705  1.00  0.00    -0.082 Cl
ATOM     13  C   UNL A   1      34.737  24.805  25.238  1.00  0.00     0.047 C 
BRANCH  10  14
ATOM     14  O   UNL A   1      32.974  20.355  23.787  1.00  0.00    -0.438 OA
BRANCH  14  15
ATOM     15  C   UNL A   1      33.005  19.050  24.198  1.00  0.00     0.129 A 
ATOM     16  C   UNL A   1      33.246  18.099  23.204  1.00  0.00     0.050 A 
ATOM     17  C   UNL A   1      32.749  18.600  25.482  1.00  0.00     0.050 A 
ATOM     18  C   UNL A   1      33.302  16.735  23.517  1.00  0.00     0.043 A 
ATOM     19  C   UNL A   1      32.813  17.245  25.814  1.00  0.00     0.043 A 
ATOM     20  C   UNL A   1      33.101  16.321  24.827  1.00  0.00     0.123 A 
ATOM     21  F   UNL A   1      33.177  15.023  25.141  1.00  0.00    -0.207 F 
ENDBRANCH  14  15
ENDBRANCH  10  14
ENDBRANCH   3   5
ENDBRANCH   2   3
ENDBRANCH   1   2
BRANCH   1  22
ATOM     22  C   UNL A   1      37.862  20.054  24.942  1.00  0.00     0.275 C 
BRANCH  22  23
ATOM     23  O   UNL A   1      38.422  21.161  25.690  1.00  0.00    -0.458 OA
BRANCH  23  24
ATOM     24  C   UNL A   1      39.657  20.974  26.227  1.00  0.00     0.338 C 
ATOM     25  O   UNL A   1      40.368  19.992  26.096  1.00  0.00    -0.246 OA
BRANCH  24  26
ATOM     26  C   UNL A   1      40.136  22.258  26.810  1.00  0.00     0.060 A 
ATOM     27  C   UNL A   1      39.463  23.429  26.431  1.00  0.00     0.016 A 
ATOM     28  C   UNL A   1      41.131  22.317  27.794  1.00  0.00     0.016 A 
ATOM     29  C   UNL A   1      39.756  24.643  27.055  1.00  0.00     0.010 A 
ATOM     30  C   UNL A   1      41.459  23.549  28.384  1.00  0.00     0.010 A 
ATOM     31  C   UNL A   1      40.779  24.722  28.011  1.00  0.00    -0.014 A 
BRANCH  31  32
ATOM     32  C   UNL A   1      41.297  26.069  28.375  1.00  0.00     0.031 A 
ATOM     33  C   UNL A   1      42.715  26.381  27.979  1.00  0.00     0.074 A 
ATOM     34  C   UNL A   1      40.544  27.027  28.948  1.00  0.00     0.049 A 
ATOM     35  N   UNL A   1      43.364  27.516  28.017  1.00  0.00    -0.248 NA
ATOM     36  C   UNL A   1      43.498  25.257  27.439  1.00  0.00     0.031 C 
ATOM     37  C   UNL A   1      39.146  26.892  29.344  1.00  0.00     0.029 A 
ATOM     38  N   UNL A   1      40.864  28.326  29.278  1.00  0.00    -0.354 N 
ATOM     39  C   UNL A   1      44.601  27.255  27.447  1.00  0.00     0.074 A 
ATOM     40  C   UNL A   1      44.639  25.846  27.124  1.00  0.00     0.031 C 
ATOM     41  C   UNL A   1      38.724  28.064  29.857  1.00  0.00     0.029 A 
ATOM     42  C   UNL A   1      39.823  29.032  29.834  1.00  0.00     0.049 A 
ATOM     43  H   UNL A   1      41.756  28.713  29.130  1.00  0.00     0.167 HD
ATOM     44  C   UNL A   1      45.616  28.111  27.193  1.00  0.00     0.037 A 
ATOM     45  C   UNL A   1      39.770  30.311  30.265  1.00  0.00     0.037 A 
ATOM     46  C   UNL A   1      45.630  29.492  27.578  1.00  0.00     0.049 A 
ATOM     47  C   UNL A   1      40.985  31.202  30.139  1.00  0.00     0.074 A 
ATOM     48  C   UNL A   1      46.636  30.424  27.400  1.00  0.00     0.029 A 
ATOM     49  N   UNL A   1      44.601  30.131  28.251  1.00  0.00    -0.354 N 
ATOM     50  N   UNL A   1      42.130  30.965  29.544  1.00  0.00    -0.248 NA
ATOM     51  C   UNL A   1      40.902  32.540  30.750  1.00  0.00     0.031 C 
ATOM     52  C   UNL A   1      46.241  31.612  28.020  1.00  0.00     0.029 A 
ATOM     53  C   UNL A   1      44.968  31.433  28.539  1.00  0.00     0.049 A 
ATOM     54  H   UNL A   1      43.738  29.719  28.488  1.00  0.00     0.167 HD
ATOM     55  C   UNL A   1      42.888  32.123  29.691  1.00  0.00     0.074 A 
ATOM     56  C   UNL A   1      42.073  33.070  30.418  1.00  0.00     0.031 C 
ATOM     57  C   UNL A   1      44.150  32.372  29.263  1.00  0.00     0.037 A 
BRANCH  44  58
ATOM     58  C   UNL A   1      46.808  27.553  26.482  1.00  0.00     0.064 A 
ATOM     59  C   UNL A   1      46.895  27.581  25.083  1.00  0.00     0.173 A 
ATOM     60  C   UNL A   1      47.870  26.991  27.202  1.00  0.00     0.173 A 
ATOM     61  F   UNL A   1      45.891  28.090  24.354  1.00  0.00    -0.203 F 
ATOM     62  C   UNL A   1      47.999  27.046  24.427  1.00  0.00     0.198 A 
ATOM     63  C   UNL A   1      48.983  26.477  26.544  1.00  0.00     0.198 A 
ATOM     64  F   UNL A   1      47.826  26.937  28.542  1.00  0.00    -0.203 F 
ATOM     65  F   UNL A   1      48.044  27.042  23.088  1.00  0.00    -0.200 F 
ATOM     66  C   UNL A   1      49.044  26.500  25.158  1.00  0.00     0.200 A 
ATOM     67  F   UNL A   1      49.993  25.953  27.250  1.00  0.00    -0.200 F 
ATOM     68  F   UNL A   1      50.106  25.984  24.525  1.00  0.00    -0.200 F 
ENDBRANCH  44  58
BRANCH  45  69
ATOM     69  C   UNL A   1      38.519  30.850  30.869  1.00  0.00     0.064 A 
ATOM     70  C   UNL A   1      37.508  31.403  30.068  1.00  0.00     0.173 A 
ATOM     71  C   UNL A   1      38.332  30.875  32.259  1.00  0.00     0.173 A 
ATOM     72  F   UNL A   1      37.655  31.441  28.736  1.00  0.00    -0.203 F 
ATOM     73  C   UNL A   1      36.365  31.969  30.635  1.00  0.00     0.198 A 
ATOM     74  C   UNL A   1      37.178  31.419  32.823  1.00  0.00     0.198 A 
ATOM     75  F   UNL A   1      39.276  30.380  33.073  1.00  0.00    -0.203 F 
ATOM     76  F   UNL A   1      35.439  32.533  29.848  1.00  0.00    -0.200 F 
ATOM     77  C   UNL A   1      36.199  31.970  32.012  1.00  0.00     0.200 A 
ATOM     78  F   UNL A   1      37.022  31.420  34.155  1.00  0.00    -0.200 F 
ATOM     79  F   UNL A   1      35.104  32.517  32.555  1.00  0.00    -0.200 F 
ENDBRANCH  45  69
BRANCH  57  80
ATOM     80  C   UNL A   1      44.758  33.713  29.566  1.00  0.00     0.064 A 
ATOM     81  C   UNL A   1      44.545  34.813  28.724  1.00  0.00     0.173 A 
ATOM     82  C   UNL A   1      45.440  33.931  30.773  1.00  0.00     0.173 A 
ATOM     83  F   UNL A   1      43.907  34.655  27.554  1.00  0.00    -0.203 F 
ATOM     84  C   UNL A   1      44.988  36.084  29.082  1.00  0.00     0.198 A 
ATOM     85  C   UNL A   1      45.857  35.208  31.141  1.00  0.00     0.198 A 
ATOM     86  F   UNL A   1      45.660  32.914  31.620  1.00  0.00    -0.203 F 
ATOM     87  F   UNL A   1      44.781  37.121  28.257  1.00  0.00    -0.200 F 
ATOM     88  C   UNL A   1      45.628  36.284  30.296  1.00  0.00     0.200 A 
ATOM     89  F   UNL A   1      46.457  35.402  32.323  1.00  0.00    -0.200 F 
ATOM     90  F   UNL A   1      46.022  37.514  30.654  1.00  0.00    -0.200 F 
ENDBRANCH  57  80
ENDBRANCH  31  32
ENDBRANCH  24  26
ENDBRANCH  23  24
ENDBRANCH  22  23
ENDBRANCH   1  22
TORSDOF 13
ENDMDL
MODEL 3
REMARK VINA RESULT:     -12.6      5.068     10.104
REMARK SMILES Cc1nc(Oc2ccc(F)cc2)c(C(=O)OCCOC(=O)c2ccc(-c3c4nc(c(-c5c(F)c(F)c(F)c(F)c5F)c5ccc([nH]5)c(-c5c(F)c(F)c(F)c(F)c5F)c5nc(c(-c6c(F)c(F)c(F)c(F)c6F)c6ccc3[nH]6)C=C5)C=C4)cc2)c(C)c1Cl
REMARK SMILES IDX 17 1 16 2 14 3 15 4 13 5 1 6 2 7 3 8 87 9 4 10 85 11 88 12
REMARK SMILES IDX 86 13 5 14 6 15 7 16 12 17 8 18 11 19 9 20 10 21 18 22 19 23
REMARK SMILES IDX 20 24 21 25 22 26 23 27 84 28 24 29 83 30 25 31 26 32 27 33
REMARK SMILES IDX 77 34 28 35 82 36 76 37 78 38 29 39 81 40 75 41 74 42 30 44
REMARK SMILES IDX 62 45 42 46 61 47 43 48 46 49 60 50 79 51 44 52 45 53 59 55
REMARK SMILES IDX 80 56 47 57 31 58 32 59 40 60 33 61 34 62 38 63 41 64 35 65
REMARK SMILES IDX 36 66 39 67 37 68 63 69 64 70 72 71 65 72 66 73 70 74 73 75
REMARK SMILES IDX 67 76 68 77 71 78 69 79 48 80 49 81 57 82 50 83 51 84 55 85
REMARK SMILES IDX 58 86 52 87 53 88 56 89 54 90
REMARK H PARENT 78 43 46 54
REMARK Flexibility Score: inf
ROOT
ATOM      1  C   UNL A   1      31.773  28.746  27.241  1.00  0.00     0.275 C 
ENDROOT
BRANCH   1   2
ATOM      2  O   UNL A   1      32.028  27.834  26.159  1.00  0.00    -0.458 OA
BRANCH   2   3
ATOM      3  C   UNL A   1      31.227  26.737  26.056  1.00  0.00     0.344 C 
ATOM      4  O   UNL A   1      30.416  26.323  26.844  1.00  0.00    -0.246 OA
BRANCH   3   5
ATOM      5  C   UNL A   1      31.549  26.175  24.733  1.00  0.00     0.127 A 
ATOM      6  C   UNL A   1      32.911  25.202  20.830  1.00  0.00     0.068 C 
ATOM      7  C   UNL A   1      32.463  25.501  22.236  1.00  0.00     0.060 A 
ATOM      8  N   UNL A   1      31.290  26.184  22.353  1.00  0.00    -0.216 NA
ATOM      9  C   UNL A   1      33.188  25.056  23.345  1.00  0.00     0.066 A 
ATOM     10  C   UNL A   1      30.825  26.513  23.589  1.00  0.00     0.234 A 
ATOM     11  C   UNL A   1      32.721  25.380  24.626  1.00  0.00    -0.011 A 
ATOM     12  Cl  UNL A   1      34.639  24.135  23.129  1.00  0.00    -0.082 Cl
ATOM     13  C   UNL A   1      33.451  24.939  25.872  1.00  0.00     0.047 C 
BRANCH  10  14
ATOM     14  O   UNL A   1      29.523  26.952  23.520  1.00  0.00    -0.438 OA
BRANCH  14  15
ATOM     15  C   UNL A   1      29.123  28.259  23.456  1.00  0.00     0.129 A 
ATOM     16  C   UNL A   1      27.781  28.476  23.134  1.00  0.00     0.050 A 
ATOM     17  C   UNL A   1      29.944  29.365  23.609  1.00  0.00     0.050 A 
ATOM     18  C   UNL A   1      27.268  29.776  23.045  1.00  0.00     0.043 A 
ATOM     19  C   UNL A   1      29.445  30.667  23.536  1.00  0.00     0.043 A 
ATOM     20  C   UNL A   1      28.104  30.863  23.265  1.00  0.00     0.123 A 
ATOM     21  F   UNL A   1      27.617  32.108  23.208  1.00  0.00    -0.207 F 
ENDBRANCH  14  15
ENDBRANCH  10  14
ENDBRANCH   3   5
ENDBRANCH   2   3
ENDBRANCH   1   2
BRANCH   1  22
ATOM     22  C   UNL A   1      31.870  30.186  26.709  1.00  0.00     0.275 C 
BRANCH  22  23
ATOM     23  O   UNL A   1      33.249  30.606  26.565  1.00  0.00    -0.458 OA
BRANCH  23  24
ATOM     24  C   UNL A   1      33.679  31.588  27.403  1.00  0.00     0.338 C 
ATOM     25  O   UNL A   1      33.020  32.517  27.836  1.00  0.00    -0.246 OA
BRANCH  24  26
ATOM     26  C   UNL A   1      35.027  31.229  27.923  1.00  0.00     0.060 A 
ATOM     27  C   UNL A   1      35.286  29.872  28.163  1.00  0.00     0.016 A 
ATOM     28  C   UNL A   1      36.059  32.167  28.061  1.00  0.00     0.016 A 
ATOM     29  C   UNL A   1      36.573  29.448  28.501  1.00  0.00     0.010 A 
ATOM     30  C   UNL A   1      37.341  31.745  28.451  1.00  0.00     0.010 A 
ATOM     31  C   UNL A   1      37.604  30.383  28.682  1.00  0.00    -0.014 A 
BRANCH  31  32
ATOM     32  C   UNL A   1      38.838  29.939  29.385  1.00  0.00     0.031 A 
ATOM     33  C   UNL A   1      39.083  30.511  30.754  1.00  0.00     0.074 A 
ATOM     34  C   UNL A   1      39.676  29.004  28.898  1.00  0.00     0.049 A 
ATOM     35  N   UNL A   1      39.976  30.182  31.652  1.00  0.00    -0.248 NA
ATOM     36  C   UNL A   1      38.174  31.590  31.177  1.00  0.00     0.031 C 
ATOM     37  C   UNL A   1      39.546  28.324  27.614  1.00  0.00     0.029 A 
ATOM     38  N   UNL A   1      40.808  28.451  29.458  1.00  0.00    -0.354 N 
ATOM     39  C   UNL A   1      39.691  30.963  32.762  1.00  0.00     0.074 A 
ATOM     40  C   UNL A   1      38.584  31.824  32.412  1.00  0.00     0.031 C 
ATOM     41  C   UNL A   1      40.553  27.438  27.485  1.00  0.00     0.029 A 
ATOM     42  C   UNL A   1      41.406  27.492  28.675  1.00  0.00     0.049 A 
ATOM     43  H   UNL A   1      41.155  28.718  30.339  1.00  0.00     0.167 HD
ATOM     44  C   UNL A   1      40.282  30.956  33.978  1.00  0.00     0.037 A 
ATOM     45  C   UNL A   1      42.508  26.746  28.901  1.00  0.00     0.037 A 
ATOM     46  C   UNL A   1      41.431  30.169  34.319  1.00  0.00     0.049 A 
ATOM     47  C   UNL A   1      43.265  26.891  30.203  1.00  0.00     0.074 A 
ATOM     48  C   UNL A   1      42.123  30.132  35.516  1.00  0.00     0.029 A 
ATOM     49  N   UNL A   1      42.077  29.304  33.451  1.00  0.00    -0.354 N 
ATOM     50  N   UNL A   1      42.955  27.587  31.270  1.00  0.00    -0.248 NA
ATOM     51  C   UNL A   1      44.531  26.149  30.328  1.00  0.00     0.031 C 
ATOM     52  C   UNL A   1      43.226  29.291  35.352  1.00  0.00     0.029 A 
ATOM     53  C   UNL A   1      43.191  28.765  34.070  1.00  0.00     0.049 A 
ATOM     54  H   UNL A   1      41.787  29.104  32.531  1.00  0.00     0.167 HD
ATOM     55  C   UNL A   1      43.969  27.351  32.194  1.00  0.00     0.074 A 
ATOM     56  C   UNL A   1      44.900  26.436  31.571  1.00  0.00     0.031 C 
ATOM     57  C   UNL A   1      44.114  27.854  33.444  1.00  0.00     0.037 A 
BRANCH  44  58
ATOM     58  C   UNL A   1      39.697  31.859  35.017  1.00  0.00     0.064 A 
ATOM     59  C   UNL A   1      38.760  31.383  35.945  1.00  0.00     0.173 A 
ATOM     60  C   UNL A   1      40.078  33.206  35.089  1.00  0.00     0.173 A 
ATOM     61  F   UNL A   1      38.351  30.106  35.897  1.00  0.00    -0.203 F 
ATOM     62  C   UNL A   1      38.207  32.231  36.899  1.00  0.00     0.198 A 
ATOM     63  C   UNL A   1      39.540  34.045  36.059  1.00  0.00     0.198 A 
ATOM     64  F   UNL A   1      40.967  33.705  34.218  1.00  0.00    -0.203 F 
ATOM     65  F   UNL A   1      37.281  31.769  37.749  1.00  0.00    -0.200 F 
ATOM     66  C   UNL A   1      38.602  33.560  36.959  1.00  0.00     0.200 A 
ATOM     67  F   UNL A   1      39.924  35.328  36.119  1.00  0.00    -0.200 F 
ATOM     68  F   UNL A   1      38.069  34.376  37.878  1.00  0.00    -0.200 F 
ENDBRANCH  44  58
BRANCH  45  69
ATOM     69  C   UNL A   1      42.988  25.780  27.872  1.00  0.00     0.064 A 
ATOM     70  C   UNL A   1      43.874  26.180  26.861  1.00  0.00     0.173 A 
ATOM     71  C   UNL A   1      42.527  24.456  27.846  1.00  0.00     0.173 A 
ATOM     72  F   UNL A   1      44.313  27.447  26.818  1.00  0.00    -0.203 F 
ATOM     73  C   UNL A   1      44.272  25.296  25.858  1.00  0.00     0.198 A 
ATOM     74  C   UNL A   1      42.945  23.566  26.856  1.00  0.00     0.198 A 
ATOM     75  F   UNL A   1      41.661  24.026  28.775  1.00  0.00    -0.203 F 
ATOM     76  F   UNL A   1      45.082  25.719  24.878  1.00  0.00    -0.200 F 
ATOM     77  C   UNL A   1      43.812  23.988  25.860  1.00  0.00     0.200 A 
ATOM     78  F   UNL A   1      42.497  22.302  26.861  1.00  0.00    -0.200 F 
ATOM     79  F   UNL A   1      44.192  23.141  24.895  1.00  0.00    -0.200 F 
ENDBRANCH  45  69
BRANCH  57  80
ATOM     80  C   UNL A   1      45.321  27.451  34.244  1.00  0.00     0.064 A 
ATOM     81  C   UNL A   1      46.485  28.232  34.244  1.00  0.00     0.173 A 
ATOM     82  C   UNL A   1      45.263  26.356  35.120  1.00  0.00     0.173 A 
ATOM     83  F   UNL A   1      46.593  29.283  33.418  1.00  0.00    -0.203 F 
ATOM     84  C   UNL A   1      47.545  27.934  35.096  1.00  0.00     0.198 A 
ATOM     85  C   UNL A   1      46.314  26.078  35.990  1.00  0.00     0.198 A 
ATOM     86  F   UNL A   1      44.167  25.583  35.167  1.00  0.00    -0.203 F 
ATOM     87  F   UNL A   1      48.653  28.689  35.073  1.00  0.00    -0.200 F 
ATOM     88  C   UNL A   1      47.453  26.869  35.979  1.00  0.00     0.200 A 
ATOM     89  F   UNL A   1      46.214  25.060  36.857  1.00  0.00    -0.200 F 
ATOM     90  F   UNL A   1      48.460  26.606  36.823  1.00  0.00    -0.200 F 
ENDBRANCH  57  80
ENDBRANCH  31  32
ENDBRANCH  24  26
ENDBRANCH  23  24
ENDBRANCH  22  23
ENDBRANCH   1  22
TORSDOF 13
ENDMDL
