MODEL 1
REMARK VINA RESULT:     -13.3      0.000      0.000
REMARK SMILES Cc1ccccc1[C@@H](Cc1c(Cl)cccc1Cl)C(=O)OCCOC(=O)c1ccc(-c2c3nc(c(-c4c(F)c(F)c(F)c(F)c4F)c4ccc([nH]4)c(-c4c(F)c(F)c(F)c(F)c4F)c4nc(c(-c5c(F)c(F)c(F)c(F)c5F)c5ccc2[nH]5)C=C4)C=C3)cc1
REMARK SMILES IDX 21 1 20 2 18 3 19 4 8 5 7 6 1 7 2 8 3 9 4 10 6 11 5 12 9 13
REMARK SMILES IDX 10 14 11 15 16 16 12 17 13 18 15 19 17 20 14 21 22 22 23 23
REMARK SMILES IDX 24 24 25 25 26 26 27 27 88 28 28 29 87 30 29 31 30 32 31 33
REMARK SMILES IDX 81 34 32 35 86 36 80 37 82 38 33 39 85 40 79 41 78 42 34 44
REMARK SMILES IDX 66 45 46 46 65 47 47 48 50 49 64 50 83 51 48 52 49 53 63 55
REMARK SMILES IDX 84 56 51 57 35 58 36 59 44 60 37 61 38 62 42 63 45 64 39 65
REMARK SMILES IDX 40 66 43 67 41 68 67 69 68 70 76 71 69 72 70 73 74 74 77 75
REMARK SMILES IDX 71 76 72 77 75 78 73 79 52 80 53 81 61 82 54 83 55 84 59 85
REMARK SMILES IDX 62 86 56 87 57 88 60 89 58 90
REMARK H PARENT 82 43 50 54
REMARK Flexibility Score: inf
ROOT
ATOM      1  C   UNL A   1      33.988  29.482  26.711  1.00  0.00     0.274 C 
ENDROOT
BRANCH   1   2
ATOM      2  O   UNL A   1      33.559  28.254  27.311  1.00  0.00    -0.462 OA
BRANCH   2   3
ATOM      3  C   UNL A   1      32.257  27.906  27.044  1.00  0.00     0.313 C 
ATOM      4  O   UNL A   1      31.309  28.367  27.647  1.00  0.00    -0.252 OA
BRANCH   3   5
ATOM      5  C   UNL A   1      32.221  26.650  26.135  1.00  0.00     0.134 C 
BRANCH   5   6
ATOM      6  C   UNL A   1      31.451  27.167  24.904  1.00  0.00    -0.031 A 
ATOM      7  C   UNL A   1      30.232  24.957  24.478  1.00  0.00     0.044 C 
ATOM      8  C   UNL A   1      30.409  26.438  24.313  1.00  0.00    -0.047 A 
ATOM      9  C   UNL A   1      29.441  27.138  23.576  1.00  0.00     0.004 A 
ATOM     10  C   UNL A   1      29.525  28.519  23.392  1.00  0.00     0.000 A 
ATOM     11  C   UNL A   1      31.605  28.538  24.576  1.00  0.00     0.005 A 
ATOM     12  C   UNL A   1      30.625  29.217  23.865  1.00  0.00     0.000 A 
ENDBRANCH   5   6
BRANCH   5  13
ATOM     13  C   UNL A   1      33.586  26.018  25.713  1.00  0.00     0.058 C 
BRANCH  13  14
ATOM     14  C   UNL A   1      33.698  24.657  25.005  1.00  0.00    -0.010 A 
ATOM     15  C   UNL A   1      33.887  24.589  23.603  1.00  0.00     0.045 A 
ATOM     16  C   UNL A   1      33.488  23.413  25.632  1.00  0.00     0.045 A 
ATOM     17  Cl  UNL A   1      33.780  25.990  22.585  1.00  0.00    -0.084 Cl
ATOM     18  C   UNL A   1      34.096  23.371  22.930  1.00  0.00     0.021 A 
ATOM     19  C   UNL A   1      33.716  22.194  24.964  1.00  0.00     0.021 A 
ATOM     20  Cl  UNL A   1      32.854  23.267  27.230  1.00  0.00    -0.084 Cl
ATOM     21  C   UNL A   1      34.069  22.172  23.623  1.00  0.00     0.003 A 
ENDBRANCH  13  14
ENDBRANCH   5  13
ENDBRANCH   3   5
ENDBRANCH   2   3
ENDBRANCH   1   2
BRANCH   1  22
ATOM     22  C   UNL A   1      33.920  30.683  27.672  1.00  0.00     0.275 C 
BRANCH  22  23
ATOM     23  O   UNL A   1      35.174  31.250  28.144  1.00  0.00    -0.458 OA
BRANCH  23  24
ATOM     24  C   UNL A   1      35.940  30.837  29.192  1.00  0.00     0.338 C 
ATOM     25  O   UNL A   1      35.703  31.157  30.346  1.00  0.00    -0.246 OA
BRANCH  24  26
ATOM     26  C   UNL A   1      37.019  29.879  28.889  1.00  0.00     0.060 A 
ATOM     27  C   UNL A   1      37.770  30.043  27.720  1.00  0.00     0.016 A 
ATOM     28  C   UNL A   1      37.414  28.967  29.856  1.00  0.00     0.016 A 
ATOM     29  C   UNL A   1      39.019  29.422  27.618  1.00  0.00     0.010 A 
ATOM     30  C   UNL A   1      38.708  28.483  29.819  1.00  0.00     0.010 A 
ATOM     31  C   UNL A   1      39.535  28.716  28.706  1.00  0.00    -0.014 A 
BRANCH  31  32
ATOM     32  C   UNL A   1      40.742  27.880  28.639  1.00  0.00     0.031 A 
ATOM     33  C   UNL A   1      40.831  26.427  28.350  1.00  0.00     0.074 A 
ATOM     34  C   UNL A   1      41.858  28.602  28.869  1.00  0.00     0.049 A 
ATOM     35  N   UNL A   1      41.885  25.709  28.563  1.00  0.00    -0.248 NA
ATOM     36  C   UNL A   1      39.759  25.625  27.800  1.00  0.00     0.031 C 
ATOM     37  C   UNL A   1      43.257  28.238  28.782  1.00  0.00     0.029 A 
ATOM     38  N   UNL A   1      41.863  29.849  29.511  1.00  0.00    -0.354 N 
ATOM     39  C   UNL A   1      41.704  24.453  28.010  1.00  0.00     0.074 A 
ATOM     40  C   UNL A   1      40.346  24.450  27.547  1.00  0.00     0.031 C 
ATOM     41  C   UNL A   1      43.938  29.027  29.634  1.00  0.00     0.029 A 
ATOM     42  C   UNL A   1      42.958  29.814  30.377  1.00  0.00     0.049 A 
ATOM     43  H   UNL A   1      41.230  30.591  29.378  1.00  0.00     0.167 HD
ATOM     44  C   UNL A   1      42.759  23.591  27.961  1.00  0.00     0.037 A 
ATOM     45  C   UNL A   1      42.703  29.754  31.718  1.00  0.00     0.037 A 
ATOM     46  C   UNL A   1      43.865  24.128  28.746  1.00  0.00     0.049 A 
ATOM     47  C   UNL A   1      43.241  28.486  32.346  1.00  0.00     0.074 A 
ATOM     48  C   UNL A   1      44.976  24.895  28.442  1.00  0.00     0.029 A 
ATOM     49  N   UNL A   1      43.699  24.211  30.117  1.00  0.00    -0.354 N 
ATOM     50  N   UNL A   1      43.548  27.405  31.680  1.00  0.00    -0.248 NA
ATOM     51  C   UNL A   1      43.404  28.315  33.787  1.00  0.00     0.031 C 
ATOM     52  C   UNL A   1      45.442  25.485  29.654  1.00  0.00     0.029 A 
ATOM     53  C   UNL A   1      44.635  25.046  30.690  1.00  0.00     0.049 A 
ATOM     54  H   UNL A   1      43.001  23.734  30.620  1.00  0.00     0.167 HD
ATOM     55  C   UNL A   1      44.031  26.461  32.542  1.00  0.00     0.074 A 
ATOM     56  C   UNL A   1      43.830  27.044  33.858  1.00  0.00     0.031 C 
ATOM     57  C   UNL A   1      44.583  25.285  32.122  1.00  0.00     0.037 A 
BRANCH  44  58
ATOM     58  C   UNL A   1      42.882  22.369  27.068  1.00  0.00     0.064 A 
ATOM     59  C   UNL A   1      42.065  21.240  27.308  1.00  0.00     0.173 A 
ATOM     60  C   UNL A   1      43.812  22.200  26.025  1.00  0.00     0.173 A 
ATOM     61  F   UNL A   1      41.067  21.278  28.201  1.00  0.00    -0.203 F 
ATOM     62  C   UNL A   1      42.245  20.018  26.649  1.00  0.00     0.198 A 
ATOM     63  C   UNL A   1      44.021  20.966  25.391  1.00  0.00     0.198 A 
ATOM     64  F   UNL A   1      44.514  23.230  25.540  1.00  0.00    -0.203 F 
ATOM     65  F   UNL A   1      41.448  18.981  26.940  1.00  0.00    -0.200 F 
ATOM     66  C   UNL A   1      43.248  19.870  25.715  1.00  0.00     0.200 A 
ATOM     67  F   UNL A   1      44.979  20.848  24.458  1.00  0.00    -0.200 F 
ATOM     68  F   UNL A   1      43.455  18.687  25.119  1.00  0.00    -0.200 F 
ENDBRANCH  44  58
BRANCH  45  69
ATOM     69  C   UNL A   1      41.463  30.487  32.170  1.00  0.00     0.064 A 
ATOM     70  C   UNL A   1      41.390  31.896  32.031  1.00  0.00     0.173 A 
ATOM     71  C   UNL A   1      40.275  29.844  32.539  1.00  0.00     0.173 A 
ATOM     72  F   UNL A   1      42.487  32.603  31.709  1.00  0.00    -0.203 F 
ATOM     73  C   UNL A   1      40.184  32.592  32.131  1.00  0.00     0.198 A 
ATOM     74  C   UNL A   1      39.075  30.552  32.686  1.00  0.00     0.198 A 
ATOM     75  F   UNL A   1      40.238  28.516  32.710  1.00  0.00    -0.203 F 
ATOM     76  F   UNL A   1      40.148  33.907  31.868  1.00  0.00    -0.200 F 
ATOM     77  C   UNL A   1      39.024  31.917  32.452  1.00  0.00     0.200 A 
ATOM     78  F   UNL A   1      37.953  29.893  33.007  1.00  0.00    -0.200 F 
ATOM     79  F   UNL A   1      37.856  32.571  32.513  1.00  0.00    -0.200 F 
ENDBRANCH  45  69
BRANCH  57  80
ATOM     80  C   UNL A   1      45.160  24.254  33.053  1.00  0.00     0.064 A 
ATOM     81  C   UNL A   1      44.451  23.115  33.460  1.00  0.00     0.173 A 
ATOM     82  C   UNL A   1      46.429  24.435  33.646  1.00  0.00     0.173 A 
ATOM     83  F   UNL A   1      43.187  22.909  33.062  1.00  0.00    -0.203 F 
ATOM     84  C   UNL A   1      45.014  22.167  34.315  1.00  0.00     0.198 A 
ATOM     85  C   UNL A   1      46.961  23.523  34.553  1.00  0.00     0.198 A 
ATOM     86  F   UNL A   1      47.204  25.487  33.347  1.00  0.00    -0.203 F 
ATOM     87  F   UNL A   1      44.333  21.051  34.604  1.00  0.00    -0.200 F 
ATOM     88  C   UNL A   1      46.265  22.373  34.865  1.00  0.00     0.200 A 
ATOM     89  F   UNL A   1      48.157  23.761  35.109  1.00  0.00    -0.200 F 
ATOM     90  F   UNL A   1      46.801  21.468  35.693  1.00  0.00    -0.200 F 
ENDBRANCH  57  80
ENDBRANCH  31  32
ENDBRANCH  24  26
ENDBRANCH  23  24
ENDBRANCH  22  23
ENDBRANCH   1  22
TORSDOF 14
ENDMDL
MODEL 2
REMARK VINA RESULT:     -13.3      1.143      3.014
REMARK SMILES Cc1ccccc1[C@@H](Cc1c(Cl)cccc1Cl)C(=O)OCCOC(=O)c1ccc(-c2c3nc(c(-c4c(F)c(F)c(F)c(F)c4F)c4ccc([nH]4)c(-c4c(F)c(F)c(F)c(F)c4F)c4nc(c(-c5c(F)c(F)c(F)c(F)c5F)c5ccc2[nH]5)C=C4)C=C3)cc1
REMARK SMILES IDX 21 1 20 2 18 3 19 4 8 5 7 6 1 7 2 8 3 9 4 10 6 11 5 12 9 13
REMARK SMILES IDX 10 14 11 15 16 16 12 17 13 18 15 19 17 20 14 21 22 22 23 23
REMARK SMILES IDX 24 24 25 25 26 26 27 27 88 28 28 29 87 30 29 31 30 32 31 33
REMARK SMILES IDX 81 34 32 35 86 36 80 37 82 38 33 39 85 40 79 41 78 42 34 44
REMARK SMILES IDX 66 45 46 46 65 47 47 48 50 49 64 50 83 51 48 52 49 53 63 55
REMARK SMILES IDX 84 56 51 57 35 58 36 59 44 60 37 61 38 62 42 63 45 64 39 65
REMARK SMILES IDX 40 66 43 67 41 68 67 69 68 70 76 71 69 72 70 73 74 74 77 75
REMARK SMILES IDX 71 76 72 77 75 78 73 79 52 80 53 81 61 82 54 83 55 84 59 85
REMARK SMILES IDX 62 86 56 87 57 88 60 89 58 90
REMARK H PARENT 82 43 50 54
REMARK Flexibility Score: inf
ROOT
ATOM      1  C   UNL A   1      33.596  27.623  26.379  1.00  0.00     0.274 C 
ENDROOT
BRANCH   1   2
ATOM      2  O   UNL A   1      34.392  26.553  25.855  1.00  0.00    -0.462 OA
BRANCH   2   3
ATOM      3  C   UNL A   1      33.676  25.509  25.321  1.00  0.00     0.313 C 
ATOM      4  O   UNL A   1      32.955  24.790  25.982  1.00  0.00    -0.252 OA
BRANCH   3   5
ATOM      5  C   UNL A   1      34.175  25.207  23.883  1.00  0.00     0.134 C 
BRANCH   5   6
ATOM      6  C   UNL A   1      34.337  23.675  23.915  1.00  0.00    -0.031 A 
ATOM      7  C   UNL A   1      36.597  23.730  25.115  1.00  0.00     0.044 C 
ATOM      8  C   UNL A   1      35.341  23.045  24.664  1.00  0.00    -0.047 A 
ATOM      9  C   UNL A   1      35.134  21.716  25.069  1.00  0.00     0.004 A 
ATOM     10  C   UNL A   1      33.983  21.015  24.704  1.00  0.00     0.000 A 
ATOM     11  C   UNL A   1      33.254  22.902  23.425  1.00  0.00     0.005 A 
ATOM     12  C   UNL A   1      33.055  21.597  23.854  1.00  0.00     0.000 A 
ENDBRANCH   5   6
BRANCH   5  13
ATOM     13  C   UNL A   1      33.267  25.648  22.691  1.00  0.00     0.058 C 
BRANCH  13  14
ATOM     14  C   UNL A   1      32.141  26.687  22.833  1.00  0.00    -0.010 A 
ATOM     15  C   UNL A   1      32.432  28.073  22.794  1.00  0.00     0.045 A 
ATOM     16  C   UNL A   1      30.804  26.375  23.146  1.00  0.00     0.045 A 
ATOM     17  Cl  UNL A   1      34.057  28.679  22.810  1.00  0.00    -0.084 Cl
ATOM     18  C   UNL A   1      31.423  29.055  22.817  1.00  0.00     0.021 A 
ATOM     19  C   UNL A   1      29.790  27.354  23.150  1.00  0.00     0.021 A 
ATOM     20  Cl  UNL A   1      30.301  24.798  23.635  1.00  0.00    -0.084 Cl
ATOM     21  C   UNL A   1      30.092  28.691  22.936  1.00  0.00     0.003 A 
ENDBRANCH  13  14
ENDBRANCH   5  13
ENDBRANCH   3   5
ENDBRANCH   2   3
ENDBRANCH   1   2
BRANCH   1  22
ATOM     22  C   UNL A   1      34.358  28.957  26.475  1.00  0.00     0.275 C 
BRANCH  22  23
ATOM     23  O   UNL A   1      34.479  29.579  27.785  1.00  0.00    -0.458 OA
BRANCH  23  24
ATOM     24  C   UNL A   1      35.430  30.456  28.212  1.00  0.00     0.338 C 
ATOM     25  O   UNL A   1      35.174  31.614  28.503  1.00  0.00    -0.246 OA
BRANCH  24  26
ATOM     26  C   UNL A   1      36.785  29.916  28.423  1.00  0.00     0.060 A 
ATOM     27  C   UNL A   1      37.015  29.046  29.494  1.00  0.00     0.016 A 
ATOM     28  C   UNL A   1      37.754  30.102  27.447  1.00  0.00     0.016 A 
ATOM     29  C   UNL A   1      38.146  28.223  29.475  1.00  0.00     0.010 A 
ATOM     30  C   UNL A   1      38.782  29.184  27.355  1.00  0.00     0.010 A 
ATOM     31  C   UNL A   1      38.986  28.221  28.359  1.00  0.00    -0.014 A 
BRANCH  31  32
ATOM     32  C   UNL A   1      40.286  27.539  28.317  1.00  0.00     0.031 A 
ATOM     33  C   UNL A   1      40.559  26.110  28.028  1.00  0.00     0.074 A 
ATOM     34  C   UNL A   1      41.301  28.392  28.572  1.00  0.00     0.049 A 
ATOM     35  N   UNL A   1      41.689  25.525  28.263  1.00  0.00    -0.248 NA
ATOM     36  C   UNL A   1      39.606  25.184  27.454  1.00  0.00     0.031 C 
ATOM     37  C   UNL A   1      42.735  28.203  28.514  1.00  0.00     0.029 A 
ATOM     38  N   UNL A   1      41.139  29.628  29.215  1.00  0.00    -0.354 N 
ATOM     39  C   UNL A   1      41.674  24.259  27.705  1.00  0.00     0.074 A 
ATOM     40  C   UNL A   1      40.337  24.091  27.213  1.00  0.00     0.031 C 
ATOM     41  C   UNL A   1      43.296  29.066  29.382  1.00  0.00     0.029 A 
ATOM     42  C   UNL A   1      42.211  29.724  30.105  1.00  0.00     0.049 A 
ATOM     43  H   UNL A   1      40.423  30.288  29.069  1.00  0.00     0.167 HD
ATOM     44  C   UNL A   1      42.828  23.532  27.678  1.00  0.00     0.037 A 
ATOM     45  C   UNL A   1      41.937  29.628  31.439  1.00  0.00     0.037 A 
ATOM     46  C   UNL A   1      43.843  24.198  28.487  1.00  0.00     0.049 A 
ATOM     47  C   UNL A   1      42.613  28.434  32.078  1.00  0.00     0.074 A 
ATOM     48  C   UNL A   1      44.858  25.096  28.208  1.00  0.00     0.029 A 
ATOM     49  N   UNL A   1      43.639  24.255  29.854  1.00  0.00    -0.354 N 
ATOM     50  N   UNL A   1      43.064  27.401  31.417  1.00  0.00    -0.248 NA
ATOM     51  C   UNL A   1      42.766  28.279  33.521  1.00  0.00     0.031 C 
ATOM     52  C   UNL A   1      45.222  25.735  29.431  1.00  0.00     0.029 A 
ATOM     53  C   UNL A   1      44.453  25.197  30.448  1.00  0.00     0.049 A 
ATOM     54  H   UNL A   1      42.994  23.695  30.342  1.00  0.00     0.167 HD
ATOM     55  C   UNL A   1      43.641  26.520  32.289  1.00  0.00     0.074 A 
ATOM     56  C   UNL A   1      43.342  27.069  33.600  1.00  0.00     0.031 C 
ATOM     57  C   UNL A   1      44.342  25.422  31.879  1.00  0.00     0.037 A 
BRANCH  44  58
ATOM     58  C   UNL A   1      43.119  22.338  26.787  1.00  0.00     0.064 A 
ATOM     59  C   UNL A   1      42.407  21.131  26.977  1.00  0.00     0.173 A 
ATOM     60  C   UNL A   1      44.115  22.273  25.794  1.00  0.00     0.173 A 
ATOM     61  F   UNL A   1      41.364  21.061  27.816  1.00  0.00    -0.203 F 
ATOM     62  C   UNL A   1      42.741  19.940  26.322  1.00  0.00     0.198 A 
ATOM     63  C   UNL A   1      44.478  21.072  25.166  1.00  0.00     0.198 A 
ATOM     64  F   UNL A   1      44.735  23.372  25.352  1.00  0.00    -0.203 F 
ATOM     65  F   UNL A   1      42.038  18.826  26.565  1.00  0.00    -0.200 F 
ATOM     66  C   UNL A   1      43.803  19.902  25.443  1.00  0.00     0.200 A 
ATOM     67  F   UNL A   1      45.491  21.059  24.285  1.00  0.00    -0.200 F 
ATOM     68  F   UNL A   1      44.157  18.751  24.852  1.00  0.00    -0.200 F 
ENDBRANCH  44  58
BRANCH  45  69
ATOM     69  C   UNL A   1      40.608  30.202  31.865  1.00  0.00     0.064 A 
ATOM     70  C   UNL A   1      39.555  29.331  32.243  1.00  0.00     0.173 A 
ATOM     71  C   UNL A   1      40.395  31.564  32.111  1.00  0.00     0.173 A 
ATOM     72  F   UNL A   1      39.655  28.009  32.018  1.00  0.00    -0.203 F 
ATOM     73  C   UNL A   1      38.428  29.781  32.932  1.00  0.00     0.198 A 
ATOM     74  C   UNL A   1      39.240  32.019  32.760  1.00  0.00     0.198 A 
ATOM     75  F   UNL A   1      41.320  32.474  31.779  1.00  0.00    -0.203 F 
ATOM     76  F   UNL A   1      37.520  28.899  33.377  1.00  0.00    -0.200 F 
ATOM     77  C   UNL A   1      38.274  31.127  33.197  1.00  0.00     0.200 A 
ATOM     78  F   UNL A   1      39.092  33.328  33.007  1.00  0.00    -0.200 F 
ATOM     79  F   UNL A   1      37.215  31.563  33.891  1.00  0.00    -0.200 F 
ENDBRANCH  45  69
BRANCH  57  80
ATOM     80  C   UNL A   1      45.021  24.467  32.821  1.00  0.00     0.064 A 
ATOM     81  C   UNL A   1      44.403  23.302  33.301  1.00  0.00     0.173 A 
ATOM     82  C   UNL A   1      46.299  24.749  33.351  1.00  0.00     0.173 A 
ATOM     83  F   UNL A   1      43.139  23.003  32.966  1.00  0.00    -0.203 F 
ATOM     84  C   UNL A   1      45.060  22.426  34.164  1.00  0.00     0.198 A 
ATOM     85  C   UNL A   1      46.925  23.907  34.267  1.00  0.00     0.198 A 
ATOM     86  F   UNL A   1      46.993  25.834  32.980  1.00  0.00    -0.203 F 
ATOM     87  F   UNL A   1      44.464  21.281  34.524  1.00  0.00    -0.200 F 
ATOM     88  C   UNL A   1      46.317  22.730  34.651  1.00  0.00     0.200 A 
ATOM     89  F   UNL A   1      48.125  24.240  34.762  1.00  0.00    -0.200 F 
ATOM     90  F   UNL A   1      46.942  21.892  35.488  1.00  0.00    -0.200 F 
ENDBRANCH  57  80
ENDBRANCH  31  32
ENDBRANCH  24  26
ENDBRANCH  23  24
ENDBRANCH  22  23
ENDBRANCH   1  22
TORSDOF 14
ENDMDL
MODEL 3
REMARK VINA RESULT:     -13.0      1.012      2.820
REMARK SMILES Cc1ccccc1[C@@H](Cc1c(Cl)cccc1Cl)C(=O)OCCOC(=O)c1ccc(-c2c3nc(c(-c4c(F)c(F)c(F)c(F)c4F)c4ccc([nH]4)c(-c4c(F)c(F)c(F)c(F)c4F)c4nc(c(-c5c(F)c(F)c(F)c(F)c5F)c5ccc2[nH]5)C=C4)C=C3)cc1
REMARK SMILES IDX 21 1 20 2 18 3 19 4 8 5 7 6 1 7 2 8 3 9 4 10 6 11 5 12 9 13
REMARK SMILES IDX 10 14 11 15 16 16 12 17 13 18 15 19 17 20 14 21 22 22 23 23
REMARK SMILES IDX 24 24 25 25 26 26 27 27 88 28 28 29 87 30 29 31 30 32 31 33
REMARK SMILES IDX 81 34 32 35 86 36 80 37 82 38 33 39 85 40 79 41 78 42 34 44
REMARK SMILES IDX 66 45 46 46 65 47 47 48 50 49 64 50 83 51 48 52 49 53 63 55
REMARK SMILES IDX 84 56 51 57 35 58 36 59 44 60 37 61 38 62 42 63 45 64 39 65
REMARK SMILES IDX 40 66 43 67 41 68 67 69 68 70 76 71 69 72 70 73 74 74 77 75
REMARK SMILES IDX 71 76 72 77 75 78 73 79 52 80 53 81 61 82 54 83 55 84 59 85
REMARK SMILES IDX 62 86 56 87 57 88 60 89 58 90
REMARK H PARENT 82 43 50 54
REMARK Flexibility Score: inf
ROOT
ATOM      1  C   UNL A   1      33.936  29.122  26.219  1.00  0.00     0.274 C 
ENDROOT
BRANCH   1   2
ATOM      2  O   UNL A   1      34.305  27.762  26.476  1.00  0.00    -0.462 OA
BRANCH   2   3
ATOM      3  C   UNL A   1      33.346  26.833  26.152  1.00  0.00     0.313 C 
ATOM      4  O   UNL A   1      32.360  26.632  26.831  1.00  0.00    -0.252 OA
BRANCH   3   5
ATOM      5  C   UNL A   1      33.870  25.902  25.027  1.00  0.00     0.134 C 
BRANCH   5   6
ATOM      6  C   UNL A   1      33.715  24.508  25.666  1.00  0.00    -0.031 A 
ATOM      7  C   UNL A   1      36.231  24.040  25.751  1.00  0.00     0.044 C 
ATOM      8  C   UNL A   1      34.811  23.790  26.167  1.00  0.00    -0.047 A 
ATOM      9  C   UNL A   1      34.576  22.826  27.160  1.00  0.00     0.004 A 
ATOM     10  C   UNL A   1      33.285  22.547  27.613  1.00  0.00     0.000 A 
ATOM     11  C   UNL A   1      32.404  24.104  26.022  1.00  0.00     0.005 A 
ATOM     12  C   UNL A   1      32.193  23.164  27.022  1.00  0.00     0.000 A 
ENDBRANCH   5   6
BRANCH   5  13
ATOM     13  C   UNL A   1      33.153  25.964  23.641  1.00  0.00     0.058 C 
BRANCH  13  14
ATOM     14  C   UNL A   1      31.987  26.921  23.341  1.00  0.00    -0.010 A 
ATOM     15  C   UNL A   1      30.654  26.440  23.298  1.00  0.00     0.045 A 
ATOM     16  C   UNL A   1      32.140  28.267  22.956  1.00  0.00     0.045 A 
ATOM     17  Cl  UNL A   1      30.278  24.748  23.354  1.00  0.00    -0.084 Cl
ATOM     18  C   UNL A   1      29.550  27.297  23.128  1.00  0.00     0.021 A 
ATOM     19  C   UNL A   1      31.036  29.130  22.805  1.00  0.00     0.021 A 
ATOM     20  Cl  UNL A   1      33.669  28.956  22.551  1.00  0.00    -0.084 Cl
ATOM     21  C   UNL A   1      29.739  28.657  22.940  1.00  0.00     0.003 A 
ENDBRANCH  13  14
ENDBRANCH   5  13
ENDBRANCH   3   5
ENDBRANCH   2   3
ENDBRANCH   1   2
BRANCH   1  22
ATOM     22  C   UNL A   1      33.743  29.952  27.502  1.00  0.00     0.275 C 
BRANCH  22  23
ATOM     23  O   UNL A   1      34.791  30.891  27.869  1.00  0.00    -0.458 OA
BRANCH  23  24
ATOM     24  C   UNL A   1      35.732  30.758  28.846  1.00  0.00     0.338 C 
ATOM     25  O   UNL A   1      35.639  31.314  29.929  1.00  0.00    -0.246 OA
BRANCH  24  26
ATOM     26  C   UNL A   1      36.831  29.811  28.584  1.00  0.00     0.060 A 
ATOM     27  C   UNL A   1      37.577  29.938  27.407  1.00  0.00     0.016 A 
ATOM     28  C   UNL A   1      37.246  28.952  29.591  1.00  0.00     0.016 A 
ATOM     29  C   UNL A   1      38.839  29.339  27.331  1.00  0.00     0.010 A 
ATOM     30  C   UNL A   1      38.550  28.495  29.573  1.00  0.00     0.010 A 
ATOM     31  C   UNL A   1      39.372  28.695  28.449  1.00  0.00    -0.014 A 
BRANCH  31  32
ATOM     32  C   UNL A   1      40.595  27.883  28.418  1.00  0.00     0.031 A 
ATOM     33  C   UNL A   1      40.718  26.425  28.168  1.00  0.00     0.074 A 
ATOM     34  C   UNL A   1      41.694  28.634  28.640  1.00  0.00     0.049 A 
ATOM     35  N   UNL A   1      41.784  25.734  28.412  1.00  0.00    -0.248 NA
ATOM     36  C   UNL A   1      39.669  25.586  27.628  1.00  0.00     0.031 C 
ATOM     37  C   UNL A   1      43.101  28.297  28.578  1.00  0.00     0.029 A 
ATOM     38  N   UNL A   1      41.666  29.897  29.249  1.00  0.00    -0.354 N 
ATOM     39  C   UNL A   1      41.635  24.462  27.890  1.00  0.00     0.074 A 
ATOM     40  C   UNL A   1      40.282  24.418  27.413  1.00  0.00     0.031 C 
ATOM     41  C   UNL A   1      43.756  29.122  29.417  1.00  0.00     0.029 A 
ATOM     42  C   UNL A   1      42.751  29.908  30.128  1.00  0.00     0.049 A 
ATOM     43  H   UNL A   1      41.020  30.622  29.089  1.00  0.00     0.167 HD
ATOM     44  C   UNL A   1      42.708  23.620  27.876  1.00  0.00     0.037 A 
ATOM     45  C   UNL A   1      42.482  29.878  31.467  1.00  0.00     0.037 A 
ATOM     46  C   UNL A   1      43.794  24.201  28.659  1.00  0.00     0.049 A 
ATOM     47  C   UNL A   1      43.039  28.638  32.135  1.00  0.00     0.074 A 
ATOM     48  C   UNL A   1      44.892  24.982  28.347  1.00  0.00     0.029 A 
ATOM     49  N   UNL A   1      43.610  24.317  30.025  1.00  0.00    -0.354 N 
ATOM     50  N   UNL A   1      43.376  27.546  31.500  1.00  0.00    -0.248 NA
ATOM     51  C   UNL A   1      43.189  28.509  33.581  1.00  0.00     0.031 C 
ATOM     52  C   UNL A   1      45.332  25.614  29.548  1.00  0.00     0.029 A 
ATOM     53  C   UNL A   1      44.523  25.186  30.586  1.00  0.00     0.049 A 
ATOM     54  H   UNL A   1      42.916  23.839  30.533  1.00  0.00     0.167 HD
ATOM     55  C   UNL A   1      43.869  26.636  32.393  1.00  0.00     0.074 A 
ATOM     56  C   UNL A   1      43.641  27.249  33.690  1.00  0.00     0.031 C 
ATOM     57  C   UNL A   1      44.449  25.461  32.010  1.00  0.00     0.037 A 
BRANCH  44  58
ATOM     58  C   UNL A   1      42.866  22.378  27.017  1.00  0.00     0.064 A 
ATOM     59  C   UNL A   1      42.066  21.240  27.274  1.00  0.00     0.173 A 
ATOM     60  C   UNL A   1      43.815  22.199  25.993  1.00  0.00     0.173 A 
ATOM     61  F   UNL A   1      41.054  21.284  28.152  1.00  0.00    -0.203 F 
ATOM     62  C   UNL A   1      42.277  20.006  26.651  1.00  0.00     0.198 A 
ATOM     63  C   UNL A   1      44.055  20.953  25.394  1.00  0.00     0.198 A 
ATOM     64  F   UNL A   1      44.506  23.228  25.491  1.00  0.00    -0.203 F 
ATOM     65  F   UNL A   1      41.495  18.962  26.958  1.00  0.00    -0.200 F 
ATOM     66  C   UNL A   1      43.298  19.852  25.736  1.00  0.00     0.200 A 
ATOM     67  F   UNL A   1      45.029  20.828  24.480  1.00  0.00    -0.200 F 
ATOM     68  F   UNL A   1      43.534  18.658  25.174  1.00  0.00    -0.200 F 
ENDBRANCH  44  58
BRANCH  45  69
ATOM     69  C   UNL A   1      41.223  30.596  31.885  1.00  0.00     0.064 A 
ATOM     70  C   UNL A   1      41.115  31.997  31.692  1.00  0.00     0.173 A 
ATOM     71  C   UNL A   1      40.049  29.939  32.274  1.00  0.00     0.173 A 
ATOM     72  F   UNL A   1      42.196  32.718  31.347  1.00  0.00    -0.203 F 
ATOM     73  C   UNL A   1      39.892  32.666  31.761  1.00  0.00     0.198 A 
ATOM     74  C   UNL A   1      38.832  30.622  32.389  1.00  0.00     0.198 A 
ATOM     75  F   UNL A   1      40.044  28.618  32.497  1.00  0.00    -0.203 F 
ATOM     76  F   UNL A   1      39.825  33.969  31.447  1.00  0.00    -0.200 F 
ATOM     77  C   UNL A   1      38.748  31.975  32.103  1.00  0.00     0.200 A 
ATOM     78  F   UNL A   1      37.725  29.948  32.731  1.00  0.00    -0.200 F 
ATOM     79  F   UNL A   1      37.564  32.601  32.135  1.00  0.00    -0.200 F 
ENDBRANCH  45  69
BRANCH  57  80
ATOM     80  C   UNL A   1      45.036  24.468  32.974  1.00  0.00     0.064 A 
ATOM     81  C   UNL A   1      46.344  24.571  33.472  1.00  0.00     0.173 A 
ATOM     82  C   UNL A   1      44.321  23.312  33.358  1.00  0.00     0.173 A 
ATOM     83  F   UNL A   1      47.159  25.558  33.071  1.00  0.00    -0.203 F 
ATOM     84  C   UNL A   1      46.860  23.643  34.376  1.00  0.00     0.198 A 
ATOM     85  C   UNL A   1      44.864  22.351  34.206  1.00  0.00     0.198 A 
ATOM     86  F   UNL A   1      43.065  23.090  32.946  1.00  0.00    -0.203 F 
ATOM     87  F   UNL A   1      48.081  23.833  34.894  1.00  0.00    -0.200 F 
ATOM     88  C   UNL A   1      46.123  22.532  34.739  1.00  0.00     0.200 A 
ATOM     89  F   UNL A   1      44.151  21.258  34.513  1.00  0.00    -0.200 F 
ATOM     90  F   UNL A   1      46.624  21.636  35.599  1.00  0.00    -0.200 F 
ENDBRANCH  57  80
ENDBRANCH  31  32
ENDBRANCH  24  26
ENDBRANCH  23  24
ENDBRANCH  22  23
ENDBRANCH   1  22
TORSDOF 14
ENDMDL
