MODEL 1
REMARK VINA RESULT:      -9.6      0.000      0.000
REMARK SMILES C[C@@H](C(=O)OCCOC(=O)c1ccc(-c2c3nc(c(-c4c(F)c(F)c(F)c(F)c4F)c4ccc([nH]4)c(-c4c(F)c(F)c(F)c(F)c4F)c4nc(c(-c5c(F)c(F)c(F)c(F)c5F)c5ccc2[nH]5)C=C4)C=C3)cc1)c1ccc(C(=O)c2cccs2)cc1
REMARK SMILES IDX 6 1 5 2 3 3 4 4 2 5 1 6 74 7 75 8 86 9 76 10 85 11 77 12
REMARK SMILES IDX 78 13 79 14 80 15 81 16 84 17 82 18 83 19 7 20 8 21 9 22
REMARK SMILES IDX 10 23 11 24 12 25 73 26 13 27 72 28 14 29 15 30 16 31 66 32
REMARK SMILES IDX 17 33 71 34 65 35 67 36 18 37 70 38 64 39 63 40 19 42 51 43
REMARK SMILES IDX 31 44 50 45 32 46 35 47 49 48 68 49 33 50 34 51 48 53 69 54
REMARK SMILES IDX 36 55 20 56 21 57 29 58 22 59 23 60 27 61 30 62 24 63 25 64
REMARK SMILES IDX 28 65 26 66 52 67 53 68 61 69 54 70 55 71 59 72 62 73 56 74
REMARK SMILES IDX 57 75 60 76 58 77 37 78 38 79 46 80 39 81 40 82 44 83 47 84
REMARK SMILES IDX 41 85 42 86 45 87 43 88
REMARK H PARENT 67 41 35 52
REMARK Flexibility Score: inf
ROOT
ATOM      1  C   UNL A   1      42.650  20.182  26.432  1.00  0.00     0.274 C 
ENDROOT
BRANCH   1   2
ATOM      2  O   UNL A   1      43.357  20.463  25.207  1.00  0.00    -0.462 OA
BRANCH   2   3
ATOM      3  C   UNL A   1      43.759  21.749  25.004  1.00  0.00     0.313 C 
ATOM      4  O   UNL A   1      43.015  22.654  24.641  1.00  0.00    -0.252 OA
BRANCH   3   5
ATOM      5  C   UNL A   1      45.264  21.932  25.229  1.00  0.00     0.126 C 
ATOM      6  C   UNL A   1      46.029  20.610  25.370  1.00  0.00     0.025 C 
BRANCH   5   7
ATOM      7  C   UNL A   1      45.543  22.897  26.381  1.00  0.00    -0.034 A 
ATOM      8  C   UNL A   1      46.667  23.731  26.400  1.00  0.00     0.005 A 
ATOM      9  C   UNL A   1      44.673  22.938  27.483  1.00  0.00     0.005 A 
ATOM     10  C   UNL A   1      46.913  24.572  27.491  1.00  0.00     0.012 A 
ATOM     11  C   UNL A   1      44.916  23.788  28.574  1.00  0.00     0.012 A 
ATOM     12  C   UNL A   1      46.054  24.600  28.601  1.00  0.00     0.023 A 
BRANCH  12  13
ATOM     13  C   UNL A   1      46.416  25.515  29.738  1.00  0.00     0.202 C 
ATOM     14  O   UNL A   1      47.572  25.443  30.157  1.00  0.00    -0.288 OA
BRANCH  13  15
ATOM     15  C   UNL A   1      45.448  26.452  30.287  1.00  0.00     0.075 A 
ATOM     16  C   UNL A   1      44.118  26.285  30.628  1.00  0.00     0.024 A 
ATOM     17  S   UNL A   1      45.991  28.036  30.666  1.00  0.00    -0.140 S 
ATOM     18  C   UNL A   1      43.534  27.482  31.144  1.00  0.00     0.012 A 
ATOM     19  C   UNL A   1      44.445  28.511  31.215  1.00  0.00     0.065 A 
ENDBRANCH  13  15
ENDBRANCH  12  13
ENDBRANCH   5   7
ENDBRANCH   3   5
ENDBRANCH   2   3
ENDBRANCH   1   2
BRANCH   1  20
ATOM     20  C   UNL A   1      41.225  19.734  26.118  1.00  0.00     0.275 C 
BRANCH  20  21
ATOM     21  O   UNL A   1      40.319  20.427  26.993  1.00  0.00    -0.458 OA
BRANCH  21  22
ATOM     22  C   UNL A   1      39.500  21.333  26.413  1.00  0.00     0.338 C 
ATOM     23  O   UNL A   1      38.586  21.116  25.637  1.00  0.00    -0.246 OA
BRANCH  22  24
ATOM     24  C   UNL A   1      39.867  22.689  26.868  1.00  0.00     0.060 A 
ATOM     25  C   UNL A   1      39.329  23.814  26.244  1.00  0.00     0.016 A 
ATOM     26  C   UNL A   1      40.843  22.841  27.855  1.00  0.00     0.016 A 
ATOM     27  C   UNL A   1      39.835  25.079  26.540  1.00  0.00     0.010 A 
ATOM     28  C   UNL A   1      41.286  24.122  28.207  1.00  0.00     0.010 A 
ATOM     29  C   UNL A   1      40.823  25.258  27.520  1.00  0.00    -0.014 A 
BRANCH  29  30
ATOM     30  C   UNL A   1      41.420  26.606  27.769  1.00  0.00     0.031 A 
ATOM     31  C   UNL A   1      42.767  26.961  27.189  1.00  0.00     0.074 A 
ATOM     32  C   UNL A   1      40.760  27.541  28.481  1.00  0.00     0.049 A 
ATOM     33  N   UNL A   1      43.565  27.957  27.491  1.00  0.00    -0.248 NA
ATOM     34  C   UNL A   1      43.303  26.058  26.159  1.00  0.00     0.031 C 
ATOM     35  C   UNL A   1      39.432  27.383  29.073  1.00  0.00     0.029 A 
ATOM     36  N   UNL A   1      41.116  28.827  28.811  1.00  0.00    -0.354 N 
ATOM     37  C   UNL A   1      44.718  27.760  26.741  1.00  0.00     0.074 A 
ATOM     38  C   UNL A   1      44.519  26.553  25.968  1.00  0.00     0.031 C 
ATOM     39  C   UNL A   1      39.056  28.545  29.630  1.00  0.00     0.029 A 
ATOM     40  C   UNL A   1      40.155  29.500  29.522  1.00  0.00     0.049 A 
ATOM     41  H   UNL A   1      41.980  29.227  28.561  1.00  0.00     0.167 HD
ATOM     42  C   UNL A   1      45.843  28.514  26.706  1.00  0.00     0.037 A 
ATOM     43  C   UNL A   1      40.165  30.732  30.067  1.00  0.00     0.037 A 
ATOM     44  C   UNL A   1      46.005  29.771  27.391  1.00  0.00     0.049 A 
ATOM     45  C   UNL A   1      41.408  31.571  29.986  1.00  0.00     0.074 A 
ATOM     46  C   UNL A   1      47.117  30.595  27.439  1.00  0.00     0.029 A 
ATOM     47  N   UNL A   1      45.003  30.411  28.102  1.00  0.00    -0.354 N 
ATOM     48  N   UNL A   1      42.552  31.299  29.412  1.00  0.00    -0.248 NA
ATOM     49  C   UNL A   1      41.372  32.874  30.667  1.00  0.00     0.031 C 
ATOM     50  C   UNL A   1      46.790  31.731  28.189  1.00  0.00     0.029 A 
ATOM     51  C   UNL A   1      45.468  31.623  28.585  1.00  0.00     0.049 A 
ATOM     52  H   UNL A   1      44.095  30.056  28.243  1.00  0.00     0.167 HD
ATOM     53  C   UNL A   1      43.377  32.381  29.675  1.00  0.00     0.074 A 
ATOM     54  C   UNL A   1      42.592  33.335  30.430  1.00  0.00     0.031 C 
ATOM     55  C   UNL A   1      44.678  32.558  29.341  1.00  0.00     0.037 A 
BRANCH  42  56
ATOM     56  C   UNL A   1      47.012  27.988  25.929  1.00  0.00     0.064 A 
ATOM     57  C   UNL A   1      47.021  27.952  24.528  1.00  0.00     0.173 A 
ATOM     58  C   UNL A   1      48.167  27.565  26.606  1.00  0.00     0.173 A 
ATOM     59  F   UNL A   1      45.938  28.333  23.836  1.00  0.00    -0.203 F 
ATOM     60  C   UNL A   1      48.139  27.494  23.834  1.00  0.00     0.198 A 
ATOM     61  C   UNL A   1      49.290  27.132  25.909  1.00  0.00     0.198 A 
ATOM     62  F   UNL A   1      48.212  27.590  27.947  1.00  0.00    -0.203 F 
ATOM     63  F   UNL A   1      48.117  27.438  22.495  1.00  0.00    -0.200 F 
ATOM     64  C   UNL A   1      49.274  27.093  24.523  1.00  0.00     0.200 A 
ATOM     65  F   UNL A   1      50.391  26.757  26.576  1.00  0.00    -0.200 F 
ATOM     66  F   UNL A   1      50.352  26.667  23.850  1.00  0.00    -0.200 F 
ENDBRANCH  42  56
BRANCH  43  67
ATOM     67  C   UNL A   1      38.961  31.228  30.779  1.00  0.00     0.064 A 
ATOM     68  C   UNL A   1      38.786  30.980  32.146  1.00  0.00     0.173 A 
ATOM     69  C   UNL A   1      37.974  31.971  30.115  1.00  0.00     0.173 A 
ATOM     70  F   UNL A   1      39.691  30.253  32.818  1.00  0.00    -0.203 F 
ATOM     71  C   UNL A   1      37.667  31.459  32.824  1.00  0.00     0.198 A 
ATOM     72  C   UNL A   1      36.871  32.472  30.800  1.00  0.00     0.198 A 
ATOM     73  F   UNL A   1      38.098  32.232  28.806  1.00  0.00    -0.203 F 
ATOM     74  F   UNL A   1      37.509  31.188  34.128  1.00  0.00    -0.200 F 
ATOM     75  C   UNL A   1      36.715  32.213  32.153  1.00  0.00     0.200 A 
ATOM     76  F   UNL A   1      35.961  33.212  30.151  1.00  0.00    -0.200 F 
ATOM     77  F   UNL A   1      35.648  32.687  32.810  1.00  0.00    -0.200 F 
ENDBRANCH  43  67
BRANCH  55  78
ATOM     78  C   UNL A   1      45.334  33.823  29.799  1.00  0.00     0.064 A 
ATOM     79  C   UNL A   1      46.043  33.873  31.007  1.00  0.00     0.173 A 
ATOM     80  C   UNL A   1      45.281  34.983  29.014  1.00  0.00     0.173 A 
ATOM     81  F   UNL A   1      46.108  32.791  31.798  1.00  0.00    -0.203 F 
ATOM     82  C   UNL A   1      46.663  35.048  31.423  1.00  0.00     0.198 A 
ATOM     83  C   UNL A   1      45.915  36.152  29.425  1.00  0.00     0.198 A 
ATOM     84  F   UNL A   1      44.614  34.982  27.850  1.00  0.00    -0.203 F 
ATOM     85  F   UNL A   1      47.308  35.085  32.597  1.00  0.00    -0.200 F 
ATOM     86  C   UNL A   1      46.602  36.185  30.630  1.00  0.00     0.200 A 
ATOM     87  F   UNL A   1      45.859  37.249  28.657  1.00  0.00    -0.200 F 
ATOM     88  F   UNL A   1      47.198  37.316  31.033  1.00  0.00    -0.200 F 
ENDBRANCH  55  78
ENDBRANCH  29  30
ENDBRANCH  22  24
ENDBRANCH  21  22
ENDBRANCH  20  21
ENDBRANCH   1  20
TORSDOF 14
ENDMDL
MODEL 2
REMARK VINA RESULT:      -9.5      6.791     12.845
REMARK SMILES C[C@@H](C(=O)OCCOC(=O)c1ccc(-c2c3nc(c(-c4c(F)c(F)c(F)c(F)c4F)c4ccc([nH]4)c(-c4c(F)c(F)c(F)c(F)c4F)c4nc(c(-c5c(F)c(F)c(F)c(F)c5F)c5ccc2[nH]5)C=C4)C=C3)cc1)c1ccc(C(=O)c2cccs2)cc1
REMARK SMILES IDX 6 1 5 2 3 3 4 4 2 5 1 6 74 7 75 8 86 9 76 10 85 11 77 12
REMARK SMILES IDX 78 13 79 14 80 15 81 16 84 17 82 18 83 19 7 20 8 21 9 22
REMARK SMILES IDX 10 23 11 24 12 25 73 26 13 27 72 28 14 29 15 30 16 31 66 32
REMARK SMILES IDX 17 33 71 34 65 35 67 36 18 37 70 38 64 39 63 40 19 42 51 43
REMARK SMILES IDX 31 44 50 45 32 46 35 47 49 48 68 49 33 50 34 51 48 53 69 54
REMARK SMILES IDX 36 55 20 56 21 57 29 58 22 59 23 60 27 61 30 62 24 63 25 64
REMARK SMILES IDX 28 65 26 66 52 67 53 68 61 69 54 70 55 71 59 72 62 73 56 74
REMARK SMILES IDX 57 75 60 76 58 77 37 78 38 79 46 80 39 81 40 82 44 83 47 84
REMARK SMILES IDX 41 85 42 86 45 87 43 88
REMARK H PARENT 67 41 35 52
REMARK Flexibility Score: inf
ROOT
ATOM      1  C   UNL A   1      33.154  34.572  28.763  1.00  0.00     0.274 C 
ENDROOT
BRANCH   1   2
ATOM      2  O   UNL A   1      34.054  33.511  29.145  1.00  0.00    -0.462 OA
BRANCH   2   3
ATOM      3  C   UNL A   1      34.951  33.092  28.210  1.00  0.00     0.313 C 
ATOM      4  O   UNL A   1      35.345  33.780  27.275  1.00  0.00    -0.252 OA
BRANCH   3   5
ATOM      5  C   UNL A   1      35.380  31.635  28.425  1.00  0.00     0.126 C 
ATOM      6  C   UNL A   1      36.834  31.358  28.024  1.00  0.00     0.025 C 
BRANCH   5   7
ATOM      7  C   UNL A   1      34.396  30.662  27.775  1.00  0.00    -0.034 A 
ATOM      8  C   UNL A   1      33.083  31.031  27.457  1.00  0.00     0.005 A 
ATOM      9  C   UNL A   1      34.792  29.341  27.512  1.00  0.00     0.005 A 
ATOM     10  C   UNL A   1      32.197  30.102  26.901  1.00  0.00     0.012 A 
ATOM     11  C   UNL A   1      33.905  28.411  26.946  1.00  0.00     0.012 A 
ATOM     12  C   UNL A   1      32.587  28.775  26.655  1.00  0.00     0.023 A 
BRANCH  12  13
ATOM     13  C   UNL A   1      31.556  27.843  26.081  1.00  0.00     0.202 C 
ATOM     14  O   UNL A   1      30.991  27.090  26.876  1.00  0.00    -0.288 OA
BRANCH  13  15
ATOM     15  C   UNL A   1      31.234  27.858  24.663  1.00  0.00     0.075 A 
ATOM     16  C   UNL A   1      30.634  28.827  23.880  1.00  0.00     0.024 A 
ATOM     17  S   UNL A   1      31.707  26.504  23.719  1.00  0.00    -0.140 S 
ATOM     18  C   UNL A   1      30.511  28.426  22.515  1.00  0.00     0.012 A 
ATOM     19  C   UNL A   1      31.054  27.180  22.293  1.00  0.00     0.065 A 
ENDBRANCH  13  15
ENDBRANCH  12  13
ENDBRANCH   5   7
ENDBRANCH   3   5
ENDBRANCH   2   3
ENDBRANCH   1   2
BRANCH   1  20
ATOM     20  C   UNL A   1      33.190  35.684  29.807  1.00  0.00     0.275 C 
BRANCH  20  21
ATOM     21  O   UNL A   1      32.274  35.356  30.865  1.00  0.00    -0.458 OA
BRANCH  21  22
ATOM     22  C   UNL A   1      32.529  35.910  32.072  1.00  0.00     0.338 C 
ATOM     23  O   UNL A   1      31.944  36.840  32.598  1.00  0.00    -0.246 OA
BRANCH  22  24
ATOM     24  C   UNL A   1      33.658  35.203  32.709  1.00  0.00     0.060 A 
ATOM     25  C   UNL A   1      34.878  35.850  32.902  1.00  0.00     0.016 A 
ATOM     26  C   UNL A   1      33.534  33.847  33.014  1.00  0.00     0.016 A 
ATOM     27  C   UNL A   1      35.993  35.118  33.310  1.00  0.00     0.010 A 
ATOM     28  C   UNL A   1      34.637  33.137  33.505  1.00  0.00     0.010 A 
ATOM     29  C   UNL A   1      35.897  33.751  33.614  1.00  0.00    -0.014 A 
BRANCH  29  30
ATOM     30  C   UNL A   1      37.114  32.959  33.967  1.00  0.00     0.031 A 
ATOM     31  C   UNL A   1      37.737  33.089  35.336  1.00  0.00     0.074 A 
ATOM     32  C   UNL A   1      37.660  32.090  33.093  1.00  0.00     0.049 A 
ATOM     33  N   UNL A   1      38.918  32.698  35.751  1.00  0.00    -0.248 NA
ATOM     34  C   UNL A   1      36.942  33.779  36.362  1.00  0.00     0.031 C 
ATOM     35  C   UNL A   1      37.160  31.806  31.748  1.00  0.00     0.029 A 
ATOM     36  N   UNL A   1      38.752  31.265  33.218  1.00  0.00    -0.354 N 
ATOM     37  C   UNL A   1      39.030  33.155  37.059  1.00  0.00     0.074 A 
ATOM     38  C   UNL A   1      37.800  33.849  37.371  1.00  0.00     0.031 C 
ATOM     39  C   UNL A   1      37.897  30.827  31.201  1.00  0.00     0.029 A 
ATOM     40  C   UNL A   1      38.982  30.482  32.115  1.00  0.00     0.049 A 
ATOM     41  H   UNL A   1      39.318  31.240  34.023  1.00  0.00     0.167 HD
ATOM     42  C   UNL A   1      40.068  33.013  37.918  1.00  0.00     0.037 A 
ATOM     43  C   UNL A   1      39.975  29.613  31.844  1.00  0.00     0.037 A 
ATOM     44  C   UNL A   1      41.249  32.234  37.650  1.00  0.00     0.049 A 
ATOM     45  C   UNL A   1      41.098  29.440  32.825  1.00  0.00     0.074 A 
ATOM     46  C   UNL A   1      42.368  32.052  38.446  1.00  0.00     0.029 A 
ATOM     47  N   UNL A   1      41.437  31.460  36.515  1.00  0.00    -0.354 N 
ATOM     48  N   UNL A   1      41.274  30.009  33.990  1.00  0.00    -0.248 NA
ATOM     49  C   UNL A   1      42.186  28.531  32.430  1.00  0.00     0.031 C 
ATOM     50  C   UNL A   1      43.238  31.175  37.788  1.00  0.00     0.029 A 
ATOM     51  C   UNL A   1      42.648  30.792  36.595  1.00  0.00     0.049 A 
ATOM     52  H   UNL A   1      40.803  31.395  35.765  1.00  0.00     0.167 HD
ATOM     53  C   UNL A   1      42.492  29.545  34.461  1.00  0.00     0.074 A 
ATOM     54  C   UNL A   1      43.001  28.618  33.472  1.00  0.00     0.031 C 
ATOM     55  C   UNL A   1      43.144  29.879  35.601  1.00  0.00     0.037 A 
BRANCH  42  56
ATOM     56  C   UNL A   1      39.998  33.746  39.223  1.00  0.00     0.064 A 
ATOM     57  C   UNL A   1      39.375  33.200  40.353  1.00  0.00     0.173 A 
ATOM     58  C   UNL A   1      40.620  34.998  39.355  1.00  0.00     0.173 A 
ATOM     59  F   UNL A   1      38.757  32.013  40.275  1.00  0.00    -0.203 F 
ATOM     60  C   UNL A   1      39.362  33.889  41.564  1.00  0.00     0.198 A 
ATOM     61  C   UNL A   1      40.626  35.672  40.573  1.00  0.00     0.198 A 
ATOM     62  F   UNL A   1      41.239  35.560  38.305  1.00  0.00    -0.203 F 
ATOM     63  F   UNL A   1      38.733  33.363  42.625  1.00  0.00    -0.200 F 
ATOM     64  C   UNL A   1      39.994  35.119  41.676  1.00  0.00     0.200 A 
ATOM     65  F   UNL A   1      41.248  36.855  40.681  1.00  0.00    -0.200 F 
ATOM     66  F   UNL A   1      39.991  35.772  42.846  1.00  0.00    -0.200 F 
ENDBRANCH  42  56
BRANCH  43  67
ATOM     67  C   UNL A   1      39.968  28.871  30.559  1.00  0.00     0.064 A 
ATOM     68  C   UNL A   1      40.566  29.415  29.416  1.00  0.00     0.173 A 
ATOM     69  C   UNL A   1      39.383  27.601  30.453  1.00  0.00     0.173 A 
ATOM     70  F   UNL A   1      41.116  30.638  29.463  1.00  0.00    -0.203 F 
ATOM     71  C   UNL A   1      40.579  28.715  28.211  1.00  0.00     0.198 A 
ATOM     72  C   UNL A   1      39.422  26.891  29.256  1.00  0.00     0.198 A 
ATOM     73  F   UNL A   1      38.798  27.040  31.521  1.00  0.00    -0.203 F 
ATOM     74  F   UNL A   1      41.135  29.267  27.123  1.00  0.00    -0.200 F 
ATOM     75  C   UNL A   1      40.016  27.449  28.135  1.00  0.00     0.200 A 
ATOM     76  F   UNL A   1      38.890  25.662  29.191  1.00  0.00    -0.200 F 
ATOM     77  F   UNL A   1      40.044  26.770  26.981  1.00  0.00    -0.200 F 
ENDBRANCH  43  67
BRANCH  55  78
ATOM     78  C   UNL A   1      44.480  29.245  35.833  1.00  0.00     0.064 A 
ATOM     79  C   UNL A   1      45.658  29.855  35.379  1.00  0.00     0.173 A 
ATOM     80  C   UNL A   1      44.589  28.039  36.539  1.00  0.00     0.173 A 
ATOM     81  F   UNL A   1      45.601  31.003  34.686  1.00  0.00    -0.203 F 
ATOM     82  C   UNL A   1      46.900  29.269  35.608  1.00  0.00     0.198 A 
ATOM     83  C   UNL A   1      45.833  27.464  36.780  1.00  0.00     0.198 A 
ATOM     84  F   UNL A   1      43.489  27.420  36.993  1.00  0.00    -0.203 F 
ATOM     85  F   UNL A   1      48.012  29.850  35.136  1.00  0.00    -0.200 F 
ATOM     86  C   UNL A   1      46.987  28.077  36.313  1.00  0.00     0.200 A 
ATOM     87  F   UNL A   1      45.917  26.314  37.463  1.00  0.00    -0.200 F 
ATOM     88  F   UNL A   1      48.183  27.513  36.531  1.00  0.00    -0.200 F 
ENDBRANCH  55  78
ENDBRANCH  29  30
ENDBRANCH  22  24
ENDBRANCH  21  22
ENDBRANCH  20  21
ENDBRANCH   1  20
TORSDOF 14
ENDMDL
MODEL 3
REMARK VINA RESULT:      -9.4      3.146      5.706
REMARK SMILES C[C@@H](C(=O)OCCOC(=O)c1ccc(-c2c3nc(c(-c4c(F)c(F)c(F)c(F)c4F)c4ccc([nH]4)c(-c4c(F)c(F)c(F)c(F)c4F)c4nc(c(-c5c(F)c(F)c(F)c(F)c5F)c5ccc2[nH]5)C=C4)C=C3)cc1)c1ccc(C(=O)c2cccs2)cc1
REMARK SMILES IDX 6 1 5 2 3 3 4 4 2 5 1 6 74 7 75 8 86 9 76 10 85 11 77 12
REMARK SMILES IDX 78 13 79 14 80 15 81 16 84 17 82 18 83 19 7 20 8 21 9 22
REMARK SMILES IDX 10 23 11 24 12 25 73 26 13 27 72 28 14 29 15 30 16 31 66 32
REMARK SMILES IDX 17 33 71 34 65 35 67 36 18 37 70 38 64 39 63 40 19 42 51 43
REMARK SMILES IDX 31 44 50 45 32 46 35 47 49 48 68 49 33 50 34 51 48 53 69 54
REMARK SMILES IDX 36 55 20 56 21 57 29 58 22 59 23 60 27 61 30 62 24 63 25 64
REMARK SMILES IDX 28 65 26 66 52 67 53 68 61 69 54 70 55 71 59 72 62 73 56 74
REMARK SMILES IDX 57 75 60 76 58 77 37 78 38 79 46 80 39 81 40 82 44 83 47 84
REMARK SMILES IDX 41 85 42 86 45 87 43 88
REMARK H PARENT 67 41 35 52
REMARK Flexibility Score: inf
ROOT
ATOM      1  C   UNL A   1      35.930  20.042  25.000  1.00  0.00     0.274 C 
ENDROOT
BRANCH   1   2
ATOM      2  O   UNL A   1      35.456  21.392  25.185  1.00  0.00    -0.462 OA
BRANCH   2   3
ATOM      3  C   UNL A   1      34.521  21.846  24.304  1.00  0.00     0.313 C 
ATOM      4  O   UNL A   1      33.434  21.311  24.115  1.00  0.00    -0.252 OA
BRANCH   3   5
ATOM      5  C   UNL A   1      35.002  23.078  23.528  1.00  0.00     0.126 C 
ATOM      6  C   UNL A   1      36.529  23.193  23.443  1.00  0.00     0.025 C 
BRANCH   5   7
ATOM      7  C   UNL A   1      34.345  24.357  24.047  1.00  0.00    -0.034 A 
ATOM      8  C   UNL A   1      33.959  25.397  23.194  1.00  0.00     0.005 A 
ATOM      9  C   UNL A   1      34.144  24.527  25.427  1.00  0.00     0.005 A 
ATOM     10  C   UNL A   1      33.399  26.572  23.709  1.00  0.00     0.012 A 
ATOM     11  C   UNL A   1      33.574  25.702  25.943  1.00  0.00     0.012 A 
ATOM     12  C   UNL A   1      33.215  26.750  25.089  1.00  0.00     0.023 A 
BRANCH  12  13
ATOM     13  C   UNL A   1      32.631  28.056  25.550  1.00  0.00     0.202 C 
ATOM     14  O   UNL A   1      31.464  28.284  25.227  1.00  0.00    -0.288 OA
BRANCH  13  15
ATOM     15  C   UNL A   1      33.407  28.984  26.359  1.00  0.00     0.075 A 
ATOM     16  C   UNL A   1      34.720  28.931  26.788  1.00  0.00     0.024 A 
ATOM     17  S   UNL A   1      32.653  30.447  26.847  1.00  0.00    -0.140 S 
ATOM     18  C   UNL A   1      35.084  30.070  27.570  1.00  0.00     0.012 A 
ATOM     19  C   UNL A   1      34.048  30.971  27.681  1.00  0.00     0.065 A 
ENDBRANCH  13  15
ENDBRANCH  12  13
ENDBRANCH   5   7
ENDBRANCH   3   5
ENDBRANCH   2   3
ENDBRANCH   1   2
BRANCH   1  20
ATOM     20  C   UNL A   1      37.456  20.024  25.000  1.00  0.00     0.275 C 
BRANCH  20  21
ATOM     21  O   UNL A   1      37.931  21.100  25.826  1.00  0.00    -0.458 OA
BRANCH  21  22
ATOM     22  C   UNL A   1      39.240  21.064  26.163  1.00  0.00     0.338 C 
ATOM     23  O   UNL A   1      40.005  20.121  26.066  1.00  0.00    -0.246 OA
BRANCH  22  24
ATOM     24  C   UNL A   1      39.650  22.385  26.682  1.00  0.00     0.060 A 
ATOM     25  C   UNL A   1      39.025  23.547  26.231  1.00  0.00     0.016 A 
ATOM     26  C   UNL A   1      40.745  22.474  27.543  1.00  0.00     0.016 A 
ATOM     27  C   UNL A   1      39.553  24.793  26.566  1.00  0.00     0.010 A 
ATOM     28  C   UNL A   1      41.218  23.730  27.944  1.00  0.00     0.010 A 
ATOM     29  C   UNL A   1      40.659  24.910  27.422  1.00  0.00    -0.014 A 
BRANCH  29  30
ATOM     30  C   UNL A   1      41.269  26.244  27.706  1.00  0.00     0.031 A 
ATOM     31  C   UNL A   1      42.640  26.583  27.173  1.00  0.00     0.074 A 
ATOM     32  C   UNL A   1      40.603  27.182  28.409  1.00  0.00     0.049 A 
ATOM     33  N   UNL A   1      43.444  27.562  27.512  1.00  0.00    -0.248 NA
ATOM     34  C   UNL A   1      43.194  25.684  26.150  1.00  0.00     0.031 C 
ATOM     35  C   UNL A   1      39.255  27.040  28.956  1.00  0.00     0.029 A 
ATOM     36  N   UNL A   1      40.970  28.457  28.765  1.00  0.00    -0.354 N 
ATOM     37  C   UNL A   1      44.617  27.354  26.797  1.00  0.00     0.074 A 
ATOM     38  C   UNL A   1      44.423  26.160  26.003  1.00  0.00     0.031 C 
ATOM     39  C   UNL A   1      38.881  28.201  29.516  1.00  0.00     0.029 A 
ATOM     40  C   UNL A   1      39.998  29.138  29.455  1.00  0.00     0.049 A 
ATOM     41  H   UNL A   1      41.848  28.846  28.548  1.00  0.00     0.167 HD
ATOM     42  C   UNL A   1      45.755  28.090  26.807  1.00  0.00     0.037 A 
ATOM     43  C   UNL A   1      40.011  30.363  30.015  1.00  0.00     0.037 A 
ATOM     44  C   UNL A   1      45.917  29.335  27.512  1.00  0.00     0.049 A 
ATOM     45  C   UNL A   1      41.270  31.181  29.983  1.00  0.00     0.074 A 
ATOM     46  C   UNL A   1      47.040  30.139  27.605  1.00  0.00     0.029 A 
ATOM     47  N   UNL A   1      44.903  29.983  28.200  1.00  0.00    -0.354 N 
ATOM     48  N   UNL A   1      42.427  30.897  29.443  1.00  0.00    -0.248 NA
ATOM     49  C   UNL A   1      41.234  32.477  30.679  1.00  0.00     0.031 C 
ATOM     50  C   UNL A   1      46.708  31.272  28.359  1.00  0.00     0.029 A 
ATOM     51  C   UNL A   1      45.372  31.182  28.711  1.00  0.00     0.049 A 
ATOM     52  H   UNL A   1      43.986  29.642  28.307  1.00  0.00     0.167 HD
ATOM     53  C   UNL A   1      43.261  31.962  29.745  1.00  0.00     0.074 A 
ATOM     54  C   UNL A   1      42.469  32.921  30.487  1.00  0.00     0.031 C 
ATOM     55  C   UNL A   1      44.575  32.120  29.454  1.00  0.00     0.037 A 
BRANCH  42  56
ATOM     56  C   UNL A   1      46.939  27.553  26.060  1.00  0.00     0.064 A 
ATOM     57  C   UNL A   1      47.107  27.753  24.684  1.00  0.00     0.173 A 
ATOM     58  C   UNL A   1      47.953  26.872  26.755  1.00  0.00     0.173 A 
ATOM     59  F   UNL A   1      46.162  28.386  23.974  1.00  0.00    -0.203 F 
ATOM     60  C   UNL A   1      48.238  27.276  24.026  1.00  0.00     0.198 A 
ATOM     61  C   UNL A   1      49.093  26.419  26.099  1.00  0.00     0.198 A 
ATOM     62  F   UNL A   1      47.844  26.663  28.076  1.00  0.00    -0.203 F 
ATOM     63  F   UNL A   1      48.366  27.451  22.703  1.00  0.00    -0.200 F 
ATOM     64  C   UNL A   1      49.234  26.618  24.734  1.00  0.00     0.200 A 
ATOM     65  F   UNL A   1      50.059  25.794  26.787  1.00  0.00    -0.200 F 
ATOM     66  F   UNL A   1      50.327  26.173  24.100  1.00  0.00    -0.200 F 
ENDBRANCH  42  56
BRANCH  43  67
ATOM     67  C   UNL A   1      38.794  30.871  30.694  1.00  0.00     0.064 A 
ATOM     68  C   UNL A   1      38.633  30.722  32.078  1.00  0.00     0.173 A 
ATOM     69  C   UNL A   1      37.780  31.528  29.982  1.00  0.00     0.173 A 
ATOM     70  F   UNL A   1      39.564  30.078  32.797  1.00  0.00    -0.203 F 
ATOM     71  C   UNL A   1      37.501  31.213  32.725  1.00  0.00     0.198 A 
ATOM     72  C   UNL A   1      36.663  32.042  30.634  1.00  0.00     0.198 A 
ATOM     73  F   UNL A   1      37.890  31.693  28.656  1.00  0.00    -0.203 F 
ATOM     74  F   UNL A   1      37.356  31.036  34.046  1.00  0.00    -0.200 F 
ATOM     75  C   UNL A   1      36.521  31.881  32.004  1.00  0.00     0.200 A 
ATOM     76  F   UNL A   1      35.726  32.701  29.937  1.00  0.00    -0.200 F 
ATOM     77  F   UNL A   1      35.441  32.368  32.630  1.00  0.00    -0.200 F 
ENDBRANCH  43  67
BRANCH  55  78
ATOM     78  C   UNL A   1      45.237  33.369  29.948  1.00  0.00     0.064 A 
ATOM     79  C   UNL A   1      45.247  34.537  29.171  1.00  0.00     0.173 A 
ATOM     80  C   UNL A   1      45.837  33.411  31.214  1.00  0.00     0.173 A 
ATOM     81  F   UNL A   1      44.697  34.539  27.947  1.00  0.00    -0.203 F 
ATOM     82  C   UNL A   1      45.852  35.700  29.639  1.00  0.00     0.198 A 
ATOM     83  C   UNL A   1      46.426  34.580  31.685  1.00  0.00     0.198 A 
ATOM     84  F   UNL A   1      45.850  32.318  31.992  1.00  0.00    -0.203 F 
ATOM     85  F   UNL A   1      45.880  36.796  28.868  1.00  0.00    -0.200 F 
ATOM     86  C   UNL A   1      46.436  35.722  30.897  1.00  0.00     0.200 A 
ATOM     87  F   UNL A   1      46.989  34.602  32.901  1.00  0.00    -0.200 F 
ATOM     88  F   UNL A   1      47.020  36.842  31.345  1.00  0.00    -0.200 F 
ENDBRANCH  55  78
ENDBRANCH  29  30
ENDBRANCH  22  24
ENDBRANCH  21  22
ENDBRANCH  20  21
ENDBRANCH   1  20
TORSDOF 14
ENDMDL
