MODEL 1
REMARK VINA RESULT:     -15.1      0.000      0.000
REMARK SMILES Cc1c(CC(=O)OCCOC(=O)c2ccc(-c3c4nc(c(-c5c(F)c(F)c(F)c(F)c5F)c5ccc([nH]5)c(-c5c(F)c(F)c(F)c(F)c5F)c5nc(c(-c6c(F)c(F)c(F)c(F)c6F)c6ccc3[nH]6)C=C5)C=C4)cc2)cc(-c2ccccc2)cc1-c1ccccc1
REMARK SMILES IDX 8 1 7 2 5 3 6 4 4 5 3 6 1 7 2 8 85 9 76 10 84 11 77 12 86 13
REMARK SMILES IDX 87 14 91 15 88 16 90 17 89 18 78 19 79 20 83 21 80 22 82 23
REMARK SMILES IDX 81 24 9 25 10 26 11 27 12 28 13 29 14 30 75 31 15 32 74 33
REMARK SMILES IDX 16 34 17 35 18 36 68 37 19 38 73 39 67 40 69 41 20 42 72 43
REMARK SMILES IDX 66 44 65 45 21 47 53 48 33 49 52 50 34 51 37 52 51 53 70 54
REMARK SMILES IDX 35 55 36 56 50 58 71 59 38 60 22 61 23 62 31 63 24 64 25 65
REMARK SMILES IDX 29 66 32 67 26 68 27 69 30 70 28 71 54 72 55 73 63 74 56 75
REMARK SMILES IDX 57 76 61 77 64 78 58 79 59 80 62 81 60 82 39 83 40 84 48 85
REMARK SMILES IDX 41 86 42 87 46 88 49 89 43 90 44 91 47 92 45 93
REMARK H PARENT 69 46 37 57
REMARK Flexibility Score: inf
ROOT
ATOM      1  C   UNL A   1      42.106  20.120  26.295  1.00  0.00     0.274 C 
ENDROOT
BRANCH   1   2
ATOM      2  O   UNL A   1      40.796  20.283  26.873  1.00  0.00    -0.462 OA
BRANCH   2   3
ATOM      3  C   UNL A   1      39.655  20.131  25.987  1.00  0.00     0.310 C 
ATOM      4  O   UNL A   1      39.817  18.973  25.486  1.00  0.00    -0.252 OA
BRANCH   3   5
ATOM      5  C   UNL A   1      38.085  21.606  25.718  1.00  0.00     0.158 C 
BRANCH   5   6
ATOM      6  C   UNL A   1      36.401  21.543  25.309  1.00  0.00    -0.033 A 
ATOM      7  C   UNL A   1      36.105  24.078  25.525  1.00  0.00     0.045 C 
ATOM      8  C   UNL A   1      35.548  22.685  25.356  1.00  0.00    -0.039 A 
ATOM      9  C   UNL A   1      34.144  22.504  25.200  1.00  0.00    -0.015 A 
ATOM     10  C   UNL A   1      35.851  20.352  24.801  1.00  0.00     0.013 A 
ATOM     11  C   UNL A   1      33.634  21.202  25.032  1.00  0.00     0.017 A 
ATOM     12  C   UNL A   1      34.480  20.117  24.835  1.00  0.00    -0.017 A 
BRANCH   9  13
ATOM     13  C   UNL A   1      33.179  23.616  25.210  1.00  0.00    -0.018 A 
ATOM     14  C   UNL A   1      32.566  24.027  26.402  1.00  0.00     0.009 A 
ATOM     15  C   UNL A   1      32.834  24.275  24.017  1.00  0.00     0.009 A 
ATOM     16  C   UNL A   1      31.650  25.083  26.405  1.00  0.00     0.001 A 
ATOM     17  C   UNL A   1      31.933  25.341  24.022  1.00  0.00     0.001 A 
ATOM     18  C   UNL A   1      31.342  25.744  25.218  1.00  0.00     0.000 A 
ENDBRANCH   9  13
BRANCH  12  19
ATOM     19  C   UNL A   1      33.999  18.735  24.770  1.00  0.00    -0.018 A 
ATOM     20  C   UNL A   1      32.868  18.361  25.522  1.00  0.00     0.009 A 
ATOM     21  C   UNL A   1      34.653  17.754  24.023  1.00  0.00     0.009 A 
ATOM     22  C   UNL A   1      32.435  17.038  25.574  1.00  0.00     0.001 A 
ATOM     23  C   UNL A   1      34.208  16.430  24.057  1.00  0.00     0.001 A 
ATOM     24  C   UNL A   1      33.109  16.070  24.841  1.00  0.00     0.000 A 
ENDBRANCH  12  19
ENDBRANCH   5   6
ENDBRANCH   3   5
ENDBRANCH   2   3
ENDBRANCH   1   2
BRANCH   1  25
ATOM     25  C   UNL A   1      42.590  21.469  25.751  1.00  0.00     0.275 C 
BRANCH  25  26
ATOM     26  O   UNL A   1      41.688  22.586  25.974  1.00  0.00    -0.458 OA
BRANCH  26  27
ATOM     27  C   UNL A   1      41.877  23.617  26.842  1.00  0.00     0.338 C 
ATOM     28  O   UNL A   1      42.608  23.536  27.816  1.00  0.00    -0.246 OA
BRANCH  27  29
ATOM     29  C   UNL A   1      40.861  24.692  26.796  1.00  0.00     0.060 A 
ATOM     30  C   UNL A   1      41.388  26.104  25.801  1.00  0.00     0.016 A 
ATOM     31  C   UNL A   1      39.726  24.922  28.180  1.00  0.00     0.016 A 
ATOM     32  C   UNL A   1      40.982  27.784  26.361  1.00  0.00     0.010 A 
ATOM     33  C   UNL A   1      39.293  26.595  28.704  1.00  0.00     0.010 A 
ATOM     34  C   UNL A   1      40.029  28.013  27.856  1.00  0.00    -0.014 A 
BRANCH  34  35
ATOM     35  C   UNL A   1      40.263  29.132  28.753  1.00  0.00     0.031 A 
ATOM     36  C   UNL A   1      39.231  30.155  28.854  1.00  0.00     0.074 A 
ATOM     37  C   UNL A   1      41.292  29.050  29.629  1.00  0.00     0.049 A 
ATOM     38  N   UNL A   1      39.429  31.296  29.402  1.00  0.00    -0.248 NA
ATOM     39  C   UNL A   1      37.908  30.036  28.253  1.00  0.00     0.031 C 
ATOM     40  C   UNL A   1      41.484  29.736  30.902  1.00  0.00     0.029 A 
ATOM     41  N   UNL A   1      42.484  28.358  29.468  1.00  0.00    -0.354 N 
ATOM     42  C   UNL A   1      38.195  31.870  29.566  1.00  0.00     0.074 A 
ATOM     43  C   UNL A   1      37.334  31.174  28.652  1.00  0.00     0.031 C 
ATOM     44  C   UNL A   1      42.769  29.611  31.285  1.00  0.00     0.029 A 
ATOM     45  C   UNL A   1      43.499  28.954  30.215  1.00  0.00     0.049 A 
ATOM     46  H   UNL A   1      42.596  27.559  28.904  1.00  0.00     0.167 HD
ATOM     47  C   UNL A   1      38.045  32.743  30.597  1.00  0.00     0.037 A 
ATOM     48  C   UNL A   1      44.562  29.473  29.528  1.00  0.00     0.037 A 
ATOM     49  C   UNL A   1      39.358  33.067  31.173  1.00  0.00     0.049 A 
ATOM     50  C   UNL A   1      44.454  30.987  29.403  1.00  0.00     0.074 A 
ATOM     51  C   UNL A   1      40.042  32.735  32.327  1.00  0.00     0.029 A 
ATOM     52  N   UNL A   1      40.316  33.574  30.312  1.00  0.00    -0.354 N 
ATOM     53  N   UNL A   1      43.504  31.699  29.952  1.00  0.00    -0.248 NA
ATOM     54  C   UNL A   1      45.363  31.814  28.615  1.00  0.00     0.031 C 
ATOM     55  C   UNL A   1      41.440  32.992  32.097  1.00  0.00     0.029 A 
ATOM     56  C   UNL A   1      41.593  33.528  30.828  1.00  0.00     0.049 A 
ATOM     57  H   UNL A   1      40.107  33.931  29.419  1.00  0.00     0.167 HD
ATOM     58  C   UNL A   1      43.603  33.005  29.571  1.00  0.00     0.074 A 
ATOM     59  C   UNL A   1      44.781  33.023  28.714  1.00  0.00     0.031 C 
ATOM     60  C   UNL A   1      42.699  33.956  29.968  1.00  0.00     0.037 A 
BRANCH  47  61
ATOM     61  C   UNL A   1      36.726  33.182  31.182  1.00  0.00     0.064 A 
ATOM     62  C   UNL A   1      35.860  33.977  30.404  1.00  0.00     0.173 A 
ATOM     63  C   UNL A   1      36.281  32.948  32.504  1.00  0.00     0.173 A 
ATOM     64  F   UNL A   1      36.160  34.286  29.134  1.00  0.00    -0.203 F 
ATOM     65  C   UNL A   1      34.662  34.494  30.906  1.00  0.00     0.198 A 
ATOM     66  C   UNL A   1      35.060  33.422  32.988  1.00  0.00     0.198 A 
ATOM     67  F   UNL A   1      37.022  32.307  33.412  1.00  0.00    -0.203 F 
ATOM     68  F   UNL A   1      33.907  35.287  30.134  1.00  0.00    -0.200 F 
ATOM     69  C   UNL A   1      34.256  34.206  32.193  1.00  0.00     0.200 A 
ATOM     70  F   UNL A   1      34.688  33.133  34.244  1.00  0.00    -0.200 F 
ATOM     71  F   UNL A   1      33.106  34.697  32.673  1.00  0.00    -0.200 F 
ENDBRANCH  47  61
BRANCH  48  72
ATOM     72  C   UNL A   1      45.050  28.498  28.494  1.00  0.00     0.064 A 
ATOM     73  C   UNL A   1      45.545  27.259  28.967  1.00  0.00     0.173 A 
ATOM     74  C   UNL A   1      44.649  28.543  27.153  1.00  0.00     0.173 A 
ATOM     75  F   UNL A   1      45.976  27.155  30.234  1.00  0.00    -0.203 F 
ATOM     76  C   UNL A   1      45.474  26.095  28.201  1.00  0.00     0.198 A 
ATOM     77  C   UNL A   1      44.619  27.379  26.373  1.00  0.00     0.198 A 
ATOM     78  F   UNL A   1      44.148  29.672  26.631  1.00  0.00    -0.203 F 
ATOM     79  F   UNL A   1      45.800  24.913  28.743  1.00  0.00    -0.200 F 
ATOM     80  C   UNL A   1      44.982  26.152  26.911  1.00  0.00     0.200 A 
ATOM     81  F   UNL A   1      44.106  27.423  25.134  1.00  0.00    -0.200 F 
ATOM     82  F   UNL A   1      44.799  25.025  26.207  1.00  0.00    -0.200 F 
ENDBRANCH  48  72
BRANCH  60  83
ATOM     83  C   UNL A   1      42.773  35.402  29.529  1.00  0.00     0.064 A 
ATOM     84  C   UNL A   1      42.236  35.840  28.310  1.00  0.00     0.173 A 
ATOM     85  C   UNL A   1      43.459  36.392  30.276  1.00  0.00     0.173 A 
ATOM     86  F   UNL A   1      41.683  34.973  27.449  1.00  0.00    -0.203 F 
ATOM     87  C   UNL A   1      42.279  37.182  27.926  1.00  0.00     0.198 A 
ATOM     88  C   UNL A   1      43.571  37.712  29.851  1.00  0.00     0.198 A 
ATOM     89  F   UNL A   1      44.017  36.138  31.466  1.00  0.00    -0.203 F 
ATOM     90  F   UNL A   1      41.662  37.568  26.801  1.00  0.00    -0.200 F 
ATOM     91  C   UNL A   1      42.950  38.116  28.693  1.00  0.00     0.200 A 
ATOM     92  F   UNL A   1      44.270  38.586  30.589  1.00  0.00    -0.200 F 
ATOM     93  F   UNL A   1      42.998  39.401  28.319  1.00  0.00    -0.200 F 
ENDBRANCH  60  83
ENDBRANCH  34  35
ENDBRANCH  27  29
ENDBRANCH  26  27
ENDBRANCH  25  26
ENDBRANCH   1  25
TORSDOF 14
ENDMDL
MODEL 2
REMARK VINA RESULT:     -14.5      0.756      2.925
REMARK SMILES Cc1c(CC(=O)OCCOC(=O)c2ccc(-c3c4nc(c(-c5c(F)c(F)c(F)c(F)c5F)c5ccc([nH]5)c(-c5c(F)c(F)c(F)c(F)c5F)c5nc(c(-c6c(F)c(F)c(F)c(F)c6F)c6ccc3[nH]6)C=C5)C=C4)cc2)cc(-c2ccccc2)cc1-c1ccccc1
REMARK SMILES IDX 8 1 7 2 5 3 6 4 4 5 3 6 1 7 2 8 85 9 76 10 84 11 77 12 86 13
REMARK SMILES IDX 87 14 91 15 88 16 90 17 89 18 78 19 79 20 83 21 80 22 82 23
REMARK SMILES IDX 81 24 9 25 10 26 11 27 12 28 13 29 14 30 75 31 15 32 74 33
REMARK SMILES IDX 16 34 17 35 18 36 68 37 19 38 73 39 67 40 69 41 20 42 72 43
REMARK SMILES IDX 66 44 65 45 21 47 53 48 33 49 52 50 34 51 37 52 51 53 70 54
REMARK SMILES IDX 35 55 36 56 50 58 71 59 38 60 22 61 23 62 31 63 24 64 25 65
REMARK SMILES IDX 29 66 32 67 26 68 27 69 30 70 28 71 54 72 55 73 63 74 56 75
REMARK SMILES IDX 57 76 61 77 64 78 58 79 59 80 62 81 60 82 39 83 40 84 48 85
REMARK SMILES IDX 41 86 42 87 46 88 49 89 43 90 44 91 47 92 45 93
REMARK H PARENT 69 46 37 57
REMARK Flexibility Score: inf
ROOT
ATOM      1  C   UNL A   1      42.597  20.803  26.222  1.00  0.00     0.274 C 
ENDROOT
BRANCH   1   2
ATOM      2  O   UNL A   1      41.229  20.670  25.789  1.00  0.00    -0.462 OA
BRANCH   2   3
ATOM      3  C   UNL A   1      40.207  21.297  26.610  1.00  0.00     0.310 C 
ATOM      4  O   UNL A   1      40.603  21.078  27.800  1.00  0.00    -0.252 OA
BRANCH   3   5
ATOM      5  C   UNL A   1      38.480  22.367  25.845  1.00  0.00     0.158 C 
BRANCH   5   6
ATOM      6  C   UNL A   1      36.785  22.026  25.717  1.00  0.00    -0.033 A 
ATOM      7  C   UNL A   1      37.180  19.598  25.004  1.00  0.00     0.045 C 
ATOM      8  C   UNL A   1      36.279  20.789  25.219  1.00  0.00    -0.039 A 
ATOM      9  C   UNL A   1      34.883  20.670  24.960  1.00  0.00    -0.015 A 
ATOM     10  C   UNL A   1      35.849  22.948  26.218  1.00  0.00     0.013 A 
ATOM     11  C   UNL A   1      34.048  21.782  25.173  1.00  0.00     0.017 A 
ATOM     12  C   UNL A   1      34.521  22.930  25.800  1.00  0.00    -0.017 A 
BRANCH   9  13
ATOM     13  C   UNL A   1      34.255  19.432  24.468  1.00  0.00    -0.018 A 
ATOM     14  C   UNL A   1      34.968  18.224  24.442  1.00  0.00     0.009 A 
ATOM     15  C   UNL A   1      32.933  19.440  23.992  1.00  0.00     0.009 A 
ATOM     16  C   UNL A   1      34.367  17.053  23.973  1.00  0.00     0.001 A 
ATOM     17  C   UNL A   1      32.327  18.266  23.540  1.00  0.00     0.001 A 
ATOM     18  C   UNL A   1      33.045  17.073  23.532  1.00  0.00     0.000 A 
ENDBRANCH   9  13
BRANCH  12  19
ATOM     19  C   UNL A   1      33.720  24.148  25.939  1.00  0.00    -0.018 A 
ATOM     20  C   UNL A   1      32.375  24.048  26.343  1.00  0.00     0.009 A 
ATOM     21  C   UNL A   1      34.230  25.411  25.637  1.00  0.00     0.009 A 
ATOM     22  C   UNL A   1      31.545  25.165  26.389  1.00  0.00     0.001 A 
ATOM     23  C   UNL A   1      33.405  26.537  25.704  1.00  0.00     0.001 A 
ATOM     24  C   UNL A   1      32.062  26.413  26.067  1.00  0.00     0.000 A 
ENDBRANCH  12  19
ENDBRANCH   5   6
ENDBRANCH   3   5
ENDBRANCH   2   3
ENDBRANCH   1   2
BRANCH   1  25
ATOM     25  C   UNL A   1      43.239  21.998  25.509  1.00  0.00     0.275 C 
BRANCH  25  26
ATOM     26  O   UNL A   1      42.527  23.257  25.646  1.00  0.00    -0.458 OA
BRANCH  26  27
ATOM     27  C   UNL A   1      42.450  24.026  26.766  1.00  0.00     0.338 C 
ATOM     28  O   UNL A   1      43.018  23.736  27.807  1.00  0.00    -0.246 OA
BRANCH  27  29
ATOM     29  C   UNL A   1      41.338  25.001  26.803  1.00  0.00     0.060 A 
ATOM     30  C   UNL A   1      41.654  26.454  25.777  1.00  0.00     0.016 A 
ATOM     31  C   UNL A   1      40.296  25.127  28.271  1.00  0.00     0.016 A 
ATOM     32  C   UNL A   1      41.137  28.091  26.375  1.00  0.00     0.010 A 
ATOM     33  C   UNL A   1      39.751  26.754  28.835  1.00  0.00     0.010 A 
ATOM     34  C   UNL A   1      40.285  28.232  27.940  1.00  0.00    -0.014 A 
BRANCH  34  35
ATOM     35  C   UNL A   1      40.481  29.370  28.822  1.00  0.00     0.031 A 
ATOM     36  C   UNL A   1      39.411  30.353  28.919  1.00  0.00     0.074 A 
ATOM     37  C   UNL A   1      41.519  29.340  29.690  1.00  0.00     0.049 A 
ATOM     38  N   UNL A   1      39.567  31.507  29.452  1.00  0.00    -0.248 NA
ATOM     39  C   UNL A   1      38.088  30.176  28.331  1.00  0.00     0.031 C 
ATOM     40  C   UNL A   1      41.694  30.047  30.954  1.00  0.00     0.029 A 
ATOM     41  N   UNL A   1      42.736  28.693  29.528  1.00  0.00    -0.354 N 
ATOM     42  C   UNL A   1      38.313  32.035  29.620  1.00  0.00     0.074 A 
ATOM     43  C   UNL A   1      37.474  31.295  28.721  1.00  0.00     0.031 C 
ATOM     44  C   UNL A   1      42.986  29.977  31.328  1.00  0.00     0.029 A 
ATOM     45  C   UNL A   1      43.733  29.337  30.259  1.00  0.00     0.049 A 
ATOM     46  H   UNL A   1      42.875  27.892  28.972  1.00  0.00     0.167 HD
ATOM     47  C   UNL A   1      38.137  32.914  30.642  1.00  0.00     0.037 A 
ATOM     48  C   UNL A   1      44.769  29.889  29.557  1.00  0.00     0.037 A 
ATOM     49  C   UNL A   1      39.441  33.296  31.203  1.00  0.00     0.049 A 
ATOM     50  C   UNL A   1      44.601  31.396  29.416  1.00  0.00     0.074 A 
ATOM     51  C   UNL A   1      40.147  33.005  32.355  1.00  0.00     0.029 A 
ATOM     52  N   UNL A   1      40.372  33.829  30.329  1.00  0.00    -0.354 N 
ATOM     53  N   UNL A   1      43.628  32.076  29.964  1.00  0.00    -0.248 NA
ATOM     54  C   UNL A   1      45.471  32.248  28.611  1.00  0.00     0.031 C 
ATOM     55  C   UNL A   1      41.531  33.313  32.111  1.00  0.00     0.029 A 
ATOM     56  C   UNL A   1      41.653  33.839  30.834  1.00  0.00     0.049 A 
ATOM     57  H   UNL A   1      40.141  34.167  29.433  1.00  0.00     0.167 HD
ATOM     58  C   UNL A   1      43.672  33.381  29.567  1.00  0.00     0.074 A 
ATOM     59  C   UNL A   1      44.842  33.435  28.700  1.00  0.00     0.031 C 
ATOM     60  C   UNL A   1      42.735  34.301  29.961  1.00  0.00     0.037 A 
BRANCH  47  61
ATOM     61  C   UNL A   1      36.807  33.308  31.233  1.00  0.00     0.064 A 
ATOM     62  C   UNL A   1      35.901  34.052  30.450  1.00  0.00     0.173 A 
ATOM     63  C   UNL A   1      36.385  33.078  32.563  1.00  0.00     0.173 A 
ATOM     64  F   UNL A   1      36.176  34.351  29.172  1.00  0.00    -0.203 F 
ATOM     65  C   UNL A   1      34.688  34.528  30.956  1.00  0.00     0.198 A 
ATOM     66  C   UNL A   1      35.149  33.510  33.051  1.00  0.00     0.198 A 
ATOM     67  F   UNL A   1      37.160  32.484  33.474  1.00  0.00    -0.203 F 
ATOM     68  F   UNL A   1      33.893  35.275  30.177  1.00  0.00    -0.200 F 
ATOM     69  C   UNL A   1      34.305  34.246  32.252  1.00  0.00     0.200 A 
ATOM     70  F   UNL A   1      34.801  33.227  34.316  1.00  0.00    -0.200 F 
ATOM     71  F   UNL A   1      33.140  34.697  32.735  1.00  0.00    -0.200 F 
ENDBRANCH  47  61
BRANCH  48  72
ATOM     72  C   UNL A   1      45.287  28.921  28.531  1.00  0.00     0.064 A 
ATOM     73  C   UNL A   1      45.841  27.712  29.014  1.00  0.00     0.173 A 
ATOM     74  C   UNL A   1      44.869  28.930  27.195  1.00  0.00     0.173 A 
ATOM     75  F   UNL A   1      46.292  27.644  30.278  1.00  0.00    -0.203 F 
ATOM     76  C   UNL A   1      45.812  26.535  28.265  1.00  0.00     0.198 A 
ATOM     77  C   UNL A   1      44.881  27.755  26.431  1.00  0.00     0.198 A 
ATOM     78  F   UNL A   1      44.313  30.029  26.664  1.00  0.00    -0.203 F 
ATOM     79  F   UNL A   1      46.195  25.376  28.820  1.00  0.00    -0.200 F 
ATOM     80  C   UNL A   1      45.303  26.553  26.981  1.00  0.00     0.200 A 
ATOM     81  F   UNL A   1      44.351  27.759  25.198  1.00  0.00    -0.200 F 
ATOM     82  F   UNL A   1      45.161  25.409  26.295  1.00  0.00    -0.200 F 
ENDBRANCH  48  72
BRANCH  60  83
ATOM     83  C   UNL A   1      42.749  35.743  29.504  1.00  0.00     0.064 A 
ATOM     84  C   UNL A   1      42.104  36.160  28.331  1.00  0.00     0.173 A 
ATOM     85  C   UNL A   1      43.479  36.751  30.182  1.00  0.00     0.173 A 
ATOM     86  F   UNL A   1      41.494  35.277  27.528  1.00  0.00    -0.203 F 
ATOM     87  C   UNL A   1      42.093  37.499  27.933  1.00  0.00     0.198 A 
ATOM     88  C   UNL A   1      43.534  38.068  29.737  1.00  0.00     0.198 A 
ATOM     89  F   UNL A   1      44.140  36.517  31.322  1.00  0.00    -0.203 F 
ATOM     90  F   UNL A   1      41.377  37.864  26.861  1.00  0.00    -0.200 F 
ATOM     91  C   UNL A   1      42.811  38.451  28.632  1.00  0.00     0.200 A 
ATOM     92  F   UNL A   1      44.279  38.959  30.406  1.00  0.00    -0.200 F 
ATOM     93  F   UNL A   1      42.807  39.733  28.245  1.00  0.00    -0.200 F 
ENDBRANCH  60  83
ENDBRANCH  34  35
ENDBRANCH  27  29
ENDBRANCH  26  27
ENDBRANCH  25  26
ENDBRANCH   1  25
TORSDOF 14
ENDMDL
MODEL 3
REMARK VINA RESULT:     -14.3      4.366     10.907
REMARK SMILES Cc1c(CC(=O)OCCOC(=O)c2ccc(-c3c4nc(c(-c5c(F)c(F)c(F)c(F)c5F)c5ccc([nH]5)c(-c5c(F)c(F)c(F)c(F)c5F)c5nc(c(-c6c(F)c(F)c(F)c(F)c6F)c6ccc3[nH]6)C=C5)C=C4)cc2)cc(-c2ccccc2)cc1-c1ccccc1
REMARK SMILES IDX 8 1 7 2 5 3 6 4 4 5 3 6 1 7 2 8 85 9 76 10 84 11 77 12 86 13
REMARK SMILES IDX 87 14 91 15 88 16 90 17 89 18 78 19 79 20 83 21 80 22 82 23
REMARK SMILES IDX 81 24 9 25 10 26 11 27 12 28 13 29 14 30 75 31 15 32 74 33
REMARK SMILES IDX 16 34 17 35 18 36 68 37 19 38 73 39 67 40 69 41 20 42 72 43
REMARK SMILES IDX 66 44 65 45 21 47 53 48 33 49 52 50 34 51 37 52 51 53 70 54
REMARK SMILES IDX 35 55 36 56 50 58 71 59 38 60 22 61 23 62 31 63 24 64 25 65
REMARK SMILES IDX 29 66 32 67 26 68 27 69 30 70 28 71 54 72 55 73 63 74 56 75
REMARK SMILES IDX 57 76 61 77 64 78 58 79 59 80 62 81 60 82 39 83 40 84 48 85
REMARK SMILES IDX 41 86 42 87 46 88 49 89 43 90 44 91 47 92 45 93
REMARK H PARENT 69 46 37 57
REMARK Flexibility Score: inf
ROOT
ATOM      1  C   UNL A   1      34.336  32.923  28.016  1.00  0.00     0.274 C 
ENDROOT
BRANCH   1   2
ATOM      2  O   UNL A   1      34.453  31.523  27.696  1.00  0.00    -0.462 OA
BRANCH   2   3
ATOM      3  C   UNL A   1      33.257  30.845  27.225  1.00  0.00     0.310 C 
ATOM      4  O   UNL A   1      32.393  31.777  27.157  1.00  0.00    -0.252 OA
BRANCH   3   5
ATOM      5  C   UNL A   1      33.134  28.733  26.740  1.00  0.00     0.158 C 
BRANCH   5   6
ATOM      6  C   UNL A   1      32.236  27.789  25.596  1.00  0.00    -0.033 A 
ATOM      7  C   UNL A   1      33.581  25.662  26.078  1.00  0.00     0.045 C 
ATOM      8  C   UNL A   1      32.573  26.442  25.269  1.00  0.00    -0.039 A 
ATOM      9  C   UNL A   1      31.909  25.811  24.177  1.00  0.00    -0.015 A 
ATOM     10  C   UNL A   1      31.058  28.311  25.033  1.00  0.00     0.013 A 
ATOM     11  C   UNL A   1      30.963  26.542  23.434  1.00  0.00     0.017 A 
ATOM     12  C   UNL A   1      30.531  27.796  23.852  1.00  0.00    -0.017 A 
BRANCH   9  13
ATOM     13  C   UNL A   1      32.165  24.419  23.771  1.00  0.00    -0.018 A 
ATOM     14  C   UNL A   1      33.029  24.126  22.706  1.00  0.00     0.009 A 
ATOM     15  C   UNL A   1      31.527  23.353  24.428  1.00  0.00     0.009 A 
ATOM     16  C   UNL A   1      33.266  22.803  22.325  1.00  0.00     0.001 A 
ATOM     17  C   UNL A   1      31.778  22.031  24.059  1.00  0.00     0.001 A 
ATOM     18  C   UNL A   1      32.649  21.757  23.007  1.00  0.00     0.000 A 
ENDBRANCH   9  13
BRANCH  12  19
ATOM     19  C   UNL A   1      29.637  28.636  23.053  1.00  0.00    -0.018 A 
ATOM     20  C   UNL A   1      30.184  29.630  22.218  1.00  0.00     0.009 A 
ATOM     21  C   UNL A   1      28.248  28.522  23.125  1.00  0.00     0.009 A 
ATOM     22  C   UNL A   1      29.373  30.521  21.519  1.00  0.00     0.001 A 
ATOM     23  C   UNL A   1      27.431  29.401  22.408  1.00  0.00     0.001 A 
ATOM     24  C   UNL A   1      27.992  30.406  21.617  1.00  0.00     0.000 A 
ENDBRANCH  12  19
ENDBRANCH   5   6
ENDBRANCH   3   5
ENDBRANCH   2   3
ENDBRANCH   1   2
BRANCH   1  25
ATOM     25  C   UNL A   1      34.596  33.123  29.513  1.00  0.00     0.275 C 
BRANCH  25  26
ATOM     26  O   UNL A   1      35.323  32.047  30.165  1.00  0.00    -0.458 OA
BRANCH  26  27
ATOM     27  C   UNL A   1      36.643  31.752  30.009  1.00  0.00     0.338 C 
ATOM     28  O   UNL A   1      37.507  32.611  29.928  1.00  0.00    -0.246 OA
BRANCH  27  29
ATOM     29  C   UNL A   1      36.946  30.383  29.537  1.00  0.00     0.060 A 
ATOM     30  C   UNL A   1      37.072  29.193  30.890  1.00  0.00     0.016 A 
ATOM     31  C   UNL A   1      37.884  30.140  28.015  1.00  0.00     0.016 A 
ATOM     32  C   UNL A   1      38.346  27.899  30.816  1.00  0.00     0.010 A 
ATOM     33  C   UNL A   1      39.118  28.824  27.934  1.00  0.00     0.010 A 
ATOM     34  C   UNL A   1      39.417  27.793  29.389  1.00  0.00    -0.014 A 
BRANCH  34  35
ATOM     35  C   UNL A   1      40.809  27.387  29.501  1.00  0.00     0.031 A 
ATOM     36  C   UNL A   1      41.183  26.079  28.982  1.00  0.00     0.074 A 
ATOM     37  C   UNL A   1      41.726  28.322  29.844  1.00  0.00     0.049 A 
ATOM     38  N   UNL A   1      42.302  25.514  29.249  1.00  0.00    -0.248 NA
ATOM     39  C   UNL A   1      40.294  25.230  28.198  1.00  0.00     0.031 C 
ATOM     40  C   UNL A   1      43.161  28.353  29.584  1.00  0.00     0.029 A 
ATOM     41  N   UNL A   1      41.530  29.446  30.633  1.00  0.00    -0.354 N 
ATOM     42  C   UNL A   1      42.424  24.457  28.385  1.00  0.00     0.074 A 
ATOM     43  C   UNL A   1      41.088  24.191  27.930  1.00  0.00     0.031 C 
ATOM     44  C   UNL A   1      43.734  29.289  30.365  1.00  0.00     0.029 A 
ATOM     45  C   UNL A   1      42.719  29.815  31.262  1.00  0.00     0.049 A 
ATOM     46  H   UNL A   1      40.671  29.916  30.735  1.00  0.00     0.167 HD
ATOM     47  C   UNL A   1      43.682  24.073  28.042  1.00  0.00     0.037 A 
ATOM     48  C   UNL A   1      42.747  29.765  32.628  1.00  0.00     0.037 A 
ATOM     49  C   UNL A   1      44.663  24.752  28.900  1.00  0.00     0.049 A 
ATOM     50  C   UNL A   1      43.462  28.515  33.122  1.00  0.00     0.074 A 
ATOM     51  C   UNL A   1      45.569  25.784  28.744  1.00  0.00     0.029 A 
ATOM     52  N   UNL A   1      44.521  24.595  30.268  1.00  0.00    -0.354 N 
ATOM     53  N   UNL A   1      44.039  27.644  32.335  1.00  0.00    -0.248 NA
ATOM     54  C   UNL A   1      43.542  28.113  34.524  1.00  0.00     0.031 C 
ATOM     55  C   UNL A   1      45.901  26.279  30.054  1.00  0.00     0.029 A 
ATOM     56  C   UNL A   1      45.239  25.512  31.001  1.00  0.00     0.049 A 
ATOM     57  H   UNL A   1      43.960  23.896  30.676  1.00  0.00     0.167 HD
ATOM     58  C   UNL A   1      44.491  26.575  33.051  1.00  0.00     0.074 A 
ATOM     59  C   UNL A   1      44.138  26.910  34.424  1.00  0.00     0.031 C 
ATOM     60  C   UNL A   1      45.094  25.496  32.458  1.00  0.00     0.037 A 
BRANCH  47  61
ATOM     61  C   UNL A   1      44.037  23.219  26.851  1.00  0.00     0.064 A 
ATOM     62  C   UNL A   1      43.498  21.921  26.751  1.00  0.00     0.173 A 
ATOM     63  C   UNL A   1      44.953  23.557  25.827  1.00  0.00     0.173 A 
ATOM     64  F   UNL A   1      42.623  21.465  27.659  1.00  0.00    -0.203 F 
ATOM     65  C   UNL A   1      43.849  21.040  25.724  1.00  0.00     0.198 A 
ATOM     66  C   UNL A   1      45.262  22.694  24.773  1.00  0.00     0.198 A 
ATOM     67  F   UNL A   1      45.639  24.703  25.820  1.00  0.00    -0.203 F 
ATOM     68  F   UNL A   1      43.343  19.799  25.713  1.00  0.00    -0.200 F 
ATOM     69  C   UNL A   1      44.721  21.430  24.728  1.00  0.00     0.200 A 
ATOM     70  F   UNL A   1      46.116  23.095  23.818  1.00  0.00    -0.200 F 
ATOM     71  F   UNL A   1      45.053  20.588  23.741  1.00  0.00    -0.200 F 
ENDBRANCH  47  61
BRANCH  48  72
ATOM     72  C   UNL A   1      41.520  30.411  33.206  1.00  0.00     0.064 A 
ATOM     73  C   UNL A   1      41.359  31.799  32.976  1.00  0.00     0.173 A 
ATOM     74  C   UNL A   1      40.366  29.693  33.543  1.00  0.00     0.173 A 
ATOM     75  F   UNL A   1      42.430  32.553  32.681  1.00  0.00    -0.203 F 
ATOM     76  C   UNL A   1      40.099  32.395  32.909  1.00  0.00     0.198 A 
ATOM     77  C   UNL A   1      39.106  30.306  33.516  1.00  0.00     0.198 A 
ATOM     78  F   UNL A   1      40.427  28.371  33.755  1.00  0.00    -0.203 F 
ATOM     79  F   UNL A   1      39.981  33.674  32.526  1.00  0.00    -0.200 F 
ATOM     80  C   UNL A   1      38.969  31.637  33.150  1.00  0.00     0.200 A 
ATOM     81  F   UNL A   1      38.004  29.565  33.711  1.00  0.00    -0.200 F 
ATOM     82  F   UNL A   1      37.750  32.168  32.975  1.00  0.00    -0.200 F 
ENDBRANCH  48  72
BRANCH  60  83
ATOM     83  C   UNL A   1      45.571  24.287  33.233  1.00  0.00     0.064 A 
ATOM     84  C   UNL A   1      44.701  23.258  33.620  1.00  0.00     0.173 A 
ATOM     85  C   UNL A   1      46.906  24.152  33.690  1.00  0.00     0.173 A 
ATOM     86  F   UNL A   1      43.387  23.334  33.367  1.00  0.00    -0.203 F 
ATOM     87  C   UNL A   1      45.155  22.128  34.305  1.00  0.00     0.198 A 
ATOM     88  C   UNL A   1      47.337  23.065  34.445  1.00  0.00     0.198 A 
ATOM     89  F   UNL A   1      47.860  25.043  33.397  1.00  0.00    -0.203 F 
ATOM     90  F   UNL A   1      44.305  21.125  34.562  1.00  0.00    -0.200 F 
ATOM     91  C   UNL A   1      46.470  22.035  34.722  1.00  0.00     0.200 A 
ATOM     92  F   UNL A   1      48.604  23.024  34.879  1.00  0.00    -0.200 F 
ATOM     93  F   UNL A   1      46.902  20.956  35.387  1.00  0.00    -0.200 F 
ENDBRANCH  60  83
ENDBRANCH  34  35
ENDBRANCH  27  29
ENDBRANCH  26  27
ENDBRANCH  25  26
ENDBRANCH   1  25
TORSDOF 14
ENDMDL
