MODEL 1
REMARK VINA RESULT:     -12.0      0.000      0.000
REMARK SMILES C[C@H]1[C@H](C(=O)OCCOC(=O)c2ccc(-c3c4nc(c(-c5c(F)c(F)c(F)c(F)c5F)c5ccc([nH]5)c(-c5c(F)c(F)c(F)c(F)c5F)c5nc(c(-c6c(F)c(F)c(F)c(F)c6F)c6ccc3[nH]6)C=C5)C=C4)cc2)CCN1C(=O)COc1ccc(F)cc1Br
REMARK SMILES IDX 7 1 6 2 4 3 5 4 3 5 1 6 2 7 77 8 75 9 76 10 78 11 79 12
REMARK SMILES IDX 80 13 81 14 82 15 83 16 88 17 84 18 87 19 89 20 85 21 86 22
REMARK SMILES IDX 8 23 9 24 10 25 11 26 12 27 13 28 74 29 14 30 73 31 15 32
REMARK SMILES IDX 16 33 17 34 67 35 18 36 72 37 66 38 68 39 19 40 71 41 65 42
REMARK SMILES IDX 64 43 20 45 52 46 32 47 51 48 33 49 36 50 50 51 69 52 34 53
REMARK SMILES IDX 35 54 49 56 70 57 37 58 21 59 22 60 30 61 23 62 24 63 28 64
REMARK SMILES IDX 31 65 25 66 26 67 29 68 27 69 53 70 54 71 62 72 55 73 56 74
REMARK SMILES IDX 60 75 63 76 57 77 58 78 61 79 59 80 38 81 39 82 47 83 40 84
REMARK SMILES IDX 41 85 45 86 48 87 42 88 43 89 46 90 44 91
REMARK H PARENT 68 44 36 55
REMARK Flexibility Score: inf
ROOT
ATOM      1  C   UNL A   1      31.741  28.775  26.904  1.00  0.00     0.274 C 
ENDROOT
BRANCH   1   2
ATOM      2  O   UNL A   1      31.392  28.107  25.675  1.00  0.00    -0.462 OA
BRANCH   2   3
ATOM      3  C   UNL A   1      30.866  26.864  25.800  1.00  0.00     0.311 C 
ATOM      4  O   UNL A   1      30.699  26.280  26.866  1.00  0.00    -0.252 OA
BRANCH   3   5
ATOM      5  C   UNL A   1      30.557  26.207  24.478  1.00  0.00     0.123 C 
ATOM      6  C   UNL A   1      30.855  27.563  22.383  1.00  0.00     0.032 C 
ATOM      7  C   UNL A   1      31.511  26.529  23.302  1.00  0.00     0.096 C 
ATOM      8  N   UNL A   1      31.734  25.216  22.664  1.00  0.00    -0.336 N 
ATOM      9  C   UNL A   1      30.601  24.692  24.641  1.00  0.00     0.039 C 
ATOM     10  C   UNL A   1      30.859  24.211  23.236  1.00  0.00     0.121 C 
BRANCH   8  11
ATOM     11  C   UNL A   1      32.791  24.815  21.869  1.00  0.00     0.260 C 
ATOM     12  O   UNL A   1      33.276  25.571  21.020  1.00  0.00    -0.271 OA
BRANCH  11  13
ATOM     13  C   UNL A   1      33.405  23.426  22.062  1.00  0.00     0.329 C 
BRANCH  13  14
ATOM     14  O   UNL A   1      34.583  23.342  22.835  1.00  0.00    -0.483 OA
BRANCH  14  15
ATOM     15  C   UNL A   1      34.565  22.928  24.133  1.00  0.00     0.134 A 
ATOM     16  C   UNL A   1      34.490  21.528  24.241  1.00  0.00     0.050 A 
ATOM     17  C   UNL A   1      34.410  23.699  25.294  1.00  0.00     0.062 A 
ATOM     18  C   UNL A   1      34.261  20.906  25.468  1.00  0.00     0.043 A 
ATOM     19  C   UNL A   1      34.173  23.070  26.524  1.00  0.00     0.058 A 
ATOM     20  Br  UNL A   1      34.385  25.587  25.376  1.00  0.00    -0.047 Br
ATOM     21  C   UNL A   1      34.092  21.687  26.599  1.00  0.00     0.124 A 
ATOM     22  F   UNL A   1      33.822  21.106  27.774  1.00  0.00    -0.207 F 
ENDBRANCH  14  15
ENDBRANCH  13  14
ENDBRANCH  11  13
ENDBRANCH   8  11
ENDBRANCH   3   5
ENDBRANCH   2   3
ENDBRANCH   1   2
BRANCH   1  23
ATOM     23  C   UNL A   1      31.813  30.295  26.727  1.00  0.00     0.275 C 
BRANCH  23  24
ATOM     24  O   UNL A   1      33.160  30.748  26.492  1.00  0.00    -0.458 OA
BRANCH  24  25
ATOM     25  C   UNL A   1      33.575  31.744  27.306  1.00  0.00     0.338 C 
ATOM     26  O   UNL A   1      32.962  32.751  27.618  1.00  0.00    -0.246 OA
BRANCH  25  27
ATOM     27  C   UNL A   1      34.876  31.395  27.892  1.00  0.00     0.060 A 
ATOM     28  C   UNL A   1      35.072  30.091  28.358  1.00  0.00     0.016 A 
ATOM     29  C   UNL A   1      35.855  32.369  28.078  1.00  0.00     0.016 A 
ATOM     30  C   UNL A   1      36.231  29.759  29.048  1.00  0.00     0.010 A 
ATOM     31  C   UNL A   1      37.033  32.027  28.746  1.00  0.00     0.010 A 
ATOM     32  C   UNL A   1      37.219  30.726  29.247  1.00  0.00    -0.014 A 
BRANCH  32  33
ATOM     33  C   UNL A   1      38.444  30.398  30.010  1.00  0.00     0.031 A 
ATOM     34  C   UNL A   1      39.442  29.445  29.429  1.00  0.00     0.074 A 
ATOM     35  C   UNL A   1      38.638  30.936  31.227  1.00  0.00     0.049 A 
ATOM     36  N   UNL A   1      40.453  28.850  30.005  1.00  0.00    -0.248 NA
ATOM     37  C   UNL A   1      39.275  29.112  28.005  1.00  0.00     0.031 C 
ATOM     38  C   UNL A   1      37.773  31.931  31.859  1.00  0.00     0.029 A 
ATOM     39  N   UNL A   1      39.616  30.699  32.158  1.00  0.00    -0.354 N 
ATOM     40  C   UNL A   1      41.020  28.043  29.029  1.00  0.00     0.074 A 
ATOM     41  C   UNL A   1      40.243  28.225  27.822  1.00  0.00     0.031 C 
ATOM     42  C   UNL A   1      38.247  32.206  33.085  1.00  0.00     0.029 A 
ATOM     43  C   UNL A   1      39.406  31.357  33.345  1.00  0.00     0.049 A 
ATOM     44  H   UNL A   1      40.392  30.116  31.993  1.00  0.00     0.167 HD
ATOM     45  C   UNL A   1      42.088  27.220  29.143  1.00  0.00     0.037 A 
ATOM     46  C   UNL A   1      40.043  31.243  34.525  1.00  0.00     0.037 A 
ATOM     47  C   UNL A   1      42.862  27.068  30.347  1.00  0.00     0.049 A 
ATOM     48  C   UNL A   1      41.183  30.269  34.648  1.00  0.00     0.074 A 
ATOM     49  C   UNL A   1      43.964  26.262  30.571  1.00  0.00     0.029 A 
ATOM     50  N   UNL A   1      42.612  27.745  31.532  1.00  0.00    -0.354 N 
ATOM     51  N   UNL A   1      41.694  29.478  33.738  1.00  0.00    -0.248 NA
ATOM     52  C   UNL A   1      41.826  30.162  35.966  1.00  0.00     0.031 C 
ATOM     53  C   UNL A   1      44.359  26.424  31.903  1.00  0.00     0.029 A 
ATOM     54  C   UNL A   1      43.531  27.364  32.496  1.00  0.00     0.049 A 
ATOM     55  H   UNL A   1      41.889  28.400  31.668  1.00  0.00     0.167 HD
ATOM     56  C   UNL A   1      42.732  28.799  34.360  1.00  0.00     0.074 A 
ATOM     57  C   UNL A   1      42.781  29.273  35.727  1.00  0.00     0.031 C 
ATOM     58  C   UNL A   1      43.572  27.869  33.844  1.00  0.00     0.037 A 
BRANCH  45  59
ATOM     59  C   UNL A   1      42.457  26.389  27.951  1.00  0.00     0.064 A 
ATOM     60  C   UNL A   1      41.836  25.161  27.683  1.00  0.00     0.173 A 
ATOM     61  C   UNL A   1      43.425  26.850  27.045  1.00  0.00     0.173 A 
ATOM     62  F   UNL A   1      40.918  24.670  28.528  1.00  0.00    -0.203 F 
ATOM     63  C   UNL A   1      42.185  24.414  26.561  1.00  0.00     0.198 A 
ATOM     64  C   UNL A   1      43.753  26.112  25.911  1.00  0.00     0.198 A 
ATOM     65  F   UNL A   1      44.046  28.019  27.256  1.00  0.00    -0.203 F 
ATOM     66  F   UNL A   1      41.609  23.224  26.344  1.00  0.00    -0.200 F 
ATOM     67  C   UNL A   1      43.138  24.893  25.672  1.00  0.00     0.200 A 
ATOM     68  F   UNL A   1      44.666  26.581  25.050  1.00  0.00    -0.200 F 
ATOM     69  F   UNL A   1      43.468  24.175  24.590  1.00  0.00    -0.200 F 
ENDBRANCH  45  59
BRANCH  46  70
ATOM     70  C   UNL A   1      39.587  32.043  35.690  1.00  0.00     0.064 A 
ATOM     71  C   UNL A   1      38.559  31.583  36.522  1.00  0.00     0.173 A 
ATOM     72  C   UNL A   1      40.177  33.278  36.001  1.00  0.00     0.173 A 
ATOM     73  F   UNL A   1      37.949  30.420  36.251  1.00  0.00    -0.203 F 
ATOM     74  C   UNL A   1      38.131  32.332  37.616  1.00  0.00     0.198 A 
ATOM     75  C   UNL A   1      39.767  34.013  37.110  1.00  0.00     0.198 A 
ATOM     76  F   UNL A   1      41.166  33.762  35.234  1.00  0.00    -0.203 F 
ATOM     77  F   UNL A   1      37.120  31.887  38.375  1.00  0.00    -0.200 F 
ATOM     78  C   UNL A   1      38.740  33.542  37.913  1.00  0.00     0.200 A 
ATOM     79  F   UNL A   1      40.366  35.176  37.401  1.00  0.00    -0.200 F 
ATOM     80  F   UNL A   1      38.332  34.257  38.971  1.00  0.00    -0.200 F 
ENDBRANCH  46  70
BRANCH  58  81
ATOM     81  C   UNL A   1      44.649  27.339  34.741  1.00  0.00     0.064 A 
ATOM     82  C   UNL A   1      44.477  26.161  35.479  1.00  0.00     0.173 A 
ATOM     83  C   UNL A   1      45.893  27.985  34.803  1.00  0.00     0.173 A 
ATOM     84  F   UNL A   1      43.299  25.518  35.462  1.00  0.00    -0.203 F 
ATOM     85  C   UNL A   1      45.514  25.650  36.256  1.00  0.00     0.198 A 
ATOM     86  C   UNL A   1      46.934  27.458  35.562  1.00  0.00     0.198 A 
ATOM     87  F   UNL A   1      46.105  29.113  34.110  1.00  0.00    -0.203 F 
ATOM     88  F   UNL A   1      45.323  24.535  36.975  1.00  0.00    -0.200 F 
ATOM     89  C   UNL A   1      46.743  26.293  36.288  1.00  0.00     0.200 A 
ATOM     90  F   UNL A   1      48.124  28.075  35.584  1.00  0.00    -0.200 F 
ATOM     91  F   UNL A   1      47.743  25.790  37.025  1.00  0.00    -0.200 F 
ENDBRANCH  58  81
ENDBRANCH  32  33
ENDBRANCH  25  27
ENDBRANCH  24  25
ENDBRANCH  23  24
ENDBRANCH   1  23
TORSDOF 15
ENDMDL
MODEL 2
REMARK VINA RESULT:     -12.0      1.436      2.158
REMARK SMILES C[C@H]1[C@H](C(=O)OCCOC(=O)c2ccc(-c3c4nc(c(-c5c(F)c(F)c(F)c(F)c5F)c5ccc([nH]5)c(-c5c(F)c(F)c(F)c(F)c5F)c5nc(c(-c6c(F)c(F)c(F)c(F)c6F)c6ccc3[nH]6)C=C5)C=C4)cc2)CCN1C(=O)COc1ccc(F)cc1Br
REMARK SMILES IDX 7 1 6 2 4 3 5 4 3 5 1 6 2 7 77 8 75 9 76 10 78 11 79 12
REMARK SMILES IDX 80 13 81 14 82 15 83 16 88 17 84 18 87 19 89 20 85 21 86 22
REMARK SMILES IDX 8 23 9 24 10 25 11 26 12 27 13 28 74 29 14 30 73 31 15 32
REMARK SMILES IDX 16 33 17 34 67 35 18 36 72 37 66 38 68 39 19 40 71 41 65 42
REMARK SMILES IDX 64 43 20 45 52 46 32 47 51 48 33 49 36 50 50 51 69 52 34 53
REMARK SMILES IDX 35 54 49 56 70 57 37 58 21 59 22 60 30 61 23 62 24 63 28 64
REMARK SMILES IDX 31 65 25 66 26 67 29 68 27 69 53 70 54 71 62 72 55 73 56 74
REMARK SMILES IDX 60 75 63 76 57 77 58 78 61 79 59 80 38 81 39 82 47 83 40 84
REMARK SMILES IDX 41 85 45 86 48 87 42 88 43 89 46 90 44 91
REMARK H PARENT 68 44 36 55
REMARK Flexibility Score: inf
ROOT
ATOM      1  C   UNL A   1      31.403  28.985  24.987  1.00  0.00     0.274 C 
ENDROOT
BRANCH   1   2
ATOM      2  O   UNL A   1      32.311  27.895  25.242  1.00  0.00    -0.462 OA
BRANCH   2   3
ATOM      3  C   UNL A   1      31.892  26.964  26.133  1.00  0.00     0.311 C 
ATOM      4  O   UNL A   1      31.009  27.142  26.966  1.00  0.00    -0.252 OA
BRANCH   3   5
ATOM      5  C   UNL A   1      32.669  25.672  26.064  1.00  0.00     0.123 C 
ATOM      6  C   UNL A   1      31.385  23.513  26.137  1.00  0.00     0.032 C 
ATOM      7  C   UNL A   1      32.053  24.535  25.213  1.00  0.00     0.096 C 
ATOM      8  N   UNL A   1      33.205  24.000  24.461  1.00  0.00    -0.336 N 
ATOM      9  C   UNL A   1      34.044  25.939  25.463  1.00  0.00     0.039 C 
ATOM     10  C   UNL A   1      34.445  24.586  24.932  1.00  0.00     0.121 C 
BRANCH   8  11
ATOM     11  C   UNL A   1      33.202  23.297  23.270  1.00  0.00     0.260 C 
ATOM     12  O   UNL A   1      34.075  23.485  22.414  1.00  0.00    -0.271 OA
BRANCH  11  13
ATOM     13  C   UNL A   1      32.128  22.237  23.013  1.00  0.00     0.329 C 
BRANCH  13  14
ATOM     14  O   UNL A   1      32.042  21.169  23.931  1.00  0.00    -0.483 OA
BRANCH  14  15
ATOM     15  C   UNL A   1      32.824  20.058  23.820  1.00  0.00     0.134 A 
ATOM     16  C   UNL A   1      32.206  19.052  23.056  1.00  0.00     0.050 A 
ATOM     17  C   UNL A   1      34.003  19.748  24.511  1.00  0.00     0.062 A 
ATOM     18  C   UNL A   1      32.742  17.766  22.983  1.00  0.00     0.043 A 
ATOM     19  C   UNL A   1      34.533  18.452  24.440  1.00  0.00     0.058 A 
ATOM     20  Br  UNL A   1      34.952  20.907  25.664  1.00  0.00    -0.047 Br
ATOM     21  C   UNL A   1      33.897  17.475  23.688  1.00  0.00     0.124 A 
ATOM     22  F   UNL A   1      34.393  16.232  23.667  1.00  0.00    -0.207 F 
ENDBRANCH  14  15
ENDBRANCH  13  14
ENDBRANCH  11  13
ENDBRANCH   8  11
ENDBRANCH   3   5
ENDBRANCH   2   3
ENDBRANCH   1   2
BRANCH   1  23
ATOM     23  C   UNL A   1      31.682  30.184  25.899  1.00  0.00     0.275 C 
BRANCH  23  24
ATOM     24  O   UNL A   1      33.089  30.352  26.156  1.00  0.00    -0.458 OA
BRANCH  24  25
ATOM     25  C   UNL A   1      33.394  31.329  27.039  1.00  0.00     0.338 C 
ATOM     26  O   UNL A   1      32.684  32.253  27.398  1.00  0.00    -0.246 OA
BRANCH  25  27
ATOM     27  C   UNL A   1      34.711  31.066  27.633  1.00  0.00     0.060 A 
ATOM     28  C   UNL A   1      35.020  29.761  28.027  1.00  0.00     0.016 A 
ATOM     29  C   UNL A   1      35.593  32.113  27.896  1.00  0.00     0.016 A 
ATOM     30  C   UNL A   1      36.193  29.495  28.722  1.00  0.00     0.010 A 
ATOM     31  C   UNL A   1      36.786  31.841  28.569  1.00  0.00     0.010 A 
ATOM     32  C   UNL A   1      37.084  30.535  28.998  1.00  0.00    -0.014 A 
BRANCH  32  33
ATOM     33  C   UNL A   1      38.320  30.276  29.769  1.00  0.00     0.031 A 
ATOM     34  C   UNL A   1      39.364  29.363  29.202  1.00  0.00     0.074 A 
ATOM     35  C   UNL A   1      38.485  30.838  30.979  1.00  0.00     0.049 A 
ATOM     36  N   UNL A   1      40.401  28.825  29.788  1.00  0.00    -0.248 NA
ATOM     37  C   UNL A   1      39.217  29.004  27.783  1.00  0.00     0.031 C 
ATOM     38  C   UNL A   1      37.572  31.800  31.595  1.00  0.00     0.029 A 
ATOM     39  N   UNL A   1      39.471  30.661  31.915  1.00  0.00    -0.354 N 
ATOM     40  C   UNL A   1      41.008  28.033  28.824  1.00  0.00     0.074 A 
ATOM     41  C   UNL A   1      40.226  28.162  27.613  1.00  0.00     0.031 C 
ATOM     42  C   UNL A   1      38.029  32.113  32.819  1.00  0.00     0.029 A 
ATOM     43  C   UNL A   1      39.226  31.323  33.092  1.00  0.00     0.049 A 
ATOM     44  H   UNL A   1      40.273  30.112  31.760  1.00  0.00     0.167 HD
ATOM     45  C   UNL A   1      42.114  27.263  28.952  1.00  0.00     0.037 A 
ATOM     46  C   UNL A   1      39.865  31.256  34.275  1.00  0.00     0.037 A 
ATOM     47  C   UNL A   1      42.890  27.164  30.159  1.00  0.00     0.049 A 
ATOM     48  C   UNL A   1      41.049  30.339  34.414  1.00  0.00     0.074 A 
ATOM     49  C   UNL A   1      44.029  26.414  30.396  1.00  0.00     0.029 A 
ATOM     50  N   UNL A   1      42.606  27.844  31.335  1.00  0.00    -0.354 N 
ATOM     51  N   UNL A   1      41.600  29.560  33.515  1.00  0.00    -0.248 NA
ATOM     52  C   UNL A   1      41.692  30.279  35.734  1.00  0.00     0.031 C 
ATOM     53  C   UNL A   1      44.412  26.613  31.727  1.00  0.00     0.029 A 
ATOM     54  C   UNL A   1      43.538  27.520  32.306  1.00  0.00     0.049 A 
ATOM     55  H   UNL A   1      41.852  28.466  31.460  1.00  0.00     0.167 HD
ATOM     56  C   UNL A   1      42.667  28.940  34.148  1.00  0.00     0.074 A 
ATOM     57  C   UNL A   1      42.690  29.434  35.510  1.00  0.00     0.031 C 
ATOM     58  C   UNL A   1      43.552  28.044  33.647  1.00  0.00     0.037 A 
BRANCH  45  59
ATOM     59  C   UNL A   1      42.525  26.435  27.772  1.00  0.00     0.064 A 
ATOM     60  C   UNL A   1      41.962  25.177  27.517  1.00  0.00     0.173 A 
ATOM     61  C   UNL A   1      43.474  26.928  26.864  1.00  0.00     0.173 A 
ATOM     62  F   UNL A   1      41.062  24.656  28.365  1.00  0.00    -0.203 F 
ATOM     63  C   UNL A   1      42.349  24.433  26.406  1.00  0.00     0.198 A 
ATOM     64  C   UNL A   1      43.841  26.192  25.741  1.00  0.00     0.198 A 
ATOM     65  F   UNL A   1      44.041  28.127  27.062  1.00  0.00    -0.203 F 
ATOM     66  F   UNL A   1      41.828  23.215  26.202  1.00  0.00    -0.200 F 
ATOM     67  C   UNL A   1      43.283  24.943  25.515  1.00  0.00     0.200 A 
ATOM     68  F   UNL A   1      44.735  26.691  24.877  1.00  0.00    -0.200 F 
ATOM     69  F   UNL A   1      43.649  24.228  24.443  1.00  0.00    -0.200 F 
ENDBRANCH  45  59
BRANCH  46  70
ATOM     70  C   UNL A   1      39.368  32.048  35.428  1.00  0.00     0.064 A 
ATOM     71  C   UNL A   1      38.520  31.476  36.384  1.00  0.00     0.173 A 
ATOM     72  C   UNL A   1      39.740  33.390  35.603  1.00  0.00     0.173 A 
ATOM     73  F   UNL A   1      38.119  30.204  36.247  1.00  0.00    -0.203 F 
ATOM     74  C   UNL A   1      38.054  32.218  37.468  1.00  0.00     0.198 A 
ATOM     75  C   UNL A   1      39.295  34.123  36.700  1.00  0.00     0.198 A 
ATOM     76  F   UNL A   1      40.550  33.984  34.715  1.00  0.00    -0.203 F 
ATOM     77  F   UNL A   1      37.214  31.658  38.349  1.00  0.00    -0.200 F 
ATOM     78  C   UNL A   1      38.447  33.538  37.629  1.00  0.00     0.200 A 
ATOM     79  F   UNL A   1      39.688  35.394  36.859  1.00  0.00    -0.200 F 
ATOM     80  F   UNL A   1      38.005  34.248  38.675  1.00  0.00    -0.200 F 
ENDBRANCH  46  70
BRANCH  58  81
ATOM     81  C   UNL A   1      44.650  27.578  34.553  1.00  0.00     0.064 A 
ATOM     82  C   UNL A   1      45.851  28.289  34.677  1.00  0.00     0.173 A 
ATOM     83  C   UNL A   1      44.464  26.444  35.359  1.00  0.00     0.173 A 
ATOM     84  F   UNL A   1      46.079  29.369  33.916  1.00  0.00    -0.203 F 
ATOM     85  C   UNL A   1      46.833  27.876  35.575  1.00  0.00     0.198 A 
ATOM     86  C   UNL A   1      45.438  26.049  36.271  1.00  0.00     0.198 A 
ATOM     87  F   UNL A   1      43.328  25.736  35.277  1.00  0.00    -0.203 F 
ATOM     88  F   UNL A   1      47.986  28.554  35.662  1.00  0.00    -0.200 F 
ATOM     89  C   UNL A   1      46.621  26.764  36.377  1.00  0.00     0.200 A 
ATOM     90  F   UNL A   1      45.227  24.980  37.052  1.00  0.00    -0.200 F 
ATOM     91  F   UNL A   1      47.562  26.378  37.250  1.00  0.00    -0.200 F 
ENDBRANCH  58  81
ENDBRANCH  32  33
ENDBRANCH  25  27
ENDBRANCH  24  25
ENDBRANCH  23  24
ENDBRANCH   1  23
TORSDOF 15
ENDMDL
MODEL 3
REMARK VINA RESULT:     -12.0      0.129      1.598
REMARK SMILES C[C@H]1[C@H](C(=O)OCCOC(=O)c2ccc(-c3c4nc(c(-c5c(F)c(F)c(F)c(F)c5F)c5ccc([nH]5)c(-c5c(F)c(F)c(F)c(F)c5F)c5nc(c(-c6c(F)c(F)c(F)c(F)c6F)c6ccc3[nH]6)C=C5)C=C4)cc2)CCN1C(=O)COc1ccc(F)cc1Br
REMARK SMILES IDX 7 1 6 2 4 3 5 4 3 5 1 6 2 7 77 8 75 9 76 10 78 11 79 12
REMARK SMILES IDX 80 13 81 14 82 15 83 16 88 17 84 18 87 19 89 20 85 21 86 22
REMARK SMILES IDX 8 23 9 24 10 25 11 26 12 27 13 28 74 29 14 30 73 31 15 32
REMARK SMILES IDX 16 33 17 34 67 35 18 36 72 37 66 38 68 39 19 40 71 41 65 42
REMARK SMILES IDX 64 43 20 45 52 46 32 47 51 48 33 49 36 50 50 51 69 52 34 53
REMARK SMILES IDX 35 54 49 56 70 57 37 58 21 59 22 60 30 61 23 62 24 63 28 64
REMARK SMILES IDX 31 65 25 66 26 67 29 68 27 69 53 70 54 71 62 72 55 73 56 74
REMARK SMILES IDX 60 75 63 76 57 77 58 78 61 79 59 80 38 81 39 82 47 83 40 84
REMARK SMILES IDX 41 85 45 86 48 87 42 88 43 89 46 90 44 91
REMARK H PARENT 68 44 36 55
REMARK Flexibility Score: inf
ROOT
ATOM      1  C   UNL A   1      31.809  28.869  26.832  1.00  0.00     0.274 C 
ENDROOT
BRANCH   1   2
ATOM      2  O   UNL A   1      31.352  28.184  25.650  1.00  0.00    -0.462 OA
BRANCH   2   3
ATOM      3  C   UNL A   1      31.034  26.875  25.804  1.00  0.00     0.311 C 
ATOM      4  O   UNL A   1      31.090  26.263  26.866  1.00  0.00    -0.252 OA
BRANCH   3   5
ATOM      5  C   UNL A   1      30.663  26.190  24.512  1.00  0.00     0.123 C 
ATOM      6  C   UNL A   1      30.796  27.524  22.386  1.00  0.00     0.032 C 
ATOM      7  C   UNL A   1      31.534  26.520  23.275  1.00  0.00     0.096 C 
ATOM      8  N   UNL A   1      31.752  25.205  22.643  1.00  0.00    -0.336 N 
ATOM      9  C   UNL A   1      30.757  24.680  24.693  1.00  0.00     0.039 C 
ATOM     10  C   UNL A   1      30.941  24.186  23.280  1.00  0.00     0.121 C 
BRANCH   8  11
ATOM     11  C   UNL A   1      32.770  24.820  21.789  1.00  0.00     0.260 C 
ATOM     12  O   UNL A   1      33.117  25.536  20.843  1.00  0.00    -0.271 OA
BRANCH  11  13
ATOM     13  C   UNL A   1      33.511  23.503  22.033  1.00  0.00     0.329 C 
BRANCH  13  14
ATOM     14  O   UNL A   1      34.651  23.548  22.864  1.00  0.00    -0.483 OA
BRANCH  14  15
ATOM     15  C   UNL A   1      34.620  23.109  24.154  1.00  0.00     0.134 A 
ATOM     16  C   UNL A   1      34.543  21.708  24.235  1.00  0.00     0.050 A 
ATOM     17  C   UNL A   1      34.454  23.859  25.327  1.00  0.00     0.062 A 
ATOM     18  C   UNL A   1      34.301  21.064  25.448  1.00  0.00     0.043 A 
ATOM     19  C   UNL A   1      34.203  23.207  26.543  1.00  0.00     0.058 A 
ATOM     20  Br  UNL A   1      34.429  25.745  25.444  1.00  0.00    -0.047 Br
ATOM     21  C   UNL A   1      34.121  21.823  26.592  1.00  0.00     0.124 A 
ATOM     22  F   UNL A   1      33.838  21.221  27.753  1.00  0.00    -0.207 F 
ENDBRANCH  14  15
ENDBRANCH  13  14
ENDBRANCH  11  13
ENDBRANCH   8  11
ENDBRANCH   3   5
ENDBRANCH   2   3
ENDBRANCH   1   2
BRANCH   1  23
ATOM     23  C   UNL A   1      31.848  30.388  26.632  1.00  0.00     0.275 C 
BRANCH  23  24
ATOM     24  O   UNL A   1      33.187  30.868  26.407  1.00  0.00    -0.458 OA
BRANCH  24  25
ATOM     25  C   UNL A   1      33.594  31.840  27.255  1.00  0.00     0.338 C 
ATOM     26  O   UNL A   1      32.976  32.835  27.594  1.00  0.00    -0.246 OA
BRANCH  25  27
ATOM     27  C   UNL A   1      34.891  31.475  27.839  1.00  0.00     0.060 A 
ATOM     28  C   UNL A   1      35.064  30.177  28.328  1.00  0.00     0.016 A 
ATOM     29  C   UNL A   1      35.891  32.433  28.001  1.00  0.00     0.016 A 
ATOM     30  C   UNL A   1      36.220  29.833  29.016  1.00  0.00     0.010 A 
ATOM     31  C   UNL A   1      37.066  32.079  28.668  1.00  0.00     0.010 A 
ATOM     32  C   UNL A   1      37.229  30.784  29.192  1.00  0.00    -0.014 A 
BRANCH  32  33
ATOM     33  C   UNL A   1      38.452  30.445  29.953  1.00  0.00     0.031 A 
ATOM     34  C   UNL A   1      39.450  29.498  29.363  1.00  0.00     0.074 A 
ATOM     35  C   UNL A   1      38.643  30.968  31.178  1.00  0.00     0.049 A 
ATOM     36  N   UNL A   1      40.459  28.896  29.933  1.00  0.00    -0.248 NA
ATOM     37  C   UNL A   1      39.285  29.183  27.934  1.00  0.00     0.031 C 
ATOM     38  C   UNL A   1      37.778  31.956  31.820  1.00  0.00     0.029 A 
ATOM     39  N   UNL A   1      39.619  30.719  32.108  1.00  0.00    -0.354 N 
ATOM     40  C   UNL A   1      41.027  28.101  28.949  1.00  0.00     0.074 A 
ATOM     41  C   UNL A   1      40.253  28.298  27.742  1.00  0.00     0.031 C 
ATOM     42  C   UNL A   1      38.249  32.216  33.050  1.00  0.00     0.029 A 
ATOM     43  C   UNL A   1      39.407  31.362  33.302  1.00  0.00     0.049 A 
ATOM     44  H   UNL A   1      40.395  30.137  31.937  1.00  0.00     0.167 HD
ATOM     45  C   UNL A   1      42.095  27.275  29.055  1.00  0.00     0.037 A 
ATOM     46  C   UNL A   1      40.042  31.233  34.482  1.00  0.00     0.037 A 
ATOM     47  C   UNL A   1      42.865  27.107  30.258  1.00  0.00     0.049 A 
ATOM     48  C   UNL A   1      41.180  30.257  34.595  1.00  0.00     0.074 A 
ATOM     49  C   UNL A   1      43.967  26.298  30.474  1.00  0.00     0.029 A 
ATOM     50  N   UNL A   1      42.614  27.770  31.451  1.00  0.00    -0.354 N 
ATOM     51  N   UNL A   1      41.693  29.476  33.676  1.00  0.00    -0.248 NA
ATOM     52  C   UNL A   1      41.820  30.132  35.913  1.00  0.00     0.031 C 
ATOM     53  C   UNL A   1      44.359  26.443  31.810  1.00  0.00     0.029 A 
ATOM     54  C   UNL A   1      43.530  27.376  32.412  1.00  0.00     0.049 A 
ATOM     55  H   UNL A   1      41.892  28.424  31.593  1.00  0.00     0.167 HD
ATOM     56  C   UNL A   1      42.729  28.788  34.292  1.00  0.00     0.074 A 
ATOM     57  C   UNL A   1      42.775  29.246  35.666  1.00  0.00     0.031 C 
ATOM     58  C   UNL A   1      43.569  27.864  33.767  1.00  0.00     0.037 A 
BRANCH  45  59
ATOM     59  C   UNL A   1      42.465  26.459  27.854  1.00  0.00     0.064 A 
ATOM     60  C   UNL A   1      43.431  26.891  26.934  1.00  0.00     0.173 A 
ATOM     61  C   UNL A   1      41.865  25.208  27.640  1.00  0.00     0.173 A 
ATOM     62  F   UNL A   1      44.020  28.086  27.085  1.00  0.00    -0.203 F 
ATOM     63  C   UNL A   1      43.769  26.108  25.832  1.00  0.00     0.198 A 
ATOM     64  C   UNL A   1      42.224  24.418  26.552  1.00  0.00     0.198 A 
ATOM     65  F   UNL A   1      40.937  24.749  28.492  1.00  0.00    -0.203 F 
ATOM     66  F   UNL A   1      44.666  26.557  24.943  1.00  0.00    -0.200 F 
ATOM     67  C   UNL A   1      43.171  24.870  25.646  1.00  0.00     0.200 A 
ATOM     68  F   UNL A   1      41.652  23.218  26.380  1.00  0.00    -0.200 F 
ATOM     69  F   UNL A   1      43.502  24.116  24.589  1.00  0.00    -0.200 F 
ENDBRANCH  45  59
BRANCH  46  70
ATOM     70  C   UNL A   1      39.584  32.019  35.656  1.00  0.00     0.064 A 
ATOM     71  C   UNL A   1      38.584  31.529  36.505  1.00  0.00     0.173 A 
ATOM     72  C   UNL A   1      40.144  33.269  35.958  1.00  0.00     0.173 A 
ATOM     73  F   UNL A   1      38.002  30.350  36.244  1.00  0.00    -0.203 F 
ATOM     74  C   UNL A   1      38.154  32.265  37.608  1.00  0.00     0.198 A 
ATOM     75  C   UNL A   1      39.733  33.992  37.075  1.00  0.00     0.198 A 
ATOM     76  F   UNL A   1      41.105  33.782  35.175  1.00  0.00    -0.203 F 
ATOM     77  F   UNL A   1      37.170  31.791  38.384  1.00  0.00    -0.200 F 
ATOM     78  C   UNL A   1      38.734  33.492  37.896  1.00  0.00     0.200 A 
ATOM     79  F   UNL A   1      40.305  35.171  37.356  1.00  0.00    -0.200 F 
ATOM     80  F   UNL A   1      38.325  34.194  38.961  1.00  0.00    -0.200 F 
ENDBRANCH  46  70
BRANCH  58  81
ATOM     81  C   UNL A   1      44.644  27.322  34.659  1.00  0.00     0.064 A 
ATOM     82  C   UNL A   1      45.875  27.975  34.806  1.00  0.00     0.173 A 
ATOM     83  C   UNL A   1      44.405  26.174  35.430  1.00  0.00     0.173 A 
ATOM     84  F   UNL A   1      46.152  29.067  34.078  1.00  0.00    -0.203 F 
ATOM     85  C   UNL A   1      46.835  27.492  35.691  1.00  0.00     0.198 A 
ATOM     86  C   UNL A   1      45.359  25.709  36.330  1.00  0.00     0.198 A 
ATOM     87  F   UNL A   1      43.239  25.520  35.326  1.00  0.00    -0.203 F 
ATOM     88  F   UNL A   1      48.017  28.115  35.800  1.00  0.00    -0.200 F 
ATOM     89  C   UNL A   1      46.572  26.366  36.459  1.00  0.00     0.200 A 
ATOM     90  F   UNL A   1      45.099  24.627  37.079  1.00  0.00    -0.200 F 
ATOM     91  F   UNL A   1      47.493  25.913  37.321  1.00  0.00    -0.200 F 
ENDBRANCH  58  81
ENDBRANCH  32  33
ENDBRANCH  25  27
ENDBRANCH  24  25
ENDBRANCH  23  24
ENDBRANCH   1  23
TORSDOF 15
ENDMDL
