MODEL 1
REMARK VINA RESULT:     -12.5      0.000      0.000
REMARK SMILES Cc1nnc(C[N@H+]2[C@@H]3CC[C@H]2C[C@H](CC(=O)OCCOC(=O)c2ccc(-c4c5nc(c(-c6c(F)c(F)c(F)c(F)c6F)c6ccc([nH]6)c(-c6c(F)c(F)c(F)c(F)c6F)c6nc(c(-c7c(F)c(F)c(F)c(F)c7F)c7ccc4[nH]7)C=C6)C=C5)cc2)C3)n1C
REMARK SMILES IDX 18 1 17 2 15 3 16 4 14 5 13 6 7 7 8 8 11 9 9 11 86 12 10 13
REMARK SMILES IDX 12 14 6 15 5 16 1 17 2 18 3 19 87 20 4 21 88 22 19 23 20 24
REMARK SMILES IDX 21 25 22 26 23 27 24 28 85 29 25 30 84 31 26 32 27 33 28 34
REMARK SMILES IDX 78 35 29 36 83 37 77 38 79 39 30 40 82 41 76 42 75 43 31 45
REMARK SMILES IDX 63 46 43 47 62 48 44 49 47 50 61 51 80 52 45 53 46 54 60 56
REMARK SMILES IDX 81 57 48 58 32 59 33 60 41 61 34 62 35 63 39 64 42 65 36 66
REMARK SMILES IDX 37 67 40 68 38 69 64 70 65 71 73 72 66 73 67 74 71 75 74 76
REMARK SMILES IDX 68 77 69 78 72 79 70 80 49 81 50 82 58 83 51 84 52 85 56 86
REMARK SMILES IDX 59 87 53 88 54 89 57 90 55 91
REMARK H PARENT 7 10 79 44 47 55
REMARK Flexibility Score: inf
ROOT
ATOM      1  C   UNL A   1      36.709  21.767  25.760  1.00  0.00     0.274 C 
ENDROOT
BRANCH   1   2
ATOM      2  O   UNL A   1      36.166  21.717  24.430  1.00  0.00    -0.462 OA
BRANCH   2   3
ATOM      3  C   UNL A   1      36.165  22.864  23.715  1.00  0.00     0.306 C 
ATOM      4  O   UNL A   1      36.665  22.989  22.600  1.00  0.00    -0.252 OA
BRANCH   3   5
ATOM      5  C   UNL A   1      35.467  24.023  24.398  1.00  0.00     0.126 C 
BRANCH   5   6
ATOM      6  C   UNL A   1      33.985  23.974  24.841  1.00  0.00     0.012 C 
ATOM      7  N   UNL A   1      31.640  25.740  24.422  1.00  0.00    -0.324 N 
ATOM      8  C   UNL A   1      31.681  24.466  23.721  1.00  0.00     0.185 C 
ATOM      9  C   UNL A   1      32.054  25.416  25.784  1.00  0.00     0.185 C 
ATOM     10  H   UNL A   1      30.690  26.108  24.364  1.00  0.00     0.348 HD
ATOM     11  C   UNL A   1      30.879  23.595  24.698  1.00  0.00     0.071 C 
ATOM     12  C   UNL A   1      33.099  23.900  23.565  1.00  0.00     0.069 C 
ATOM     13  C   UNL A   1      31.178  24.189  26.075  1.00  0.00     0.071 C 
ATOM     14  C   UNL A   1      33.537  25.056  25.847  1.00  0.00     0.069 C 
BRANCH   7  15
ATOM     15  C   UNL A   1      32.126  26.985  23.820  1.00  0.00     0.341 C 
BRANCH  15  16
ATOM     16  C   UNL A   1      31.155  27.970  23.243  1.00  0.00     0.187 A 
ATOM     17  C   UNL A   1      28.763  30.682  23.483  1.00  0.00     0.090 C 
ATOM     18  C   UNL A   1      29.732  29.638  23.072  1.00  0.00     0.129 A 
ATOM     19  N   UNL A   1      29.660  28.926  21.968  1.00  0.00    -0.135 NA
ATOM     20  N   UNL A   1      30.769  29.154  23.831  1.00  0.00    -0.314 N 
ATOM     21  N   UNL A   1      30.576  27.910  22.059  1.00  0.00    -0.129 NA
ATOM     22  C   UNL A   1      31.347  29.738  25.012  1.00  0.00     0.153 C 
ENDBRANCH  15  16
ENDBRANCH   7  15
ENDBRANCH   5   6
ENDBRANCH   3   5
ENDBRANCH   2   3
ENDBRANCH   1   2
BRANCH   1  23
ATOM     23  C   UNL A   1      38.233  21.802  25.706  1.00  0.00     0.275 C 
BRANCH  23  24
ATOM     24  O   UNL A   1      38.721  22.947  26.406  1.00  0.00    -0.458 OA
BRANCH  24  25
ATOM     25  C   UNL A   1      39.897  22.757  27.028  1.00  0.00     0.338 C 
ATOM     26  O   UNL A   1      40.278  21.740  27.612  1.00  0.00    -0.246 OA
BRANCH  25  27
ATOM     27  C   UNL A   1      40.696  23.974  27.026  1.00  0.00     0.060 A 
ATOM     28  C   UNL A   1      41.696  24.091  28.000  1.00  0.00     0.016 A 
ATOM     29  C   UNL A   1      40.196  25.075  26.327  1.00  0.00     0.016 A 
ATOM     30  C   UNL A   1      42.022  25.347  28.454  1.00  0.00     0.010 A 
ATOM     31  C   UNL A   1      40.501  26.326  26.799  1.00  0.00     0.010 A 
ATOM     32  C   UNL A   1      41.329  26.431  27.918  1.00  0.00    -0.014 A 
BRANCH  32  33
ATOM     33  C   UNL A   1      41.421  27.697  28.613  1.00  0.00     0.031 A 
ATOM     34  C   UNL A   1      42.608  28.495  28.269  1.00  0.00     0.074 A 
ATOM     35  C   UNL A   1      40.405  28.126  29.387  1.00  0.00     0.049 A 
ATOM     36  N   UNL A   1      43.529  28.935  29.060  1.00  0.00    -0.248 NA
ATOM     37  C   UNL A   1      42.852  28.763  26.843  1.00  0.00     0.031 C 
ATOM     38  C   UNL A   1      39.069  27.521  29.486  1.00  0.00     0.029 A 
ATOM     39  N   UNL A   1      40.294  29.257  30.140  1.00  0.00    -0.354 N 
ATOM     40  C   UNL A   1      44.364  29.698  28.254  1.00  0.00     0.074 A 
ATOM     41  C   UNL A   1      44.010  29.419  26.889  1.00  0.00     0.031 C 
ATOM     42  C   UNL A   1      38.225  28.406  30.058  1.00  0.00     0.029 A 
ATOM     43  C   UNL A   1      38.988  29.567  30.483  1.00  0.00     0.049 A 
ATOM     44  H   UNL A   1      41.067  29.799  30.415  1.00  0.00     0.167 HD
ATOM     45  C   UNL A   1      45.079  30.728  28.774  1.00  0.00     0.037 A 
ATOM     46  C   UNL A   1      38.544  30.732  31.010  1.00  0.00     0.037 A 
ATOM     47  C   UNL A   1      45.146  30.672  30.207  1.00  0.00     0.049 A 
ATOM     48  C   UNL A   1      39.691  31.451  31.610  1.00  0.00     0.074 A 
ATOM     49  C   UNL A   1      45.919  30.032  31.147  1.00  0.00     0.029 A 
ATOM     50  N   UNL A   1      44.035  31.152  30.845  1.00  0.00    -0.354 N 
ATOM     51  N   UNL A   1      40.348  31.028  32.653  1.00  0.00    -0.248 NA
ATOM     52  C   UNL A   1      40.343  32.520  30.857  1.00  0.00     0.031 C 
ATOM     53  C   UNL A   1      45.175  30.048  32.364  1.00  0.00     0.029 A 
ATOM     54  C   UNL A   1      43.964  30.695  32.135  1.00  0.00     0.049 A 
ATOM     55  H   UNL A   1      43.371  31.748  30.430  1.00  0.00     0.167 HD
ATOM     56  C   UNL A   1      41.639  31.469  32.446  1.00  0.00     0.074 A 
ATOM     57  C   UNL A   1      41.542  32.518  31.444  1.00  0.00     0.031 C 
ATOM     58  C   UNL A   1      42.707  30.723  32.845  1.00  0.00     0.037 A 
BRANCH  45  59
ATOM     59  C   UNL A   1      45.328  32.018  28.038  1.00  0.00     0.064 A 
ATOM     60  C   UNL A   1      44.243  32.858  27.733  1.00  0.00     0.173 A 
ATOM     61  C   UNL A   1      46.537  32.303  27.365  1.00  0.00     0.173 A 
ATOM     62  F   UNL A   1      43.040  32.645  28.287  1.00  0.00    -0.203 F 
ATOM     63  C   UNL A   1      44.355  33.887  26.796  1.00  0.00     0.198 A 
ATOM     64  C   UNL A   1      46.661  33.368  26.477  1.00  0.00     0.198 A 
ATOM     65  F   UNL A   1      47.604  31.498  27.453  1.00  0.00    -0.203 F 
ATOM     66  F   UNL A   1      43.271  34.597  26.455  1.00  0.00    -0.200 F 
ATOM     67  C   UNL A   1      45.564  34.143  26.171  1.00  0.00     0.200 A 
ATOM     68  F   UNL A   1      47.834  33.582  25.864  1.00  0.00    -0.200 F 
ATOM     69  F   UNL A   1      45.660  35.103  25.242  1.00  0.00    -0.200 F 
ENDBRANCH  45  59
BRANCH  46  70
ATOM     70  C   UNL A   1      37.226  31.365  30.792  1.00  0.00     0.064 A 
ATOM     71  C   UNL A   1      36.336  31.580  31.852  1.00  0.00     0.173 A 
ATOM     72  C   UNL A   1      36.919  31.995  29.570  1.00  0.00     0.173 A 
ATOM     73  F   UNL A   1      36.584  31.051  33.059  1.00  0.00    -0.203 F 
ATOM     74  C   UNL A   1      35.206  32.392  31.702  1.00  0.00     0.198 A 
ATOM     75  C   UNL A   1      35.788  32.795  29.417  1.00  0.00     0.198 A 
ATOM     76  F   UNL A   1      37.759  31.916  28.527  1.00  0.00    -0.203 F 
ATOM     77  F   UNL A   1      34.405  32.621  32.751  1.00  0.00    -0.200 F 
ATOM     78  C   UNL A   1      34.938  33.004  30.488  1.00  0.00     0.200 A 
ATOM     79  F   UNL A   1      35.560  33.409  28.248  1.00  0.00    -0.200 F 
ATOM     80  F   UNL A   1      33.888  33.825  30.360  1.00  0.00    -0.200 F 
ENDBRANCH  46  70
BRANCH  58  81
ATOM     81  C   UNL A   1      42.483  29.744  33.951  1.00  0.00     0.064 A 
ATOM     82  C   UNL A   1      41.964  28.453  33.764  1.00  0.00     0.173 A 
ATOM     83  C   UNL A   1      42.861  30.112  35.248  1.00  0.00     0.173 A 
ATOM     84  F   UNL A   1      41.658  28.007  32.538  1.00  0.00    -0.203 F 
ATOM     85  C   UNL A   1      41.785  27.589  34.841  1.00  0.00     0.198 A 
ATOM     86  C   UNL A   1      42.715  29.234  36.317  1.00  0.00     0.198 A 
ATOM     87  F   UNL A   1      43.404  31.319  35.474  1.00  0.00    -0.203 F 
ATOM     88  F   UNL A   1      41.263  26.369  34.645  1.00  0.00    -0.200 F 
ATOM     89  C   UNL A   1      42.165  27.978  36.115  1.00  0.00     0.200 A 
ATOM     90  F   UNL A   1      43.123  29.600  37.540  1.00  0.00    -0.200 F 
ATOM     91  F   UNL A   1      42.021  27.136  37.148  1.00  0.00    -0.200 F 
ENDBRANCH  58  81
ENDBRANCH  32  33
ENDBRANCH  25  27
ENDBRANCH  24  25
ENDBRANCH  23  24
ENDBRANCH   1  23
TORSDOF 14
ENDMDL
MODEL 2
REMARK VINA RESULT:     -12.3      3.065      4.793
REMARK SMILES Cc1nnc(C[N@H+]2[C@@H]3CC[C@H]2C[C@H](CC(=O)OCCOC(=O)c2ccc(-c4c5nc(c(-c6c(F)c(F)c(F)c(F)c6F)c6ccc([nH]6)c(-c6c(F)c(F)c(F)c(F)c6F)c6nc(c(-c7c(F)c(F)c(F)c(F)c7F)c7ccc4[nH]7)C=C6)C=C5)cc2)C3)n1C
REMARK SMILES IDX 18 1 17 2 15 3 16 4 14 5 13 6 7 7 8 8 11 9 9 11 86 12 10 13
REMARK SMILES IDX 12 14 6 15 5 16 1 17 2 18 3 19 87 20 4 21 88 22 19 23 20 24
REMARK SMILES IDX 21 25 22 26 23 27 24 28 85 29 25 30 84 31 26 32 27 33 28 34
REMARK SMILES IDX 78 35 29 36 83 37 77 38 79 39 30 40 82 41 76 42 75 43 31 45
REMARK SMILES IDX 63 46 43 47 62 48 44 49 47 50 61 51 80 52 45 53 46 54 60 56
REMARK SMILES IDX 81 57 48 58 32 59 33 60 41 61 34 62 35 63 39 64 42 65 36 66
REMARK SMILES IDX 37 67 40 68 38 69 64 70 65 71 73 72 66 73 67 74 71 75 74 76
REMARK SMILES IDX 68 77 69 78 72 79 70 80 49 81 50 82 58 83 51 84 52 85 56 86
REMARK SMILES IDX 59 87 53 88 54 89 57 90 55 91
REMARK H PARENT 7 10 79 44 47 55
REMARK Flexibility Score: inf
ROOT
ATOM      1  C   UNL A   1      40.843  21.386  27.423  1.00  0.00     0.274 C 
ENDROOT
BRANCH   1   2
ATOM      2  O   UNL A   1      39.874  21.224  26.373  1.00  0.00    -0.462 OA
BRANCH   2   3
ATOM      3  C   UNL A   1      39.006  22.239  26.167  1.00  0.00     0.306 C 
ATOM      4  O   UNL A   1      39.197  23.400  26.521  1.00  0.00    -0.252 OA
BRANCH   3   5
ATOM      5  C   UNL A   1      37.745  21.839  25.427  1.00  0.00     0.126 C 
BRANCH   5   6
ATOM      6  C   UNL A   1      36.419  22.631  25.529  1.00  0.00     0.012 C 
ATOM      7  N   UNL A   1      33.617  22.087  24.727  1.00  0.00    -0.324 N 
ATOM      8  C   UNL A   1      33.948  22.070  26.143  1.00  0.00     0.185 C 
ATOM      9  C   UNL A   1      34.286  23.279  24.214  1.00  0.00     0.185 C 
ATOM     10  H   UNL A   1      32.601  22.121  24.635  1.00  0.00     0.348 HD
ATOM     11  C   UNL A   1      33.582  23.512  26.523  1.00  0.00     0.071 C 
ATOM     12  C   UNL A   1      35.437  21.821  26.421  1.00  0.00     0.069 C 
ATOM     13  C   UNL A   1      33.867  24.324  25.259  1.00  0.00     0.071 C 
ATOM     14  C   UNL A   1      35.803  23.104  24.194  1.00  0.00     0.069 C 
BRANCH   7  15
ATOM     15  C   UNL A   1      33.620  20.874  23.904  1.00  0.00     0.341 C 
BRANCH  15  16
ATOM     16  C   UNL A   1      33.233  19.557  24.505  1.00  0.00     0.187 A 
ATOM     17  C   UNL A   1      33.678  16.010  25.099  1.00  0.00     0.090 C 
ATOM     18  C   UNL A   1      33.285  17.439  25.095  1.00  0.00     0.129 A 
ATOM     19  N   UNL A   1      32.072  17.895  25.321  1.00  0.00    -0.135 NA
ATOM     20  N   UNL A   1      34.081  18.495  24.726  1.00  0.00    -0.314 N 
ATOM     21  N   UNL A   1      32.051  19.225  24.991  1.00  0.00    -0.129 NA
ATOM     22  C   UNL A   1      35.512  18.513  24.578  1.00  0.00     0.153 C 
ENDBRANCH  15  16
ENDBRANCH   7  15
ENDBRANCH   5   6
ENDBRANCH   3   5
ENDBRANCH   2   3
ENDBRANCH   1   2
BRANCH   1  23
ATOM     23  C   UNL A   1      42.135  20.657  27.064  1.00  0.00     0.275 C 
BRANCH  23  24
ATOM     24  O   UNL A   1      42.408  20.804  25.670  1.00  0.00    -0.458 OA
BRANCH  24  25
ATOM     25  C   UNL A   1      43.714  20.897  25.368  1.00  0.00     0.338 C 
ATOM     26  O   UNL A   1      44.501  19.971  25.161  1.00  0.00    -0.246 OA
BRANCH  25  27
ATOM     27  C   UNL A   1      44.163  22.282  25.398  1.00  0.00     0.060 A 
ATOM     28  C   UNL A   1      45.164  22.615  26.319  1.00  0.00     0.016 A 
ATOM     29  C   UNL A   1      43.343  23.241  24.801  1.00  0.00     0.016 A 
ATOM     30  C   UNL A   1      45.180  23.890  26.834  1.00  0.00     0.010 A 
ATOM     31  C   UNL A   1      43.341  24.505  25.334  1.00  0.00     0.010 A 
ATOM     32  C   UNL A   1      44.191  24.775  26.409  1.00  0.00    -0.014 A 
BRANCH  32  33
ATOM     33  C   UNL A   1      43.996  25.985  27.177  1.00  0.00     0.031 A 
ATOM     34  C   UNL A   1      44.995  27.035  26.922  1.00  0.00     0.074 A 
ATOM     35  C   UNL A   1      42.895  26.141  27.938  1.00  0.00     0.049 A 
ATOM     36  N   UNL A   1      45.784  27.607  27.769  1.00  0.00    -0.248 NA
ATOM     37  C   UNL A   1      45.209  27.437  25.522  1.00  0.00     0.031 C 
ATOM     38  C   UNL A   1      41.715  25.264  27.955  1.00  0.00     0.029 A 
ATOM     39  N   UNL A   1      42.529  27.174  28.749  1.00  0.00    -0.354 N 
ATOM     40  C   UNL A   1      46.456  28.578  27.037  1.00  0.00     0.074 A 
ATOM     41  C   UNL A   1      46.200  28.317  25.647  1.00  0.00     0.031 C 
ATOM     42  C   UNL A   1      40.691  25.914  28.546  1.00  0.00     0.029 A 
ATOM     43  C   UNL A   1      41.180  27.181  29.063  1.00  0.00     0.049 A 
ATOM     44  H   UNL A   1      43.164  27.848  29.082  1.00  0.00     0.167 HD
ATOM     45  C   UNL A   1      46.925  29.701  27.640  1.00  0.00     0.037 A 
ATOM     46  C   UNL A   1      40.487  28.190  29.639  1.00  0.00     0.037 A 
ATOM     47  C   UNL A   1      46.969  29.569  29.069  1.00  0.00     0.049 A 
ATOM     48  C   UNL A   1      41.442  29.095  30.319  1.00  0.00     0.074 A 
ATOM     49  C   UNL A   1      47.839  29.049  29.998  1.00  0.00     0.029 A 
ATOM     50  N   UNL A   1      45.768  29.764  29.693  1.00  0.00    -0.354 N 
ATOM     51  N   UNL A   1      42.151  28.755  31.360  1.00  0.00    -0.248 NA
ATOM     52  C   UNL A   1      41.870  30.323  29.652  1.00  0.00     0.031 C 
ATOM     53  C   UNL A   1      47.080  28.831  31.187  1.00  0.00     0.029 A 
ATOM     54  C   UNL A   1      45.766  29.223  30.952  1.00  0.00     0.049 A 
ATOM     55  H   UNL A   1      45.002  30.233  29.290  1.00  0.00     0.167 HD
ATOM     56  C   UNL A   1      43.323  29.470  31.224  1.00  0.00     0.074 A 
ATOM     57  C   UNL A   1      43.028  30.536  30.280  1.00  0.00     0.031 C 
ATOM     58  C   UNL A   1      44.516  28.941  31.617  1.00  0.00     0.037 A 
BRANCH  45  59
ATOM     59  C   UNL A   1      46.911  31.057  26.988  1.00  0.00     0.064 A 
ATOM     60  C   UNL A   1      48.095  31.815  26.948  1.00  0.00     0.173 A 
ATOM     61  C   UNL A   1      45.722  31.755  26.679  1.00  0.00     0.173 A 
ATOM     62  F   UNL A   1      49.272  31.256  27.267  1.00  0.00    -0.203 F 
ATOM     63  C   UNL A   1      48.081  33.180  26.652  1.00  0.00     0.198 A 
ATOM     64  C   UNL A   1      45.720  33.101  26.324  1.00  0.00     0.198 A 
ATOM     65  F   UNL A   1      44.514  31.193  26.818  1.00  0.00    -0.203 F 
ATOM     66  F   UNL A   1      49.216  33.889  26.729  1.00  0.00    -0.200 F 
ATOM     67  C   UNL A   1      46.895  33.821  26.338  1.00  0.00     0.200 A 
ATOM     68  F   UNL A   1      44.556  33.708  26.049  1.00  0.00    -0.200 F 
ATOM     69  F   UNL A   1      46.875  35.138  26.095  1.00  0.00    -0.200 F 
ENDBRANCH  45  59
BRANCH  46  70
ATOM     70  C   UNL A   1      39.071  28.545  29.410  1.00  0.00     0.064 A 
ATOM     71  C   UNL A   1      38.174  28.690  30.477  1.00  0.00     0.173 A 
ATOM     72  C   UNL A   1      38.630  28.990  28.148  1.00  0.00     0.173 A 
ATOM     73  F   UNL A   1      38.538  28.331  31.717  1.00  0.00    -0.203 F 
ATOM     74  C   UNL A   1      36.910  29.260  30.294  1.00  0.00     0.198 A 
ATOM     75  C   UNL A   1      37.367  29.549  27.964  1.00  0.00     0.198 A 
ATOM     76  F   UNL A   1      39.452  28.970  27.088  1.00  0.00    -0.203 F 
ATOM     77  F   UNL A   1      36.098  29.435  31.345  1.00  0.00    -0.200 F 
ATOM     78  C   UNL A   1      36.511  29.696  29.040  1.00  0.00     0.200 A 
ATOM     79  F   UNL A   1      37.008  29.998  26.753  1.00  0.00    -0.200 F 
ATOM     80  F   UNL A   1      35.323  30.292  28.875  1.00  0.00    -0.200 F 
ENDBRANCH  46  70
BRANCH  58  81
ATOM     81  C   UNL A   1      44.478  27.869  32.657  1.00  0.00     0.064 A 
ATOM     82  C   UNL A   1      44.387  26.498  32.369  1.00  0.00     0.173 A 
ATOM     83  C   UNL A   1      44.596  28.246  34.001  1.00  0.00     0.173 A 
ATOM     84  F   UNL A   1      44.353  26.063  31.102  1.00  0.00    -0.203 F 
ATOM     85  C   UNL A   1      44.362  25.551  33.390  1.00  0.00     0.198 A 
ATOM     86  C   UNL A   1      44.607  27.295  35.017  1.00  0.00     0.198 A 
ATOM     87  F   UNL A   1      44.731  29.541  34.328  1.00  0.00    -0.203 F 
ATOM     88  F   UNL A   1      44.247  24.247  33.095  1.00  0.00    -0.200 F 
ATOM     89  C   UNL A   1      44.477  25.950  34.712  1.00  0.00     0.200 A 
ATOM     90  F   UNL A   1      44.762  27.683  36.290  1.00  0.00    -0.200 F 
ATOM     91  F   UNL A   1      44.483  25.037  35.693  1.00  0.00    -0.200 F 
ENDBRANCH  58  81
ENDBRANCH  32  33
ENDBRANCH  25  27
ENDBRANCH  24  25
ENDBRANCH  23  24
ENDBRANCH   1  23
TORSDOF 14
ENDMDL
MODEL 3
REMARK VINA RESULT:     -12.2      2.757      7.402
REMARK SMILES Cc1nnc(C[N@H+]2[C@@H]3CC[C@H]2C[C@H](CC(=O)OCCOC(=O)c2ccc(-c4c5nc(c(-c6c(F)c(F)c(F)c(F)c6F)c6ccc([nH]6)c(-c6c(F)c(F)c(F)c(F)c6F)c6nc(c(-c7c(F)c(F)c(F)c(F)c7F)c7ccc4[nH]7)C=C6)C=C5)cc2)C3)n1C
REMARK SMILES IDX 18 1 17 2 15 3 16 4 14 5 13 6 7 7 8 8 11 9 9 11 86 12 10 13
REMARK SMILES IDX 12 14 6 15 5 16 1 17 2 18 3 19 87 20 4 21 88 22 19 23 20 24
REMARK SMILES IDX 21 25 22 26 23 27 24 28 85 29 25 30 84 31 26 32 27 33 28 34
REMARK SMILES IDX 78 35 29 36 83 37 77 38 79 39 30 40 82 41 76 42 75 43 31 45
REMARK SMILES IDX 63 46 43 47 62 48 44 49 47 50 61 51 80 52 45 53 46 54 60 56
REMARK SMILES IDX 81 57 48 58 32 59 33 60 41 61 34 62 35 63 39 64 42 65 36 66
REMARK SMILES IDX 37 67 40 68 38 69 64 70 65 71 73 72 66 73 67 74 71 75 74 76
REMARK SMILES IDX 68 77 69 78 72 79 70 80 49 81 50 82 58 83 51 84 52 85 56 86
REMARK SMILES IDX 59 87 53 88 54 89 57 90 55 91
REMARK H PARENT 7 10 79 44 47 55
REMARK Flexibility Score: inf
ROOT
ATOM      1  C   UNL A   1      36.461  21.061  25.321  1.00  0.00     0.274 C 
ENDROOT
BRANCH   1   2
ATOM      2  O   UNL A   1      36.229  22.209  24.488  1.00  0.00    -0.462 OA
BRANCH   2   3
ATOM      3  C   UNL A   1      36.289  23.425  25.074  1.00  0.00     0.306 C 
ATOM      4  O   UNL A   1      37.082  23.730  25.962  1.00  0.00    -0.252 OA
BRANCH   3   5
ATOM      5  C   UNL A   1      35.290  24.428  24.533  1.00  0.00     0.126 C 
BRANCH   5   6
ATOM      6  C   UNL A   1      33.762  24.182  24.535  1.00  0.00     0.012 C 
ATOM      7  N   UNL A   1      31.401  25.827  23.819  1.00  0.00    -0.324 N 
ATOM      8  C   UNL A   1      31.777  24.735  22.935  1.00  0.00     0.185 C 
ATOM      9  C   UNL A   1      31.491  25.254  25.159  1.00  0.00     0.185 C 
ATOM     10  H   UNL A   1      30.459  26.131  23.570  1.00  0.00     0.348 HD
ATOM     11  C   UNL A   1      30.867  23.623  23.476  1.00  0.00     0.071 C 
ATOM     12  C   UNL A   1      33.247  24.315  23.074  1.00  0.00     0.069 C 
ATOM     13  C   UNL A   1      30.728  23.934  24.967  1.00  0.00     0.071 C 
ATOM     14  C   UNL A   1      32.941  24.994  25.560  1.00  0.00     0.069 C 
BRANCH   7  15
ATOM     15  C   UNL A   1      31.865  27.202  23.613  1.00  0.00     0.341 C 
BRANCH  15  16
ATOM     16  C   UNL A   1      30.914  28.251  23.122  1.00  0.00     0.187 A 
ATOM     17  C   UNL A   1      28.634  31.029  23.585  1.00  0.00     0.090 C 
ATOM     18  C   UNL A   1      29.550  29.975  23.087  1.00  0.00     0.129 A 
ATOM     19  N   UNL A   1      29.418  29.327  21.950  1.00  0.00    -0.135 NA
ATOM     20  N   UNL A   1      30.591  29.414  23.784  1.00  0.00    -0.314 N 
ATOM     21  N   UNL A   1      30.298  28.277  21.955  1.00  0.00    -0.129 NA
ATOM     22  C   UNL A   1      31.226  29.911  24.976  1.00  0.00     0.153 C 
ENDBRANCH  15  16
ENDBRANCH   7  15
ENDBRANCH   5   6
ENDBRANCH   3   5
ENDBRANCH   2   3
ENDBRANCH   1   2
BRANCH   1  23
ATOM     23  C   UNL A   1      37.761  20.371  24.918  1.00  0.00     0.275 C 
BRANCH  23  24
ATOM     24  O   UNL A   1      38.865  20.975  25.595  1.00  0.00    -0.458 OA
BRANCH  24  25
ATOM     25  C   UNL A   1      39.916  20.158  25.777  1.00  0.00     0.338 C 
ATOM     26  O   UNL A   1      39.983  18.955  25.514  1.00  0.00    -0.246 OA
BRANCH  25  27
ATOM     27  C   UNL A   1      41.011  20.851  26.441  1.00  0.00     0.060 A 
ATOM     28  C   UNL A   1      41.055  20.797  27.840  1.00  0.00     0.016 A 
ATOM     29  C   UNL A   1      41.712  21.808  25.704  1.00  0.00     0.016 A 
ATOM     30  C   UNL A   1      41.605  21.859  28.518  1.00  0.00     0.010 A 
ATOM     31  C   UNL A   1      42.237  22.880  26.380  1.00  0.00     0.010 A 
ATOM     32  C   UNL A   1      42.082  22.932  27.767  1.00  0.00    -0.014 A 
BRANCH  32  33
ATOM     33  C   UNL A   1      42.348  24.173  28.461  1.00  0.00     0.031 A 
ATOM     34  C   UNL A   1      41.401  25.257  28.155  1.00  0.00     0.074 A 
ATOM     35  C   UNL A   1      43.305  24.234  29.408  1.00  0.00     0.049 A 
ATOM     36  N   UNL A   1      41.659  26.428  27.676  1.00  0.00    -0.248 NA
ATOM     37  C   UNL A   1      39.967  24.966  28.315  1.00  0.00     0.031 C 
ATOM     38  C   UNL A   1      44.039  23.096  29.981  1.00  0.00     0.029 A 
ATOM     39  N   UNL A   1      43.732  25.291  30.156  1.00  0.00    -0.354 N 
ATOM     40  C   UNL A   1      40.437  27.088  27.659  1.00  0.00     0.074 A 
ATOM     41  C   UNL A   1      39.417  26.102  27.890  1.00  0.00     0.031 C 
ATOM     42  C   UNL A   1      44.635  23.488  31.127  1.00  0.00     0.029 A 
ATOM     43  C   UNL A   1      44.439  24.919  31.287  1.00  0.00     0.049 A 
ATOM     44  H   UNL A   1      43.555  26.228  29.914  1.00  0.00     0.167 HD
ATOM     45  C   UNL A   1      40.377  28.441  27.756  1.00  0.00     0.037 A 
ATOM     46  C   UNL A   1      44.777  25.713  32.329  1.00  0.00     0.037 A 
ATOM     47  C   UNL A   1      41.649  29.058  27.505  1.00  0.00     0.049 A 
ATOM     48  C   UNL A   1      44.710  27.127  31.892  1.00  0.00     0.074 A 
ATOM     49  C   UNL A   1      42.368  29.452  26.402  1.00  0.00     0.029 A 
ATOM     50  N   UNL A   1      42.505  29.043  28.572  1.00  0.00    -0.354 N 
ATOM     51  N   UNL A   1      45.509  27.652  31.006  1.00  0.00    -0.248 NA
ATOM     52  C   UNL A   1      43.524  27.921  32.207  1.00  0.00     0.031 C 
ATOM     53  C   UNL A   1      43.726  29.569  26.824  1.00  0.00     0.029 A 
ATOM     54  C   UNL A   1      43.802  29.240  28.174  1.00  0.00     0.049 A 
ATOM     55  H   UNL A   1      42.226  28.907  29.506  1.00  0.00     0.167 HD
ATOM     56  C   UNL A   1      44.737  28.603  30.369  1.00  0.00     0.074 A 
ATOM     57  C   UNL A   1      43.610  28.851  31.253  1.00  0.00     0.031 C 
ATOM     58  C   UNL A   1      44.891  28.854  29.039  1.00  0.00     0.037 A 
BRANCH  45  59
ATOM     59  C   UNL A   1      39.299  29.170  28.513  1.00  0.00     0.064 A 
ATOM     60  C   UNL A   1      39.176  28.970  29.900  1.00  0.00     0.173 A 
ATOM     61  C   UNL A   1      38.209  29.810  27.882  1.00  0.00     0.173 A 
ATOM     62  F   UNL A   1      40.137  28.333  30.584  1.00  0.00    -0.203 F 
ATOM     63  C   UNL A   1      38.027  29.355  30.595  1.00  0.00     0.198 A 
ATOM     64  C   UNL A   1      37.092  30.247  28.590  1.00  0.00     0.198 A 
ATOM     65  F   UNL A   1      38.133  29.932  26.551  1.00  0.00    -0.203 F 
ATOM     66  F   UNL A   1      37.903  29.051  31.894  1.00  0.00    -0.200 F 
ATOM     67  C   UNL A   1      36.988  29.995  29.941  1.00  0.00     0.200 A 
ATOM     68  F   UNL A   1      36.086  30.841  27.932  1.00  0.00    -0.200 F 
ATOM     69  F   UNL A   1      35.870  30.326  30.599  1.00  0.00    -0.200 F 
ENDBRANCH  45  59
BRANCH  46  70
ATOM     70  C   UNL A   1      44.905  25.319  33.748  1.00  0.00     0.064 A 
ATOM     71  C   UNL A   1      43.781  25.210  34.578  1.00  0.00     0.173 A 
ATOM     72  C   UNL A   1      46.115  24.804  34.251  1.00  0.00     0.173 A 
ATOM     73  F   UNL A   1      42.583  25.636  34.151  1.00  0.00    -0.203 F 
ATOM     74  C   UNL A   1      43.861  24.606  35.837  1.00  0.00     0.198 A 
ATOM     75  C   UNL A   1      46.198  24.212  35.510  1.00  0.00     0.198 A 
ATOM     76  F   UNL A   1      47.222  24.788  33.493  1.00  0.00    -0.203 F 
ATOM     77  F   UNL A   1      42.757  24.467  36.583  1.00  0.00    -0.200 F 
ATOM     78  C   UNL A   1      45.067  24.101  36.298  1.00  0.00     0.200 A 
ATOM     79  F   UNL A   1      47.362  23.697  35.928  1.00  0.00    -0.200 F 
ATOM     80  F   UNL A   1      45.133  23.474  37.479  1.00  0.00    -0.200 F 
ENDBRANCH  46  70
BRANCH  58  81
ATOM     81  C   UNL A   1      46.213  28.518  28.428  1.00  0.00     0.064 A 
ATOM     82  C   UNL A   1      47.343  29.346  28.498  1.00  0.00     0.173 A 
ATOM     83  C   UNL A   1      46.351  27.278  27.792  1.00  0.00     0.173 A 
ATOM     84  F   UNL A   1      47.303  30.509  29.162  1.00  0.00    -0.203 F 
ATOM     85  C   UNL A   1      48.547  28.967  27.909  1.00  0.00     0.198 A 
ATOM     86  C   UNL A   1      47.565  26.886  27.236  1.00  0.00     0.198 A 
ATOM     87  F   UNL A   1      45.312  26.429  27.737  1.00  0.00    -0.203 F 
ATOM     88  F   UNL A   1      49.609  29.784  27.964  1.00  0.00    -0.200 F 
ATOM     89  C   UNL A   1      48.658  27.736  27.283  1.00  0.00     0.200 A 
ATOM     90  F   UNL A   1      47.678  25.677  26.670  1.00  0.00    -0.200 F 
ATOM     91  F   UNL A   1      49.824  27.357  26.742  1.00  0.00    -0.200 F 
ENDBRANCH  58  81
ENDBRANCH  32  33
ENDBRANCH  25  27
ENDBRANCH  24  25
ENDBRANCH  23  24
ENDBRANCH   1  23
TORSDOF 14
ENDMDL
