MODEL 1
REMARK VINA RESULT:     -12.7      0.000      0.000
REMARK SMILES CCCCc1cc(S(F)(F)(F)(F)F)cc2c1O[C@@H](C(F)(F)F)C(C(=O)OCCOC(=O)c1ccc(-c3c4nc(c(-c5c(F)c(F)c(F)c(F)c5F)c5ccc([nH]5)c(-c5c(F)c(F)c(F)c(F)c5F)c5nc(c(-c6c(F)c(F)c(F)c(F)c6F)c6ccc3[nH]6)C=C5)C=C4)cc1)=C2
REMARK SMILES IDX 27 1 26 2 24 3 25 4 23 5 5 6 6 7 16 8 7 9 15 10 17 11 14 12
REMARK SMILES IDX 95 13 18 14 4 15 3 16 2 17 1 18 8 19 9 20 10 21 11 22 12 23
REMARK SMILES IDX 13 24 19 25 20 26 21 27 22 28 28 29 29 30 30 31 31 32 32 33
REMARK SMILES IDX 33 34 94 35 34 36 93 37 35 38 36 39 37 40 87 41 38 42 92 43
REMARK SMILES IDX 86 44 88 45 39 46 91 47 85 48 84 49 40 51 72 52 52 53 71 54
REMARK SMILES IDX 53 55 56 56 70 57 89 58 54 59 55 60 69 62 90 63 57 64 41 65
REMARK SMILES IDX 42 66 50 67 43 68 44 69 48 70 51 71 45 72 46 73 49 74 47 75
REMARK SMILES IDX 73 76 74 77 82 78 75 79 76 80 80 81 83 82 77 83 78 84 81 85
REMARK SMILES IDX 79 86 58 87 59 88 67 89 60 90 61 91 65 92 68 93 62 94 63 95
REMARK SMILES IDX 66 96 64 97
REMARK H PARENT 88 50 56 61
REMARK Flexibility Score: inf
ROOT
ATOM      1  C   UNL A   1      42.588  21.334  25.911  1.00  0.00     0.275 C 
ENDROOT
BRANCH   1   2
ATOM      2  O   UNL A   1      41.337  21.939  25.615  1.00  0.00    -0.459 OA
BRANCH   2   3
ATOM      3  C   UNL A   1      40.227  21.732  26.477  1.00  0.00     0.338 C 
ATOM      4  O   UNL A   1      40.403  21.233  27.631  1.00  0.00    -0.246 OA
BRANCH   3   5
ATOM      5  C   UNL A   1      38.828  22.109  26.017  1.00  0.00     0.087 C 
ATOM      6  C   UNL A   1      34.884  23.252  25.246  1.00  0.00    -0.004 A 
ATOM      7  C   UNL A   1      33.963  22.310  24.825  1.00  0.00     0.032 A 
ATOM      8  C   UNL A   1      36.161  22.838  25.543  1.00  0.00     0.131 A 
ATOM      9  C   UNL A   1      34.308  20.989  24.710  1.00  0.00     0.108 A 
ATOM     10  C   UNL A   1      36.550  21.517  25.421  1.00  0.00     0.019 A 
ATOM     11  O   UNL A   1      37.031  23.763  26.066  1.00  0.00    -0.475 OA
ATOM     12  C   UNL A   1      35.597  20.596  25.001  1.00  0.00     0.036 A 
ATOM     13  C   UNL A   1      37.911  21.175  25.798  1.00  0.00     0.027 C 
ATOM     14  C   UNL A   1      38.448  23.568  25.798  1.00  0.00     0.316 C 
BRANCH   6  15
ATOM     15  C   UNL A   1      34.493  24.715  25.376  1.00  0.00     0.039 C 
BRANCH  15  16
ATOM     16  C   UNL A   1      34.028  25.236  24.026  1.00  0.00     0.005 C 
BRANCH  16  17
ATOM     17  C   UNL A   1      32.565  25.638  24.114  1.00  0.00    -0.003 C 
ATOM     18  C   UNL A   1      31.830  25.154  22.875  1.00  0.00     0.004 C 
ENDBRANCH  16  17
ENDBRANCH  15  16
ENDBRANCH   6  15
BRANCH   9  19
ATOM     19  S   UNL A   1      33.080  19.769  24.182  1.00  0.00     0.310 S 
ATOM     20  F   UNL A   1      31.924  20.491  24.992  1.00  0.00    -0.094 F 
ATOM     21  F   UNL A   1      33.376  18.933  25.484  1.00  0.00    -0.094 F 
ATOM     22  F   UNL A   1      32.022  18.727  23.720  1.00  0.00    -0.094 F 
ATOM     23  F   UNL A   1      32.697  20.688  22.956  1.00  0.00    -0.094 F 
ATOM     24  F   UNL A   1      34.069  20.890  24.695  1.00  0.00    -0.094 F 
ENDBRANCH   9  19
BRANCH  14  25
ATOM     25  C   UNL A   1      39.258  24.439  26.744  1.00  0.00     0.430 C 
ATOM     26  F   UNL A   1      40.358  24.861  26.126  1.00  0.00    -0.167 F 
ATOM     27  F   UNL A   1      38.529  25.487  27.114  1.00  0.00    -0.167 F 
ATOM     28  F   UNL A   1      39.596  23.732  27.818  1.00  0.00    -0.167 F 
ENDBRANCH  14  25
ENDBRANCH   3   5
ENDBRANCH   2   3
ENDBRANCH   1   2
BRANCH   1  29
ATOM     29  C   UNL A   1      43.658  21.909  24.997  1.00  0.00     0.275 C 
BRANCH  29  30
ATOM     30  O   UNL A   1      43.339  23.257  24.684  1.00  0.00    -0.458 OA
BRANCH  30  31
ATOM     31  C   UNL A   1      44.126  24.313  25.214  1.00  0.00     0.338 C 
ATOM     32  O   UNL A   1      45.272  24.561  24.723  1.00  0.00    -0.246 OA
BRANCH  31  33
ATOM     33  C   UNL A   1      43.598  25.148  26.369  1.00  0.00     0.060 A 
ATOM     34  C   UNL A   1      43.123  24.513  27.504  1.00  0.00     0.016 A 
ATOM     35  C   UNL A   1      43.603  26.473  26.273  1.00  0.00     0.016 A 
ATOM     36  C   UNL A   1      42.399  25.361  28.376  1.00  0.00     0.010 A 
ATOM     37  C   UNL A   1      42.995  27.246  27.232  1.00  0.00     0.010 A 
ATOM     38  C   UNL A   1      42.451  26.680  28.351  1.00  0.00    -0.014 A 
BRANCH  38  39
ATOM     39  C   UNL A   1      41.935  27.525  29.505  1.00  0.00     0.031 A 
ATOM     40  C   UNL A   1      40.789  28.293  29.294  1.00  0.00     0.074 A 
ATOM     41  C   UNL A   1      42.632  27.485  30.700  1.00  0.00     0.049 A 
ATOM     42  N   UNL A   1      40.158  29.071  30.175  1.00  0.00    -0.248 NA
ATOM     43  C   UNL A   1      40.066  28.362  28.016  1.00  0.00     0.031 C 
ATOM     44  C   UNL A   1      43.784  26.706  30.923  1.00  0.00     0.029 A 
ATOM     45  N   UNL A   1      42.355  28.169  31.864  1.00  0.00    -0.354 N 
ATOM     46  C   UNL A   1      39.086  29.632  29.611  1.00  0.00     0.074 A 
ATOM     47  C   UNL A   1      39.016  29.188  28.212  1.00  0.00     0.031 C 
ATOM     48  C   UNL A   1      44.202  26.925  32.198  1.00  0.00     0.029 A 
ATOM     49  C   UNL A   1      43.318  27.845  32.793  1.00  0.00     0.049 A 
ATOM     50  H   UNL A   1      41.599  28.783  32.006  1.00  0.00     0.167 HD
ATOM     51  C   UNL A   1      38.164  30.493  30.208  1.00  0.00     0.037 A 
ATOM     52  C   UNL A   1      43.437  28.316  34.091  1.00  0.00     0.037 A 
ATOM     53  C   UNL A   1      38.259  30.929  31.520  1.00  0.00     0.049 A 
ATOM     54  C   UNL A   1      42.547  29.224  34.671  1.00  0.00     0.074 A 
ATOM     55  C   UNL A   1      37.335  31.792  32.140  1.00  0.00     0.029 A 
ATOM     56  N   UNL A   1      39.237  30.626  32.442  1.00  0.00    -0.354 N 
ATOM     57  N   UNL A   1      41.454  29.754  34.119  1.00  0.00    -0.248 NA
ATOM     58  C   UNL A   1      42.681  29.755  36.034  1.00  0.00     0.031 C 
ATOM     59  C   UNL A   1      37.754  32.012  33.414  1.00  0.00     0.029 A 
ATOM     60  C   UNL A   1      38.947  31.292  33.612  1.00  0.00     0.049 A 
ATOM     61  H   UNL A   1      40.009  30.033  32.290  1.00  0.00     0.167 HD
ATOM     62  C   UNL A   1      40.847  30.564  34.987  1.00  0.00     0.074 A 
ATOM     63  C   UNL A   1      41.632  30.582  36.229  1.00  0.00     0.031 C 
ATOM     64  C   UNL A   1      39.668  31.286  34.796  1.00  0.00     0.037 A 
BRANCH  51  65
ATOM     65  C   UNL A   1      36.992  30.979  29.373  1.00  0.00     0.064 A 
ATOM     66  C   UNL A   1      35.928  30.108  29.202  1.00  0.00     0.173 A 
ATOM     67  C   UNL A   1      36.943  32.224  28.913  1.00  0.00     0.173 A 
ATOM     68  F   UNL A   1      35.825  28.953  29.853  1.00  0.00    -0.203 F 
ATOM     69  C   UNL A   1      34.962  30.559  28.273  1.00  0.00     0.198 A 
ATOM     70  C   UNL A   1      35.899  32.637  28.122  1.00  0.00     0.198 A 
ATOM     71  F   UNL A   1      37.913  33.079  29.223  1.00  0.00    -0.203 F 
ATOM     72  F   UNL A   1      34.114  29.661  27.777  1.00  0.00    -0.200 F 
ATOM     73  C   UNL A   1      34.842  31.808  27.863  1.00  0.00     0.200 A 
ATOM     74  F   UNL A   1      35.916  33.860  27.599  1.00  0.00    -0.200 F 
ATOM     75  F   UNL A   1      33.753  32.238  27.232  1.00  0.00    -0.200 F 
ENDBRANCH  51  65
BRANCH  52  76
ATOM     76  C   UNL A   1      44.601  27.817  34.931  1.00  0.00     0.064 A 
ATOM     77  C   UNL A   1      44.447  26.683  35.711  1.00  0.00     0.173 A 
ATOM     78  C   UNL A   1      45.711  28.544  34.983  1.00  0.00     0.173 A 
ATOM     79  F   UNL A   1      43.478  25.793  35.514  1.00  0.00    -0.203 F 
ATOM     80  C   UNL A   1      45.414  26.557  36.736  1.00  0.00     0.198 A 
ATOM     81  C   UNL A   1      46.677  28.279  35.924  1.00  0.00     0.198 A 
ATOM     82  F   UNL A   1      45.891  29.536  34.116  1.00  0.00    -0.203 F 
ATOM     83  F   UNL A   1      45.147  25.725  37.739  1.00  0.00    -0.200 F 
ATOM     84  C   UNL A   1      46.562  27.209  36.768  1.00  0.00     0.200 A 
ATOM     85  F   UNL A   1      47.739  29.074  36.015  1.00  0.00    -0.200 F 
ATOM     86  F   UNL A   1      47.552  26.845  37.577  1.00  0.00    -0.200 F 
ENDBRANCH  52  76
BRANCH  64  87
ATOM     87  C   UNL A   1      39.144  32.119  35.954  1.00  0.00     0.064 A 
ATOM     88  C   UNL A   1      39.573  33.428  36.098  1.00  0.00     0.173 A 
ATOM     89  C   UNL A   1      38.284  31.578  36.810  1.00  0.00     0.173 A 
ATOM     90  F   UNL A   1      40.223  34.087  35.143  1.00  0.00    -0.203 F 
ATOM     91  C   UNL A   1      39.255  34.002  37.352  1.00  0.00     0.198 A 
ATOM     92  C   UNL A   1      37.913  32.251  37.948  1.00  0.00     0.198 A 
ATOM     93  F   UNL A   1      37.778  30.374  36.561  1.00  0.00    -0.203 F 
ATOM     94  F   UNL A   1      39.920  35.093  37.719  1.00  0.00    -0.200 F 
ATOM     95  C   UNL A   1      38.346  33.527  38.184  1.00  0.00     0.200 A 
ATOM     96  F   UNL A   1      37.121  31.654  38.834  1.00  0.00    -0.200 F 
ATOM     97  F   UNL A   1      37.876  34.250  39.196  1.00  0.00    -0.200 F 
ENDBRANCH  64  87
ENDBRANCH  38  39
ENDBRANCH  31  33
ENDBRANCH  30  31
ENDBRANCH  29  30
ENDBRANCH   1  29
TORSDOF 16
ENDMDL
MODEL 2
REMARK VINA RESULT:     -12.6      0.517      7.026
REMARK SMILES CCCCc1cc(S(F)(F)(F)(F)F)cc2c1O[C@@H](C(F)(F)F)C(C(=O)OCCOC(=O)c1ccc(-c3c4nc(c(-c5c(F)c(F)c(F)c(F)c5F)c5ccc([nH]5)c(-c5c(F)c(F)c(F)c(F)c5F)c5nc(c(-c6c(F)c(F)c(F)c(F)c6F)c6ccc3[nH]6)C=C5)C=C4)cc1)=C2
REMARK SMILES IDX 27 1 26 2 24 3 25 4 23 5 5 6 6 7 16 8 7 9 15 10 17 11 14 12
REMARK SMILES IDX 95 13 18 14 4 15 3 16 2 17 1 18 8 19 9 20 10 21 11 22 12 23
REMARK SMILES IDX 13 24 19 25 20 26 21 27 22 28 28 29 29 30 30 31 31 32 32 33
REMARK SMILES IDX 33 34 94 35 34 36 93 37 35 38 36 39 37 40 87 41 38 42 92 43
REMARK SMILES IDX 86 44 88 45 39 46 91 47 85 48 84 49 40 51 72 52 52 53 71 54
REMARK SMILES IDX 53 55 56 56 70 57 89 58 54 59 55 60 69 62 90 63 57 64 41 65
REMARK SMILES IDX 42 66 50 67 43 68 44 69 48 70 51 71 45 72 46 73 49 74 47 75
REMARK SMILES IDX 73 76 74 77 82 78 75 79 76 80 80 81 83 82 77 83 78 84 81 85
REMARK SMILES IDX 79 86 58 87 59 88 67 89 60 90 61 91 65 92 68 93 62 94 63 95
REMARK SMILES IDX 66 96 64 97
REMARK H PARENT 88 50 56 61
REMARK Flexibility Score: inf
ROOT
ATOM      1  C   UNL A   1      42.526  21.248  25.670  1.00  0.00     0.275 C 
ENDROOT
BRANCH   1   2
ATOM      2  O   UNL A   1      41.399  22.111  25.663  1.00  0.00    -0.459 OA
BRANCH   2   3
ATOM      3  C   UNL A   1      40.289  21.836  26.505  1.00  0.00     0.338 C 
ATOM      4  O   UNL A   1      40.471  21.291  27.638  1.00  0.00    -0.246 OA
BRANCH   3   5
ATOM      5  C   UNL A   1      38.883  22.196  26.052  1.00  0.00     0.087 C 
ATOM      6  C   UNL A   1      34.919  23.281  25.300  1.00  0.00    -0.004 A 
ATOM      7  C   UNL A   1      34.015  22.330  24.862  1.00  0.00     0.032 A 
ATOM      8  C   UNL A   1      36.203  22.885  25.591  1.00  0.00     0.131 A 
ATOM      9  C   UNL A   1      34.385  21.018  24.723  1.00  0.00     0.108 A 
ATOM     10  C   UNL A   1      36.616  21.574  25.445  1.00  0.00     0.019 A 
ATOM     11  O   UNL A   1      37.056  23.816  26.131  1.00  0.00    -0.475 OA
ATOM     12  C   UNL A   1      35.681  20.643  25.007  1.00  0.00     0.036 A 
ATOM     13  C   UNL A   1      37.983  21.249  25.815  1.00  0.00     0.027 C 
ATOM     14  C   UNL A   1      38.477  23.652  25.860  1.00  0.00     0.316 C 
BRANCH   6  15
ATOM     15  C   UNL A   1      34.501  24.734  25.457  1.00  0.00     0.039 C 
BRANCH  15  16
ATOM     16  C   UNL A   1      33.099  24.797  26.040  1.00  0.00     0.005 C 
BRANCH  16  17
ATOM     17  C   UNL A   1      32.622  26.240  26.059  1.00  0.00    -0.003 C 
ATOM     18  C   UNL A   1      33.681  27.133  25.434  1.00  0.00     0.004 C 
ENDBRANCH  16  17
ENDBRANCH  15  16
ENDBRANCH   6  15
BRANCH   9  19
ATOM     19  S   UNL A   1      33.179  19.785  24.172  1.00  0.00     0.310 S 
ATOM     20  F   UNL A   1      32.057  20.363  25.132  1.00  0.00    -0.094 F 
ATOM     21  F   UNL A   1      33.618  18.850  25.361  1.00  0.00    -0.094 F 
ATOM     22  F   UNL A   1      32.140  18.733  23.691  1.00  0.00    -0.094 F 
ATOM     23  F   UNL A   1      32.655  20.791  23.074  1.00  0.00    -0.094 F 
ATOM     24  F   UNL A   1      34.150  20.907  24.716  1.00  0.00    -0.094 F 
ENDBRANCH   9  19
BRANCH  14  25
ATOM     25  C   UNL A   1      39.270  24.520  26.822  1.00  0.00     0.430 C 
ATOM     26  F   UNL A   1      39.663  23.787  27.860  1.00  0.00    -0.167 F 
ATOM     27  F   UNL A   1      40.337  25.011  26.198  1.00  0.00    -0.167 F 
ATOM     28  F   UNL A   1      38.506  25.520  27.249  1.00  0.00    -0.167 F 
ENDBRANCH  14  25
ENDBRANCH   3   5
ENDBRANCH   2   3
ENDBRANCH   1   2
BRANCH   1  29
ATOM     29  C   UNL A   1      43.736  21.989  25.125  1.00  0.00     0.275 C 
BRANCH  29  30
ATOM     30  O   UNL A   1      43.349  23.294  24.719  1.00  0.00    -0.458 OA
BRANCH  30  31
ATOM     31  C   UNL A   1      44.076  24.424  25.177  1.00  0.00     0.338 C 
ATOM     32  O   UNL A   1      45.176  24.740  24.625  1.00  0.00    -0.246 OA
BRANCH  31  33
ATOM     33  C   UNL A   1      43.539  25.256  26.331  1.00  0.00     0.060 A 
ATOM     34  C   UNL A   1      43.673  26.634  26.295  1.00  0.00     0.016 A 
ATOM     35  C   UNL A   1      42.948  24.649  27.354  1.00  0.00     0.016 A 
ATOM     36  C   UNL A   1      43.406  27.269  27.531  1.00  0.00     0.010 A 
ATOM     37  C   UNL A   1      42.591  25.356  28.476  1.00  0.00     0.010 A 
ATOM     38  C   UNL A   1      42.750  26.713  28.533  1.00  0.00    -0.014 A 
BRANCH  38  39
ATOM     39  C   UNL A   1      42.201  27.536  29.686  1.00  0.00     0.031 A 
ATOM     40  C   UNL A   1      42.852  27.456  30.918  1.00  0.00     0.074 A 
ATOM     41  C   UNL A   1      41.084  28.319  29.450  1.00  0.00     0.049 A 
ATOM     42  N   UNL A   1      42.555  28.115  32.039  1.00  0.00    -0.248 NA
ATOM     43  C   UNL A   1      44.019  26.600  31.180  1.00  0.00     0.031 C 
ATOM     44  C   UNL A   1      40.426  28.412  28.208  1.00  0.00     0.029 A 
ATOM     45  N   UNL A   1      40.416  29.130  30.342  1.00  0.00    -0.354 N 
ATOM     46  C   UNL A   1      43.417  27.791  33.007  1.00  0.00     0.074 A 
ATOM     47  C   UNL A   1      44.367  26.808  32.469  1.00  0.00     0.031 C 
ATOM     48  C   UNL A   1      39.371  29.257  28.351  1.00  0.00     0.029 A 
ATOM     49  C   UNL A   1      39.352  29.706  29.685  1.00  0.00     0.049 A 
ATOM     50  H   UNL A   1      40.658  29.272  31.285  1.00  0.00     0.167 HD
ATOM     51  C   UNL A   1      43.450  28.279  34.313  1.00  0.00     0.037 A 
ATOM     52  C   UNL A   1      38.406  30.577  30.203  1.00  0.00     0.037 A 
ATOM     53  C   UNL A   1      42.529  29.184  34.819  1.00  0.00     0.049 A 
ATOM     54  C   UNL A   1      38.403  31.020  31.528  1.00  0.00     0.074 A 
ATOM     55  C   UNL A   1      42.551  29.691  36.132  1.00  0.00     0.029 A 
ATOM     56  N   UNL A   1      41.449  29.741  34.170  1.00  0.00    -0.354 N 
ATOM     57  N   UNL A   1      39.287  30.726  32.483  1.00  0.00    -0.248 NA
ATOM     58  C   UNL A   1      37.387  31.916  32.096  1.00  0.00     0.031 C 
ATOM     59  C   UNL A   1      41.495  30.535  36.275  1.00  0.00     0.029 A 
ATOM     60  C   UNL A   1      40.795  30.569  35.055  1.00  0.00     0.049 A 
ATOM     61  H   UNL A   1      41.191  29.576  33.233  1.00  0.00     0.167 HD
ATOM     62  C   UNL A   1      38.966  31.354  33.615  1.00  0.00     0.074 A 
ATOM     63  C   UNL A   1      37.735  32.122  33.385  1.00  0.00     0.031 C 
ATOM     64  C   UNL A   1      39.651  31.319  34.831  1.00  0.00     0.037 A 
BRANCH  51  65
ATOM     65  C   UNL A   1      44.556  27.792  35.234  1.00  0.00     0.064 A 
ATOM     66  C   UNL A   1      44.322  26.631  35.951  1.00  0.00     0.173 A 
ATOM     67  C   UNL A   1      45.738  28.397  35.270  1.00  0.00     0.173 A 
ATOM     68  F   UNL A   1      43.257  25.859  35.753  1.00  0.00    -0.203 F 
ATOM     69  C   UNL A   1      45.317  26.341  36.913  1.00  0.00     0.198 A 
ATOM     70  C   UNL A   1      46.713  27.974  36.140  1.00  0.00     0.198 A 
ATOM     71  F   UNL A   1      45.979  29.421  34.456  1.00  0.00    -0.203 F 
ATOM     72  F   UNL A   1      45.013  25.475  37.877  1.00  0.00    -0.200 F 
ATOM     73  C   UNL A   1      46.528  26.869  36.922  1.00  0.00     0.200 A 
ATOM     74  F   UNL A   1      47.856  28.651  36.222  1.00  0.00    -0.200 F 
ATOM     75  F   UNL A   1      47.512  26.353  37.652  1.00  0.00    -0.200 F 
ENDBRANCH  51  65
BRANCH  52  76
ATOM     76  C   UNL A   1      37.308  31.077  29.278  1.00  0.00     0.064 A 
ATOM     77  C   UNL A   1      37.302  32.401  28.875  1.00  0.00     0.173 A 
ATOM     78  C   UNL A   1      36.314  30.255  28.961  1.00  0.00     0.173 A 
ATOM     79  F   UNL A   1      38.373  33.187  28.947  1.00  0.00    -0.203 F 
ATOM     80  C   UNL A   1      36.052  32.844  28.381  1.00  0.00     0.198 A 
ATOM     81  C   UNL A   1      35.177  30.734  28.355  1.00  0.00     0.198 A 
ATOM     82  F   UNL A   1      36.420  28.957  29.230  1.00  0.00    -0.203 F 
ATOM     83  F   UNL A   1      35.843  34.156  28.313  1.00  0.00    -0.200 F 
ATOM     84  C   UNL A   1      35.078  32.046  27.983  1.00  0.00     0.200 A 
ATOM     85  F   UNL A   1      34.159  29.910  28.128  1.00  0.00    -0.200 F 
ATOM     86  F   UNL A   1      34.056  32.494  27.260  1.00  0.00    -0.200 F 
ENDBRANCH  52  76
BRANCH  64  87
ATOM     87  C   UNL A   1      39.110  32.154  35.980  1.00  0.00     0.064 A 
ATOM     88  C   UNL A   1      39.513  33.473  36.109  1.00  0.00     0.173 A 
ATOM     89  C   UNL A   1      38.261  31.606  36.841  1.00  0.00     0.173 A 
ATOM     90  F   UNL A   1      40.150  34.135  35.148  1.00  0.00    -0.203 F 
ATOM     91  C   UNL A   1      39.183  34.054  37.357  1.00  0.00     0.198 A 
ATOM     92  C   UNL A   1      37.875  32.284  37.972  1.00  0.00     0.198 A 
ATOM     93  F   UNL A   1      37.778  30.389  36.606  1.00  0.00    -0.203 F 
ATOM     94  F   UNL A   1      39.825  35.162  37.712  1.00  0.00    -0.200 F 
ATOM     95  C   UNL A   1      38.283  33.570  38.193  1.00  0.00     0.200 A 
ATOM     96  F   UNL A   1      37.095  31.680  38.864  1.00  0.00    -0.200 F 
ATOM     97  F   UNL A   1      37.798  34.295  39.198  1.00  0.00    -0.200 F 
ENDBRANCH  64  87
ENDBRANCH  38  39
ENDBRANCH  31  33
ENDBRANCH  30  31
ENDBRANCH  29  30
ENDBRANCH   1  29
TORSDOF 16
ENDMDL
MODEL 3
REMARK VINA RESULT:     -12.6      5.272     10.535
REMARK SMILES CCCCc1cc(S(F)(F)(F)(F)F)cc2c1O[C@@H](C(F)(F)F)C(C(=O)OCCOC(=O)c1ccc(-c3c4nc(c(-c5c(F)c(F)c(F)c(F)c5F)c5ccc([nH]5)c(-c5c(F)c(F)c(F)c(F)c5F)c5nc(c(-c6c(F)c(F)c(F)c(F)c6F)c6ccc3[nH]6)C=C5)C=C4)cc1)=C2
REMARK SMILES IDX 27 1 26 2 24 3 25 4 23 5 5 6 6 7 16 8 7 9 15 10 17 11 14 12
REMARK SMILES IDX 95 13 18 14 4 15 3 16 2 17 1 18 8 19 9 20 10 21 11 22 12 23
REMARK SMILES IDX 13 24 19 25 20 26 21 27 22 28 28 29 29 30 30 31 31 32 32 33
REMARK SMILES IDX 33 34 94 35 34 36 93 37 35 38 36 39 37 40 87 41 38 42 92 43
REMARK SMILES IDX 86 44 88 45 39 46 91 47 85 48 84 49 40 51 72 52 52 53 71 54
REMARK SMILES IDX 53 55 56 56 70 57 89 58 54 59 55 60 69 62 90 63 57 64 41 65
REMARK SMILES IDX 42 66 50 67 43 68 44 69 48 70 51 71 45 72 46 73 49 74 47 75
REMARK SMILES IDX 73 76 74 77 82 78 75 79 76 80 80 81 83 82 77 83 78 84 81 85
REMARK SMILES IDX 79 86 58 87 59 88 67 89 60 90 61 91 65 92 68 93 62 94 63 95
REMARK SMILES IDX 66 96 64 97
REMARK H PARENT 88 50 56 61
REMARK Flexibility Score: inf
ROOT
ATOM      1  C   UNL A   1      34.554  33.426  30.312  1.00  0.00     0.275 C 
ENDROOT
BRANCH   1   2
ATOM      2  O   UNL A   1      34.311  32.193  29.651  1.00  0.00    -0.459 OA
BRANCH   2   3
ATOM      3  C   UNL A   1      34.531  32.083  28.252  1.00  0.00     0.338 C 
ATOM      4  O   UNL A   1      35.124  33.015  27.626  1.00  0.00    -0.246 OA
BRANCH   3   5
ATOM      5  C   UNL A   1      34.056  30.847  27.503  1.00  0.00     0.087 C 
ATOM      6  C   UNL A   1      33.151  27.528  25.134  1.00  0.00    -0.004 A 
ATOM      7  C   UNL A   1      32.006  27.525  24.359  1.00  0.00     0.032 A 
ATOM      8  C   UNL A   1      33.452  28.654  25.863  1.00  0.00     0.131 A 
ATOM      9  C   UNL A   1      31.186  28.621  24.310  1.00  0.00     0.108 A 
ATOM     10  C   UNL A   1      32.638  29.771  25.852  1.00  0.00     0.019 A 
ATOM     11  O   UNL A   1      34.648  28.683  26.537  1.00  0.00    -0.475 OA
ATOM     12  C   UNL A   1      31.497  29.737  25.058  1.00  0.00     0.036 A 
ATOM     13  C   UNL A   1      33.063  30.926  26.625  1.00  0.00     0.027 C 
ATOM     14  C   UNL A   1      34.709  29.493  27.745  1.00  0.00     0.316 C 
BRANCH   6  15
ATOM     15  C   UNL A   1      34.059  26.310  25.180  1.00  0.00     0.039 C 
BRANCH  15  16
ATOM     16  C   UNL A   1      33.641  25.326  24.098  1.00  0.00     0.005 C 
BRANCH  16  17
ATOM     17  C   UNL A   1      34.176  23.944  24.436  1.00  0.00    -0.003 C 
ATOM     18  C   UNL A   1      34.976  24.010  25.727  1.00  0.00     0.004 C 
ENDBRANCH  16  17
ENDBRANCH  15  16
ENDBRANCH   6  15
BRANCH   9  19
ATOM     19  S   UNL A   1      29.704  28.606  23.270  1.00  0.00     0.310 S 
ATOM     20  F   UNL A   1      30.376  27.624  22.222  1.00  0.00    -0.094 F 
ATOM     21  F   UNL A   1      30.301  29.799  22.433  1.00  0.00    -0.094 F 
ATOM     22  F   UNL A   1      28.428  28.583  22.382  1.00  0.00    -0.094 F 
ATOM     23  F   UNL A   1      29.186  27.322  24.030  1.00  0.00    -0.094 F 
ATOM     24  F   UNL A   1      31.043  28.544  24.108  1.00  0.00    -0.094 F 
ENDBRANCH   9  19
BRANCH  14  25
ATOM     25  C   UNL A   1      36.164  29.705  28.128  1.00  0.00     0.430 C 
ATOM     26  F   UNL A   1      36.860  28.604  27.853  1.00  0.00    -0.167 F 
ATOM     27  F   UNL A   1      36.660  30.726  27.436  1.00  0.00    -0.167 F 
ATOM     28  F   UNL A   1      36.246  29.968  29.428  1.00  0.00    -0.167 F 
ENDBRANCH  14  25
ENDBRANCH   3   5
ENDBRANCH   2   3
ENDBRANCH   1   2
BRANCH   1  29
ATOM     29  C   UNL A   1      34.517  33.211  31.816  1.00  0.00     0.275 C 
BRANCH  29  30
ATOM     30  O   UNL A   1      35.740  33.654  32.389  1.00  0.00    -0.458 OA
BRANCH  30  31
ATOM     31  C   UNL A   1      36.631  32.715  32.970  1.00  0.00     0.338 C 
ATOM     32  O   UNL A   1      36.457  32.330  34.169  1.00  0.00    -0.246 OA
BRANCH  31  33
ATOM     33  C   UNL A   1      37.796  32.170  32.159  1.00  0.00     0.060 A 
ATOM     34  C   UNL A   1      37.903  32.500  30.818  1.00  0.00     0.016 A 
ATOM     35  C   UNL A   1      38.694  31.389  32.749  1.00  0.00     0.016 A 
ATOM     36  C   UNL A   1      38.842  31.715  30.107  1.00  0.00     0.010 A 
ATOM     37  C   UNL A   1      39.667  30.760  32.011  1.00  0.00     0.010 A 
ATOM     38  C   UNL A   1      39.794  30.994  30.669  1.00  0.00    -0.014 A 
BRANCH  38  39
ATOM     39  C   UNL A   1      40.967  30.452  29.870  1.00  0.00     0.031 A 
ATOM     40  C   UNL A   1      40.898  29.135  29.413  1.00  0.00     0.074 A 
ATOM     41  C   UNL A   1      42.040  31.297  29.640  1.00  0.00     0.049 A 
ATOM     42  N   UNL A   1      41.797  28.483  28.674  1.00  0.00    -0.248 NA
ATOM     43  C   UNL A   1      39.775  28.226  29.684  1.00  0.00     0.031 C 
ATOM     44  C   UNL A   1      42.113  32.629  30.090  1.00  0.00     0.029 A 
ATOM     45  N   UNL A   1      43.203  31.018  28.956  1.00  0.00    -0.354 N 
ATOM     46  C   UNL A   1      41.371  27.243  28.419  1.00  0.00     0.074 A 
ATOM     47  C   UNL A   1      40.067  27.059  29.070  1.00  0.00     0.031 C 
ATOM     48  C   UNL A   1      43.307  33.144  29.693  1.00  0.00     0.029 A 
ATOM     49  C   UNL A   1      44.000  32.141  28.989  1.00  0.00     0.049 A 
ATOM     50  H   UNL A   1      43.426  30.164  28.520  1.00  0.00     0.167 HD
ATOM     51  C   UNL A   1      42.017  26.261  27.667  1.00  0.00     0.037 A 
ATOM     52  C   UNL A   1      45.264  32.300  28.442  1.00  0.00     0.037 A 
ATOM     53  C   UNL A   1      43.262  26.436  27.083  1.00  0.00     0.049 A 
ATOM     54  C   UNL A   1      45.937  31.298  27.739  1.00  0.00     0.074 A 
ATOM     55  C   UNL A   1      43.925  25.459  26.316  1.00  0.00     0.029 A 
ATOM     56  N   UNL A   1      44.071  27.550  27.137  1.00  0.00    -0.354 N 
ATOM     57  N   UNL A   1      45.494  30.073  27.451  1.00  0.00    -0.248 NA
ATOM     58  C   UNL A   1      47.289  31.445  27.184  1.00  0.00     0.031 C 
ATOM     59  C   UNL A   1      45.120  25.973  25.921  1.00  0.00     0.029 A 
ATOM     60  C   UNL A   1      45.224  27.279  26.435  1.00  0.00     0.049 A 
ATOM     61  H   UNL A   1      43.860  28.394  27.598  1.00  0.00     0.167 HD
ATOM     62  C   UNL A   1      46.411  29.407  26.747  1.00  0.00     0.074 A 
ATOM     63  C   UNL A   1      47.582  30.277  26.572  1.00  0.00     0.031 C 
ATOM     64  C   UNL A   1      46.317  28.110  26.241  1.00  0.00     0.037 A 
BRANCH  51  65
ATOM     65  C   UNL A   1      41.317  24.926  27.478  1.00  0.00     0.064 A 
ATOM     66  C   UNL A   1      40.341  24.853  26.498  1.00  0.00     0.173 A 
ATOM     67  C   UNL A   1      41.698  23.847  28.152  1.00  0.00     0.173 A 
ATOM     68  F   UNL A   1      40.107  25.835  25.633  1.00  0.00    -0.203 F 
ATOM     69  C   UNL A   1      39.614  23.639  26.502  1.00  0.00     0.198 A 
ATOM     70  C   UNL A   1      41.027  22.658  28.004  1.00  0.00     0.198 A 
ATOM     71  F   UNL A   1      42.740  23.919  28.976  1.00  0.00    -0.203 F 
ATOM     72  F   UNL A   1      38.448  23.613  25.861  1.00  0.00    -0.200 F 
ATOM     73  C   UNL A   1      40.012  22.529  27.097  1.00  0.00     0.200 A 
ATOM     74  F   UNL A   1      41.370  21.615  28.756  1.00  0.00    -0.200 F 
ATOM     75  F   UNL A   1      39.457  21.352  26.828  1.00  0.00    -0.200 F 
ENDBRANCH  51  65
BRANCH  52  76
ATOM     76  C   UNL A   1      45.957  33.642  28.618  1.00  0.00     0.064 A 
ATOM     77  C   UNL A   1      45.785  34.633  27.666  1.00  0.00     0.173 A 
ATOM     78  C   UNL A   1      46.803  33.797  29.630  1.00  0.00     0.173 A 
ATOM     79  F   UNL A   1      44.782  34.632  26.792  1.00  0.00    -0.203 F 
ATOM     80  C   UNL A   1      46.771  35.645  27.707  1.00  0.00     0.198 A 
ATOM     81  C   UNL A   1      47.645  34.883  29.676  1.00  0.00     0.198 A 
ATOM     82  F   UNL A   1      46.836  32.896  30.607  1.00  0.00    -0.203 F 
ATOM     83  F   UNL A   1      46.905  36.423  26.637  1.00  0.00    -0.200 F 
ATOM     84  C   UNL A   1      47.570  35.872  28.735  1.00  0.00     0.200 A 
ATOM     85  F   UNL A   1      48.546  34.972  30.651  1.00  0.00    -0.200 F 
ATOM     86  F   UNL A   1      48.265  37.000  28.847  1.00  0.00    -0.200 F 
ENDBRANCH  52  76
BRANCH  64  87
ATOM     87  C   UNL A   1      47.485  27.574  25.429  1.00  0.00     0.064 A 
ATOM     88  C   UNL A   1      48.527  26.933  26.079  1.00  0.00     0.173 A 
ATOM     89  C   UNL A   1      47.488  27.728  24.110  1.00  0.00     0.173 A 
ATOM     90  F   UNL A   1      48.454  26.533  27.346  1.00  0.00    -0.203 F 
ATOM     91  C   UNL A   1      49.675  26.741  25.273  1.00  0.00     0.198 A 
ATOM     92  C   UNL A   1      48.595  27.393  23.368  1.00  0.00     0.198 A 
ATOM     93  F   UNL A   1      46.408  28.211  23.501  1.00  0.00    -0.203 F 
ATOM     94  F   UNL A   1      50.823  26.474  25.887  1.00  0.00    -0.200 F 
ATOM     95  C   UNL A   1      49.684  26.810  23.955  1.00  0.00     0.200 A 
ATOM     96  F   UNL A   1      48.607  27.640  22.062  1.00  0.00    -0.200 F 
ATOM     97  F   UNL A   1      50.698  26.338  23.235  1.00  0.00    -0.200 F 
ENDBRANCH  64  87
ENDBRANCH  38  39
ENDBRANCH  31  33
ENDBRANCH  30  31
ENDBRANCH  29  30
ENDBRANCH   1  29
TORSDOF 16
ENDMDL
