MODEL 1
REMARK VINA RESULT:     -12.0      0.000      0.000
REMARK SMILES COc1ccc2c(c1)C=C(C(=O)OCCOC(=O)c1ccc(-c3c4nc(c(-c5c(F)c(F)c(F)c(F)c5F)c5ccc([nH]5)c(-c5c(F)c(F)c(F)c(F)c5F)c5nc(c(-c6c(F)c(F)c(F)c(F)c6F)c6ccc3[nH]6)C=C5)C=C4)cc1)[C@H](C(F)(F)F)O2
REMARK SMILES IDX 15 1 14 2 13 3 11 4 12 5 10 6 3 7 4 8 8 9 5 10 7 11 6 12
REMARK SMILES IDX 9 13 87 14 82 15 2 16 1 17 83 18 84 19 85 20 86 21 16 22
REMARK SMILES IDX 17 23 18 24 19 25 20 26 81 27 21 28 80 29 22 30 23 31 24 32
REMARK SMILES IDX 74 33 25 34 79 35 73 36 75 37 26 38 78 39 72 40 71 41 27 43
REMARK SMILES IDX 59 44 39 45 58 46 40 47 43 48 57 49 76 50 41 51 42 52 56 54
REMARK SMILES IDX 77 55 44 56 28 57 29 58 37 59 30 60 31 61 35 62 38 63 32 64
REMARK SMILES IDX 33 65 36 66 34 67 60 68 61 69 69 70 62 71 63 72 67 73 70 74
REMARK SMILES IDX 64 75 65 76 68 77 66 78 45 79 46 80 54 81 47 82 48 83 52 84
REMARK SMILES IDX 55 85 49 86 50 87 53 88 51 89
REMARK H PARENT 75 42 43 53
REMARK Flexibility Score: inf
ROOT
ATOM      1  C   UNL A   1      31.808  30.160  25.680  1.00  0.00     0.275 C 
ENDROOT
BRANCH   1   2
ATOM      2  C   UNL A   1      31.644  29.142  24.547  1.00  0.00     0.275 C 
BRANCH   2   3
ATOM      3  O   UNL A   1      32.690  28.147  24.556  1.00  0.00    -0.459 OA
BRANCH   3   4
ATOM      4  C   UNL A   1      32.296  26.869  24.802  1.00  0.00     0.338 C 
ATOM      5  O   UNL A   1      31.218  26.545  25.257  1.00  0.00    -0.246 OA
BRANCH   4   6
ATOM      6  C   UNL A   1      33.332  25.884  24.403  1.00  0.00     0.087 C 
ATOM      7  C   UNL A   1      37.097  22.983  25.292  1.00  0.00     0.119 A 
ATOM      8  C   UNL A   1      37.058  22.541  23.969  1.00  0.00     0.050 A 
ATOM      9  C   UNL A   1      36.131  23.890  25.750  1.00  0.00     0.058 A 
ATOM     10  C   UNL A   1      36.051  22.992  23.114  1.00  0.00     0.051 A 
ATOM     11  C   UNL A   1      35.139  24.371  24.889  1.00  0.00     0.021 A 
ATOM     12  C   UNL A   1      35.101  23.900  23.576  1.00  0.00     0.128 A 
ATOM     13  C   UNL A   1      34.119  25.316  25.335  1.00  0.00     0.027 C 
ATOM     14  O   UNL A   1      34.101  24.238  22.710  1.00  0.00    -0.475 OA
ATOM     15  C   UNL A   1      33.501  25.546  22.930  1.00  0.00     0.316 C 
BRANCH   7  16
ATOM     16  O   UNL A   1      37.988  22.559  26.239  1.00  0.00    -0.497 OA
ATOM     17  C   UNL A   1      38.934  21.577  25.825  1.00  0.00     0.278 C 
ENDBRANCH   7  16
BRANCH  15  18
ATOM     18  C   UNL A   1      32.279  25.641  21.995  1.00  0.00     0.430 C 
ATOM     19  F   UNL A   1      31.892  26.920  21.784  1.00  0.00    -0.167 F 
ATOM     20  F   UNL A   1      32.595  25.159  20.762  1.00  0.00    -0.167 F 
ATOM     21  F   UNL A   1      31.223  24.927  22.435  1.00  0.00    -0.167 F 
ENDBRANCH  15  18
ENDBRANCH   4   6
ENDBRANCH   3   4
ENDBRANCH   2   3
ENDBRANCH   1   2
BRANCH   1  22
ATOM     22  O   UNL A   1      33.167  30.210  26.151  1.00  0.00    -0.458 OA
BRANCH  22  23
ATOM     23  C   UNL A   1      33.449  31.258  26.962  1.00  0.00     0.338 C 
ATOM     24  O   UNL A   1      32.723  32.205  27.217  1.00  0.00    -0.246 OA
BRANCH  23  25
ATOM     25  C   UNL A   1      34.713  31.013  27.682  1.00  0.00     0.060 A 
ATOM     26  C   UNL A   1      34.908  29.722  28.180  1.00  0.00     0.016 A 
ATOM     27  C   UNL A   1      35.678  31.999  27.895  1.00  0.00     0.016 A 
ATOM     28  C   UNL A   1      36.093  29.385  28.829  1.00  0.00     0.010 A 
ATOM     29  C   UNL A   1      36.848  31.677  28.596  1.00  0.00     0.010 A 
ATOM     30  C   UNL A   1      37.065  30.366  29.057  1.00  0.00    -0.014 A 
BRANCH  30  31
ATOM     31  C   UNL A   1      38.242  30.028  29.891  1.00  0.00     0.031 A 
ATOM     32  C   UNL A   1      39.270  29.081  29.347  1.00  0.00     0.074 A 
ATOM     33  C   UNL A   1      38.425  30.601  31.093  1.00  0.00     0.049 A 
ATOM     34  N   UNL A   1      40.372  28.639  29.898  1.00  0.00    -0.248 NA
ATOM     35  C   UNL A   1      39.030  28.573  27.987  1.00  0.00     0.031 C 
ATOM     36  C   UNL A   1      37.544  31.599  31.696  1.00  0.00     0.029 A 
ATOM     37  N   UNL A   1      39.421  30.422  32.023  1.00  0.00    -0.354 N 
ATOM     38  C   UNL A   1      40.960  27.812  28.953  1.00  0.00     0.074 A 
ATOM     39  C   UNL A   1      40.085  27.795  27.800  1.00  0.00     0.031 C 
ATOM     40  C   UNL A   1      38.029  31.932  32.906  1.00  0.00     0.029 A 
ATOM     41  C   UNL A   1      39.234  31.147  33.174  1.00  0.00     0.049 A 
ATOM     42  H   UNL A   1      40.194  29.832  31.878  1.00  0.00     0.167 HD
ATOM     43  C   UNL A   1      42.126  27.127  29.040  1.00  0.00     0.037 A 
ATOM     44  C   UNL A   1      39.942  31.151  34.321  1.00  0.00     0.037 A 
ATOM     45  C   UNL A   1      42.979  27.118  30.198  1.00  0.00     0.049 A 
ATOM     46  C   UNL A   1      41.171  30.283  34.437  1.00  0.00     0.074 A 
ATOM     47  C   UNL A   1      44.169  26.436  30.388  1.00  0.00     0.029 A 
ATOM     48  N   UNL A   1      42.724  27.811  31.374  1.00  0.00    -0.354 N 
ATOM     49  N   UNL A   1      41.730  29.508  33.538  1.00  0.00    -0.248 NA
ATOM     50  C   UNL A   1      41.870  30.290  35.731  1.00  0.00     0.031 C 
ATOM     51  C   UNL A   1      44.602  26.669  31.698  1.00  0.00     0.029 A 
ATOM     52  C   UNL A   1      43.718  27.549  32.303  1.00  0.00     0.049 A 
ATOM     53  H   UNL A   1      41.951  28.402  31.524  1.00  0.00     0.167 HD
ATOM     54  C   UNL A   1      42.860  28.970  34.143  1.00  0.00     0.074 A 
ATOM     55  C   UNL A   1      42.914  29.512  35.484  1.00  0.00     0.031 C 
ATOM     56  C   UNL A   1      43.771  28.106  33.631  1.00  0.00     0.037 A 
BRANCH  43  57
ATOM     57  C   UNL A   1      42.517  26.289  27.860  1.00  0.00     0.064 A 
ATOM     58  C   UNL A   1      42.026  24.987  27.684  1.00  0.00     0.173 A 
ATOM     59  C   UNL A   1      43.385  26.802  26.884  1.00  0.00     0.173 A 
ATOM     60  F   UNL A   1      41.207  24.444  28.597  1.00  0.00    -0.203 F 
ATOM     61  C   UNL A   1      42.411  24.220  26.587  1.00  0.00     0.198 A 
ATOM     62  C   UNL A   1      43.744  26.044  25.774  1.00  0.00     0.198 A 
ATOM     63  F   UNL A   1      43.883  28.042  27.005  1.00  0.00    -0.203 F 
ATOM     64  F   UNL A   1      41.969  22.960  26.463  1.00  0.00    -0.200 F 
ATOM     65  C   UNL A   1      43.264  24.750  25.630  1.00  0.00     0.200 A 
ATOM     66  F   UNL A   1      44.560  26.562  24.845  1.00  0.00    -0.200 F 
ATOM     67  F   UNL A   1      43.631  24.012  24.574  1.00  0.00    -0.200 F 
ENDBRANCH  43  57
BRANCH  44  68
ATOM     68  C   UNL A   1      39.498  31.981  35.473  1.00  0.00     0.064 A 
ATOM     69  C   UNL A   1      38.559  31.501  36.397  1.00  0.00     0.173 A 
ATOM     70  C   UNL A   1      39.965  33.294  35.643  1.00  0.00     0.173 A 
ATOM     71  F   UNL A   1      38.055  30.266  36.259  1.00  0.00    -0.203 F 
ATOM     72  C   UNL A   1      38.085  32.309  37.430  1.00  0.00     0.198 A 
ATOM     73  C   UNL A   1      39.515  34.089  36.695  1.00  0.00     0.198 A 
ATOM     74  F   UNL A   1      40.854  33.808  34.782  1.00  0.00    -0.203 F 
ATOM     75  F   UNL A   1      37.140  31.847  38.260  1.00  0.00    -0.200 F 
ATOM     76  C   UNL A   1      38.567  33.601  37.580  1.00  0.00     0.200 A 
ATOM     77  F   UNL A   1      39.986  35.335  36.838  1.00  0.00    -0.200 F 
ATOM     78  F   UNL A   1      38.105  34.380  38.568  1.00  0.00    -0.200 F 
ENDBRANCH  44  68
BRANCH  56  79
ATOM     79  C   UNL A   1      44.940  27.729  34.499  1.00  0.00     0.064 A 
ATOM     80  C   UNL A   1      46.118  28.489  34.530  1.00  0.00     0.173 A 
ATOM     81  C   UNL A   1      44.857  26.616  35.353  1.00  0.00     0.173 A 
ATOM     82  F   UNL A   1      46.255  29.554  33.726  1.00  0.00    -0.203 F 
ATOM     83  C   UNL A   1      47.179  28.135  35.362  1.00  0.00     0.198 A 
ATOM     84  C   UNL A   1      45.905  26.286  36.207  1.00  0.00     0.198 A 
ATOM     85  F   UNL A   1      43.750  25.860  35.371  1.00  0.00    -0.203 F 
ATOM     86  F   UNL A   1      48.312  28.849  35.338  1.00  0.00    -0.200 F 
ATOM     87  C   UNL A   1      47.068  27.040  36.205  1.00  0.00     0.200 A 
ATOM     88  F   UNL A   1      45.788  25.238  37.034  1.00  0.00    -0.200 F 
ATOM     89  F   UNL A   1      48.084  26.709  37.014  1.00  0.00    -0.200 F 
ENDBRANCH  56  79
ENDBRANCH  30  31
ENDBRANCH  23  25
ENDBRANCH  22  23
ENDBRANCH   1  22
TORSDOF 13
ENDMDL
MODEL 2
REMARK VINA RESULT:     -12.0      0.266      1.632
REMARK SMILES COc1ccc2c(c1)C=C(C(=O)OCCOC(=O)c1ccc(-c3c4nc(c(-c5c(F)c(F)c(F)c(F)c5F)c5ccc([nH]5)c(-c5c(F)c(F)c(F)c(F)c5F)c5nc(c(-c6c(F)c(F)c(F)c(F)c6F)c6ccc3[nH]6)C=C5)C=C4)cc1)[C@H](C(F)(F)F)O2
REMARK SMILES IDX 15 1 14 2 13 3 11 4 12 5 10 6 3 7 4 8 8 9 5 10 7 11 6 12
REMARK SMILES IDX 9 13 87 14 82 15 2 16 1 17 83 18 84 19 85 20 86 21 16 22
REMARK SMILES IDX 17 23 18 24 19 25 20 26 81 27 21 28 80 29 22 30 23 31 24 32
REMARK SMILES IDX 74 33 25 34 79 35 73 36 75 37 26 38 78 39 72 40 71 41 27 43
REMARK SMILES IDX 59 44 39 45 58 46 40 47 43 48 57 49 76 50 41 51 42 52 56 54
REMARK SMILES IDX 77 55 44 56 28 57 29 58 37 59 30 60 31 61 35 62 38 63 32 64
REMARK SMILES IDX 33 65 36 66 34 67 60 68 61 69 69 70 62 71 63 72 67 73 70 74
REMARK SMILES IDX 64 75 65 76 68 77 66 78 45 79 46 80 54 81 47 82 48 83 52 84
REMARK SMILES IDX 55 85 49 86 50 87 53 88 51 89
REMARK H PARENT 75 42 43 53
REMARK Flexibility Score: inf
ROOT
ATOM      1  C   UNL A   1      31.640  30.328  25.822  1.00  0.00     0.275 C 
ENDROOT
BRANCH   1   2
ATOM      2  C   UNL A   1      31.430  29.309  24.698  1.00  0.00     0.275 C 
BRANCH   2   3
ATOM      3  O   UNL A   1      32.489  28.329  24.652  1.00  0.00    -0.459 OA
BRANCH   3   4
ATOM      4  C   UNL A   1      32.136  27.055  24.969  1.00  0.00     0.338 C 
ATOM      5  O   UNL A   1      31.113  26.733  25.538  1.00  0.00    -0.246 OA
BRANCH   4   6
ATOM      6  C   UNL A   1      33.137  26.068  24.493  1.00  0.00     0.087 C 
ATOM      7  C   UNL A   1      36.932  23.134  25.105  1.00  0.00     0.119 A 
ATOM      8  C   UNL A   1      36.806  22.708  23.782  1.00  0.00     0.050 A 
ATOM      9  C   UNL A   1      36.004  24.041  25.634  1.00  0.00     0.058 A 
ATOM     10  C   UNL A   1      35.749  23.175  22.998  1.00  0.00     0.051 A 
ATOM     11  C   UNL A   1      34.962  24.538  24.844  1.00  0.00     0.021 A 
ATOM     12  C   UNL A   1      34.837  24.084  23.531  1.00  0.00     0.128 A 
ATOM     13  C   UNL A   1      33.978  25.484  25.366  1.00  0.00     0.027 C 
ATOM     14  O   UNL A   1      33.785  24.438  22.735  1.00  0.00    -0.475 OA
ATOM     15  C   UNL A   1      33.210  25.747  23.008  1.00  0.00     0.316 C 
BRANCH   7  16
ATOM     16  O   UNL A   1      37.880  22.693  25.987  1.00  0.00    -0.497 OA
ATOM     17  C   UNL A   1      38.611  21.533  25.606  1.00  0.00     0.278 C 
ENDBRANCH   7  16
BRANCH  15  18
ATOM     18  C   UNL A   1      31.931  25.860  22.155  1.00  0.00     0.430 C 
ATOM     19  F   UNL A   1      31.544  27.144  21.977  1.00  0.00    -0.167 F 
ATOM     20  F   UNL A   1      32.162  25.384  20.900  1.00  0.00    -0.167 F 
ATOM     21  F   UNL A   1      30.898  25.152  22.656  1.00  0.00    -0.167 F 
ENDBRANCH  15  18
ENDBRANCH   4   6
ENDBRANCH   3   4
ENDBRANCH   2   3
ENDBRANCH   1   2
BRANCH   1  22
ATOM     22  O   UNL A   1      33.030  30.442  26.180  1.00  0.00    -0.458 OA
BRANCH  22  23
ATOM     23  C   UNL A   1      33.324  31.485  26.992  1.00  0.00     0.338 C 
ATOM     24  O   UNL A   1      32.612  32.444  27.243  1.00  0.00    -0.246 OA
BRANCH  23  25
ATOM     25  C   UNL A   1      34.581  31.220  27.718  1.00  0.00     0.060 A 
ATOM     26  C   UNL A   1      34.766  29.918  28.191  1.00  0.00     0.016 A 
ATOM     27  C   UNL A   1      35.547  32.198  27.961  1.00  0.00     0.016 A 
ATOM     28  C   UNL A   1      35.944  29.562  28.843  1.00  0.00     0.010 A 
ATOM     29  C   UNL A   1      36.710  31.856  28.667  1.00  0.00     0.010 A 
ATOM     30  C   UNL A   1      36.917  30.535  29.101  1.00  0.00    -0.014 A 
BRANCH  30  31
ATOM     31  C   UNL A   1      38.085  30.175  29.939  1.00  0.00     0.031 A 
ATOM     32  C   UNL A   1      39.110  29.227  29.389  1.00  0.00     0.074 A 
ATOM     33  C   UNL A   1      38.263  30.729  31.151  1.00  0.00     0.049 A 
ATOM     34  N   UNL A   1      40.203  28.768  29.942  1.00  0.00    -0.248 NA
ATOM     35  C   UNL A   1      38.875  28.741  28.020  1.00  0.00     0.031 C 
ATOM     36  C   UNL A   1      37.387  31.725  31.762  1.00  0.00     0.029 A 
ATOM     37  N   UNL A   1      39.251  30.528  32.085  1.00  0.00    -0.354 N 
ATOM     38  C   UNL A   1      40.792  27.949  28.989  1.00  0.00     0.074 A 
ATOM     39  C   UNL A   1      39.925  27.957  27.829  1.00  0.00     0.031 C 
ATOM     40  C   UNL A   1      37.865  32.036  32.980  1.00  0.00     0.029 A 
ATOM     41  C   UNL A   1      39.061  31.237  33.245  1.00  0.00     0.049 A 
ATOM     42  H   UNL A   1      40.020  29.933  31.937  1.00  0.00     0.167 HD
ATOM     43  C   UNL A   1      41.951  27.254  29.074  1.00  0.00     0.037 A 
ATOM     44  C   UNL A   1      39.762  31.218  34.397  1.00  0.00     0.037 A 
ATOM     45  C   UNL A   1      42.796  27.220  30.238  1.00  0.00     0.049 A 
ATOM     46  C   UNL A   1      40.982  30.338  34.510  1.00  0.00     0.074 A 
ATOM     47  C   UNL A   1      43.978  26.526  30.427  1.00  0.00     0.029 A 
ATOM     48  N   UNL A   1      42.537  27.898  31.422  1.00  0.00    -0.354 N 
ATOM     49  N   UNL A   1      41.541  29.572  33.603  1.00  0.00    -0.248 NA
ATOM     50  C   UNL A   1      41.671  30.321  35.809  1.00  0.00     0.031 C 
ATOM     51  C   UNL A   1      44.403  26.736  31.743  1.00  0.00     0.029 A 
ATOM     52  C   UNL A   1      43.522  27.614  32.354  1.00  0.00     0.049 A 
ATOM     53  H   UNL A   1      41.768  28.493  31.574  1.00  0.00     0.167 HD
ATOM     54  C   UNL A   1      42.662  29.015  34.209  1.00  0.00     0.074 A 
ATOM     55  C   UNL A   1      42.710  29.537  35.558  1.00  0.00     0.031 C 
ATOM     56  C   UNL A   1      43.570  28.151  33.691  1.00  0.00     0.037 A 
BRANCH  43  57
ATOM     57  C   UNL A   1      42.344  26.430  27.884  1.00  0.00     0.064 A 
ATOM     58  C   UNL A   1      43.263  26.898  26.933  1.00  0.00     0.173 A 
ATOM     59  C   UNL A   1      41.804  25.148  27.702  1.00  0.00     0.173 A 
ATOM     60  F   UNL A   1      43.795  28.124  27.052  1.00  0.00    -0.203 F 
ATOM     61  C   UNL A   1      43.606  26.121  25.828  1.00  0.00     0.198 A 
ATOM     62  C   UNL A   1      42.172  24.363  26.614  1.00  0.00     0.198 A 
ATOM     63  F   UNL A   1      40.921  24.654  28.584  1.00  0.00    -0.203 F 
ATOM     64  F   UNL A   1      44.448  26.607  24.905  1.00  0.00    -0.200 F 
ATOM     65  C   UNL A   1      43.065  24.853  25.673  1.00  0.00     0.200 A 
ATOM     66  F   UNL A   1      41.656  23.135  26.471  1.00  0.00    -0.200 F 
ATOM     67  F   UNL A   1      43.398  24.107  24.611  1.00  0.00    -0.200 F 
ENDBRANCH  43  57
BRANCH  44  68
ATOM     68  C   UNL A   1      39.315  32.035  35.559  1.00  0.00     0.064 A 
ATOM     69  C   UNL A   1      39.791  33.338  35.758  1.00  0.00     0.173 A 
ATOM     70  C   UNL A   1      38.442  31.506  36.523  1.00  0.00     0.173 A 
ATOM     71  F   UNL A   1      40.655  33.876  34.885  1.00  0.00    -0.203 F 
ATOM     72  C   UNL A   1      39.433  34.071  36.889  1.00  0.00     0.198 A 
ATOM     73  C   UNL A   1      38.060  32.252  37.636  1.00  0.00     0.198 A 
ATOM     74  F   UNL A   1      37.967  30.260  36.388  1.00  0.00    -0.203 F 
ATOM     75  F   UNL A   1      39.954  35.290  37.087  1.00  0.00    -0.200 F 
ATOM     76  C   UNL A   1      38.564  33.529  37.824  1.00  0.00     0.200 A 
ATOM     77  F   UNL A   1      37.217  31.726  38.534  1.00  0.00    -0.200 F 
ATOM     78  F   UNL A   1      38.227  34.231  38.914  1.00  0.00    -0.200 F 
ENDBRANCH  44  68
BRANCH  56  79
ATOM     79  C   UNL A   1      44.728  27.752  34.562  1.00  0.00     0.064 A 
ATOM     80  C   UNL A   1      45.912  28.502  34.613  1.00  0.00     0.173 A 
ATOM     81  C   UNL A   1      44.630  26.627  35.397  1.00  0.00     0.173 A 
ATOM     82  F   UNL A   1      46.064  29.579  33.828  1.00  0.00    -0.203 F 
ATOM     83  C   UNL A   1      46.964  28.127  35.448  1.00  0.00     0.198 A 
ATOM     84  C   UNL A   1      45.669  26.275  36.254  1.00  0.00     0.198 A 
ATOM     85  F   UNL A   1      43.517  25.879  35.395  1.00  0.00    -0.203 F 
ATOM     86  F   UNL A   1      48.103  28.832  35.444  1.00  0.00    -0.200 F 
ATOM     87  C   UNL A   1      46.838  27.020  36.273  1.00  0.00     0.200 A 
ATOM     88  F   UNL A   1      45.538  25.215  37.064  1.00  0.00    -0.200 F 
ATOM     89  F   UNL A   1      47.846  26.668  37.084  1.00  0.00    -0.200 F 
ENDBRANCH  56  79
ENDBRANCH  30  31
ENDBRANCH  23  25
ENDBRANCH  22  23
ENDBRANCH   1  22
TORSDOF 13
ENDMDL
MODEL 3
REMARK VINA RESULT:     -11.8      4.113      9.618
REMARK SMILES COc1ccc2c(c1)C=C(C(=O)OCCOC(=O)c1ccc(-c3c4nc(c(-c5c(F)c(F)c(F)c(F)c5F)c5ccc([nH]5)c(-c5c(F)c(F)c(F)c(F)c5F)c5nc(c(-c6c(F)c(F)c(F)c(F)c6F)c6ccc3[nH]6)C=C5)C=C4)cc1)[C@H](C(F)(F)F)O2
REMARK SMILES IDX 15 1 14 2 13 3 11 4 12 5 10 6 3 7 4 8 8 9 5 10 7 11 6 12
REMARK SMILES IDX 9 13 87 14 82 15 2 16 1 17 83 18 84 19 85 20 86 21 16 22
REMARK SMILES IDX 17 23 18 24 19 25 20 26 81 27 21 28 80 29 22 30 23 31 24 32
REMARK SMILES IDX 74 33 25 34 79 35 73 36 75 37 26 38 78 39 72 40 71 41 27 43
REMARK SMILES IDX 59 44 39 45 58 46 40 47 43 48 57 49 76 50 41 51 42 52 56 54
REMARK SMILES IDX 77 55 44 56 28 57 29 58 37 59 30 60 31 61 35 62 38 63 32 64
REMARK SMILES IDX 33 65 36 66 34 67 60 68 61 69 69 70 62 71 63 72 67 73 70 74
REMARK SMILES IDX 64 75 65 76 68 77 66 78 45 79 46 80 54 81 47 82 48 83 52 84
REMARK SMILES IDX 55 85 49 86 50 87 53 88 51 89
REMARK H PARENT 75 42 43 53
REMARK Flexibility Score: inf
ROOT
ATOM      1  C   UNL A   1      36.437  20.973  25.027  1.00  0.00     0.275 C 
ENDROOT
BRANCH   1   2
ATOM      2  C   UNL A   1      34.928  21.105  25.256  1.00  0.00     0.275 C 
BRANCH   2   3
ATOM      3  O   UNL A   1      34.565  22.422  25.721  1.00  0.00    -0.459 OA
BRANCH   3   4
ATOM      4  C   UNL A   1      33.942  23.223  24.816  1.00  0.00     0.338 C 
ATOM      5  O   UNL A   1      33.835  22.987  23.630  1.00  0.00    -0.246 OA
BRANCH   4   6
ATOM      6  C   UNL A   1      33.352  24.425  25.455  1.00  0.00     0.087 C 
ATOM      7  C   UNL A   1      33.406  29.079  26.770  1.00  0.00     0.119 A 
ATOM      8  C   UNL A   1      32.118  28.938  27.290  1.00  0.00     0.050 A 
ATOM      9  C   UNL A   1      34.016  27.995  26.123  1.00  0.00     0.058 A 
ATOM     10  C   UNL A   1      31.440  27.726  27.151  1.00  0.00     0.051 A 
ATOM     11  C   UNL A   1      33.354  26.768  26.010  1.00  0.00     0.021 A 
ATOM     12  C   UNL A   1      32.058  26.652  26.515  1.00  0.00     0.128 A 
ATOM     13  C   UNL A   1      33.963  25.619  25.343  1.00  0.00     0.027 C 
ATOM     14  O   UNL A   1      31.309  25.523  26.346  1.00  0.00    -0.475 OA
ATOM     15  C   UNL A   1      32.064  24.281  26.252  1.00  0.00     0.316 C 
BRANCH   7  16
ATOM     16  O   UNL A   1      34.138  30.234  26.782  1.00  0.00    -0.497 OA
ATOM     17  C   UNL A   1      33.664  31.278  27.626  1.00  0.00     0.278 C 
ENDBRANCH   7  16
BRANCH  15  18
ATOM     18  C   UNL A   1      31.062  23.177  25.862  1.00  0.00     0.430 C 
ATOM     19  F   UNL A   1      31.536  21.937  26.127  1.00  0.00    -0.167 F 
ATOM     20  F   UNL A   1      29.928  23.289  26.608  1.00  0.00    -0.167 F 
ATOM     21  F   UNL A   1      30.687  23.239  24.569  1.00  0.00    -0.167 F 
ENDBRANCH  15  18
ENDBRANCH   4   6
ENDBRANCH   3   4
ENDBRANCH   2   3
ENDBRANCH   1   2
BRANCH   1  22
ATOM     22  O   UNL A   1      37.186  21.762  25.970  1.00  0.00    -0.458 OA
BRANCH  22  23
ATOM     23  C   UNL A   1      38.496  21.434  26.072  1.00  0.00     0.338 C 
ATOM     24  O   UNL A   1      39.022  20.391  25.716  1.00  0.00    -0.246 OA
BRANCH  23  25
ATOM     25  C   UNL A   1      39.278  22.608  26.504  1.00  0.00     0.060 A 
ATOM     26  C   UNL A   1      38.843  23.852  26.041  1.00  0.00     0.016 A 
ATOM     27  C   UNL A   1      40.411  22.518  27.315  1.00  0.00     0.016 A 
ATOM     28  C   UNL A   1      39.489  25.020  26.439  1.00  0.00     0.010 A 
ATOM     29  C   UNL A   1      41.096  23.688  27.671  1.00  0.00     0.010 A 
ATOM     30  C   UNL A   1      40.632  24.944  27.243  1.00  0.00    -0.014 A 
BRANCH  30  31
ATOM     31  C   UNL A   1      41.398  26.183  27.518  1.00  0.00     0.031 A 
ATOM     32  C   UNL A   1      40.743  27.284  28.298  1.00  0.00     0.074 A 
ATOM     33  C   UNL A   1      42.680  26.303  27.130  1.00  0.00     0.049 A 
ATOM     34  N   UNL A   1      41.217  28.452  28.650  1.00  0.00    -0.248 NA
ATOM     35  C   UNL A   1      39.369  27.027  28.757  1.00  0.00     0.031 C 
ATOM     36  C   UNL A   1      43.454  25.274  26.441  1.00  0.00     0.029 A 
ATOM     37  N   UNL A   1      43.556  27.353  27.265  1.00  0.00    -0.354 N 
ATOM     38  C   UNL A   1      40.207  29.064  29.378  1.00  0.00     0.074 A 
ATOM     39  C   UNL A   1      39.086  28.149  29.401  1.00  0.00     0.031 C 
ATOM     40  C   UNL A   1      44.688  25.750  26.196  1.00  0.00     0.029 A 
ATOM     41  C   UNL A   1      44.777  27.127  26.681  1.00  0.00     0.049 A 
ATOM     42  H   UNL A   1      43.329  28.187  27.736  1.00  0.00     0.167 HD
ATOM     43  C   UNL A   1      40.214  30.281  29.974  1.00  0.00     0.037 A 
ATOM     44  C   UNL A   1      45.834  27.951  26.534  1.00  0.00     0.037 A 
ATOM     45  C   UNL A   1      41.315  31.205  29.922  1.00  0.00     0.049 A 
ATOM     46  C   UNL A   1      45.770  29.349  27.100  1.00  0.00     0.074 A 
ATOM     47  C   UNL A   1      41.407  32.470  30.475  1.00  0.00     0.029 A 
ATOM     48  N   UNL A   1      42.514  30.969  29.263  1.00  0.00    -0.354 N 
ATOM     49  N   UNL A   1      44.816  29.920  27.796  1.00  0.00    -0.248 NA
ATOM     50  C   UNL A   1      46.933  30.216  26.860  1.00  0.00     0.031 C 
ATOM     51  C   UNL A   1      42.636  33.023  30.101  1.00  0.00     0.029 A 
ATOM     52  C   UNL A   1      43.339  32.077  29.371  1.00  0.00     0.049 A 
ATOM     53  H   UNL A   1      42.744  30.137  28.790  1.00  0.00     0.167 HD
ATOM     54  C   UNL A   1      45.279  31.195  28.106  1.00  0.00     0.074 A 
ATOM     55  C   UNL A   1      46.601  31.310  27.531  1.00  0.00     0.031 C 
ATOM     56  C   UNL A   1      44.662  32.178  28.807  1.00  0.00     0.037 A 
BRANCH  43  57
ATOM     57  C   UNL A   1      38.965  30.700  30.690  1.00  0.00     0.064 A 
ATOM     58  C   UNL A   1      38.794  30.485  32.066  1.00  0.00     0.173 A 
ATOM     59  C   UNL A   1      37.930  31.340  29.991  1.00  0.00     0.173 A 
ATOM     60  F   UNL A   1      39.747  29.861  32.775  1.00  0.00    -0.203 F 
ATOM     61  C   UNL A   1      37.622  30.871  32.710  1.00  0.00     0.198 A 
ATOM     62  C   UNL A   1      36.772  31.751  30.644  1.00  0.00     0.198 A 
ATOM     63  F   UNL A   1      38.043  31.570  28.674  1.00  0.00    -0.203 F 
ATOM     64  F   UNL A   1      37.459  30.611  34.015  1.00  0.00    -0.200 F 
ATOM     65  C   UNL A   1      36.615  31.509  32.000  1.00  0.00     0.200 A 
ATOM     66  F   UNL A   1      35.804  32.377  29.959  1.00  0.00    -0.200 F 
ATOM     67  F   UNL A   1      35.488  31.882  32.623  1.00  0.00    -0.200 F 
ENDBRANCH  43  57
BRANCH  44  68
ATOM     68  C   UNL A   1      47.041  27.496  25.792  1.00  0.00     0.064 A 
ATOM     69  C   UNL A   1      48.143  26.945  26.461  1.00  0.00     0.173 A 
ATOM     70  C   UNL A   1      47.138  27.654  24.400  1.00  0.00     0.173 A 
ATOM     71  F   UNL A   1      48.115  26.805  27.795  1.00  0.00    -0.203 F 
ATOM     72  C   UNL A   1      49.303  26.593  25.772  1.00  0.00     0.198 A 
ATOM     73  C   UNL A   1      48.286  27.273  23.709  1.00  0.00     0.198 A 
ATOM     74  F   UNL A   1      46.119  28.188  23.712  1.00  0.00    -0.203 F 
ATOM     75  F   UNL A   1      50.365  26.128  26.445  1.00  0.00    -0.200 F 
ATOM     76  C   UNL A   1      49.372  26.753  24.396  1.00  0.00     0.200 A 
ATOM     77  F   UNL A   1      48.346  27.426  22.379  1.00  0.00    -0.200 F 
ATOM     78  F   UNL A   1      50.490  26.423  23.736  1.00  0.00    -0.200 F 
ENDBRANCH  44  68
BRANCH  56  79
ATOM     79  C   UNL A   1      45.426  33.451  29.043  1.00  0.00     0.064 A 
ATOM     80  C   UNL A   1      46.263  33.620  30.156  1.00  0.00     0.173 A 
ATOM     81  C   UNL A   1      45.357  34.500  28.111  1.00  0.00     0.173 A 
ATOM     82  F   UNL A   1      46.356  32.655  31.083  1.00  0.00    -0.203 F 
ATOM     83  C   UNL A   1      46.982  34.799  30.341  1.00  0.00     0.198 A 
ATOM     84  C   UNL A   1      46.103  35.662  28.282  1.00  0.00     0.198 A 
ATOM     85  F   UNL A   1      44.580  34.389  27.024  1.00  0.00    -0.203 F 
ATOM     86  F   UNL A   1      47.738  34.956  31.436  1.00  0.00    -0.200 F 
ATOM     87  C   UNL A   1      46.908  35.815  29.400  1.00  0.00     0.200 A 
ATOM     88  F   UNL A   1      46.044  36.636  27.362  1.00  0.00    -0.200 F 
ATOM     89  F   UNL A   1      47.610  36.944  29.573  1.00  0.00    -0.200 F 
ENDBRANCH  56  79
ENDBRANCH  30  31
ENDBRANCH  23  25
ENDBRANCH  22  23
ENDBRANCH   1  22
TORSDOF 13
ENDMDL
