MODEL 1
REMARK VINA RESULT:     -12.1      0.000      0.000
REMARK SMILES C[C@@H](C(=O)OCCOC(=O)c1ccc(-c2c3nc(c(-c4c(F)c(F)c(F)c(F)c4F)c4ccc([nH]4)c(-c4c(F)c(F)c(F)c(F)c4F)c4nc(c(-c5c(F)c(F)c(F)c(F)c5F)c5ccc2[nH]5)C=C4)C=C3)cc1)c1ccc(Cc2ccsc2)cc1F
REMARK SMILES IDX 6 1 5 2 3 3 4 4 2 5 1 6 74 7 75 8 85 9 76 10 84 11 86 12
REMARK SMILES IDX 77 13 78 14 79 15 80 16 83 17 81 18 82 19 7 20 8 21 9 22
REMARK SMILES IDX 10 23 11 24 12 25 73 26 13 27 72 28 14 29 15 30 16 31 66 32
REMARK SMILES IDX 17 33 71 34 65 35 67 36 18 37 70 38 64 39 63 40 19 42 51 43
REMARK SMILES IDX 31 44 50 45 32 46 35 47 49 48 68 49 33 50 34 51 48 53 69 54
REMARK SMILES IDX 36 55 20 56 21 57 29 58 22 59 23 60 27 61 30 62 24 63 25 64
REMARK SMILES IDX 28 65 26 66 52 67 53 68 61 69 54 70 55 71 59 72 62 73 56 74
REMARK SMILES IDX 57 75 60 76 58 77 37 78 38 79 46 80 39 81 40 82 44 83 47 84
REMARK SMILES IDX 41 85 42 86 45 87 43 88
REMARK H PARENT 67 41 35 52
REMARK Flexibility Score: inf
ROOT
ATOM      1  C   UNL A   1      31.809  28.457  27.543  1.00  0.00     0.274 C 
ENDROOT
BRANCH   1   2
ATOM      2  O   UNL A   1      31.517  27.203  26.887  1.00  0.00    -0.462 OA
BRANCH   2   3
ATOM      3  C   UNL A   1      32.510  26.655  26.128  1.00  0.00     0.313 C 
ATOM      4  O   UNL A   1      33.701  26.843  26.349  1.00  0.00    -0.252 OA
BRANCH   3   5
ATOM      5  C   UNL A   1      31.967  25.847  24.923  1.00  0.00     0.129 C 
ATOM      6  C   UNL A   1      33.112  25.393  24.005  1.00  0.00     0.025 C 
BRANCH   5   7
ATOM      7  C   UNL A   1      30.809  26.567  24.209  1.00  0.00     0.002 A 
ATOM      8  C   UNL A   1      29.495  26.086  24.364  1.00  0.00     0.008 A 
ATOM      9  C   UNL A   1      30.954  27.722  23.432  1.00  0.00     0.127 A 
ATOM     10  C   UNL A   1      28.384  26.793  23.872  1.00  0.00     0.004 A 
ATOM     11  C   UNL A   1      29.850  28.413  22.913  1.00  0.00     0.043 A 
ATOM     12  F   UNL A   1      32.161  28.254  23.200  1.00  0.00    -0.207 F 
ATOM     13  C   UNL A   1      28.535  27.985  23.155  1.00  0.00    -0.041 A 
BRANCH  13  14
ATOM     14  C   UNL A   1      27.402  28.944  22.839  1.00  0.00     0.072 C 
BRANCH  14  15
ATOM     15  C   UNL A   1      27.909  30.322  22.537  1.00  0.00    -0.033 A 
ATOM     16  C   UNL A   1      28.026  30.896  21.224  1.00  0.00     0.015 A 
ATOM     17  C   UNL A   1      28.191  31.274  23.501  1.00  0.00     0.068 A 
ATOM     18  C   UNL A   1      28.439  32.209  21.246  1.00  0.00     0.065 A 
ATOM     19  S   UNL A   1      28.638  32.786  22.839  1.00  0.00    -0.152 S 
ENDBRANCH  14  15
ENDBRANCH  13  14
ENDBRANCH   5   7
ENDBRANCH   3   5
ENDBRANCH   2   3
ENDBRANCH   1   2
BRANCH   1  20
ATOM     20  C   UNL A   1      31.713  29.620  26.559  1.00  0.00     0.275 C 
BRANCH  20  21
ATOM     21  O   UNL A   1      33.029  30.144  26.317  1.00  0.00    -0.458 OA
BRANCH  21  22
ATOM     22  C   UNL A   1      33.386  31.226  27.044  1.00  0.00     0.338 C 
ATOM     23  O   UNL A   1      32.761  32.253  27.224  1.00  0.00    -0.246 OA
BRANCH  22  24
ATOM     24  C   UNL A   1      34.684  30.945  27.673  1.00  0.00     0.060 A 
ATOM     25  C   UNL A   1      34.980  29.627  28.002  1.00  0.00     0.016 A 
ATOM     26  C   UNL A   1      35.564  31.971  28.014  1.00  0.00     0.016 A 
ATOM     27  C   UNL A   1      36.141  29.330  28.702  1.00  0.00     0.010 A 
ATOM     28  C   UNL A   1      36.752  31.663  28.693  1.00  0.00     0.010 A 
ATOM     29  C   UNL A   1      37.038  30.340  29.066  1.00  0.00    -0.014 A 
BRANCH  29  30
ATOM     30  C   UNL A   1      38.208  29.993  29.918  1.00  0.00     0.031 A 
ATOM     31  C   UNL A   1      39.329  29.172  29.344  1.00  0.00     0.074 A 
ATOM     32  C   UNL A   1      38.329  30.494  31.163  1.00  0.00     0.049 A 
ATOM     33  N   UNL A   1      40.393  28.689  29.937  1.00  0.00    -0.248 NA
ATOM     34  C   UNL A   1      39.251  28.865  27.908  1.00  0.00     0.031 C 
ATOM     35  C   UNL A   1      37.376  31.395  31.809  1.00  0.00     0.029 A 
ATOM     36  N   UNL A   1      39.324  30.335  32.098  1.00  0.00    -0.354 N 
ATOM     37  C   UNL A   1      41.080  27.980  28.961  1.00  0.00     0.074 A 
ATOM     38  C   UNL A   1      40.327  28.111  27.732  1.00  0.00     0.031 C 
ATOM     39  C   UNL A   1      37.849  31.740  33.018  1.00  0.00     0.029 A 
ATOM     40  C   UNL A   1      39.102  31.028  33.262  1.00  0.00     0.049 A 
ATOM     41  H   UNL A   1      40.120  29.778  31.947  1.00  0.00     0.167 HD
ATOM     42  C   UNL A   1      42.231  27.277  29.082  1.00  0.00     0.037 A 
ATOM     43  C   UNL A   1      39.809  31.061  34.409  1.00  0.00     0.037 A 
ATOM     44  C   UNL A   1      43.004  27.173  30.290  1.00  0.00     0.049 A 
ATOM     45  C   UNL A   1      41.044  30.208  34.541  1.00  0.00     0.074 A 
ATOM     46  C   UNL A   1      44.165  26.453  30.515  1.00  0.00     0.029 A 
ATOM     47  N   UNL A   1      42.700  27.819  31.478  1.00  0.00    -0.354 N 
ATOM     48  N   UNL A   1      41.638  29.464  33.642  1.00  0.00    -0.248 NA
ATOM     49  C   UNL A   1      41.685  30.174  35.865  1.00  0.00     0.031 C 
ATOM     50  C   UNL A   1      44.545  26.638  31.849  1.00  0.00     0.029 A 
ATOM     51  C   UNL A   1      43.643  27.503  32.443  1.00  0.00     0.049 A 
ATOM     52  H   UNL A   1      41.928  28.416  31.615  1.00  0.00     0.167 HD
ATOM     53  C   UNL A   1      42.722  28.881  34.284  1.00  0.00     0.074 A 
ATOM     54  C   UNL A   1      42.720  29.375  35.644  1.00  0.00     0.031 C 
ATOM     55  C   UNL A   1      43.630  28.004  33.793  1.00  0.00     0.037 A 
BRANCH  42  56
ATOM     56  C   UNL A   1      42.696  26.508  27.883  1.00  0.00     0.064 A 
ATOM     57  C   UNL A   1      43.632  27.033  26.982  1.00  0.00     0.173 A 
ATOM     58  C   UNL A   1      42.216  25.209  27.655  1.00  0.00     0.173 A 
ATOM     59  F   UNL A   1      44.106  28.277  27.147  1.00  0.00    -0.203 F 
ATOM     60  C   UNL A   1      44.057  26.289  25.883  1.00  0.00     0.198 A 
ATOM     61  C   UNL A   1      42.660  24.461  26.570  1.00  0.00     0.198 A 
ATOM     62  F   UNL A   1      41.320  24.664  28.493  1.00  0.00    -0.203 F 
ATOM     63  F   UNL A   1      44.925  26.821  25.011  1.00  0.00    -0.200 F 
ATOM     64  C   UNL A   1      43.576  25.003  25.681  1.00  0.00     0.200 A 
ATOM     65  F   UNL A   1      42.199  23.217  26.382  1.00  0.00    -0.200 F 
ATOM     66  F   UNL A   1      43.990  24.288  24.627  1.00  0.00    -0.200 F 
ENDBRANCH  42  56
BRANCH  43  67
ATOM     67  C   UNL A   1      39.346  31.890  35.553  1.00  0.00     0.064 A 
ATOM     68  C   UNL A   1      39.813  33.201  35.728  1.00  0.00     0.173 A 
ATOM     69  C   UNL A   1      38.458  31.380  36.512  1.00  0.00     0.173 A 
ATOM     70  F   UNL A   1      40.689  33.721  34.857  1.00  0.00    -0.203 F 
ATOM     71  C   UNL A   1      39.417  33.964  36.823  1.00  0.00     0.198 A 
ATOM     72  C   UNL A   1      38.042  32.155  37.591  1.00  0.00     0.198 A 
ATOM     73  F   UNL A   1      37.991  30.129  36.397  1.00  0.00    -0.203 F 
ATOM     74  F   UNL A   1      39.912  35.198  36.991  1.00  0.00    -0.200 F 
ATOM     75  C   UNL A   1      38.527  33.443  37.751  1.00  0.00     0.200 A 
ATOM     76  F   UNL A   1      37.174  31.651  38.479  1.00  0.00    -0.200 F 
ATOM     77  F   UNL A   1      38.146  34.179  38.804  1.00  0.00    -0.200 F 
ENDBRANCH  43  67
BRANCH  55  78
ATOM     78  C   UNL A   1      44.707  27.531  34.725  1.00  0.00     0.064 A 
ATOM     79  C   UNL A   1      44.553  26.362  35.484  1.00  0.00     0.173 A 
ATOM     80  C   UNL A   1      45.919  28.230  34.828  1.00  0.00     0.173 A 
ATOM     81  F   UNL A   1      43.406  25.669  35.431  1.00  0.00    -0.203 F 
ATOM     82  C   UNL A   1      45.568  25.918  36.328  1.00  0.00     0.198 A 
ATOM     83  C   UNL A   1      46.940  27.770  35.654  1.00  0.00     0.198 A 
ATOM     84  F   UNL A   1      46.116  29.350  34.118  1.00  0.00    -0.203 F 
ATOM     85  F   UNL A   1      45.386  24.820  37.072  1.00  0.00    -0.200 F 
ATOM     86  C   UNL A   1      46.763  26.619  36.407  1.00  0.00     0.200 A 
ATOM     87  F   UNL A   1      48.098  28.441  35.722  1.00  0.00    -0.200 F 
ATOM     88  F   UNL A   1      47.742  26.187  37.215  1.00  0.00    -0.200 F 
ENDBRANCH  55  78
ENDBRANCH  29  30
ENDBRANCH  22  24
ENDBRANCH  21  22
ENDBRANCH  20  21
ENDBRANCH   1  20
TORSDOF 14
ENDMDL
MODEL 2
REMARK VINA RESULT:     -11.9      1.931      3.644
REMARK SMILES C[C@@H](C(=O)OCCOC(=O)c1ccc(-c2c3nc(c(-c4c(F)c(F)c(F)c(F)c4F)c4ccc([nH]4)c(-c4c(F)c(F)c(F)c(F)c4F)c4nc(c(-c5c(F)c(F)c(F)c(F)c5F)c5ccc2[nH]5)C=C4)C=C3)cc1)c1ccc(Cc2ccsc2)cc1F
REMARK SMILES IDX 6 1 5 2 3 3 4 4 2 5 1 6 74 7 75 8 85 9 76 10 84 11 86 12
REMARK SMILES IDX 77 13 78 14 79 15 80 16 83 17 81 18 82 19 7 20 8 21 9 22
REMARK SMILES IDX 10 23 11 24 12 25 73 26 13 27 72 28 14 29 15 30 16 31 66 32
REMARK SMILES IDX 17 33 71 34 65 35 67 36 18 37 70 38 64 39 63 40 19 42 51 43
REMARK SMILES IDX 31 44 50 45 32 46 35 47 49 48 68 49 33 50 34 51 48 53 69 54
REMARK SMILES IDX 36 55 20 56 21 57 29 58 22 59 23 60 27 61 30 62 24 63 25 64
REMARK SMILES IDX 28 65 26 66 52 67 53 68 61 69 54 70 55 71 59 72 62 73 56 74
REMARK SMILES IDX 57 75 60 76 58 77 37 78 38 79 46 80 39 81 40 82 44 83 47 84
REMARK SMILES IDX 41 85 42 86 45 87 43 88
REMARK H PARENT 67 41 35 52
REMARK Flexibility Score: inf
ROOT
ATOM      1  C   UNL A   1      31.418  29.853  24.302  1.00  0.00     0.274 C 
ENDROOT
BRANCH   1   2
ATOM      2  O   UNL A   1      30.146  29.239  24.000  1.00  0.00    -0.462 OA
BRANCH   2   3
ATOM      3  C   UNL A   1      30.082  28.465  22.878  1.00  0.00     0.313 C 
ATOM      4  O   UNL A   1      29.943  28.929  21.752  1.00  0.00    -0.252 OA
BRANCH   3   5
ATOM      5  C   UNL A   1      30.121  26.948  23.195  1.00  0.00     0.129 C 
ATOM      6  C   UNL A   1      28.883  26.523  23.999  1.00  0.00     0.025 C 
BRANCH   5   7
ATOM      7  C   UNL A   1      31.468  26.510  23.796  1.00  0.00     0.002 A 
ATOM      8  C   UNL A   1      31.566  26.281  25.181  1.00  0.00     0.008 A 
ATOM      9  C   UNL A   1      32.627  26.269  23.049  1.00  0.00     0.127 A 
ATOM     10  C   UNL A   1      32.719  25.725  25.762  1.00  0.00     0.004 A 
ATOM     11  C   UNL A   1      33.791  25.745  23.630  1.00  0.00     0.043 A 
ATOM     12  F   UNL A   1      32.655  26.475  21.727  1.00  0.00    -0.207 F 
ATOM     13  C   UNL A   1      33.850  25.424  24.995  1.00  0.00    -0.041 A 
BRANCH  13  14
ATOM     14  C   UNL A   1      35.012  24.575  25.480  1.00  0.00     0.072 C 
BRANCH  14  15
ATOM     15  C   UNL A   1      34.559  23.219  25.929  1.00  0.00    -0.033 A 
ATOM     16  C   UNL A   1      34.462  22.785  27.297  1.00  0.00     0.015 A 
ATOM     17  C   UNL A   1      34.035  22.256  25.085  1.00  0.00     0.068 A 
ATOM     18  C   UNL A   1      33.935  21.520  27.423  1.00  0.00     0.065 A 
ATOM     19  S   UNL A   1      33.500  20.858  25.912  1.00  0.00    -0.152 S 
ENDBRANCH  14  15
ENDBRANCH  13  14
ENDBRANCH   5   7
ENDBRANCH   3   5
ENDBRANCH   2   3
ENDBRANCH   1   2
BRANCH   1  20
ATOM     20  C   UNL A   1      31.529  30.166  25.792  1.00  0.00     0.275 C 
BRANCH  20  21
ATOM     21  O   UNL A   1      32.916  30.312  26.141  1.00  0.00    -0.458 OA
BRANCH  21  22
ATOM     22  C   UNL A   1      33.222  31.344  26.959  1.00  0.00     0.338 C 
ATOM     23  O   UNL A   1      32.558  32.331  27.210  1.00  0.00    -0.246 OA
BRANCH  22  24
ATOM     24  C   UNL A   1      34.519  31.057  27.587  1.00  0.00     0.060 A 
ATOM     25  C   UNL A   1      34.799  29.742  27.940  1.00  0.00     0.016 A 
ATOM     26  C   UNL A   1      35.415  32.077  27.905  1.00  0.00     0.016 A 
ATOM     27  C   UNL A   1      35.960  29.442  28.641  1.00  0.00     0.010 A 
ATOM     28  C   UNL A   1      36.602  31.766  28.584  1.00  0.00     0.010 A 
ATOM     29  C   UNL A   1      36.872  30.447  28.981  1.00  0.00    -0.014 A 
BRANCH  29  30
ATOM     30  C   UNL A   1      38.041  30.100  29.834  1.00  0.00     0.031 A 
ATOM     31  C   UNL A   1      39.156  29.266  29.266  1.00  0.00     0.074 A 
ATOM     32  C   UNL A   1      38.167  30.611  31.074  1.00  0.00     0.049 A 
ATOM     33  N   UNL A   1      40.217  28.782  29.861  1.00  0.00    -0.248 NA
ATOM     34  C   UNL A   1      39.074  28.948  27.832  1.00  0.00     0.031 C 
ATOM     35  C   UNL A   1      37.221  31.525  31.713  1.00  0.00     0.029 A 
ATOM     36  N   UNL A   1      39.163  30.455  32.009  1.00  0.00    -0.354 N 
ATOM     37  C   UNL A   1      40.899  28.061  28.890  1.00  0.00     0.074 A 
ATOM     38  C   UNL A   1      40.144  28.185  27.661  1.00  0.00     0.031 C 
ATOM     39  C   UNL A   1      37.699  31.877  32.918  1.00  0.00     0.029 A 
ATOM     40  C   UNL A   1      38.947  31.160  33.167  1.00  0.00     0.049 A 
ATOM     41  H   UNL A   1      39.956  29.891  31.861  1.00  0.00     0.167 HD
ATOM     42  C   UNL A   1      42.045  27.351  29.015  1.00  0.00     0.037 A 
ATOM     43  C   UNL A   1      39.657  31.198  34.312  1.00  0.00     0.037 A 
ATOM     44  C   UNL A   1      42.820  27.253  30.223  1.00  0.00     0.049 A 
ATOM     45  C   UNL A   1      40.886  30.339  34.450  1.00  0.00     0.074 A 
ATOM     46  C   UNL A   1      43.977  26.528  30.452  1.00  0.00     0.029 A 
ATOM     47  N   UNL A   1      42.522  27.912  31.406  1.00  0.00    -0.354 N 
ATOM     48  N   UNL A   1      41.474  29.583  33.556  1.00  0.00    -0.248 NA
ATOM     49  C   UNL A   1      41.530  30.313  35.773  1.00  0.00     0.031 C 
ATOM     50  C   UNL A   1      44.360  26.723  31.784  1.00  0.00     0.029 A 
ATOM     51  C   UNL A   1      43.464  27.599  32.372  1.00  0.00     0.049 A 
ATOM     52  H   UNL A   1      41.754  28.514  31.539  1.00  0.00     0.167 HD
ATOM     53  C   UNL A   1      42.556  28.999  34.202  1.00  0.00     0.074 A 
ATOM     54  C   UNL A   1      42.559  29.506  35.557  1.00  0.00     0.031 C 
ATOM     55  C   UNL A   1      43.458  28.111  33.717  1.00  0.00     0.037 A 
BRANCH  42  56
ATOM     56  C   UNL A   1      42.503  26.568  27.823  1.00  0.00     0.064 A 
ATOM     57  C   UNL A   1      42.040  25.271  27.564  1.00  0.00     0.173 A 
ATOM     58  C   UNL A   1      43.399  27.144  26.909  1.00  0.00     0.173 A 
ATOM     59  F   UNL A   1      41.198  24.671  28.419  1.00  0.00    -0.203 F 
ATOM     60  C   UNL A   1      42.473  24.571  26.440  1.00  0.00     0.198 A 
ATOM     61  C   UNL A   1      43.810  26.451  25.775  1.00  0.00     0.198 A 
ATOM     62  F   UNL A   1      43.868  28.384  27.115  1.00  0.00    -0.203 F 
ATOM     63  F   UNL A   1      42.047  23.318  26.227  1.00  0.00    -0.200 F 
ATOM     64  C   UNL A   1      43.352  25.164  25.544  1.00  0.00     0.200 A 
ATOM     65  F   UNL A   1      44.654  27.029  24.908  1.00  0.00    -0.200 F 
ATOM     66  F   UNL A   1      43.762  24.491  24.460  1.00  0.00    -0.200 F 
ENDBRANCH  42  56
BRANCH  43  67
ATOM     67  C   UNL A   1      39.201  32.040  35.450  1.00  0.00     0.064 A 
ATOM     68  C   UNL A   1      39.608  33.378  35.563  1.00  0.00     0.173 A 
ATOM     69  C   UNL A   1      38.382  31.519  36.462  1.00  0.00     0.173 A 
ATOM     70  F   UNL A   1      40.420  33.912  34.640  1.00  0.00    -0.203 F 
ATOM     71  C   UNL A   1      39.221  34.156  36.652  1.00  0.00     0.198 A 
ATOM     72  C   UNL A   1      37.972  32.308  37.534  1.00  0.00     0.198 A 
ATOM     73  F   UNL A   1      37.974  30.244  36.405  1.00  0.00    -0.203 F 
ATOM     74  F   UNL A   1      39.660  35.418  36.759  1.00  0.00    -0.200 F 
ATOM     75  C   UNL A   1      38.399  33.623  37.633  1.00  0.00     0.200 A 
ATOM     76  F   UNL A   1      37.169  31.791  38.474  1.00  0.00    -0.200 F 
ATOM     77  F   UNL A   1      38.025  34.373  38.679  1.00  0.00    -0.200 F 
ENDBRANCH  43  67
BRANCH  55  78
ATOM     78  C   UNL A   1      44.533  27.641  34.652  1.00  0.00     0.064 A 
ATOM     79  C   UNL A   1      44.379  26.472  35.411  1.00  0.00     0.173 A 
ATOM     80  C   UNL A   1      45.744  28.341  34.756  1.00  0.00     0.173 A 
ATOM     81  F   UNL A   1      43.232  25.778  35.357  1.00  0.00    -0.203 F 
ATOM     82  C   UNL A   1      45.393  26.030  36.257  1.00  0.00     0.198 A 
ATOM     83  C   UNL A   1      46.764  27.883  35.585  1.00  0.00     0.198 A 
ATOM     84  F   UNL A   1      45.942  29.460  34.046  1.00  0.00    -0.203 F 
ATOM     85  F   UNL A   1      45.210  24.932  37.002  1.00  0.00    -0.200 F 
ATOM     86  C   UNL A   1      46.587  26.732  36.338  1.00  0.00     0.200 A 
ATOM     87  F   UNL A   1      47.922  28.555  35.655  1.00  0.00    -0.200 F 
ATOM     88  F   UNL A   1      47.565  26.301  37.148  1.00  0.00    -0.200 F 
ENDBRANCH  55  78
ENDBRANCH  29  30
ENDBRANCH  22  24
ENDBRANCH  21  22
ENDBRANCH  20  21
ENDBRANCH   1  20
TORSDOF 14
ENDMDL
MODEL 3
REMARK VINA RESULT:     -11.8      3.893      9.952
REMARK SMILES C[C@@H](C(=O)OCCOC(=O)c1ccc(-c2c3nc(c(-c4c(F)c(F)c(F)c(F)c4F)c4ccc([nH]4)c(-c4c(F)c(F)c(F)c(F)c4F)c4nc(c(-c5c(F)c(F)c(F)c(F)c5F)c5ccc2[nH]5)C=C4)C=C3)cc1)c1ccc(Cc2ccsc2)cc1F
REMARK SMILES IDX 6 1 5 2 3 3 4 4 2 5 1 6 74 7 75 8 85 9 76 10 84 11 86 12
REMARK SMILES IDX 77 13 78 14 79 15 80 16 83 17 81 18 82 19 7 20 8 21 9 22
REMARK SMILES IDX 10 23 11 24 12 25 73 26 13 27 72 28 14 29 15 30 16 31 66 32
REMARK SMILES IDX 17 33 71 34 65 35 67 36 18 37 70 38 64 39 63 40 19 42 51 43
REMARK SMILES IDX 31 44 50 45 32 46 35 47 49 48 68 49 33 50 34 51 48 53 69 54
REMARK SMILES IDX 36 55 20 56 21 57 29 58 22 59 23 60 27 61 30 62 24 63 25 64
REMARK SMILES IDX 28 65 26 66 52 67 53 68 61 69 54 70 55 71 59 72 62 73 56 74
REMARK SMILES IDX 57 75 60 76 58 77 37 78 38 79 46 80 39 81 40 82 44 83 47 84
REMARK SMILES IDX 41 85 42 86 45 87 43 88
REMARK H PARENT 67 41 35 52
REMARK Flexibility Score: inf
ROOT
ATOM      1  C   UNL A   1      33.951  34.972  29.240  1.00  0.00     0.274 C 
ENDROOT
BRANCH   1   2
ATOM      2  O   UNL A   1      33.436  34.893  30.587  1.00  0.00    -0.462 OA
BRANCH   2   3
ATOM      3  C   UNL A   1      34.085  34.059  31.451  1.00  0.00     0.313 C 
ATOM      4  O   UNL A   1      34.045  32.838  31.358  1.00  0.00    -0.252 OA
BRANCH   3   5
ATOM      5  C   UNL A   1      34.800  34.821  32.596  1.00  0.00     0.129 C 
ATOM      6  C   UNL A   1      34.381  36.299  32.618  1.00  0.00     0.025 C 
BRANCH   5   7
ATOM      7  C   UNL A   1      36.319  34.576  32.603  1.00  0.00     0.002 A 
ATOM      8  C   UNL A   1      37.010  34.478  31.381  1.00  0.00     0.008 A 
ATOM      9  C   UNL A   1      37.101  34.486  33.760  1.00  0.00     0.127 A 
ATOM     10  C   UNL A   1      38.413  34.419  31.324  1.00  0.00     0.004 A 
ATOM     11  C   UNL A   1      38.499  34.395  33.709  1.00  0.00     0.043 A 
ATOM     12  F   UNL A   1      36.547  34.544  34.978  1.00  0.00    -0.207 F 
ATOM     13  C   UNL A   1      39.190  34.399  32.487  1.00  0.00    -0.041 A 
BRANCH  13  14
ATOM     14  C   UNL A   1      40.693  34.618  32.517  1.00  0.00     0.072 C 
BRANCH  14  15
ATOM     15  C   UNL A   1      41.433  33.470  31.900  1.00  0.00    -0.033 A 
ATOM     16  C   UNL A   1      41.182  32.925  30.593  1.00  0.00     0.015 A 
ATOM     17  C   UNL A   1      42.556  32.882  32.454  1.00  0.00     0.068 A 
ATOM     18  C   UNL A   1      42.069  31.931  30.246  1.00  0.00     0.065 A 
ATOM     19  S   UNL A   1      43.245  31.677  31.456  1.00  0.00    -0.152 S 
ENDBRANCH  14  15
ENDBRANCH  13  14
ENDBRANCH   5   7
ENDBRANCH   3   5
ENDBRANCH   2   3
ENDBRANCH   1   2
BRANCH   1  20
ATOM     20  C   UNL A   1      33.071  34.179  28.276  1.00  0.00     0.275 C 
BRANCH  20  21
ATOM     21  O   UNL A   1      33.907  33.387  27.417  1.00  0.00    -0.458 OA
BRANCH  21  22
ATOM     22  C   UNL A   1      33.790  32.046  27.538  1.00  0.00     0.338 C 
ATOM     23  O   UNL A   1      32.845  31.341  27.242  1.00  0.00    -0.246 OA
BRANCH  22  24
ATOM     24  C   UNL A   1      35.065  31.522  28.048  1.00  0.00     0.060 A 
ATOM     25  C   UNL A   1      35.107  30.198  28.470  1.00  0.00     0.016 A 
ATOM     26  C   UNL A   1      36.183  32.343  28.191  1.00  0.00     0.016 A 
ATOM     27  C   UNL A   1      36.255  29.696  29.068  1.00  0.00     0.010 A 
ATOM     28  C   UNL A   1      37.352  31.822  28.764  1.00  0.00     0.010 A 
ATOM     29  C   UNL A   1      37.389  30.498  29.232  1.00  0.00    -0.014 A 
BRANCH  29  30
ATOM     30  C   UNL A   1      38.553  29.956  29.983  1.00  0.00     0.031 A 
ATOM     31  C   UNL A   1      38.726  30.297  31.437  1.00  0.00     0.074 A 
ATOM     32  C   UNL A   1      39.396  29.075  29.408  1.00  0.00     0.049 A 
ATOM     33  N   UNL A   1      39.711  30.001  32.248  1.00  0.00    -0.248 NA
ATOM     34  C   UNL A   1      37.638  31.061  32.067  1.00  0.00     0.031 C 
ATOM     35  C   UNL A   1      39.286  28.566  28.042  1.00  0.00     0.029 A 
ATOM     36  N   UNL A   1      40.499  28.432  29.916  1.00  0.00    -0.354 N 
ATOM     37  C   UNL A   1      39.386  30.585  33.465  1.00  0.00     0.074 A 
ATOM     38  C   UNL A   1      38.105  31.236  33.295  1.00  0.00     0.031 C 
ATOM     39  C   UNL A   1      40.256  27.662  27.832  1.00  0.00     0.029 A 
ATOM     40  C   UNL A   1      41.101  27.581  29.022  1.00  0.00     0.049 A 
ATOM     41  H   UNL A   1      40.827  28.568  30.834  1.00  0.00     0.167 HD
ATOM     42  C   UNL A   1      40.098  30.586  34.618  1.00  0.00     0.037 A 
ATOM     43  C   UNL A   1      42.224  26.844  29.136  1.00  0.00     0.037 A 
ATOM     44  C   UNL A   1      41.354  29.910  34.804  1.00  0.00     0.049 A 
ATOM     45  C   UNL A   1      43.036  26.925  30.402  1.00  0.00     0.074 A 
ATOM     46  C   UNL A   1      42.164  29.885  35.928  1.00  0.00     0.029 A 
ATOM     47  N   UNL A   1      41.978  29.128  33.846  1.00  0.00    -0.354 N 
ATOM     48  N   UNL A   1      42.771  27.556  31.518  1.00  0.00    -0.248 NA
ATOM     49  C   UNL A   1      44.325  26.215  30.407  1.00  0.00     0.031 C 
ATOM     50  C   UNL A   1      43.294  29.114  35.636  1.00  0.00     0.029 A 
ATOM     51  C   UNL A   1      43.170  28.628  34.346  1.00  0.00     0.049 A 
ATOM     52  H   UNL A   1      41.626  28.953  32.943  1.00  0.00     0.167 HD
ATOM     53  C   UNL A   1      43.851  27.316  32.358  1.00  0.00     0.074 A 
ATOM     54  C   UNL A   1      44.765  26.460  31.633  1.00  0.00     0.031 C 
ATOM     55  C   UNL A   1      44.070  27.775  33.614  1.00  0.00     0.037 A 
BRANCH  42  56
ATOM     56  C   UNL A   1      39.562  31.397  35.757  1.00  0.00     0.064 A 
ATOM     57  C   UNL A   1      38.477  30.964  36.530  1.00  0.00     0.173 A 
ATOM     58  C   UNL A   1      40.169  32.616  36.095  1.00  0.00     0.173 A 
ATOM     59  F   UNL A   1      37.851  29.815  36.234  1.00  0.00    -0.203 F 
ATOM     60  C   UNL A   1      38.007  31.733  37.593  1.00  0.00     0.198 A 
ATOM     61  C   UNL A   1      39.712  33.370  37.171  1.00  0.00     0.198 A 
ATOM     62  F   UNL A   1      41.213  33.070  35.384  1.00  0.00    -0.203 F 
ATOM     63  F   UNL A   1      36.945  31.321  38.299  1.00  0.00    -0.200 F 
ATOM     64  C   UNL A   1      38.629  32.931  37.916  1.00  0.00     0.200 A 
ATOM     65  F   UNL A   1      40.320  34.523  37.486  1.00  0.00    -0.200 F 
ATOM     66  F   UNL A   1      38.179  33.666  38.942  1.00  0.00    -0.200 F 
ENDBRANCH  42  56
BRANCH  43  67
ATOM     67  C   UNL A   1      42.686  26.000  28.002  1.00  0.00     0.064 A 
ATOM     68  C   UNL A   1      43.559  26.513  27.032  1.00  0.00     0.173 A 
ATOM     69  C   UNL A   1      42.240  24.680  27.846  1.00  0.00     0.173 A 
ATOM     70  F   UNL A   1      43.986  27.781  27.119  1.00  0.00    -0.203 F 
ATOM     71  C   UNL A   1      43.958  25.741  25.944  1.00  0.00     0.198 A 
ATOM     72  C   UNL A   1      42.663  23.899  26.773  1.00  0.00     0.198 A 
ATOM     73  F   UNL A   1      41.397  24.146  28.740  1.00  0.00    -0.203 F 
ATOM     74  F   UNL A   1      44.757  26.269  25.007  1.00  0.00    -0.200 F 
ATOM     75  C   UNL A   1      43.514  24.433  25.818  1.00  0.00     0.200 A 
ATOM     76  F   UNL A   1      42.240  22.633  26.661  1.00  0.00    -0.200 F 
ATOM     77  F   UNL A   1      43.899  23.689  24.772  1.00  0.00    -0.200 F 
ENDBRANCH  43  67
BRANCH  55  78
ATOM     78  C   UNL A   1      45.340  27.352  34.292  1.00  0.00     0.064 A 
ATOM     79  C   UNL A   1      45.411  26.161  35.030  1.00  0.00     0.173 A 
ATOM     80  C   UNL A   1      46.506  28.120  34.166  1.00  0.00     0.173 A 
ATOM     81  F   UNL A   1      44.317  25.401  35.191  1.00  0.00    -0.203 F 
ATOM     82  C   UNL A   1      46.601  25.764  35.635  1.00  0.00     0.198 A 
ATOM     83  C   UNL A   1      47.700  27.708  34.752  1.00  0.00     0.198 A 
ATOM     84  F   UNL A   1      46.491  29.264  33.466  1.00  0.00    -0.203 F 
ATOM     85  F   UNL A   1      46.637  24.643  36.366  1.00  0.00    -0.200 F 
ATOM     86  C   UNL A   1      47.745  26.535  35.490  1.00  0.00     0.200 A 
ATOM     87  F   UNL A   1      48.808  28.447  34.603  1.00  0.00    -0.200 F 
ATOM     88  F   UNL A   1      48.892  26.148  36.066  1.00  0.00    -0.200 F 
ENDBRANCH  55  78
ENDBRANCH  29  30
ENDBRANCH  22  24
ENDBRANCH  21  22
ENDBRANCH  20  21
ENDBRANCH   1  20
TORSDOF 14
ENDMDL
