MODEL 1
REMARK VINA RESULT:     -11.1      0.000      0.000
REMARK SMILES O=C(OCCOC(=O)[C@@H]1[NH2+]CC[C@H]1c1cccc2cccnc12)c1ccc(-c2c3nc(c(-c4c(F)c(F)c(F)c(F)c4F)c4ccc([nH]4)c(-c4c(F)c(F)c(F)c(F)c4F)c4nc(c(-c5c(F)c(F)c(F)c(F)c5F)c5ccc2[nH]5)C=C4)C=C3)cc1
REMARK SMILES IDX 4 1 3 2 2 3 1 4 24 5 25 6 86 7 26 8 85 9 27 10 28 11 29 12
REMARK SMILES IDX 79 13 30 14 84 15 78 16 80 17 31 18 83 19 77 20 76 21 32 23
REMARK SMILES IDX 64 24 44 25 63 26 45 27 48 28 62 29 81 30 46 31 47 32 61 34
REMARK SMILES IDX 82 35 49 36 33 37 34 38 42 39 35 40 36 41 40 42 43 43 37 44
REMARK SMILES IDX 38 45 41 46 39 47 65 48 66 49 74 50 67 51 68 52 72 53 75 54
REMARK SMILES IDX 69 55 70 56 73 57 71 58 50 59 51 60 59 61 52 62 53 63 57 64
REMARK SMILES IDX 60 65 54 66 55 67 58 68 56 69 5 70 6 71 7 72 8 73 9 74 10 75
REMARK SMILES IDX 13 76 11 77 12 80 14 81 15 82 23 83 16 84 18 85 22 86 17 87
REMARK SMILES IDX 19 88 21 89 20 90
REMARK H PARENT 80 22 48 33 10 78 10 79
REMARK Flexibility Score: inf
ROOT
ATOM      1  C   UNL A   1      40.716  19.955  26.489  1.00  0.00     0.275 C 
ENDROOT
BRANCH   1   2
ATOM      2  O   UNL A   1      40.688  21.299  26.985  1.00  0.00    -0.458 OA
BRANCH   2   3
ATOM      3  C   UNL A   1      39.802  22.287  26.742  1.00  0.00     0.338 C 
ATOM      4  O   UNL A   1      38.815  22.031  26.049  1.00  0.00    -0.246 OA
BRANCH   3   5
ATOM      5  C   UNL A   1      39.995  23.709  27.164  1.00  0.00     0.060 A 
ATOM      6  C   UNL A   1      40.084  24.211  28.471  1.00  0.00     0.016 A 
ATOM      7  C   UNL A   1      40.086  24.628  26.113  1.00  0.00     0.016 A 
ATOM      8  C   UNL A   1      40.376  25.569  28.720  1.00  0.00     0.010 A 
ATOM      9  C   UNL A   1      40.403  25.962  26.355  1.00  0.00     0.010 A 
ATOM     10  C   UNL A   1      40.570  26.456  27.661  1.00  0.00    -0.014 A 
BRANCH  10  11
ATOM     11  C   UNL A   1      40.864  27.912  27.811  1.00  0.00     0.031 A 
ATOM     12  C   UNL A   1      42.313  28.319  27.814  1.00  0.00     0.074 A 
ATOM     13  C   UNL A   1      39.926  28.805  28.196  1.00  0.00     0.049 A 
ATOM     14  N   UNL A   1      42.876  29.419  28.244  1.00  0.00    -0.248 NA
ATOM     15  C   UNL A   1      43.263  27.299  27.336  1.00  0.00     0.031 C 
ATOM     16  C   UNL A   1      38.495  28.550  28.325  1.00  0.00     0.029 A 
ATOM     17  N   UNL A   1      40.071  30.087  28.686  1.00  0.00    -0.354 N 
ATOM     18  C   UNL A   1      44.238  29.211  28.086  1.00  0.00     0.074 A 
ATOM     19  C   UNL A   1      44.417  27.832  27.695  1.00  0.00     0.031 C 
ATOM     20  C   UNL A   1      37.922  29.557  29.009  1.00  0.00     0.029 A 
ATOM     21  C   UNL A   1      38.937  30.559  29.314  1.00  0.00     0.049 A 
ATOM     22  H   UNL A   1      40.899  30.612  28.597  1.00  0.00     0.167 HD
ATOM     23  C   UNL A   1      45.248  30.109  28.161  1.00  0.00     0.037 A 
ATOM     24  C   UNL A   1      38.749  31.661  30.068  1.00  0.00     0.037 A 
ATOM     25  C   UNL A   1      45.059  31.485  28.511  1.00  0.00     0.049 A 
ATOM     26  C   UNL A   1      39.869  32.659  30.194  1.00  0.00     0.074 A 
ATOM     27  C   UNL A   1      45.964  32.529  28.473  1.00  0.00     0.029 A 
ATOM     28  N   UNL A   1      43.861  32.005  28.977  1.00  0.00    -0.354 N 
ATOM     29  N   UNL A   1      41.126  32.539  29.845  1.00  0.00    -0.248 NA
ATOM     30  C   UNL A   1      39.526  33.977  30.751  1.00  0.00     0.031 C 
ATOM     31  C   UNL A   1      45.320  33.676  28.951  1.00  0.00     0.029 A 
ATOM     32  C   UNL A   1      44.006  33.352  29.251  1.00  0.00     0.049 A 
ATOM     33  H   UNL A   1      43.029  31.491  29.095  1.00  0.00     0.167 HD
ATOM     34  C   UNL A   1      41.698  33.789  30.046  1.00  0.00     0.074 A 
ATOM     35  C   UNL A   1      40.666  34.638  30.601  1.00  0.00     0.031 C 
ATOM     36  C   UNL A   1      42.957  34.200  29.757  1.00  0.00     0.037 A 
BRANCH  23  37
ATOM     37  C   UNL A   1      46.612  29.609  27.782  1.00  0.00     0.064 A 
ATOM     38  C   UNL A   1      46.909  29.264  26.450  1.00  0.00     0.173 A 
ATOM     39  C   UNL A   1      47.597  29.389  28.750  1.00  0.00     0.173 A 
ATOM     40  F   UNL A   1      45.996  29.451  25.484  1.00  0.00    -0.203 F 
ATOM     41  C   UNL A   1      48.102  28.632  26.122  1.00  0.00     0.198 A 
ATOM     42  C   UNL A   1      48.812  28.797  28.408  1.00  0.00     0.198 A 
ATOM     43  F   UNL A   1      47.375  29.715  30.032  1.00  0.00    -0.203 F 
ATOM     44  F   UNL A   1      48.309  28.206  24.867  1.00  0.00    -0.200 F 
ATOM     45  C   UNL A   1      49.052  28.396  27.101  1.00  0.00     0.200 A 
ATOM     46  F   UNL A   1      49.740  28.583  29.352  1.00  0.00    -0.200 F 
ATOM     47  F   UNL A   1      50.192  27.764  26.790  1.00  0.00    -0.200 F 
ENDBRANCH  23  37
BRANCH  24  48
ATOM     48  C   UNL A   1      37.431  31.934  30.700  1.00  0.00     0.064 A 
ATOM     49  C   UNL A   1      36.345  32.375  29.931  1.00  0.00     0.173 A 
ATOM     50  C   UNL A   1      37.243  31.810  32.083  1.00  0.00     0.173 A 
ATOM     51  F   UNL A   1      36.489  32.537  28.607  1.00  0.00    -0.203 F 
ATOM     52  C   UNL A   1      35.129  32.708  30.522  1.00  0.00     0.198 A 
ATOM     53  C   UNL A   1      36.019  32.129  32.674  1.00  0.00     0.198 A 
ATOM     54  F   UNL A   1      38.252  31.402  32.865  1.00  0.00    -0.203 F 
ATOM     55  F   UNL A   1      34.124  33.174  29.768  1.00  0.00    -0.200 F 
ATOM     56  C   UNL A   1      34.965  32.584  31.895  1.00  0.00     0.200 A 
ATOM     57  F   UNL A   1      35.864  32.015  34.001  1.00  0.00    -0.200 F 
ATOM     58  F   UNL A   1      33.800  32.920  32.465  1.00  0.00    -0.200 F 
ENDBRANCH  24  48
BRANCH  36  59
ATOM     59  C   UNL A   1      43.278  35.654  29.922  1.00  0.00     0.064 A 
ATOM     60  C   UNL A   1      43.852  36.162  31.093  1.00  0.00     0.173 A 
ATOM     61  C   UNL A   1      43.097  36.531  28.839  1.00  0.00     0.173 A 
ATOM     62  F   UNL A   1      44.028  35.366  32.159  1.00  0.00    -0.203 F 
ATOM     63  C   UNL A   1      44.237  37.498  31.176  1.00  0.00     0.198 A 
ATOM     64  C   UNL A   1      43.507  37.858  28.916  1.00  0.00     0.198 A 
ATOM     65  F   UNL A   1      42.550  36.090  27.696  1.00  0.00    -0.203 F 
ATOM     66  F   UNL A   1      44.767  37.970  32.312  1.00  0.00    -0.200 F 
ATOM     67  C   UNL A   1      44.077  38.340  30.084  1.00  0.00     0.200 A 
ATOM     68  F   UNL A   1      43.364  38.664  27.856  1.00  0.00    -0.200 F 
ATOM     69  F   UNL A   1      44.475  39.617  30.158  1.00  0.00    -0.200 F 
ENDBRANCH  36  59
ENDBRANCH  10  11
ENDBRANCH   3   5
ENDBRANCH   2   3
ENDBRANCH   1   2
BRANCH   1  70
ATOM     70  C   UNL A   1      42.102  19.322  26.374  1.00  0.00     0.274 C 
BRANCH  70  71
ATOM     71  O   UNL A   1      42.740  19.475  25.095  1.00  0.00    -0.458 OA
BRANCH  71  72
ATOM     72  C   UNL A   1      43.831  20.299  25.063  1.00  0.00     0.365 C 
ATOM     73  O   UNL A   1      44.915  19.970  24.588  1.00  0.00    -0.245 OA
BRANCH  72  74
ATOM     74  C   UNL A   1      43.620  21.660  25.785  1.00  0.00     0.301 C 
ATOM     75  N   UNL A   1      42.821  22.578  24.922  1.00  0.00    -0.334 N 
ATOM     76  C   UNL A   1      44.910  22.430  26.154  1.00  0.00     0.097 C 
ATOM     77  C   UNL A   1      43.778  23.458  24.252  1.00  0.00     0.262 C 
ATOM     78  H   UNL A   1      42.177  23.127  25.493  1.00  0.00     0.347 HD
ATOM     79  H   UNL A   1      42.263  22.056  24.246  1.00  0.00     0.347 HD
ATOM     80  C   UNL A   1      45.140  23.142  24.823  1.00  0.00     0.076 C 
BRANCH  76  81
ATOM     81  C   UNL A   1      44.880  23.329  27.416  1.00  0.00    -0.012 A 
ATOM     82  C   UNL A   1      43.723  23.301  28.224  1.00  0.00     0.006 A 
ATOM     83  C   UNL A   1      46.004  24.076  27.880  1.00  0.00     0.074 A 
ATOM     84  C   UNL A   1      43.622  24.053  29.391  1.00  0.00     0.001 A 
ATOM     85  C   UNL A   1      45.875  24.845  29.065  1.00  0.00     0.000 A 
ATOM     86  N   UNL A   1      47.199  24.070  27.253  1.00  0.00    -0.256 NA
ATOM     87  C   UNL A   1      44.688  24.837  29.801  1.00  0.00     0.010 A 
ATOM     88  C   UNL A   1      46.958  25.614  29.523  1.00  0.00     0.012 A 
ATOM     89  C   UNL A   1      48.226  24.830  27.708  1.00  0.00     0.112 A 
ATOM     90  C   UNL A   1      48.155  25.617  28.830  1.00  0.00     0.021 A 
ENDBRANCH  76  81
ENDBRANCH  72  74
ENDBRANCH  71  72
ENDBRANCH  70  71
ENDBRANCH   1  70
TORSDOF 12
ENDMDL
MODEL 2
REMARK VINA RESULT:     -11.0      4.503      6.613
REMARK SMILES O=C(OCCOC(=O)[C@@H]1[NH2+]CC[C@H]1c1cccc2cccnc12)c1ccc(-c2c3nc(c(-c4c(F)c(F)c(F)c(F)c4F)c4ccc([nH]4)c(-c4c(F)c(F)c(F)c(F)c4F)c4nc(c(-c5c(F)c(F)c(F)c(F)c5F)c5ccc2[nH]5)C=C4)C=C3)cc1
REMARK SMILES IDX 4 1 3 2 2 3 1 4 24 5 25 6 86 7 26 8 85 9 27 10 28 11 29 12
REMARK SMILES IDX 79 13 30 14 84 15 78 16 80 17 31 18 83 19 77 20 76 21 32 23
REMARK SMILES IDX 64 24 44 25 63 26 45 27 48 28 62 29 81 30 46 31 47 32 61 34
REMARK SMILES IDX 82 35 49 36 33 37 34 38 42 39 35 40 36 41 40 42 43 43 37 44
REMARK SMILES IDX 38 45 41 46 39 47 65 48 66 49 74 50 67 51 68 52 72 53 75 54
REMARK SMILES IDX 69 55 70 56 73 57 71 58 50 59 51 60 59 61 52 62 53 63 57 64
REMARK SMILES IDX 60 65 54 66 55 67 58 68 56 69 5 70 6 71 7 72 8 73 9 74 10 75
REMARK SMILES IDX 13 76 11 77 12 80 14 81 15 82 23 83 16 84 18 85 22 86 17 87
REMARK SMILES IDX 19 88 21 89 20 90
REMARK H PARENT 80 22 48 33 10 78 10 79
REMARK Flexibility Score: inf
ROOT
ATOM      1  C   UNL A   1      45.906  22.644  25.025  1.00  0.00     0.275 C 
ENDROOT
BRANCH   1   2
ATOM      2  O   UNL A   1      45.532  23.089  26.334  1.00  0.00    -0.458 OA
BRANCH   2   3
ATOM      3  C   UNL A   1      46.082  24.049  27.106  1.00  0.00     0.338 C 
ATOM      4  O   UNL A   1      47.312  24.113  27.173  1.00  0.00    -0.246 OA
BRANCH   3   5
ATOM      5  C   UNL A   1      45.296  24.975  27.980  1.00  0.00     0.060 A 
ATOM      6  C   UNL A   1      44.171  24.669  28.759  1.00  0.00     0.016 A 
ATOM      7  C   UNL A   1      45.753  26.297  27.995  1.00  0.00     0.016 A 
ATOM      8  C   UNL A   1      43.592  25.624  29.623  1.00  0.00     0.010 A 
ATOM      9  C   UNL A   1      45.202  27.233  28.868  1.00  0.00     0.010 A 
ATOM     10  C   UNL A   1      44.122  26.912  29.710  1.00  0.00    -0.014 A 
BRANCH  10  11
ATOM     11  C   UNL A   1      43.577  28.001  30.573  1.00  0.00     0.031 A 
ATOM     12  C   UNL A   1      44.008  28.008  32.016  1.00  0.00     0.074 A 
ATOM     13  C   UNL A   1      42.549  28.787  30.188  1.00  0.00     0.049 A 
ATOM     14  N   UNL A   1      43.469  28.598  33.050  1.00  0.00    -0.248 NA
ATOM     15  C   UNL A   1      45.166  27.156  32.340  1.00  0.00     0.031 C 
ATOM     16  C   UNL A   1      41.959  28.841  28.853  1.00  0.00     0.029 A 
ATOM     17  N   UNL A   1      41.724  29.599  30.938  1.00  0.00    -0.354 N 
ATOM     18  C   UNL A   1      44.225  28.184  34.136  1.00  0.00     0.074 A 
ATOM     19  C   UNL A   1      45.133  27.166  33.661  1.00  0.00     0.031 C 
ATOM     20  C   UNL A   1      40.785  29.493  28.911  1.00  0.00     0.029 A 
ATOM     21  C   UNL A   1      40.568  29.958  30.277  1.00  0.00     0.049 A 
ATOM     22  H   UNL A   1      41.938  29.894  31.853  1.00  0.00     0.167 HD
ATOM     23  C   UNL A   1      44.238  28.672  35.398  1.00  0.00     0.037 A 
ATOM     24  C   UNL A   1      39.454  30.568  30.729  1.00  0.00     0.037 A 
ATOM     25  C   UNL A   1      43.361  29.710  35.854  1.00  0.00     0.049 A 
ATOM     26  C   UNL A   1      39.431  31.091  32.141  1.00  0.00     0.074 A 
ATOM     27  C   UNL A   1      43.372  30.399  37.052  1.00  0.00     0.029 A 
ATOM     28  N   UNL A   1      42.297  30.201  35.113  1.00  0.00    -0.354 N 
ATOM     29  N   UNL A   1      40.273  30.867  33.119  1.00  0.00    -0.248 NA
ATOM     30  C   UNL A   1      38.340  32.015  32.491  1.00  0.00     0.031 C 
ATOM     31  C   UNL A   1      42.290  31.288  37.048  1.00  0.00     0.029 A 
ATOM     32  C   UNL A   1      41.630  31.173  35.834  1.00  0.00     0.049 A 
ATOM     33  H   UNL A   1      42.053  29.903  34.207  1.00  0.00     0.167 HD
ATOM     34  C   UNL A   1      39.874  31.693  34.162  1.00  0.00     0.074 A 
ATOM     35  C   UNL A   1      38.681  32.382  33.719  1.00  0.00     0.031 C 
ATOM     36  C   UNL A   1      40.471  31.889  35.363  1.00  0.00     0.037 A 
BRANCH  23  37
ATOM     37  C   UNL A   1      45.288  28.117  36.316  1.00  0.00     0.064 A 
ATOM     38  C   UNL A   1      44.989  27.062  37.199  1.00  0.00     0.173 A 
ATOM     39  C   UNL A   1      46.565  28.685  36.385  1.00  0.00     0.173 A 
ATOM     40  F   UNL A   1      43.777  26.485  37.176  1.00  0.00    -0.203 F 
ATOM     41  C   UNL A   1      45.895  26.664  38.175  1.00  0.00     0.198 A 
ATOM     42  C   UNL A   1      47.488  28.251  37.335  1.00  0.00     0.198 A 
ATOM     43  F   UNL A   1      46.910  29.681  35.556  1.00  0.00    -0.203 F 
ATOM     44  F   UNL A   1      45.539  25.739  39.078  1.00  0.00    -0.200 F 
ATOM     45  C   UNL A   1      47.143  27.260  38.244  1.00  0.00     0.200 A 
ATOM     46  F   UNL A   1      48.702  28.816  37.393  1.00  0.00    -0.200 F 
ATOM     47  F   UNL A   1      48.007  26.895  39.201  1.00  0.00    -0.200 F 
ENDBRANCH  23  37
BRANCH  24  48
ATOM     48  C   UNL A   1      38.294  30.800  29.829  1.00  0.00     0.064 A 
ATOM     49  C   UNL A   1      38.075  32.058  29.251  1.00  0.00     0.173 A 
ATOM     50  C   UNL A   1      37.357  29.790  29.568  1.00  0.00     0.173 A 
ATOM     51  F   UNL A   1      38.929  33.062  29.497  1.00  0.00    -0.203 F 
ATOM     52  C   UNL A   1      36.950  32.307  28.467  1.00  0.00     0.198 A 
ATOM     53  C   UNL A   1      36.238  30.035  28.771  1.00  0.00     0.198 A 
ATOM     54  F   UNL A   1      37.515  28.572  30.104  1.00  0.00    -0.203 F 
ATOM     55  F   UNL A   1      36.741  33.533  27.969  1.00  0.00    -0.200 F 
ATOM     56  C   UNL A   1      36.032  31.295  28.227  1.00  0.00     0.200 A 
ATOM     57  F   UNL A   1      35.348  29.059  28.543  1.00  0.00    -0.200 F 
ATOM     58  F   UNL A   1      34.941  31.540  27.487  1.00  0.00    -0.200 F 
ENDBRANCH  24  48
BRANCH  36  59
ATOM     59  C   UNL A   1      39.926  32.963  36.254  1.00  0.00     0.064 A 
ATOM     60  C   UNL A   1      38.917  32.712  37.192  1.00  0.00     0.173 A 
ATOM     61  C   UNL A   1      40.504  34.243  36.230  1.00  0.00     0.173 A 
ATOM     62  F   UNL A   1      38.323  31.510  37.239  1.00  0.00    -0.203 F 
ATOM     63  C   UNL A   1      38.507  33.705  38.078  1.00  0.00     0.198 A 
ATOM     64  C   UNL A   1      40.111  35.223  37.134  1.00  0.00     0.198 A 
ATOM     65  F   UNL A   1      41.475  34.530  35.349  1.00  0.00    -0.203 F 
ATOM     66  F   UNL A   1      37.527  33.452  38.956  1.00  0.00    -0.200 F 
ATOM     67  C   UNL A   1      39.113  34.954  38.058  1.00  0.00     0.200 A 
ATOM     68  F   UNL A   1      40.708  36.423  37.122  1.00  0.00    -0.200 F 
ATOM     69  F   UNL A   1      38.736  35.896  38.932  1.00  0.00    -0.200 F 
ENDBRANCH  36  59
ENDBRANCH  10  11
ENDBRANCH   3   5
ENDBRANCH   2   3
ENDBRANCH   1   2
BRANCH   1  70
ATOM     70  C   UNL A   1      45.542  21.199  24.689  1.00  0.00     0.274 C 
BRANCH  70  71
ATOM     71  O   UNL A   1      44.137  20.944  24.529  1.00  0.00    -0.458 OA
BRANCH  71  72
ATOM     72  C   UNL A   1      43.515  20.326  25.578  1.00  0.00     0.365 C 
ATOM     73  O   UNL A   1      43.467  19.106  25.714  1.00  0.00    -0.245 OA
BRANCH  72  74
ATOM     74  C   UNL A   1      42.770  21.298  26.537  1.00  0.00     0.301 C 
ATOM     75  N   UNL A   1      42.425  20.596  27.808  1.00  0.00    -0.334 N 
ATOM     76  C   UNL A   1      41.447  21.888  25.998  1.00  0.00     0.097 C 
ATOM     77  C   UNL A   1      41.029  20.175  27.685  1.00  0.00     0.262 C 
ATOM     78  H   UNL A   1      42.533  21.230  28.601  1.00  0.00     0.347 HD
ATOM     79  H   UNL A   1      43.039  19.797  27.968  1.00  0.00     0.347 HD
ATOM     80  C   UNL A   1      40.511  20.746  26.386  1.00  0.00     0.076 C 
BRANCH  76  81
ATOM     81  C   UNL A   1      41.036  23.303  26.478  1.00  0.00    -0.012 A 
ATOM     82  C   UNL A   1      40.003  23.406  27.435  1.00  0.00     0.006 A 
ATOM     83  C   UNL A   1      41.733  24.494  26.113  1.00  0.00     0.074 A 
ATOM     84  C   UNL A   1      39.591  24.635  27.944  1.00  0.00     0.001 A 
ATOM     85  C   UNL A   1      41.288  25.736  26.634  1.00  0.00     0.000 A 
ATOM     86  N   UNL A   1      42.814  24.493  25.306  1.00  0.00    -0.256 NA
ATOM     87  C   UNL A   1      40.220  25.797  27.531  1.00  0.00     0.010 A 
ATOM     88  C   UNL A   1      41.938  26.925  26.262  1.00  0.00     0.012 A 
ATOM     89  C   UNL A   1      43.417  25.655  24.952  1.00  0.00     0.112 A 
ATOM     90  C   UNL A   1      43.018  26.890  25.398  1.00  0.00     0.021 A 
ENDBRANCH  76  81
ENDBRANCH  72  74
ENDBRANCH  71  72
ENDBRANCH  70  71
ENDBRANCH   1  70
TORSDOF 12
ENDMDL
MODEL 3
REMARK VINA RESULT:     -11.0      4.663      7.743
REMARK SMILES O=C(OCCOC(=O)[C@@H]1[NH2+]CC[C@H]1c1cccc2cccnc12)c1ccc(-c2c3nc(c(-c4c(F)c(F)c(F)c(F)c4F)c4ccc([nH]4)c(-c4c(F)c(F)c(F)c(F)c4F)c4nc(c(-c5c(F)c(F)c(F)c(F)c5F)c5ccc2[nH]5)C=C4)C=C3)cc1
REMARK SMILES IDX 4 1 3 2 2 3 1 4 24 5 25 6 86 7 26 8 85 9 27 10 28 11 29 12
REMARK SMILES IDX 79 13 30 14 84 15 78 16 80 17 31 18 83 19 77 20 76 21 32 23
REMARK SMILES IDX 64 24 44 25 63 26 45 27 48 28 62 29 81 30 46 31 47 32 61 34
REMARK SMILES IDX 82 35 49 36 33 37 34 38 42 39 35 40 36 41 40 42 43 43 37 44
REMARK SMILES IDX 38 45 41 46 39 47 65 48 66 49 74 50 67 51 68 52 72 53 75 54
REMARK SMILES IDX 69 55 70 56 73 57 71 58 50 59 51 60 59 61 52 62 53 63 57 64
REMARK SMILES IDX 60 65 54 66 55 67 58 68 56 69 5 70 6 71 7 72 8 73 9 74 10 75
REMARK SMILES IDX 13 76 11 77 12 80 14 81 15 82 23 83 16 84 18 85 22 86 17 87
REMARK SMILES IDX 19 88 21 89 20 90
REMARK H PARENT 80 22 48 33 10 78 10 79
REMARK Flexibility Score: inf
ROOT
ATOM      1  C   UNL A   1      41.789  21.353  26.120  1.00  0.00     0.275 C 
ENDROOT
BRANCH   1   2
ATOM      2  O   UNL A   1      42.028  22.518  25.320  1.00  0.00    -0.458 OA
BRANCH   2   3
ATOM      3  C   UNL A   1      42.975  23.470  25.449  1.00  0.00     0.338 C 
ATOM      4  O   UNL A   1      44.029  23.335  24.823  1.00  0.00    -0.246 OA
BRANCH   3   5
ATOM      5  C   UNL A   1      42.878  24.627  26.392  1.00  0.00     0.060 A 
ATOM      6  C   UNL A   1      43.642  25.803  26.388  1.00  0.00     0.016 A 
ATOM      7  C   UNL A   1      41.909  24.489  27.392  1.00  0.00     0.016 A 
ATOM      8  C   UNL A   1      43.367  26.863  27.279  1.00  0.00     0.010 A 
ATOM      9  C   UNL A   1      41.616  25.545  28.253  1.00  0.00     0.010 A 
ATOM     10  C   UNL A   1      42.327  26.757  28.204  1.00  0.00    -0.014 A 
BRANCH  10  11
ATOM     11  C   UNL A   1      41.964  27.807  29.201  1.00  0.00     0.031 A 
ATOM     12  C   UNL A   1      42.507  27.640  30.595  1.00  0.00     0.074 A 
ATOM     13  C   UNL A   1      40.992  28.717  28.976  1.00  0.00     0.049 A 
ATOM     14  N   UNL A   1      42.113  28.179  31.720  1.00  0.00    -0.248 NA
ATOM     15  C   UNL A   1      43.597  26.659  30.743  1.00  0.00     0.031 C 
ATOM     16  C   UNL A   1      40.306  28.949  27.708  1.00  0.00     0.029 A 
ATOM     17  N   UNL A   1      40.314  29.528  29.863  1.00  0.00    -0.354 N 
ATOM     18  C   UNL A   1      42.909  27.597  32.696  1.00  0.00     0.074 A 
ATOM     19  C   UNL A   1      43.670  26.548  32.057  1.00  0.00     0.031 C 
ATOM     20  C   UNL A   1      39.211  29.699  27.924  1.00  0.00     0.029 A 
ATOM     21  C   UNL A   1      39.151  30.052  29.338  1.00  0.00     0.049 A 
ATOM     22  H   UNL A   1      40.629  29.716  30.776  1.00  0.00     0.167 HD
ATOM     23  C   UNL A   1      43.071  27.962  33.989  1.00  0.00     0.037 A 
ATOM     24  C   UNL A   1      38.143  30.718  29.938  1.00  0.00     0.037 A 
ATOM     25  C   UNL A   1      42.340  29.029  34.607  1.00  0.00     0.049 A 
ATOM     26  C   UNL A   1      38.285  31.107  31.385  1.00  0.00     0.074 A 
ATOM     27  C   UNL A   1      42.516  29.601  35.853  1.00  0.00     0.029 A 
ATOM     28  N   UNL A   1      41.276  29.684  34.007  1.00  0.00    -0.354 N 
ATOM     29  N   UNL A   1      39.176  30.716  32.263  1.00  0.00    -0.248 NA
ATOM     30  C   UNL A   1      37.323  32.091  31.907  1.00  0.00     0.031 C 
ATOM     31  C   UNL A   1      41.530  30.581  36.020  1.00  0.00     0.029 A 
ATOM     32  C   UNL A   1      40.768  30.642  34.864  1.00  0.00     0.049 A 
ATOM     33  H   UNL A   1      40.931  29.495  33.104  1.00  0.00     0.167 HD
ATOM     34  C   UNL A   1      38.945  31.475  33.403  1.00  0.00     0.074 A 
ATOM     35  C   UNL A   1      37.795  32.309  33.127  1.00  0.00     0.031 C 
ATOM     36  C   UNL A   1      39.652  31.502  34.559  1.00  0.00     0.037 A 
BRANCH  23  37
ATOM     37  C   UNL A   1      44.130  27.229  34.760  1.00  0.00     0.064 A 
ATOM     38  C   UNL A   1      45.469  27.662  34.735  1.00  0.00     0.173 A 
ATOM     39  C   UNL A   1      43.836  26.050  35.452  1.00  0.00     0.173 A 
ATOM     40  F   UNL A   1      45.804  28.785  34.081  1.00  0.00    -0.203 F 
ATOM     41  C   UNL A   1      46.482  26.892  35.293  1.00  0.00     0.198 A 
ATOM     42  C   UNL A   1      44.850  25.304  36.051  1.00  0.00     0.198 A 
ATOM     43  F   UNL A   1      42.574  25.600  35.523  1.00  0.00    -0.203 F 
ATOM     44  F   UNL A   1      47.761  27.268  35.151  1.00  0.00    -0.200 F 
ATOM     45  C   UNL A   1      46.173  25.712  35.948  1.00  0.00     0.200 A 
ATOM     46  F   UNL A   1      44.551  24.169  36.699  1.00  0.00    -0.200 F 
ATOM     47  F   UNL A   1      47.152  24.956  36.464  1.00  0.00    -0.200 F 
ENDBRANCH  23  37
BRANCH  24  48
ATOM     48  C   UNL A   1      36.944  31.138  29.166  1.00  0.00     0.064 A 
ATOM     49  C   UNL A   1      36.798  32.463  28.733  1.00  0.00     0.173 A 
ATOM     50  C   UNL A   1      35.901  30.243  28.889  1.00  0.00     0.173 A 
ATOM     51  F   UNL A   1      37.758  33.361  29.002  1.00  0.00    -0.203 F 
ATOM     52  C   UNL A   1      35.645  32.886  28.076  1.00  0.00     0.198 A 
ATOM     53  C   UNL A   1      34.752  30.663  28.218  1.00  0.00     0.198 A 
ATOM     54  F   UNL A   1      35.987  28.967  29.290  1.00  0.00    -0.203 F 
ATOM     55  F   UNL A   1      35.512  34.171  27.718  1.00  0.00    -0.200 F 
ATOM     56  C   UNL A   1      34.621  31.985  27.818  1.00  0.00     0.200 A 
ATOM     57  F   UNL A   1      33.761  29.794  27.974  1.00  0.00    -0.200 F 
ATOM     58  F   UNL A   1      33.505  32.397  27.201  1.00  0.00    -0.200 F 
ENDBRANCH  24  48
BRANCH  36  59
ATOM     59  C   UNL A   1      39.290  32.534  35.583  1.00  0.00     0.064 A 
ATOM     60  C   UNL A   1      38.416  32.259  36.641  1.00  0.00     0.173 A 
ATOM     61  C   UNL A   1      39.917  33.791  35.552  1.00  0.00     0.173 A 
ATOM     62  F   UNL A   1      37.780  31.079  36.702  1.00  0.00    -0.203 F 
ATOM     63  C   UNL A   1      38.182  33.206  37.635  1.00  0.00     0.198 A 
ATOM     64  C   UNL A   1      39.701  34.723  36.560  1.00  0.00     0.198 A 
ATOM     65  F   UNL A   1      40.763  34.100  34.557  1.00  0.00    -0.203 F 
ATOM     66  F   UNL A   1      37.327  32.931  38.630  1.00  0.00    -0.200 F 
ATOM     67  C   UNL A   1      38.835  34.430  37.601  1.00  0.00     0.200 A 
ATOM     68  F   UNL A   1      40.344  35.899  36.533  1.00  0.00    -0.200 F 
ATOM     69  F   UNL A   1      38.630  35.326  38.576  1.00  0.00    -0.200 F 
ENDBRANCH  36  59
ENDBRANCH  10  11
ENDBRANCH   3   5
ENDBRANCH   2   3
ENDBRANCH   1   2
BRANCH   1  70
ATOM     70  C   UNL A   1      40.400  21.259  26.751  1.00  0.00     0.274 C 
BRANCH  70  71
ATOM     71  O   UNL A   1      39.312  21.641  25.894  1.00  0.00    -0.458 OA
BRANCH  71  72
ATOM     72  C   UNL A   1      38.569  20.617  25.375  1.00  0.00     0.365 C 
ATOM     73  O   UNL A   1      38.936  19.445  25.376  1.00  0.00    -0.245 OA
BRANCH  72  74
ATOM     74  C   UNL A   1      37.258  21.075  24.674  1.00  0.00     0.301 C 
ATOM     75  N   UNL A   1      37.403  22.479  24.188  1.00  0.00    -0.334 N 
ATOM     76  C   UNL A   1      35.985  21.053  25.552  1.00  0.00     0.097 C 
ATOM     77  C   UNL A   1      36.774  23.335  25.194  1.00  0.00     0.262 C 
ATOM     78  H   UNL A   1      36.935  22.590  23.288  1.00  0.00     0.347 HD
ATOM     79  H   UNL A   1      38.385  22.725  24.056  1.00  0.00     0.347 HD
ATOM     80  C   UNL A   1      36.140  22.420  26.215  1.00  0.00     0.076 C 
BRANCH  76  81
ATOM     81  C   UNL A   1      34.629  20.780  24.854  1.00  0.00    -0.012 A 
ATOM     82  C   UNL A   1      33.835  21.890  24.488  1.00  0.00     0.006 A 
ATOM     83  C   UNL A   1      34.202  19.484  24.438  1.00  0.00     0.074 A 
ATOM     84  C   UNL A   1      32.617  21.738  23.831  1.00  0.00     0.001 A 
ATOM     85  C   UNL A   1      32.952  19.352  23.781  1.00  0.00     0.000 A 
ATOM     86  N   UNL A   1      34.944  18.372  24.623  1.00  0.00    -0.256 NA
ATOM     87  C   UNL A   1      32.168  20.472  23.494  1.00  0.00     0.010 A 
ATOM     88  C   UNL A   1      32.495  18.081  23.391  1.00  0.00     0.012 A 
ATOM     89  C   UNL A   1      34.476  17.156  24.249  1.00  0.00     0.112 A 
ATOM     90  C   UNL A   1      33.265  16.958  23.636  1.00  0.00     0.021 A 
ENDBRANCH  76  81
ENDBRANCH  72  74
ENDBRANCH  71  72
ENDBRANCH  70  71
ENDBRANCH   1  70
TORSDOF 12
ENDMDL
