MODEL 1
REMARK VINA RESULT:     -12.0      0.000      0.000
REMARK SMILES Cc1ccc2c(c1)c(-c1ccnc3c(C)cccc13)c(C)n2CC(=O)OCCOC(=O)c1ccc(-c2c3nc(c(-c4c(F)c(F)c(F)c(F)c4F)c4ccc([nH]4)c(-c4c(F)c(F)c(F)c(F)c4F)c4nc(c(-c5c(F)c(F)c(F)c(F)c5F)c5ccc2[nH]5)C=C4)C=C3)cc1
REMARK SMILES IDX 27 1 26 2 24 3 25 4 23 5 22 6 1 7 2 8 3 9 7 10 4 11 6 12
REMARK SMILES IDX 5 13 8 14 20 15 21 16 9 17 10 18 19 19 11 20 13 21 18 22
REMARK SMILES IDX 12 23 14 24 17 25 15 26 16 27 28 28 29 29 30 30 31 31 32 32
REMARK SMILES IDX 33 33 94 34 34 35 93 36 35 37 36 38 37 39 87 40 38 41 92 42
REMARK SMILES IDX 86 43 88 44 39 45 91 46 85 47 84 48 40 50 72 51 52 52 71 53
REMARK SMILES IDX 53 54 56 55 70 56 89 57 54 58 55 59 69 61 90 62 57 63 41 64
REMARK SMILES IDX 42 65 50 66 43 67 44 68 48 69 51 70 45 71 46 72 49 73 47 74
REMARK SMILES IDX 73 75 74 76 82 77 75 78 76 79 80 80 83 81 77 82 78 83 81 84
REMARK SMILES IDX 79 85 58 86 59 87 67 88 60 89 61 90 65 91 68 92 62 93 63 94
REMARK SMILES IDX 66 95 64 96
REMARK H PARENT 88 49 56 60
REMARK Flexibility Score: inf
ROOT
ATOM      1  C   UNL A   1      42.273  19.980  26.686  1.00  0.00     0.274 C 
ENDROOT
BRANCH   1   2
ATOM      2  O   UNL A   1      42.336  20.612  25.379  1.00  0.00    -0.461 OA
BRANCH   2   3
ATOM      3  C   UNL A   1      43.178  21.669  25.270  1.00  0.00     0.326 C 
ATOM      4  O   UNL A   1      43.027  22.576  24.452  1.00  0.00    -0.250 OA
BRANCH   3   5
ATOM      5  C   UNL A   1      44.340  21.711  26.230  1.00  0.00     0.244 C 
BRANCH   5   6
ATOM      6  N   UNL A   1      44.976  22.977  26.570  1.00  0.00    -0.333 N 
ATOM      7  C   UNL A   1      45.338  25.651  31.522  1.00  0.00     0.044 C 
ATOM      8  C   UNL A   1      45.172  24.922  30.225  1.00  0.00    -0.050 A 
ATOM      9  C   UNL A   1      44.535  23.682  30.219  1.00  0.00     0.005 A 
ATOM     10  C   UNL A   1      45.691  25.452  29.032  1.00  0.00     0.014 A 
ATOM     11  C   UNL A   1      44.390  22.952  29.044  1.00  0.00     0.027 A 
ATOM     12  C   UNL A   1      45.599  24.709  27.841  1.00  0.00     0.008 A 
ATOM     13  C   UNL A   1      44.937  23.481  27.864  1.00  0.00     0.049 A 
ATOM     14  C   UNL A   1      46.074  24.896  26.517  1.00  0.00     0.011 A 
ATOM     15  C   UNL A   1      45.936  23.683  25.865  1.00  0.00     0.024 A 
ATOM     16  C   UNL A   1      46.681  23.247  24.655  1.00  0.00     0.065 C 
BRANCH  14  17
ATOM     17  C   UNL A   1      46.765  26.018  25.899  1.00  0.00    -0.005 A 
ATOM     18  C   UNL A   1      46.028  26.966  25.199  1.00  0.00     0.029 A 
ATOM     19  C   UNL A   1      48.168  26.172  26.070  1.00  0.00     0.008 A 
ATOM     20  C   UNL A   1      46.715  28.030  24.662  1.00  0.00     0.112 A 
ATOM     21  C   UNL A   1      48.779  27.282  25.447  1.00  0.00     0.074 A 
ATOM     22  C   UNL A   1      48.965  25.277  26.829  1.00  0.00     0.011 A 
ATOM     23  N   UNL A   1      48.052  28.189  24.758  1.00  0.00    -0.256 NA
ATOM     24  C   UNL A   1      50.170  27.428  25.565  1.00  0.00    -0.025 A 
ATOM     25  C   UNL A   1      50.335  25.453  26.961  1.00  0.00     0.001 A 
ATOM     26  C   UNL A   1      50.905  28.540  24.865  1.00  0.00     0.047 C 
ATOM     27  C   UNL A   1      50.938  26.519  26.317  1.00  0.00     0.005 A 
ENDBRANCH  14  17
ENDBRANCH   5   6
ENDBRANCH   3   5
ENDBRANCH   2   3
ENDBRANCH   1   2
BRANCH   1  28
ATOM     28  C   UNL A   1      40.959  20.309  27.404  1.00  0.00     0.275 C 
BRANCH  28  29
ATOM     29  O   UNL A   1      40.913  21.722  27.668  1.00  0.00    -0.458 OA
BRANCH  29  30
ATOM     30  C   UNL A   1      40.062  22.439  26.900  1.00  0.00     0.338 C 
ATOM     31  O   UNL A   1      39.020  22.059  26.390  1.00  0.00    -0.246 OA
BRANCH  30  32
ATOM     32  C   UNL A   1      40.380  23.851  27.173  1.00  0.00     0.060 A 
ATOM     33  C   UNL A   1      41.474  24.282  27.910  1.00  0.00     0.016 A 
ATOM     34  C   UNL A   1      39.376  24.749  26.835  1.00  0.00     0.016 A 
ATOM     35  C   UNL A   1      41.474  25.589  28.403  1.00  0.00     0.010 A 
ATOM     36  C   UNL A   1      39.341  26.024  27.366  1.00  0.00     0.010 A 
ATOM     37  C   UNL A   1      40.365  26.431  28.201  1.00  0.00    -0.014 A 
BRANCH  37  38
ATOM     38  C   UNL A   1      40.426  27.845  28.546  1.00  0.00     0.031 A 
ATOM     39  C   UNL A   1      41.604  28.480  27.920  1.00  0.00     0.074 A 
ATOM     40  C   UNL A   1      39.538  28.613  29.208  1.00  0.00     0.049 A 
ATOM     41  N   UNL A   1      42.751  28.639  28.484  1.00  0.00    -0.248 NA
ATOM     42  C   UNL A   1      41.588  28.783  26.482  1.00  0.00     0.031 C 
ATOM     43  C   UNL A   1      38.153  28.326  29.576  1.00  0.00     0.029 A 
ATOM     44  N   UNL A   1      39.726  29.891  29.671  1.00  0.00    -0.354 N 
ATOM     45  C   UNL A   1      43.546  29.264  27.536  1.00  0.00     0.074 A 
ATOM     46  C   UNL A   1      42.863  29.126  26.280  1.00  0.00     0.031 C 
ATOM     47  C   UNL A   1      37.575  29.453  30.069  1.00  0.00     0.029 A 
ATOM     48  C   UNL A   1      38.590  30.491  30.205  1.00  0.00     0.049 A 
ATOM     49  H   UNL A   1      40.597  30.348  29.629  1.00  0.00     0.167 HD
ATOM     50  C   UNL A   1      44.548  30.088  27.942  1.00  0.00     0.037 A 
ATOM     51  C   UNL A   1      38.513  31.738  30.738  1.00  0.00     0.037 A 
ATOM     52  C   UNL A   1      44.763  29.956  29.364  1.00  0.00     0.049 A 
ATOM     53  C   UNL A   1      39.874  32.114  31.188  1.00  0.00     0.074 A 
ATOM     54  C   UNL A   1      45.348  29.039  30.209  1.00  0.00     0.029 A 
ATOM     55  N   UNL A   1      43.929  30.735  30.121  1.00  0.00    -0.354 N 
ATOM     56  N   UNL A   1      40.477  31.565  32.204  1.00  0.00    -0.248 NA
ATOM     57  C   UNL A   1      40.711  32.965  30.347  1.00  0.00     0.031 C 
ATOM     58  C   UNL A   1      44.721  29.208  31.482  1.00  0.00     0.029 A 
ATOM     59  C   UNL A   1      43.785  30.234  31.387  1.00  0.00     0.049 A 
ATOM     60  H   UNL A   1      43.490  31.553  29.795  1.00  0.00     0.167 HD
ATOM     61  C   UNL A   1      41.814  31.640  31.880  1.00  0.00     0.074 A 
ATOM     62  C   UNL A   1      41.909  32.671  30.857  1.00  0.00     0.031 C 
ATOM     63  C   UNL A   1      42.661  30.626  32.207  1.00  0.00     0.037 A 
BRANCH  50  64
ATOM     64  C   UNL A   1      45.004  31.328  27.211  1.00  0.00     0.064 A 
ATOM     65  C   UNL A   1      46.365  31.433  26.855  1.00  0.00     0.173 A 
ATOM     66  C   UNL A   1      44.259  32.523  27.115  1.00  0.00     0.173 A 
ATOM     67  F   UNL A   1      47.177  30.367  26.929  1.00  0.00    -0.203 F 
ATOM     68  C   UNL A   1      46.946  32.653  26.501  1.00  0.00     0.198 A 
ATOM     69  C   UNL A   1      44.831  33.728  26.707  1.00  0.00     0.198 A 
ATOM     70  F   UNL A   1      42.988  32.611  27.518  1.00  0.00    -0.203 F 
ATOM     71  F   UNL A   1      48.268  32.725  26.292  1.00  0.00    -0.200 F 
ATOM     72  C   UNL A   1      46.179  33.800  26.429  1.00  0.00     0.200 A 
ATOM     73  F   UNL A   1      44.074  34.834  26.668  1.00  0.00    -0.200 F 
ATOM     74  F   UNL A   1      46.742  34.980  26.141  1.00  0.00    -0.200 F 
ENDBRANCH  50  64
BRANCH  51  75
ATOM     75  C   UNL A   1      37.407  32.722  30.843  1.00  0.00     0.064 A 
ATOM     76  C   UNL A   1      37.013  33.486  29.725  1.00  0.00     0.173 A 
ATOM     77  C   UNL A   1      36.507  32.682  31.920  1.00  0.00     0.173 A 
ATOM     78  F   UNL A   1      37.803  33.568  28.645  1.00  0.00    -0.203 F 
ATOM     79  C   UNL A   1      35.760  34.101  29.656  1.00  0.00     0.198 A 
ATOM     80  C   UNL A   1      35.257  33.306  31.852  1.00  0.00     0.198 A 
ATOM     81  F   UNL A   1      36.779  31.951  33.010  1.00  0.00    -0.203 F 
ATOM     82  F   UNL A   1      35.387  34.734  28.534  1.00  0.00    -0.200 F 
ATOM     83  C   UNL A   1      34.874  33.992  30.712  1.00  0.00     0.200 A 
ATOM     84  F   UNL A   1      34.392  33.175  32.869  1.00  0.00    -0.200 F 
ATOM     85  F   UNL A   1      33.640  34.508  30.613  1.00  0.00    -0.200 F 
ENDBRANCH  51  75
BRANCH  63  86
ATOM     86  C   UNL A   1      42.296  29.774  33.383  1.00  0.00     0.064 A 
ATOM     87  C   UNL A   1      41.693  28.509  33.300  1.00  0.00     0.173 A 
ATOM     88  C   UNL A   1      42.639  30.248  34.657  1.00  0.00     0.173 A 
ATOM     89  F   UNL A   1      41.396  27.959  32.114  1.00  0.00    -0.203 F 
ATOM     90  C   UNL A   1      41.422  27.768  34.450  1.00  0.00     0.198 A 
ATOM     91  C   UNL A   1      42.404  29.490  35.798  1.00  0.00     0.198 A 
ATOM     92  F   UNL A   1      43.239  31.442  34.791  1.00  0.00    -0.203 F 
ATOM     93  F   UNL A   1      40.828  26.569  34.353  1.00  0.00    -0.200 F 
ATOM     94  C   UNL A   1      41.787  28.255  35.696  1.00  0.00     0.200 A 
ATOM     95  F   UNL A   1      42.794  29.950  36.994  1.00  0.00    -0.200 F 
ATOM     96  F   UNL A   1      41.565  27.523  36.797  1.00  0.00    -0.200 F 
ENDBRANCH  63  86
ENDBRANCH  37  38
ENDBRANCH  30  32
ENDBRANCH  29  30
ENDBRANCH  28  29
ENDBRANCH   1  28
TORSDOF 13
ENDMDL
MODEL 2
REMARK VINA RESULT:     -11.6      4.144      7.853
REMARK SMILES Cc1ccc2c(c1)c(-c1ccnc3c(C)cccc13)c(C)n2CC(=O)OCCOC(=O)c1ccc(-c2c3nc(c(-c4c(F)c(F)c(F)c(F)c4F)c4ccc([nH]4)c(-c4c(F)c(F)c(F)c(F)c4F)c4nc(c(-c5c(F)c(F)c(F)c(F)c5F)c5ccc2[nH]5)C=C4)C=C3)cc1
REMARK SMILES IDX 27 1 26 2 24 3 25 4 23 5 22 6 1 7 2 8 3 9 7 10 4 11 6 12
REMARK SMILES IDX 5 13 8 14 20 15 21 16 9 17 10 18 19 19 11 20 13 21 18 22
REMARK SMILES IDX 12 23 14 24 17 25 15 26 16 27 28 28 29 29 30 30 31 31 32 32
REMARK SMILES IDX 33 33 94 34 34 35 93 36 35 37 36 38 37 39 87 40 38 41 92 42
REMARK SMILES IDX 86 43 88 44 39 45 91 46 85 47 84 48 40 50 72 51 52 52 71 53
REMARK SMILES IDX 53 54 56 55 70 56 89 57 54 58 55 59 69 61 90 62 57 63 41 64
REMARK SMILES IDX 42 65 50 66 43 67 44 68 48 69 51 70 45 71 46 72 49 73 47 74
REMARK SMILES IDX 73 75 74 76 82 77 75 78 76 79 80 80 83 81 77 82 78 83 81 84
REMARK SMILES IDX 79 85 58 86 59 87 67 88 60 89 61 90 65 91 68 92 62 93 63 94
REMARK SMILES IDX 66 95 64 96
REMARK H PARENT 88 49 56 60
REMARK Flexibility Score: inf
ROOT
ATOM      1  C   UNL A   1      36.424  21.641  25.335  1.00  0.00     0.274 C 
ENDROOT
BRANCH   1   2
ATOM      2  O   UNL A   1      35.913  22.900  24.820  1.00  0.00    -0.461 OA
BRANCH   2   3
ATOM      3  C   UNL A   1      35.753  22.971  23.476  1.00  0.00     0.326 C 
ATOM      4  O   UNL A   1      36.691  22.975  22.679  1.00  0.00    -0.250 OA
BRANCH   3   5
ATOM      5  C   UNL A   1      34.336  23.032  22.965  1.00  0.00     0.244 C 
BRANCH   5   6
ATOM      6  N   UNL A   1      33.349  23.888  23.611  1.00  0.00    -0.333 N 
ATOM      7  C   UNL A   1      29.428  22.646  27.468  1.00  0.00     0.044 C 
ATOM      8  C   UNL A   1      30.454  22.911  26.411  1.00  0.00    -0.050 A 
ATOM      9  C   UNL A   1      31.301  21.877  26.012  1.00  0.00     0.005 A 
ATOM     10  C   UNL A   1      30.600  24.193  25.857  1.00  0.00     0.014 A 
ATOM     11  C   UNL A   1      32.293  22.085  25.059  1.00  0.00     0.027 A 
ATOM     12  C   UNL A   1      31.628  24.439  24.928  1.00  0.00     0.008 A 
ATOM     13  C   UNL A   1      32.445  23.378  24.534  1.00  0.00     0.049 A 
ATOM     14  C   UNL A   1      32.100  25.595  24.257  1.00  0.00     0.011 A 
ATOM     15  C   UNL A   1      33.330  25.269  23.710  1.00  0.00     0.024 A 
ATOM     16  C   UNL A   1      34.398  26.225  23.319  1.00  0.00     0.065 C 
BRANCH  14  17
ATOM     17  C   UNL A   1      31.595  26.959  24.231  1.00  0.00    -0.005 A 
ATOM     18  C   UNL A   1      30.722  27.340  23.217  1.00  0.00     0.029 A 
ATOM     19  C   UNL A   1      31.939  27.867  25.268  1.00  0.00     0.008 A 
ATOM     20  C   UNL A   1      30.238  28.627  23.250  1.00  0.00     0.112 A 
ATOM     21  C   UNL A   1      31.414  29.175  25.187  1.00  0.00     0.074 A 
ATOM     22  C   UNL A   1      32.769  27.520  26.365  1.00  0.00     0.011 A 
ATOM     23  N   UNL A   1      30.578  29.536  24.189  1.00  0.00    -0.256 NA
ATOM     24  C   UNL A   1      31.779  30.101  26.178  1.00  0.00    -0.025 A 
ATOM     25  C   UNL A   1      33.094  28.439  27.353  1.00  0.00     0.001 A 
ATOM     26  C   UNL A   1      31.324  31.535  26.117  1.00  0.00     0.047 C 
ATOM     27  C   UNL A   1      32.611  29.732  27.251  1.00  0.00     0.005 A 
ENDBRANCH  14  17
ENDBRANCH   5   6
ENDBRANCH   3   5
ENDBRANCH   2   3
ENDBRANCH   1   2
BRANCH   1  28
ATOM     28  C   UNL A   1      37.956  21.646  25.405  1.00  0.00     0.275 C 
BRANCH  28  29
ATOM     29  O   UNL A   1      38.379  22.702  26.285  1.00  0.00    -0.458 OA
BRANCH  29  30
ATOM     30  C   UNL A   1      39.653  22.622  26.732  1.00  0.00     0.338 C 
ATOM     31  O   UNL A   1      40.456  21.725  26.533  1.00  0.00    -0.246 OA
BRANCH  30  32
ATOM     32  C   UNL A   1      40.027  23.998  27.101  1.00  0.00     0.060 A 
ATOM     33  C   UNL A   1      41.157  24.336  27.831  1.00  0.00     0.016 A 
ATOM     34  C   UNL A   1      39.043  24.950  26.867  1.00  0.00     0.016 A 
ATOM     35  C   UNL A   1      41.217  25.601  28.422  1.00  0.00     0.010 A 
ATOM     36  C   UNL A   1      39.068  26.180  27.494  1.00  0.00     0.010 A 
ATOM     37  C   UNL A   1      40.131  26.490  28.322  1.00  0.00    -0.014 A 
BRANCH  37  38
ATOM     38  C   UNL A   1      40.250  27.870  28.772  1.00  0.00     0.031 A 
ATOM     39  C   UNL A   1      41.398  28.531  28.117  1.00  0.00     0.074 A 
ATOM     40  C   UNL A   1      39.429  28.600  29.552  1.00  0.00     0.049 A 
ATOM     41  N   UNL A   1      42.584  28.622  28.609  1.00  0.00    -0.248 NA
ATOM     42  C   UNL A   1      41.291  28.948  26.711  1.00  0.00     0.031 C 
ATOM     43  C   UNL A   1      38.066  28.312  29.993  1.00  0.00     0.029 A 
ATOM     44  N   UNL A   1      39.679  29.834  30.100  1.00  0.00    -0.354 N 
ATOM     45  C   UNL A   1      43.328  29.305  27.660  1.00  0.00     0.074 A 
ATOM     46  C   UNL A   1      42.557  29.281  26.448  1.00  0.00     0.031 C 
ATOM     47  C   UNL A   1      37.551  29.406  30.612  1.00  0.00     0.029 A 
ATOM     48  C   UNL A   1      38.598  30.410  30.758  1.00  0.00     0.049 A 
ATOM     49  H   UNL A   1      40.557  30.276  30.033  1.00  0.00     0.167 HD
ATOM     50  C   UNL A   1      44.375  30.075  28.058  1.00  0.00     0.037 A 
ATOM     51  C   UNL A   1      38.588  31.612  31.390  1.00  0.00     0.037 A 
ATOM     52  C   UNL A   1      44.684  29.826  29.446  1.00  0.00     0.049 A 
ATOM     53  C   UNL A   1      39.986  31.925  31.772  1.00  0.00     0.074 A 
ATOM     54  C   UNL A   1      45.302  28.834  30.174  1.00  0.00     0.029 A 
ATOM     55  N   UNL A   1      43.924  30.558  30.319  1.00  0.00    -0.354 N 
ATOM     56  N   UNL A   1      40.644  31.285  32.697  1.00  0.00    -0.248 NA
ATOM     57  C   UNL A   1      40.784  32.824  30.943  1.00  0.00     0.031 C 
ATOM     58  C   UNL A   1      44.769  28.912  31.497  1.00  0.00     0.029 A 
ATOM     59  C   UNL A   1      43.854  29.961  31.548  1.00  0.00     0.049 A 
ATOM     60  H   UNL A   1      43.483  31.407  30.090  1.00  0.00     0.167 HD
ATOM     61  C   UNL A   1      41.956  31.360  32.287  1.00  0.00     0.074 A 
ATOM     62  C   UNL A   1      42.006  32.467  31.343  1.00  0.00     0.031 C 
ATOM     63  C   UNL A   1      42.798  30.307  32.474  1.00  0.00     0.037 A 
BRANCH  50  64
ATOM     64  C   UNL A   1      44.811  31.360  27.396  1.00  0.00     0.064 A 
ATOM     65  C   UNL A   1      46.108  31.424  26.844  1.00  0.00     0.173 A 
ATOM     66  C   UNL A   1      44.154  32.601  27.541  1.00  0.00     0.173 A 
ATOM     67  F   UNL A   1      46.837  30.310  26.680  1.00  0.00    -0.203 F 
ATOM     68  C   UNL A   1      46.721  32.639  26.531  1.00  0.00     0.198 A 
ATOM     69  C   UNL A   1      44.749  33.808  27.174  1.00  0.00     0.198 A 
ATOM     70  F   UNL A   1      42.967  32.719  28.145  1.00  0.00    -0.203 F 
ATOM     71  F   UNL A   1      47.998  32.655  26.126  1.00  0.00    -0.200 F 
ATOM     72  C   UNL A   1      46.042  33.830  26.698  1.00  0.00     0.200 A 
ATOM     73  F   UNL A   1      44.082  34.955  27.368  1.00  0.00    -0.200 F 
ATOM     74  F   UNL A   1      46.645  35.000  26.449  1.00  0.00    -0.200 F 
ENDBRANCH  50  64
BRANCH  51  75
ATOM     75  C   UNL A   1      37.517  32.606  31.650  1.00  0.00     0.064 A 
ATOM     76  C   UNL A   1      36.946  33.343  30.591  1.00  0.00     0.173 A 
ATOM     77  C   UNL A   1      36.805  32.600  32.861  1.00  0.00     0.173 A 
ATOM     78  F   UNL A   1      37.548  33.392  29.395  1.00  0.00    -0.203 F 
ATOM     79  C   UNL A   1      35.700  33.964  30.713  1.00  0.00     0.198 A 
ATOM     80  C   UNL A   1      35.563  33.230  32.982  1.00  0.00     0.198 A 
ATOM     81  F   UNL A   1      37.251  31.895  33.910  1.00  0.00    -0.203 F 
ATOM     82  F   UNL A   1      35.149  34.571  29.651  1.00  0.00    -0.200 F 
ATOM     83  C   UNL A   1      34.999  33.889  31.902  1.00  0.00     0.200 A 
ATOM     84  F   UNL A   1      34.877  33.130  34.129  1.00  0.00    -0.200 F 
ATOM     85  F   UNL A   1      33.767  34.409  31.994  1.00  0.00    -0.200 F 
ENDBRANCH  51  75
BRANCH  63  86
ATOM     86  C   UNL A   1      42.494  29.371  33.602  1.00  0.00     0.064 A 
ATOM     87  C   UNL A   1      41.727  28.201  33.487  1.00  0.00     0.173 A 
ATOM     88  C   UNL A   1      43.068  29.653  34.849  1.00  0.00     0.173 A 
ATOM     89  F   UNL A   1      41.200  27.829  32.313  1.00  0.00    -0.203 F 
ATOM     90  C   UNL A   1      41.526  27.367  34.587  1.00  0.00     0.198 A 
ATOM     91  C   UNL A   1      42.898  28.799  35.932  1.00  0.00     0.198 A 
ATOM     92  F   UNL A   1      43.830  30.747  35.007  1.00  0.00    -0.203 F 
ATOM     93  F   UNL A   1      40.774  26.262  34.464  1.00  0.00    -0.200 F 
ATOM     94  C   UNL A   1      42.120  27.661  35.805  1.00  0.00     0.200 A 
ATOM     95  F   UNL A   1      43.507  29.070  37.095  1.00  0.00    -0.200 F 
ATOM     96  F   UNL A   1      41.961  26.837  36.849  1.00  0.00    -0.200 F 
ENDBRANCH  63  86
ENDBRANCH  37  38
ENDBRANCH  30  32
ENDBRANCH  29  30
ENDBRANCH  28  29
ENDBRANCH   1  28
TORSDOF 13
ENDMDL
MODEL 3
REMARK VINA RESULT:     -11.5      3.924      7.634
REMARK SMILES Cc1ccc2c(c1)c(-c1ccnc3c(C)cccc13)c(C)n2CC(=O)OCCOC(=O)c1ccc(-c2c3nc(c(-c4c(F)c(F)c(F)c(F)c4F)c4ccc([nH]4)c(-c4c(F)c(F)c(F)c(F)c4F)c4nc(c(-c5c(F)c(F)c(F)c(F)c5F)c5ccc2[nH]5)C=C4)C=C3)cc1
REMARK SMILES IDX 27 1 26 2 24 3 25 4 23 5 22 6 1 7 2 8 3 9 7 10 4 11 6 12
REMARK SMILES IDX 5 13 8 14 20 15 21 16 9 17 10 18 19 19 11 20 13 21 18 22
REMARK SMILES IDX 12 23 14 24 17 25 15 26 16 27 28 28 29 29 30 30 31 31 32 32
REMARK SMILES IDX 33 33 94 34 34 35 93 36 35 37 36 38 37 39 87 40 38 41 92 42
REMARK SMILES IDX 86 43 88 44 39 45 91 46 85 47 84 48 40 50 72 51 52 52 71 53
REMARK SMILES IDX 53 54 56 55 70 56 89 57 54 58 55 59 69 61 90 62 57 63 41 64
REMARK SMILES IDX 42 65 50 66 43 67 44 68 48 69 51 70 45 71 46 72 49 73 47 74
REMARK SMILES IDX 73 75 74 76 82 77 75 78 76 79 80 80 83 81 77 82 78 83 81 84
REMARK SMILES IDX 79 85 58 86 59 87 67 88 60 89 61 90 65 91 68 92 62 93 63 94
REMARK SMILES IDX 66 95 64 96
REMARK H PARENT 88 49 56 60
REMARK Flexibility Score: inf
ROOT
ATOM      1  C   UNL A   1      40.422  20.618  26.819  1.00  0.00     0.274 C 
ENDROOT
BRANCH   1   2
ATOM      2  O   UNL A   1      39.331  20.526  25.864  1.00  0.00    -0.461 OA
BRANCH   2   3
ATOM      3  C   UNL A   1      38.556  21.631  25.739  1.00  0.00     0.326 C 
ATOM      4  O   UNL A   1      38.621  22.597  26.498  1.00  0.00    -0.250 OA
BRANCH   3   5
ATOM      5  C   UNL A   1      37.584  21.649  24.586  1.00  0.00     0.244 C 
BRANCH   5   6
ATOM      6  N   UNL A   1      36.150  21.539  24.822  1.00  0.00    -0.333 N 
ATOM      7  C   UNL A   1      32.824  16.987  24.951  1.00  0.00     0.044 C 
ATOM      8  C   UNL A   1      33.743  18.165  24.860  1.00  0.00    -0.050 A 
ATOM      9  C   UNL A   1      35.106  17.949  24.659  1.00  0.00     0.005 A 
ATOM     10  C   UNL A   1      33.254  19.471  25.021  1.00  0.00     0.014 A 
ATOM     11  C   UNL A   1      36.004  19.011  24.603  1.00  0.00     0.027 A 
ATOM     12  C   UNL A   1      34.150  20.557  25.017  1.00  0.00     0.008 A 
ATOM     13  C   UNL A   1      35.505  20.309  24.793  1.00  0.00     0.049 A 
ATOM     14  C   UNL A   1      34.016  21.953  25.229  1.00  0.00     0.011 A 
ATOM     15  C   UNL A   1      35.293  22.458  25.404  1.00  0.00     0.024 A 
ATOM     16  C   UNL A   1      35.648  23.730  26.084  1.00  0.00     0.065 C 
BRANCH  14  17
ATOM     17  C   UNL A   1      32.836  22.779  25.437  1.00  0.00    -0.005 A 
ATOM     18  C   UNL A   1      32.177  22.724  26.661  1.00  0.00     0.029 A 
ATOM     19  C   UNL A   1      32.408  23.678  24.424  1.00  0.00     0.008 A 
ATOM     20  C   UNL A   1      31.089  23.549  26.829  1.00  0.00     0.112 A 
ATOM     21  C   UNL A   1      31.258  24.454  24.688  1.00  0.00     0.074 A 
ATOM     22  C   UNL A   1      33.077  23.830  23.181  1.00  0.00     0.011 A 
ATOM     23  N   UNL A   1      30.619  24.381  25.876  1.00  0.00    -0.256 NA
ATOM     24  C   UNL A   1      30.791  25.315  23.681  1.00  0.00    -0.025 A 
ATOM     25  C   UNL A   1      32.619  24.709  22.210  1.00  0.00     0.001 A 
ATOM     26  C   UNL A   1      29.529  26.115  23.857  1.00  0.00     0.047 C 
ATOM     27  C   UNL A   1      31.470  25.439  22.455  1.00  0.00     0.005 A 
ENDBRANCH  14  17
ENDBRANCH   5   6
ENDBRANCH   3   5
ENDBRANCH   2   3
ENDBRANCH   1   2
BRANCH   1  28
ATOM     28  C   UNL A   1      41.742  20.979  26.128  1.00  0.00     0.275 C 
BRANCH  28  29
ATOM     29  O   UNL A   1      41.905  22.408  26.149  1.00  0.00    -0.458 OA
BRANCH  29  30
ATOM     30  C   UNL A   1      42.604  22.906  27.194  1.00  0.00     0.338 C 
ATOM     31  O   UNL A   1      43.713  22.570  27.576  1.00  0.00    -0.246 OA
BRANCH  30  32
ATOM     32  C   UNL A   1      41.990  24.212  27.489  1.00  0.00     0.060 A 
ATOM     33  C   UNL A   1      41.236  24.948  26.586  1.00  0.00     0.016 A 
ATOM     34  C   UNL A   1      42.403  24.793  28.681  1.00  0.00     0.016 A 
ATOM     35  C   UNL A   1      41.017  26.304  26.847  1.00  0.00     0.010 A 
ATOM     36  C   UNL A   1      42.241  26.144  28.919  1.00  0.00     0.010 A 
ATOM     37  C   UNL A   1      41.595  26.918  27.973  1.00  0.00    -0.014 A 
BRANCH  37  38
ATOM     38  C   UNL A   1      41.228  28.275  28.356  1.00  0.00     0.031 A 
ATOM     39  C   UNL A   1      42.252  29.236  27.899  1.00  0.00     0.074 A 
ATOM     40  C   UNL A   1      40.094  28.739  28.917  1.00  0.00     0.049 A 
ATOM     41  N   UNL A   1      43.239  29.664  28.606  1.00  0.00    -0.248 NA
ATOM     42  C   UNL A   1      42.321  29.605  26.477  1.00  0.00     0.031 C 
ATOM     43  C   UNL A   1      38.807  28.072  29.100  1.00  0.00     0.029 A 
ATOM     44  N   UNL A   1      39.871  29.993  29.430  1.00  0.00    -0.354 N 
ATOM     45  C   UNL A   1      43.939  30.531  27.782  1.00  0.00     0.074 A 
ATOM     46  C   UNL A   1      43.469  30.287  26.446  1.00  0.00     0.031 C 
ATOM     47  C   UNL A   1      37.891  28.974  29.541  1.00  0.00     0.029 A 
ATOM     48  C   UNL A   1      38.562  30.236  29.829  1.00  0.00     0.049 A 
ATOM     49  H   UNL A   1      40.584  30.668  29.508  1.00  0.00     0.167 HD
ATOM     50  C   UNL A   1      44.624  31.569  28.330  1.00  0.00     0.037 A 
ATOM     51  C   UNL A   1      38.086  31.385  30.376  1.00  0.00     0.037 A 
ATOM     52  C   UNL A   1      44.701  31.420  29.764  1.00  0.00     0.049 A 
ATOM     53  C   UNL A   1      39.232  32.086  31.004  1.00  0.00     0.074 A 
ATOM     54  C   UNL A   1      45.411  30.647  30.656  1.00  0.00     0.029 A 
ATOM     55  N   UNL A   1      43.605  31.904  30.428  1.00  0.00    -0.354 N 
ATOM     56  N   UNL A   1      39.841  31.661  32.074  1.00  0.00    -0.248 NA
ATOM     57  C   UNL A   1      39.897  33.175  30.295  1.00  0.00     0.031 C 
ATOM     58  C   UNL A   1      44.620  30.570  31.842  1.00  0.00     0.029 A 
ATOM     59  C   UNL A   1      43.457  31.312  31.653  1.00  0.00     0.049 A 
ATOM     60  H   UNL A   1      43.000  32.591  30.067  1.00  0.00     0.167 HD
ATOM     61  C   UNL A   1      41.134  32.109  31.924  1.00  0.00     0.074 A 
ATOM     62  C   UNL A   1      41.063  33.184  30.945  1.00  0.00     0.031 C 
ATOM     63  C   UNL A   1      42.181  31.342  32.333  1.00  0.00     0.037 A 
BRANCH  50  64
ATOM     64  C   UNL A   1      44.807  32.925  27.691  1.00  0.00     0.064 A 
ATOM     65  C   UNL A   1      46.071  33.248  27.154  1.00  0.00     0.173 A 
ATOM     66  C   UNL A   1      43.921  34.013  27.847  1.00  0.00     0.173 A 
ATOM     67  F   UNL A   1      47.004  32.299  26.981  1.00  0.00    -0.203 F 
ATOM     68  C   UNL A   1      46.439  34.564  26.865  1.00  0.00     0.198 A 
ATOM     69  C   UNL A   1      44.273  35.318  27.504  1.00  0.00     0.198 A 
ATOM     70  F   UNL A   1      42.729  33.888  28.441  1.00  0.00    -0.203 F 
ATOM     71  F   UNL A   1      47.692  34.833  26.473  1.00  0.00    -0.200 F 
ATOM     72  C   UNL A   1      45.540  35.598  27.042  1.00  0.00     0.200 A 
ATOM     73  F   UNL A   1      43.394  36.310  27.708  1.00  0.00    -0.200 F 
ATOM     74  F   UNL A   1      45.906  36.866  26.816  1.00  0.00    -0.200 F 
ENDBRANCH  50  64
BRANCH  51  75
ATOM     75  C   UNL A   1      36.750  32.030  30.363  1.00  0.00     0.064 A 
ATOM     76  C   UNL A   1      35.892  31.931  31.478  1.00  0.00     0.173 A 
ATOM     77  C   UNL A   1      36.437  33.023  29.421  1.00  0.00     0.173 A 
ATOM     78  F   UNL A   1      36.122  31.021  32.435  1.00  0.00    -0.203 F 
ATOM     79  C   UNL A   1      34.837  32.826  31.679  1.00  0.00     0.198 A 
ATOM     80  C   UNL A   1      35.376  33.912  29.621  1.00  0.00     0.198 A 
ATOM     81  F   UNL A   1      37.218  33.217  28.349  1.00  0.00    -0.203 F 
ATOM     82  F   UNL A   1      34.107  32.758  32.802  1.00  0.00    -0.200 F 
ATOM     83  C   UNL A   1      34.594  33.830  30.760  1.00  0.00     0.200 A 
ATOM     84  F   UNL A   1      35.162  34.899  28.739  1.00  0.00    -0.200 F 
ATOM     85  F   UNL A   1      33.639  34.741  30.994  1.00  0.00    -0.200 F 
ENDBRANCH  51  75
BRANCH  63  86
ATOM     86  C   UNL A   1      41.929  30.359  33.433  1.00  0.00     0.064 A 
ATOM     87  C   UNL A   1      41.566  29.017  33.241  1.00  0.00     0.173 A 
ATOM     88  C   UNL A   1      42.130  30.795  34.750  1.00  0.00     0.173 A 
ATOM     89  F   UNL A   1      41.419  28.508  32.010  1.00  0.00    -0.203 F 
ATOM     90  C   UNL A   1      41.387  28.161  34.327  1.00  0.00     0.198 A 
ATOM     91  C   UNL A   1      41.990  29.929  35.828  1.00  0.00     0.198 A 
ATOM     92  F   UNL A   1      42.501  32.064  34.989  1.00  0.00    -0.203 F 
ATOM     93  F   UNL A   1      41.021  26.886  34.126  1.00  0.00    -0.200 F 
ATOM     94  C   UNL A   1      41.609  28.615  35.618  1.00  0.00     0.200 A 
ATOM     95  F   UNL A   1      42.244  30.366  37.070  1.00  0.00    -0.200 F 
ATOM     96  F   UNL A   1      41.478  27.781  36.659  1.00  0.00    -0.200 F 
ENDBRANCH  63  86
ENDBRANCH  37  38
ENDBRANCH  30  32
ENDBRANCH  29  30
ENDBRANCH  28  29
ENDBRANCH   1  28
TORSDOF 13
ENDMDL
