MODEL 1
REMARK VINA RESULT:     -11.1      0.000      0.000
REMARK SMILES O=C(Cc1ccn[nH]1)NC[C@H]1CCCC[C@H]1C(=O)OCCOC(=O)c1ccc(-c2c3nc(c(-c4c(F)c(F)c(F)c(F)c4F)c4ccc([nH]4)c(-c4c(F)c(F)c(F)c(F)c4F)c4nc(c(-c5c(F)c(F)c(F)c(F)c5F)c5ccc2[nH]5)C=C4)C=C3)cc1
REMARK SMILES IDX 20 1 19 2 17 3 18 4 16 5 11 6 12 7 13 8 15 9 14 10 10 11
REMARK SMILES IDX 9 12 1 13 2 14 3 16 4 17 5 18 8 19 6 20 7 21 21 23 22 24
REMARK SMILES IDX 23 25 24 26 25 27 26 28 87 29 27 30 86 31 28 32 29 33 30 34
REMARK SMILES IDX 80 35 31 36 85 37 79 38 81 39 32 40 84 41 78 42 77 43 33 45
REMARK SMILES IDX 65 46 45 47 64 48 46 49 49 50 63 51 82 52 47 53 48 54 62 56
REMARK SMILES IDX 83 57 50 58 34 59 35 60 43 61 36 62 37 63 41 64 44 65 38 66
REMARK SMILES IDX 39 67 42 68 40 69 66 70 67 71 75 72 68 73 69 74 73 75 76 76
REMARK SMILES IDX 70 77 71 78 74 79 72 80 51 81 52 82 60 83 53 84 54 85 58 86
REMARK SMILES IDX 61 87 55 88 56 89 59 90 57 91
REMARK H PARENT 9 15 8 22 81 44 49 55
REMARK Flexibility Score: inf
ROOT
ATOM      1  C   UNL A   1      35.481  33.679  29.237  1.00  0.00     0.274 C 
ENDROOT
BRANCH   1   2
ATOM      2  O   UNL A   1      36.211  32.801  30.117  1.00  0.00    -0.462 OA
BRANCH   2   3
ATOM      3  C   UNL A   1      35.718  32.643  31.364  1.00  0.00     0.309 C 
ATOM      4  O   UNL A   1      34.546  32.387  31.621  1.00  0.00    -0.252 OA
BRANCH   3   5
ATOM      5  C   UNL A   1      36.757  32.819  32.462  1.00  0.00     0.104 C 
ATOM      6  C   UNL A   1      37.017  34.236  33.021  1.00  0.00     0.022 C 
ATOM      7  C   UNL A   1      38.268  34.196  33.931  1.00  0.00     0.006 C 
ATOM      8  C   UNL A   1      38.263  33.072  34.969  1.00  0.00     0.000 C 
ATOM      9  C   UNL A   1      36.656  31.732  33.529  1.00  0.00     0.016 C 
ATOM     10  C   UNL A   1      37.931  31.708  34.371  1.00  0.00     0.001 C 
BRANCH   6  11
ATOM     11  C   UNL A   1      35.854  35.013  33.680  1.00  0.00     0.120 C 
BRANCH  11  12
ATOM     12  N   UNL A   1      34.757  35.342  32.792  1.00  0.00    -0.355 N 
ATOM     13  O   UNL A   1      34.028  37.144  34.009  1.00  0.00    -0.275 OA
ATOM     14  C   UNL A   1      33.882  36.375  33.060  1.00  0.00     0.226 C 
ATOM     15  H   UNL A   1      34.632  34.810  31.972  1.00  0.00     0.163 HD
BRANCH  14  16
ATOM     16  C   UNL A   1      32.615  36.415  32.216  1.00  0.00     0.155 C 
BRANCH  16  17
ATOM     17  C   UNL A   1      32.863  36.522  30.752  1.00  0.00     0.044 A 
ATOM     18  C   UNL A   1      32.834  35.580  29.746  1.00  0.00     0.045 A 
ATOM     19  N   UNL A   1      33.278  37.684  30.157  1.00  0.00    -0.282 N 
ATOM     20  C   UNL A   1      33.203  36.284  28.586  1.00  0.00     0.135 A 
ATOM     21  N   UNL A   1      33.439  37.574  28.831  1.00  0.00    -0.184 NA
ATOM     22  H   UNL A   1      33.442  38.518  30.655  1.00  0.00     0.190 HD
ENDBRANCH  16  17
ENDBRANCH  14  16
ENDBRANCH  11  12
ENDBRANCH   6  11
ENDBRANCH   3   5
ENDBRANCH   2   3
ENDBRANCH   1   2
BRANCH   1  23
ATOM     23  C   UNL A   1      34.977  32.926  28.003  1.00  0.00     0.275 C 
BRANCH  23  24
ATOM     24  O   UNL A   1      34.156  31.799  28.372  1.00  0.00    -0.458 OA
BRANCH  24  25
ATOM     25  C   UNL A   1      34.401  30.657  27.690  1.00  0.00     0.338 C 
ATOM     26  O   UNL A   1      33.726  30.164  26.804  1.00  0.00    -0.246 OA
BRANCH  25  27
ATOM     27  C   UNL A   1      35.719  30.128  28.076  1.00  0.00     0.060 A 
ATOM     28  C   UNL A   1      35.880  29.647  29.378  1.00  0.00     0.016 A 
ATOM     29  C   UNL A   1      36.803  30.170  27.198  1.00  0.00     0.016 A 
ATOM     30  C   UNL A   1      37.123  29.198  29.812  1.00  0.00     0.010 A 
ATOM     31  C   UNL A   1      38.054  29.720  27.635  1.00  0.00     0.010 A 
ATOM     32  C   UNL A   1      38.221  29.239  28.946  1.00  0.00    -0.014 A 
BRANCH  32  33
ATOM     33  C   UNL A   1      39.555  28.821  29.437  1.00  0.00     0.031 A 
ATOM     34  C   UNL A   1      40.265  29.653  30.463  1.00  0.00     0.074 A 
ATOM     35  C   UNL A   1      40.113  27.685  28.982  1.00  0.00     0.049 A 
ATOM     36  N   UNL A   1      41.461  29.501  30.973  1.00  0.00    -0.248 NA
ATOM     37  C   UNL A   1      39.527  30.812  30.989  1.00  0.00     0.031 C 
ATOM     38  C   UNL A   1      39.492  26.764  28.032  1.00  0.00     0.029 A 
ATOM     39  N   UNL A   1      41.326  27.111  29.264  1.00  0.00    -0.354 N 
ATOM     40  C   UNL A   1      41.628  30.554  31.862  1.00  0.00     0.074 A 
ATOM     41  C   UNL A   1      40.417  31.347  31.812  1.00  0.00     0.031 C 
ATOM     42  C   UNL A   1      40.326  25.733  27.815  1.00  0.00     0.029 A 
ATOM     43  C   UNL A   1      41.556  25.947  28.573  1.00  0.00     0.049 A 
ATOM     44  H   UNL A   1      41.971  27.497  29.900  1.00  0.00     0.167 HD
ATOM     45  C   UNL A   1      42.696  30.831  32.649  1.00  0.00     0.037 A 
ATOM     46  C   UNL A   1      42.646  25.158  28.540  1.00  0.00     0.037 A 
ATOM     47  C   UNL A   1      43.892  30.032  32.703  1.00  0.00     0.049 A 
ATOM     48  C   UNL A   1      43.850  25.534  29.359  1.00  0.00     0.074 A 
ATOM     49  C   UNL A   1      45.023  30.217  33.480  1.00  0.00     0.029 A 
ATOM     50  N   UNL A   1      44.114  28.892  31.942  1.00  0.00    -0.354 N 
ATOM     51  N   UNL A   1      44.006  26.534  30.194  1.00  0.00    -0.248 NA
ATOM     52  C   UNL A   1      45.036  24.678  29.222  1.00  0.00     0.031 C 
ATOM     53  C   UNL A   1      45.946  29.217  33.157  1.00  0.00     0.029 A 
ATOM     54  C   UNL A   1      45.374  28.380  32.212  1.00  0.00     0.049 A 
ATOM     55  H   UNL A   1      43.471  28.505  31.305  1.00  0.00     0.167 HD
ATOM     56  C   UNL A   1      45.293  26.413  30.699  1.00  0.00     0.074 A 
ATOM     57  C   UNL A   1      45.874  25.238  30.084  1.00  0.00     0.031 C 
ATOM     58  C   UNL A   1      45.934  27.205  31.592  1.00  0.00     0.037 A 
BRANCH  45  59
ATOM     59  C   UNL A   1      42.628  32.077  33.482  1.00  0.00     0.064 A 
ATOM     60  C   UNL A   1      42.026  32.089  34.749  1.00  0.00     0.173 A 
ATOM     61  C   UNL A   1      43.182  33.275  33.007  1.00  0.00     0.173 A 
ATOM     62  F   UNL A   1      41.469  30.973  35.243  1.00  0.00    -0.203 F 
ATOM     63  C   UNL A   1      41.950  33.264  35.493  1.00  0.00     0.198 A 
ATOM     64  C   UNL A   1      43.129  34.441  33.766  1.00  0.00     0.198 A 
ATOM     65  F   UNL A   1      43.774  33.317  31.803  1.00  0.00    -0.203 F 
ATOM     66  F   UNL A   1      41.323  33.265  36.678  1.00  0.00    -0.200 F 
ATOM     67  C   UNL A   1      42.504  34.437  35.004  1.00  0.00     0.200 A 
ATOM     68  F   UNL A   1      43.673  35.572  33.294  1.00  0.00    -0.200 F 
ATOM     69  F   UNL A   1      42.428  35.567  35.721  1.00  0.00    -0.200 F 
ENDBRANCH  45  59
BRANCH  46  70
ATOM     70  C   UNL A   1      42.650  23.938  27.694  1.00  0.00     0.064 A 
ATOM     71  C   UNL A   1      43.030  24.002  26.346  1.00  0.00     0.173 A 
ATOM     72  C   UNL A   1      42.278  22.688  28.210  1.00  0.00     0.173 A 
ATOM     73  F   UNL A   1      43.368  25.180  25.801  1.00  0.00    -0.203 F 
ATOM     74  C   UNL A   1      43.031  22.861  25.546  1.00  0.00     0.198 A 
ATOM     75  C   UNL A   1      42.303  21.545  27.416  1.00  0.00     0.198 A 
ATOM     76  F   UNL A   1      41.901  22.576  29.493  1.00  0.00    -0.203 F 
ATOM     77  F   UNL A   1      43.364  22.956  24.251  1.00  0.00    -0.200 F 
ATOM     78  C   UNL A   1      42.675  21.633  26.083  1.00  0.00     0.200 A 
ATOM     79  F   UNL A   1      41.967  20.359  27.941  1.00  0.00    -0.200 F 
ATOM     80  F   UNL A   1      42.682  20.536  25.313  1.00  0.00    -0.200 F 
ENDBRANCH  46  70
BRANCH  58  81
ATOM     81  C   UNL A   1      47.327  26.805  31.985  1.00  0.00     0.064 A 
ATOM     82  C   UNL A   1      47.562  25.866  32.999  1.00  0.00     0.173 A 
ATOM     83  C   UNL A   1      48.435  27.344  31.314  1.00  0.00     0.173 A 
ATOM     84  F   UNL A   1      46.535  25.337  33.681  1.00  0.00    -0.203 F 
ATOM     85  C   UNL A   1      48.860  25.497  33.343  1.00  0.00     0.198 A 
ATOM     86  C   UNL A   1      49.730  26.952  31.643  1.00  0.00     0.198 A 
ATOM     87  F   UNL A   1      48.261  28.242  30.333  1.00  0.00    -0.203 F 
ATOM     88  F   UNL A   1      49.065  24.631  34.346  1.00  0.00    -0.200 F 
ATOM     89  C   UNL A   1      49.942  26.035  32.661  1.00  0.00     0.200 A 
ATOM     90  F   UNL A   1      50.772  27.466  30.976  1.00  0.00    -0.200 F 
ATOM     91  F   UNL A   1      51.189  25.676  32.991  1.00  0.00    -0.200 F 
ENDBRANCH  58  81
ENDBRANCH  32  33
ENDBRANCH  25  27
ENDBRANCH  24  25
ENDBRANCH  23  24
ENDBRANCH   1  23
TORSDOF 15
ENDMDL
MODEL 2
REMARK VINA RESULT:     -10.9      4.043      9.462
REMARK SMILES O=C(Cc1ccn[nH]1)NC[C@H]1CCCC[C@H]1C(=O)OCCOC(=O)c1ccc(-c2c3nc(c(-c4c(F)c(F)c(F)c(F)c4F)c4ccc([nH]4)c(-c4c(F)c(F)c(F)c(F)c4F)c4nc(c(-c5c(F)c(F)c(F)c(F)c5F)c5ccc2[nH]5)C=C4)C=C3)cc1
REMARK SMILES IDX 20 1 19 2 17 3 18 4 16 5 11 6 12 7 13 8 15 9 14 10 10 11
REMARK SMILES IDX 9 12 1 13 2 14 3 16 4 17 5 18 8 19 6 20 7 21 21 23 22 24
REMARK SMILES IDX 23 25 24 26 25 27 26 28 87 29 27 30 86 31 28 32 29 33 30 34
REMARK SMILES IDX 80 35 31 36 85 37 79 38 81 39 32 40 84 41 78 42 77 43 33 45
REMARK SMILES IDX 65 46 45 47 64 48 46 49 49 50 63 51 82 52 47 53 48 54 62 56
REMARK SMILES IDX 83 57 50 58 34 59 35 60 43 61 36 62 37 63 41 64 44 65 38 66
REMARK SMILES IDX 39 67 42 68 40 69 66 70 67 71 75 72 68 73 69 74 73 75 76 76
REMARK SMILES IDX 70 77 71 78 74 79 72 80 51 81 52 82 60 83 53 84 54 85 58 86
REMARK SMILES IDX 61 87 55 88 56 89 59 90 57 91
REMARK H PARENT 9 15 8 22 81 44 49 55
REMARK Flexibility Score: inf
ROOT
ATOM      1  C   UNL A   1      31.751  28.566  27.281  1.00  0.00     0.274 C 
ENDROOT
BRANCH   1   2
ATOM      2  O   UNL A   1      32.463  27.543  26.557  1.00  0.00    -0.462 OA
BRANCH   2   3
ATOM      3  C   UNL A   1      31.754  26.455  26.188  1.00  0.00     0.309 C 
ATOM      4  O   UNL A   1      30.584  26.250  26.494  1.00  0.00    -0.252 OA
BRANCH   3   5
ATOM      5  C   UNL A   1      32.544  25.466  25.342  1.00  0.00     0.104 C 
ATOM      6  C   UNL A   1      32.104  25.219  23.880  1.00  0.00     0.022 C 
ATOM      7  C   UNL A   1      32.891  24.013  23.315  1.00  0.00     0.006 C 
ATOM      8  C   UNL A   1      34.402  24.076  23.545  1.00  0.00     0.000 C 
ATOM      9  C   UNL A   1      34.050  25.627  25.525  1.00  0.00     0.016 C 
ATOM     10  C   UNL A   1      34.775  24.392  24.990  1.00  0.00     0.001 C 
BRANCH   6  11
ATOM     11  C   UNL A   1      32.083  26.405  22.888  1.00  0.00     0.120 C 
BRANCH  11  12
ATOM     12  N   UNL A   1      30.776  26.984  22.654  1.00  0.00    -0.355 N 
ATOM     13  O   UNL A   1      31.357  29.102  23.315  1.00  0.00    -0.275 OA
ATOM     14  C   UNL A   1      30.498  28.306  22.939  1.00  0.00     0.226 C 
ATOM     15  H   UNL A   1      30.063  26.416  22.280  1.00  0.00     0.163 HD
BRANCH  14  16
ATOM     16  C   UNL A   1      29.026  28.697  22.933  1.00  0.00     0.155 C 
BRANCH  16  17
ATOM     17  C   UNL A   1      28.787  30.162  22.831  1.00  0.00     0.044 A 
ATOM     18  C   UNL A   1      27.824  30.976  23.390  1.00  0.00     0.045 A 
ATOM     19  N   UNL A   1      29.525  30.975  22.012  1.00  0.00    -0.282 N 
ATOM     20  C   UNL A   1      28.097  32.257  22.880  1.00  0.00     0.135 A 
ATOM     21  N   UNL A   1      29.157  32.262  22.068  1.00  0.00    -0.184 NA
ATOM     22  H   UNL A   1      30.255  30.646  21.439  1.00  0.00     0.190 HD
ENDBRANCH  16  17
ENDBRANCH  14  16
ENDBRANCH  11  12
ENDBRANCH   6  11
ENDBRANCH   3   5
ENDBRANCH   2   3
ENDBRANCH   1   2
BRANCH   1  23
ATOM     23  C   UNL A   1      31.776  29.896  26.523  1.00  0.00     0.275 C 
BRANCH  23  24
ATOM     24  O   UNL A   1      33.126  30.348  26.296  1.00  0.00    -0.458 OA
BRANCH  24  25
ATOM     25  C   UNL A   1      33.518  31.399  27.051  1.00  0.00     0.338 C 
ATOM     26  O   UNL A   1      32.908  32.434  27.255  1.00  0.00    -0.246 OA
BRANCH  25  27
ATOM     27  C   UNL A   1      34.776  31.067  27.739  1.00  0.00     0.060 A 
ATOM     28  C   UNL A   1      34.952  29.757  28.194  1.00  0.00     0.016 A 
ATOM     29  C   UNL A   1      35.739  32.042  28.001  1.00  0.00     0.016 A 
ATOM     30  C   UNL A   1      36.094  29.409  28.908  1.00  0.00     0.010 A 
ATOM     31  C   UNL A   1      36.888  31.692  28.721  1.00  0.00     0.010 A 
ATOM     32  C   UNL A   1      37.067  30.376  29.183  1.00  0.00    -0.014 A 
BRANCH  32  33
ATOM     33  C   UNL A   1      38.248  30.013  30.001  1.00  0.00     0.031 A 
ATOM     34  C   UNL A   1      39.299  29.108  29.430  1.00  0.00     0.074 A 
ATOM     35  C   UNL A   1      38.388  30.518  31.239  1.00  0.00     0.049 A 
ATOM     36  N   UNL A   1      40.370  28.617  30.000  1.00  0.00    -0.248 NA
ATOM     37  C   UNL A   1      39.121  28.702  28.028  1.00  0.00     0.031 C 
ATOM     38  C   UNL A   1      37.464  31.455  31.876  1.00  0.00     0.029 A 
ATOM     39  N   UNL A   1      39.364  30.315  32.181  1.00  0.00    -0.354 N 
ATOM     40  C   UNL A   1      40.982  27.829  29.035  1.00  0.00     0.074 A 
ATOM     41  C   UNL A   1      40.155  27.894  27.848  1.00  0.00     0.031 C 
ATOM     42  C   UNL A   1      37.923  31.754  33.103  1.00  0.00     0.029 A 
ATOM     43  C   UNL A   1      39.143  30.993  33.354  1.00  0.00     0.049 A 
ATOM     44  H   UNL A   1      40.147  29.738  32.031  1.00  0.00     0.167 HD
ATOM     45  C   UNL A   1      42.131  27.117  29.134  1.00  0.00     0.037 A 
ATOM     46  C   UNL A   1      39.838  30.981  34.507  1.00  0.00     0.037 A 
ATOM     47  C   UNL A   1      42.955  27.065  30.314  1.00  0.00     0.049 A 
ATOM     48  C   UNL A   1      41.064  30.116  34.617  1.00  0.00     0.074 A 
ATOM     49  C   UNL A   1      44.146  26.388  30.509  1.00  0.00     0.029 A 
ATOM     50  N   UNL A   1      42.667  27.718  31.505  1.00  0.00    -0.354 N 
ATOM     51  N   UNL A   1      41.635  29.368  33.705  1.00  0.00    -0.248 NA
ATOM     52  C   UNL A   1      41.734  30.085  35.925  1.00  0.00     0.031 C 
ATOM     53  C   UNL A   1      44.556  26.594  31.831  1.00  0.00     0.029 A 
ATOM     54  C   UNL A   1      43.645  27.436  32.447  1.00  0.00     0.049 A 
ATOM     55  H   UNL A   1      41.885  28.295  31.658  1.00  0.00     0.167 HD
ATOM     56  C   UNL A   1      42.743  28.799  34.316  1.00  0.00     0.074 A 
ATOM     57  C   UNL A   1      42.769  29.294  35.677  1.00  0.00     0.031 C 
ATOM     58  C   UNL A   1      43.657  27.942  33.796  1.00  0.00     0.037 A 
BRANCH  45  59
ATOM     59  C   UNL A   1      42.537  26.302  27.941  1.00  0.00     0.064 A 
ATOM     60  C   UNL A   1      42.035  25.012  27.719  1.00  0.00     0.173 A 
ATOM     61  C   UNL A   1      43.439  26.827  27.002  1.00  0.00     0.173 A 
ATOM     62  F   UNL A   1      41.182  24.459  28.596  1.00  0.00    -0.203 F 
ATOM     63  C   UNL A   1      42.447  24.263  26.619  1.00  0.00     0.198 A 
ATOM     64  C   UNL A   1      43.826  26.086  25.889  1.00  0.00     0.198 A 
ATOM     65  F   UNL A   1      43.946  28.058  27.165  1.00  0.00    -0.203 F 
ATOM     66  F   UNL A   1      41.995  23.012  26.456  1.00  0.00    -0.200 F 
ATOM     67  C   UNL A   1      43.338  24.801  25.704  1.00  0.00     0.200 A 
ATOM     68  F   UNL A   1      44.682  26.612  25.001  1.00  0.00    -0.200 F 
ATOM     69  F   UNL A   1      43.736  24.078  24.647  1.00  0.00    -0.200 F 
ENDBRANCH  45  59
BRANCH  46  70
ATOM     70  C   UNL A   1      39.384  31.810  35.653  1.00  0.00     0.064 A 
ATOM     71  C   UNL A   1      39.894  33.101  35.849  1.00  0.00     0.173 A 
ATOM     72  C   UNL A   1      38.436  31.335  36.570  1.00  0.00     0.173 A 
ATOM     73  F   UNL A   1      40.822  33.589  35.012  1.00  0.00    -0.203 F 
ATOM     74  C   UNL A   1      39.476  33.883  36.924  1.00  0.00     0.198 A 
ATOM     75  C   UNL A   1      38.001  32.126  37.630  1.00  0.00     0.198 A 
ATOM     76  F   UNL A   1      37.923  30.103  36.429  1.00  0.00    -0.203 F 
ATOM     77  F   UNL A   1      40.005  35.100  37.109  1.00  0.00    -0.200 F 
ATOM     78  C   UNL A   1      38.525  33.397  37.809  1.00  0.00     0.200 A 
ATOM     79  F   UNL A   1      37.076  31.657  38.479  1.00  0.00    -0.200 F 
ATOM     80  F   UNL A   1      38.119  34.152  38.840  1.00  0.00    -0.200 F 
ENDBRANCH  46  70
BRANCH  58  81
ATOM     81  C   UNL A   1      44.782  27.516  34.694  1.00  0.00     0.064 A 
ATOM     82  C   UNL A   1      45.963  28.263  34.795  1.00  0.00     0.173 A 
ATOM     83  C   UNL A   1      44.660  26.363  35.485  1.00  0.00     0.173 A 
ATOM     84  F   UNL A   1      46.134  29.363  34.046  1.00  0.00    -0.203 F 
ATOM     85  C   UNL A   1      46.993  27.859  35.641  1.00  0.00     0.198 A 
ATOM     86  C   UNL A   1      45.681  25.977  36.349  1.00  0.00     0.198 A 
ATOM     87  F   UNL A   1      43.547  25.617  35.426  1.00  0.00    -0.203 F 
ATOM     88  F   UNL A   1      48.134  28.563  35.690  1.00  0.00    -0.200 F 
ATOM     89  C   UNL A   1      46.849  26.721  36.421  1.00  0.00     0.200 A 
ATOM     90  F   UNL A   1      45.535  24.884  37.108  1.00  0.00    -0.200 F 
ATOM     91  F   UNL A   1      47.839  26.336  37.237  1.00  0.00    -0.200 F 
ENDBRANCH  58  81
ENDBRANCH  32  33
ENDBRANCH  25  27
ENDBRANCH  24  25
ENDBRANCH  23  24
ENDBRANCH   1  23
TORSDOF 15
ENDMDL
MODEL 3
REMARK VINA RESULT:     -10.9      6.112     10.414
REMARK SMILES O=C(Cc1ccn[nH]1)NC[C@H]1CCCC[C@H]1C(=O)OCCOC(=O)c1ccc(-c2c3nc(c(-c4c(F)c(F)c(F)c(F)c4F)c4ccc([nH]4)c(-c4c(F)c(F)c(F)c(F)c4F)c4nc(c(-c5c(F)c(F)c(F)c(F)c5F)c5ccc2[nH]5)C=C4)C=C3)cc1
REMARK SMILES IDX 20 1 19 2 17 3 18 4 16 5 11 6 12 7 13 8 15 9 14 10 10 11
REMARK SMILES IDX 9 12 1 13 2 14 3 16 4 17 5 18 8 19 6 20 7 21 21 23 22 24
REMARK SMILES IDX 23 25 24 26 25 27 26 28 87 29 27 30 86 31 28 32 29 33 30 34
REMARK SMILES IDX 80 35 31 36 85 37 79 38 81 39 32 40 84 41 78 42 77 43 33 45
REMARK SMILES IDX 65 46 45 47 64 48 46 49 49 50 63 51 82 52 47 53 48 54 62 56
REMARK SMILES IDX 83 57 50 58 34 59 35 60 43 61 36 62 37 63 41 64 44 65 38 66
REMARK SMILES IDX 39 67 42 68 40 69 66 70 67 71 75 72 68 73 69 74 73 75 76 76
REMARK SMILES IDX 70 77 71 78 74 79 72 80 51 81 52 82 60 83 53 84 54 85 58 86
REMARK SMILES IDX 61 87 55 88 56 89 59 90 57 91
REMARK H PARENT 9 15 8 22 81 44 49 55
REMARK Flexibility Score: inf
ROOT
ATOM      1  C   UNL A   1      35.869  21.014  24.709  1.00  0.00     0.274 C 
ENDROOT
BRANCH   1   2
ATOM      2  O   UNL A   1      35.698  22.446  24.741  1.00  0.00    -0.462 OA
BRANCH   2   3
ATOM      3  C   UNL A   1      35.702  23.085  23.552  1.00  0.00     0.309 C 
ATOM      4  O   UNL A   1      36.546  22.920  22.677  1.00  0.00    -0.252 OA
BRANCH   3   5
ATOM      5  C   UNL A   1      34.548  24.061  23.375  1.00  0.00     0.104 C 
ATOM      6  C   UNL A   1      33.186  23.523  22.879  1.00  0.00     0.022 C 
ATOM      7  C   UNL A   1      32.263  24.719  22.546  1.00  0.00     0.006 C 
ATOM      8  C   UNL A   1      32.189  25.787  23.639  1.00  0.00     0.000 C 
ATOM      9  C   UNL A   1      34.448  25.049  24.534  1.00  0.00     0.016 C 
ATOM     10  C   UNL A   1      33.561  26.229  24.138  1.00  0.00     0.001 C 
BRANCH   6  11
ATOM     11  C   UNL A   1      32.452  22.446  23.712  1.00  0.00     0.120 C 
BRANCH  11  12
ATOM     12  N   UNL A   1      32.414  21.129  23.112  1.00  0.00    -0.355 N 
ATOM     13  O   UNL A   1      32.093  20.004  25.086  1.00  0.00    -0.275 OA
ATOM     14  C   UNL A   1      32.283  19.982  23.870  1.00  0.00     0.226 C 
ATOM     15  H   UNL A   1      32.484  21.049  22.133  1.00  0.00     0.163 HD
BRANCH  14  16
ATOM     16  C   UNL A   1      32.562  18.669  23.151  1.00  0.00     0.155 C 
BRANCH  16  17
ATOM     17  C   UNL A   1      32.982  17.560  24.051  1.00  0.00     0.044 A 
ATOM     18  C   UNL A   1      34.160  16.849  24.142  1.00  0.00     0.045 A 
ATOM     19  N   UNL A   1      32.131  16.981  24.955  1.00  0.00    -0.282 N 
ATOM     20  C   UNL A   1      33.929  15.901  25.153  1.00  0.00     0.135 A 
ATOM     21  N   UNL A   1      32.704  16.005  25.673  1.00  0.00    -0.184 NA
ATOM     22  H   UNL A   1      31.193  17.254  25.066  1.00  0.00     0.190 HD
ENDBRANCH  16  17
ENDBRANCH  14  16
ENDBRANCH  11  12
ENDBRANCH   6  11
ENDBRANCH   3   5
ENDBRANCH   2   3
ENDBRANCH   1   2
BRANCH   1  23
ATOM     23  C   UNL A   1      37.319  20.626  25.008  1.00  0.00     0.275 C 
BRANCH  23  24
ATOM     24  O   UNL A   1      37.898  21.483  26.012  1.00  0.00    -0.458 OA
BRANCH  24  25
ATOM     25  C   UNL A   1      39.201  21.250  26.291  1.00  0.00     0.338 C 
ATOM     26  O   UNL A   1      39.820  20.214  26.122  1.00  0.00    -0.246 OA
BRANCH  25  27
ATOM     27  C   UNL A   1      39.844  22.502  26.718  1.00  0.00     0.060 A 
ATOM     28  C   UNL A   1      39.405  23.698  26.143  1.00  0.00     0.016 A 
ATOM     29  C   UNL A   1      40.913  22.500  27.615  1.00  0.00     0.016 A 
ATOM     30  C   UNL A   1      40.024  24.901  26.464  1.00  0.00     0.010 A 
ATOM     31  C   UNL A   1      41.538  23.710  27.936  1.00  0.00     0.010 A 
ATOM     32  C   UNL A   1      41.101  24.915  27.358  1.00  0.00    -0.014 A 
BRANCH  32  33
ATOM     33  C   UNL A   1      41.798  26.191  27.643  1.00  0.00     0.031 A 
ATOM     34  C   UNL A   1      41.116  27.245  28.462  1.00  0.00     0.074 A 
ATOM     35  C   UNL A   1      43.049  26.388  27.191  1.00  0.00     0.049 A 
ATOM     36  N   UNL A   1      41.522  28.452  28.768  1.00  0.00    -0.248 NA
ATOM     37  C   UNL A   1      39.798  26.894  29.013  1.00  0.00     0.031 C 
ATOM     38  C   UNL A   1      43.837  25.412  26.438  1.00  0.00     0.029 A 
ATOM     39  N   UNL A   1      43.879  27.474  27.304  1.00  0.00    -0.354 N 
ATOM     40  C   UNL A   1      40.503  29.011  29.527  1.00  0.00     0.074 A 
ATOM     41  C   UNL A   1      39.453  28.018  29.624  1.00  0.00     0.031 C 
ATOM     42  C   UNL A   1      45.040  25.941  26.164  1.00  0.00     0.029 A 
ATOM     43  C   UNL A   1      45.089  27.307  26.679  1.00  0.00     0.049 A 
ATOM     44  H   UNL A   1      43.629  28.295  27.786  1.00  0.00     0.167 HD
ATOM     45  C   UNL A   1      40.453  30.241  30.093  1.00  0.00     0.037 A 
ATOM     46  C   UNL A   1      46.111  28.170  26.521  1.00  0.00     0.037 A 
ATOM     47  C   UNL A   1      41.506  31.219  30.003  1.00  0.00     0.049 A 
ATOM     48  C   UNL A   1      45.994  29.558  27.087  1.00  0.00     0.074 A 
ATOM     49  C   UNL A   1      41.559  32.487  30.556  1.00  0.00     0.029 A 
ATOM     50  N   UNL A   1      42.694  31.037  29.309  1.00  0.00    -0.354 N 
ATOM     51  N   UNL A   1      45.027  30.084  27.800  1.00  0.00    -0.248 NA
ATOM     52  C   UNL A   1      47.108  30.478  26.816  1.00  0.00     0.031 C 
ATOM     53  C   UNL A   1      42.758  33.088  30.159  1.00  0.00     0.029 A 
ATOM     54  C   UNL A   1      43.474  32.179  29.397  1.00  0.00     0.049 A 
ATOM     55  H   UNL A   1      42.945  30.217  28.826  1.00  0.00     0.167 HD
ATOM     56  C   UNL A   1      45.424  31.383  28.083  1.00  0.00     0.074 A 
ATOM     57  C   UNL A   1      46.725  31.564  27.473  1.00  0.00     0.031 C 
ATOM     58  C   UNL A   1      44.770  32.340  28.786  1.00  0.00     0.037 A 
BRANCH  45  59
ATOM     59  C   UNL A   1      39.195  30.608  30.824  1.00  0.00     0.064 A 
ATOM     60  C   UNL A   1      39.058  30.415  32.207  1.00  0.00     0.173 A 
ATOM     61  C   UNL A   1      38.112  31.168  30.128  1.00  0.00     0.173 A 
ATOM     62  F   UNL A   1      40.058  29.869  32.915  1.00  0.00    -0.203 F 
ATOM     63  C   UNL A   1      37.870  30.738  32.859  1.00  0.00     0.198 A 
ATOM     64  C   UNL A   1      36.937  31.515  30.789  1.00  0.00     0.198 A 
ATOM     65  F   UNL A   1      38.194  31.377  28.805  1.00  0.00    -0.203 F 
ATOM     66  F   UNL A   1      37.742  30.495  34.171  1.00  0.00    -0.200 F 
ATOM     67  C   UNL A   1      36.813  31.290  32.152  1.00  0.00     0.200 A 
ATOM     68  F   UNL A   1      35.920  32.057  30.104  1.00  0.00    -0.200 F 
ATOM     69  F   UNL A   1      35.671  31.597  32.781  1.00  0.00    -0.200 F 
ENDBRANCH  45  59
BRANCH  46  70
ATOM     70  C   UNL A   1      47.330  27.745  25.787  1.00  0.00     0.064 A 
ATOM     71  C   UNL A   1      48.465  27.303  26.480  1.00  0.00     0.173 A 
ATOM     72  C   UNL A   1      47.388  27.772  24.387  1.00  0.00     0.173 A 
ATOM     73  F   UNL A   1      48.466  27.285  27.821  1.00  0.00    -0.203 F 
ATOM     74  C   UNL A   1      49.614  26.907  25.798  1.00  0.00     0.198 A 
ATOM     75  C   UNL A   1      48.528  27.353  23.705  1.00  0.00     0.198 A 
ATOM     76  F   UNL A   1      46.330  28.194  23.679  1.00  0.00    -0.203 F 
ATOM     77  F   UNL A   1      50.698  26.521  26.485  1.00  0.00    -0.200 F 
ATOM     78  C   UNL A   1      49.643  26.926  24.412  1.00  0.00     0.200 A 
ATOM     79  F   UNL A   1      48.548  27.365  22.365  1.00  0.00    -0.200 F 
ATOM     80  F   UNL A   1      50.747  26.540  23.757  1.00  0.00    -0.200 F 
ENDBRANCH  46  70
BRANCH  58  81
ATOM     81  C   UNL A   1      45.468  33.657  28.963  1.00  0.00     0.064 A 
ATOM     82  C   UNL A   1      45.276  34.715  28.064  1.00  0.00     0.173 A 
ATOM     83  C   UNL A   1      46.313  33.869  30.062  1.00  0.00     0.173 A 
ATOM     84  F   UNL A   1      44.491  34.554  26.988  1.00  0.00    -0.203 F 
ATOM     85  C   UNL A   1      45.923  35.935  28.249  1.00  0.00     0.198 A 
ATOM     86  C   UNL A   1      46.938  35.098  30.257  1.00  0.00     0.198 A 
ATOM     87  F   UNL A   1      46.526  32.888  30.952  1.00  0.00    -0.203 F 
ATOM     88  F   UNL A   1      45.761  36.920  27.353  1.00  0.00    -0.200 F 
ATOM     89  C   UNL A   1      46.748  36.127  29.347  1.00  0.00     0.200 A 
ATOM     90  F   UNL A   1      47.726  35.285  31.324  1.00  0.00    -0.200 F 
ATOM     91  F   UNL A   1      47.367  37.302  29.525  1.00  0.00    -0.200 F 
ENDBRANCH  58  81
ENDBRANCH  32  33
ENDBRANCH  25  27
ENDBRANCH  24  25
ENDBRANCH  23  24
ENDBRANCH   1  23
TORSDOF 15
ENDMDL
