MODEL 1
REMARK VINA RESULT:     -13.4      0.000      0.000
REMARK SMILES CC(C)[C@H](NC(=O)[C@H](Cc1ccccc1)n1c(=O)[nH]c2ccccc2c1=O)C(=O)OCCOC(=O)c1ccc(-c2c3nc(c(-c4c(F)c(F)c(F)c(F)c4F)c4ccc([nH]4)c(-c4c(F)c(F)c(F)c(F)c4F)c4nc(c(-c5c(F)c(F)c(F)c(F)c5F)c5ccc2[nH]5)C=C4)C=C3)cc1
REMARK SMILES IDX 31 1 30 2 28 3 29 4 4 5 2 6 1 7 3 8 5 9 6 10 7 12 8 13 16 14
REMARK SMILES IDX 17 15 26 16 18 17 19 18 25 19 27 20 20 21 24 23 21 24 23 25
REMARK SMILES IDX 22 26 9 27 10 28 11 29 15 30 12 31 14 32 13 33 32 34 33 35
REMARK SMILES IDX 34 36 35 37 36 38 37 39 98 40 38 41 97 42 39 43 40 44 41 45
REMARK SMILES IDX 91 46 42 47 96 48 90 49 92 50 43 51 95 52 89 53 88 54 44 56
REMARK SMILES IDX 76 57 56 58 75 59 57 60 60 61 74 62 93 63 58 64 59 65 73 67
REMARK SMILES IDX 94 68 61 69 45 70 46 71 54 72 47 73 48 74 52 75 55 76 49 77
REMARK SMILES IDX 50 78 53 79 51 80 77 81 78 82 86 83 79 84 80 85 84 86 87 87
REMARK SMILES IDX 81 88 82 89 85 90 83 91 62 92 63 93 71 94 64 95 65 96 69 97
REMARK SMILES IDX 72 98 66 99 67 100 70 101 68 102
REMARK H PARENT 5 11 19 22 92 55 60 66
REMARK Flexibility Score: inf
ROOT
ATOM      1  C   UNL A   1      35.790  21.363  24.997  1.00  0.00     0.274 C 
ENDROOT
BRANCH   1   2
ATOM      2  O   UNL A   1      35.422  22.713  25.365  1.00  0.00    -0.461 OA
BRANCH   2   3
ATOM      3  C   UNL A   1      34.238  22.996  25.983  1.00  0.00     0.329 C 
ATOM      4  O   UNL A   1      34.074  23.038  27.193  1.00  0.00    -0.250 OA
BRANCH   3   5
ATOM      5  C   UNL A   1      33.174  23.421  24.926  1.00  0.00     0.194 C 
BRANCH   5   6
ATOM      6  C   UNL A   1      31.866  22.611  24.774  1.00  0.00     0.017 C 
ATOM      7  C   UNL A   1      32.103  21.094  24.840  1.00  0.00     0.010 C 
ATOM      8  C   UNL A   1      30.829  22.957  25.810  1.00  0.00     0.010 C 
ENDBRANCH   5   6
BRANCH   5   9
ATOM      9  N   UNL A   1      33.684  24.054  23.724  1.00  0.00    -0.341 N 
ATOM     10  C   UNL A   1      33.595  25.283  23.176  1.00  0.00     0.244 C 
ATOM     11  H   UNL A   1      34.225  23.439  23.177  1.00  0.00     0.164 HD
ATOM     12  O   UNL A   1      33.655  25.191  21.939  1.00  0.00    -0.273 OA
BRANCH  10  13
ATOM     13  C   UNL A   1      33.154  26.624  23.847  1.00  0.00     0.189 C 
BRANCH  13  14
ATOM     14  N   UNL A   1      32.159  27.526  23.190  1.00  0.00    -0.247 N 
ATOM     15  C   UNL A   1      32.537  28.737  22.649  1.00  0.00     0.329 A 
ATOM     16  C   UNL A   1      30.863  27.055  22.984  1.00  0.00     0.264 A 
ATOM     17  O   UNL A   1      33.645  29.246  22.765  1.00  0.00    -0.248 OA
ATOM     18  N   UNL A   1      31.574  29.479  22.006  1.00  0.00    -0.307 N 
ATOM     19  C   UNL A   1      29.815  28.068  22.777  1.00  0.00     0.064 A 
ATOM     20  O   UNL A   1      30.535  25.876  22.934  1.00  0.00    -0.268 OA
ATOM     21  C   UNL A   1      30.210  29.256  22.185  1.00  0.00     0.055 A 
ATOM     22  H   UNL A   1      31.859  30.195  21.394  1.00  0.00     0.171 HD
ATOM     23  C   UNL A   1      28.511  27.911  23.255  1.00  0.00     0.016 A 
ATOM     24  C   UNL A   1      29.286  30.278  21.971  1.00  0.00     0.027 A 
ATOM     25  C   UNL A   1      27.605  28.965  23.127  1.00  0.00     0.001 A 
ATOM     26  C   UNL A   1      27.985  30.136  22.465  1.00  0.00     0.002 A 
ENDBRANCH  13  14
BRANCH  13  27
ATOM     27  C   UNL A   1      33.007  26.450  25.402  1.00  0.00     0.071 C 
BRANCH  27  28
ATOM     28  C   UNL A   1      33.034  27.702  26.261  1.00  0.00    -0.045 A 
ATOM     29  C   UNL A   1      34.241  28.325  26.571  1.00  0.00     0.004 A 
ATOM     30  C   UNL A   1      31.847  28.320  26.687  1.00  0.00     0.004 A 
ATOM     31  C   UNL A   1      34.255  29.618  27.100  1.00  0.00     0.000 A 
ATOM     32  C   UNL A   1      31.853  29.615  27.202  1.00  0.00     0.000 A 
ATOM     33  C   UNL A   1      33.060  30.279  27.376  1.00  0.00     0.000 A 
ENDBRANCH  27  28
ENDBRANCH  13  27
ENDBRANCH  10  13
ENDBRANCH   5   9
ENDBRANCH   3   5
ENDBRANCH   2   3
ENDBRANCH   1   2
BRANCH   1  34
ATOM     34  C   UNL A   1      37.309  21.265  24.833  1.00  0.00     0.275 C 
BRANCH  34  35
ATOM     35  O   UNL A   1      37.948  22.077  25.823  1.00  0.00    -0.458 OA
BRANCH  35  36
ATOM     36  C   UNL A   1      39.143  21.607  26.236  1.00  0.00     0.338 C 
ATOM     37  O   UNL A   1      39.642  20.508  26.047  1.00  0.00    -0.246 OA
BRANCH  36  38
ATOM     38  C   UNL A   1      39.907  22.772  26.670  1.00  0.00     0.060 A 
ATOM     39  C   UNL A   1      39.544  23.999  26.115  1.00  0.00     0.016 A 
ATOM     40  C   UNL A   1      40.902  22.685  27.636  1.00  0.00     0.016 A 
ATOM     41  C   UNL A   1      40.167  25.163  26.501  1.00  0.00     0.010 A 
ATOM     42  C   UNL A   1      41.530  23.857  28.041  1.00  0.00     0.010 A 
ATOM     43  C   UNL A   1      41.159  25.091  27.473  1.00  0.00    -0.014 A 
BRANCH  43  44
ATOM     44  C   UNL A   1      41.864  26.320  27.848  1.00  0.00     0.031 A 
ATOM     45  C   UNL A   1      41.117  27.346  28.626  1.00  0.00     0.074 A 
ATOM     46  C   UNL A   1      43.150  26.472  27.493  1.00  0.00     0.049 A 
ATOM     47  N   UNL A   1      41.433  28.586  28.872  1.00  0.00    -0.248 NA
ATOM     48  C   UNL A   1      39.827  26.919  29.197  1.00  0.00     0.031 C 
ATOM     49  C   UNL A   1      43.972  25.456  26.831  1.00  0.00     0.029 A 
ATOM     50  N   UNL A   1      43.985  27.546  27.626  1.00  0.00    -0.354 N 
ATOM     51  C   UNL A   1      40.363  29.103  29.585  1.00  0.00     0.074 A 
ATOM     52  C   UNL A   1      39.388  28.046  29.735  1.00  0.00     0.031 C 
ATOM     53  C   UNL A   1      45.190  25.967  26.592  1.00  0.00     0.029 A 
ATOM     54  C   UNL A   1      45.198  27.362  27.011  1.00  0.00     0.049 A 
ATOM     55  H   UNL A   1      43.740  28.367  28.113  1.00  0.00     0.167 HD
ATOM     56  C   UNL A   1      40.223  30.363  30.052  1.00  0.00     0.037 A 
ATOM     57  C   UNL A   1      46.169  28.257  26.756  1.00  0.00     0.037 A 
ATOM     58  C   UNL A   1      41.230  31.376  29.878  1.00  0.00     0.049 A 
ATOM     59  C   UNL A   1      45.945  29.678  27.197  1.00  0.00     0.074 A 
ATOM     60  C   UNL A   1      41.218  32.690  30.299  1.00  0.00     0.029 A 
ATOM     61  N   UNL A   1      42.437  31.173  29.217  1.00  0.00    -0.354 N 
ATOM     62  N   UNL A   1      44.922  30.191  27.841  1.00  0.00    -0.248 NA
ATOM     63  C   UNL A   1      46.992  30.646  26.861  1.00  0.00     0.031 C 
ATOM     64  C   UNL A   1      42.392  33.299  29.842  1.00  0.00     0.029 A 
ATOM     65  C   UNL A   1      43.165  32.349  29.189  1.00  0.00     0.049 A 
ATOM     66  H   UNL A   1      42.730  30.318  28.827  1.00  0.00     0.167 HD
ATOM     67  C   UNL A   1      45.206  31.537  28.002  1.00  0.00     0.074 A 
ATOM     68  C   UNL A   1      46.512  31.754  27.405  1.00  0.00     0.031 C 
ATOM     69  C   UNL A   1      44.461  32.514  28.579  1.00  0.00     0.037 A 
BRANCH  56  70
ATOM     70  C   UNL A   1      38.929  30.715  30.720  1.00  0.00     0.064 A 
ATOM     71  C   UNL A   1      38.769  30.663  32.113  1.00  0.00     0.173 A 
ATOM     72  C   UNL A   1      37.824  31.107  29.949  1.00  0.00     0.173 A 
ATOM     73  F   UNL A   1      39.784  30.268  32.895  1.00  0.00    -0.203 F 
ATOM     74  C   UNL A   1      37.544  30.967  32.705  1.00  0.00     0.198 A 
ATOM     75  C   UNL A   1      36.611  31.439  30.546  1.00  0.00     0.198 A 
ATOM     76  F   UNL A   1      37.919  31.163  28.611  1.00  0.00    -0.203 F 
ATOM     77  F   UNL A   1      37.399  30.858  34.033  1.00  0.00    -0.200 F 
ATOM     78  C   UNL A   1      36.470  31.363  31.922  1.00  0.00     0.200 A 
ATOM     79  F   UNL A   1      35.578  31.827  29.786  1.00  0.00    -0.200 F 
ATOM     80  F   UNL A   1      35.295  31.659  32.494  1.00  0.00    -0.200 F 
ENDBRANCH  56  70
BRANCH  57  81
ATOM     81  C   UNL A   1      47.383  27.849  26.005  1.00  0.00     0.064 A 
ATOM     82  C   UNL A   1      48.549  27.460  26.677  1.00  0.00     0.173 A 
ATOM     83  C   UNL A   1      47.404  27.828  24.601  1.00  0.00     0.173 A 
ATOM     84  F   UNL A   1      48.587  27.480  28.017  1.00  0.00    -0.203 F 
ATOM     85  C   UNL A   1      49.693  27.084  25.974  1.00  0.00     0.198 A 
ATOM     86  C   UNL A   1      48.536  27.420  23.900  1.00  0.00     0.198 A 
ATOM     87  F   UNL A   1      46.314  28.187  23.906  1.00  0.00    -0.203 F 
ATOM     88  F   UNL A   1      50.808  26.758  26.642  1.00  0.00    -0.200 F 
ATOM     89  C   UNL A   1      49.684  27.056  24.588  1.00  0.00     0.200 A 
ATOM     90  F   UNL A   1      48.516  27.377  22.561  1.00  0.00    -0.200 F 
ATOM     91  F   UNL A   1      50.782  26.685  23.914  1.00  0.00    -0.200 F 
ENDBRANCH  57  81
BRANCH  69  92
ATOM     92  C   UNL A   1      45.058  33.888  28.604  1.00  0.00     0.064 A 
ATOM     93  C   UNL A   1      44.780  34.825  27.599  1.00  0.00     0.173 A 
ATOM     94  C   UNL A   1      45.876  34.286  29.672  1.00  0.00     0.173 A 
ATOM     95  F   UNL A   1      44.018  34.483  26.547  1.00  0.00    -0.203 F 
ATOM     96  C   UNL A   1      45.320  36.106  27.650  1.00  0.00     0.198 A 
ATOM     97  C   UNL A   1      46.384  35.578  29.738  1.00  0.00     0.198 A 
ATOM     98  F   UNL A   1      46.163  33.427  30.661  1.00  0.00    -0.203 F 
ATOM     99  F   UNL A   1      45.084  36.970  26.654  1.00  0.00    -0.200 F 
ATOM    100  C   UNL A   1      46.112  36.485  28.725  1.00  0.00     0.200 A 
ATOM    101  F   UNL A   1      47.134  35.948  30.785  1.00  0.00    -0.200 F 
ATOM    102  F   UNL A   1      46.620  37.723  28.779  1.00  0.00    -0.200 F 
ENDBRANCH  69  92
ENDBRANCH  43  44
ENDBRANCH  36  38
ENDBRANCH  35  36
ENDBRANCH  34  35
ENDBRANCH   1  34
TORSDOF 17
ENDMDL
MODEL 2
REMARK VINA RESULT:     -13.3      0.849      1.648
REMARK SMILES CC(C)[C@H](NC(=O)[C@H](Cc1ccccc1)n1c(=O)[nH]c2ccccc2c1=O)C(=O)OCCOC(=O)c1ccc(-c2c3nc(c(-c4c(F)c(F)c(F)c(F)c4F)c4ccc([nH]4)c(-c4c(F)c(F)c(F)c(F)c4F)c4nc(c(-c5c(F)c(F)c(F)c(F)c5F)c5ccc2[nH]5)C=C4)C=C3)cc1
REMARK SMILES IDX 31 1 30 2 28 3 29 4 4 5 2 6 1 7 3 8 5 9 6 10 7 12 8 13 16 14
REMARK SMILES IDX 17 15 26 16 18 17 19 18 25 19 27 20 20 21 24 23 21 24 23 25
REMARK SMILES IDX 22 26 9 27 10 28 11 29 15 30 12 31 14 32 13 33 32 34 33 35
REMARK SMILES IDX 34 36 35 37 36 38 37 39 98 40 38 41 97 42 39 43 40 44 41 45
REMARK SMILES IDX 91 46 42 47 96 48 90 49 92 50 43 51 95 52 89 53 88 54 44 56
REMARK SMILES IDX 76 57 56 58 75 59 57 60 60 61 74 62 93 63 58 64 59 65 73 67
REMARK SMILES IDX 94 68 61 69 45 70 46 71 54 72 47 73 48 74 52 75 55 76 49 77
REMARK SMILES IDX 50 78 53 79 51 80 77 81 78 82 86 83 79 84 80 85 84 86 87 87
REMARK SMILES IDX 81 88 82 89 85 90 83 91 62 92 63 93 71 94 64 95 65 96 69 97
REMARK SMILES IDX 72 98 66 99 67 100 70 101 68 102
REMARK H PARENT 5 11 19 22 92 55 60 66
REMARK Flexibility Score: inf
ROOT
ATOM      1  C   UNL A   1      36.452  22.892  23.625  1.00  0.00     0.274 C 
ENDROOT
BRANCH   1   2
ATOM      2  O   UNL A   1      35.456  23.739  24.244  1.00  0.00    -0.461 OA
BRANCH   2   3
ATOM      3  C   UNL A   1      34.383  24.220  23.549  1.00  0.00     0.329 C 
ATOM      4  O   UNL A   1      34.418  24.610  22.392  1.00  0.00    -0.250 OA
BRANCH   3   5
ATOM      5  C   UNL A   1      33.082  24.041  24.388  1.00  0.00     0.194 C 
BRANCH   5   6
ATOM      6  C   UNL A   1      33.022  22.980  25.511  1.00  0.00     0.017 C 
ATOM      7  C   UNL A   1      32.905  23.609  26.909  1.00  0.00     0.010 C 
ATOM      8  C   UNL A   1      31.881  22.009  25.350  1.00  0.00     0.010 C 
ENDBRANCH   5   6
BRANCH   5   9
ATOM      9  N   UNL A   1      31.835  24.324  23.701  1.00  0.00    -0.341 N 
ATOM     10  C   UNL A   1      30.980  25.366  23.656  1.00  0.00     0.244 C 
ATOM     11  H   UNL A   1      31.543  23.576  23.131  1.00  0.00     0.164 HD
ATOM     12  O   UNL A   1      29.829  24.949  23.450  1.00  0.00    -0.273 OA
BRANCH  10  13
ATOM     13  C   UNL A   1      31.216  26.845  24.103  1.00  0.00     0.189 C 
BRANCH  13  14
ATOM     14  N   UNL A   1      30.666  27.988  23.312  1.00  0.00    -0.247 N 
ATOM     15  C   UNL A   1      31.473  28.744  22.487  1.00  0.00     0.329 A 
ATOM     16  C   UNL A   1      29.285  28.184  23.291  1.00  0.00     0.264 A 
ATOM     17  O   UNL A   1      32.693  28.657  22.423  1.00  0.00    -0.248 OA
ATOM     18  N   UNL A   1      30.878  29.737  21.745  1.00  0.00    -0.307 N 
ATOM     19  C   UNL A   1      28.812  29.526  22.914  1.00  0.00     0.064 A 
ATOM     20  O   UNL A   1      28.442  27.328  23.530  1.00  0.00    -0.268 OA
ATOM     21  C   UNL A   1      29.615  30.245  22.044  1.00  0.00     0.055 A 
ATOM     22  H   UNL A   1      31.362  30.103  20.970  1.00  0.00     0.171 HD
ATOM     23  C   UNL A   1      27.680  30.113  23.487  1.00  0.00     0.016 A 
ATOM     24  C   UNL A   1      29.253  31.533  21.653  1.00  0.00     0.027 A 
ATOM     25  C   UNL A   1      27.363  31.435  23.169  1.00  0.00     0.001 A 
ATOM     26  C   UNL A   1      28.133  32.134  22.236  1.00  0.00     0.002 A 
ENDBRANCH  13  14
BRANCH  13  27
ATOM     27  C   UNL A   1      31.123  26.979  25.667  1.00  0.00     0.071 C 
BRANCH  27  28
ATOM     28  C   UNL A   1      32.123  27.887  26.360  1.00  0.00    -0.045 A 
ATOM     29  C   UNL A   1      33.484  27.586  26.349  1.00  0.00     0.004 A 
ATOM     30  C   UNL A   1      31.723  29.099  26.948  1.00  0.00     0.004 A 
ATOM     31  C   UNL A   1      34.425  28.549  26.720  1.00  0.00     0.000 A 
ATOM     32  C   UNL A   1      32.658  30.069  27.307  1.00  0.00     0.000 A 
ATOM     33  C   UNL A   1      34.012  29.805  27.159  1.00  0.00     0.000 A 
ENDBRANCH  27  28
ENDBRANCH  13  27
ENDBRANCH  10  13
ENDBRANCH   5   9
ENDBRANCH   3   5
ENDBRANCH   2   3
ENDBRANCH   1   2
BRANCH   1  34
ATOM     34  C   UNL A   1      36.762  21.704  24.539  1.00  0.00     0.275 C 
BRANCH  34  35
ATOM     35  O   UNL A   1      37.340  22.180  25.759  1.00  0.00    -0.458 OA
BRANCH  35  36
ATOM     36  C   UNL A   1      38.552  21.659  26.038  1.00  0.00     0.338 C 
ATOM     37  O   UNL A   1      39.016  20.577  25.709  1.00  0.00    -0.246 OA
BRANCH  36  38
ATOM     38  C   UNL A   1      39.367  22.767  26.525  1.00  0.00     0.060 A 
ATOM     39  C   UNL A   1      39.023  24.041  26.072  1.00  0.00     0.016 A 
ATOM     40  C   UNL A   1      40.392  22.583  27.443  1.00  0.00     0.016 A 
ATOM     41  C   UNL A   1      39.694  25.156  26.515  1.00  0.00     0.010 A 
ATOM     42  C   UNL A   1      41.070  23.704  27.906  1.00  0.00     0.010 A 
ATOM     43  C   UNL A   1      40.718  24.986  27.442  1.00  0.00    -0.014 A 
BRANCH  43  44
ATOM     44  C   UNL A   1      41.473  26.164  27.876  1.00  0.00     0.031 A 
ATOM     45  C   UNL A   1      40.752  27.210  28.653  1.00  0.00     0.074 A 
ATOM     46  C   UNL A   1      42.778  26.254  27.575  1.00  0.00     0.049 A 
ATOM     47  N   UNL A   1      41.125  28.424  28.944  1.00  0.00    -0.248 NA
ATOM     48  C   UNL A   1      39.420  26.841  29.163  1.00  0.00     0.031 C 
ATOM     49  C   UNL A   1      43.569  25.211  26.917  1.00  0.00     0.029 A 
ATOM     50  N   UNL A   1      43.664  27.277  27.768  1.00  0.00    -0.354 N 
ATOM     51  C   UNL A   1      40.058  28.982  29.629  1.00  0.00     0.074 A 
ATOM     52  C   UNL A   1      39.021  27.978  29.715  1.00  0.00     0.031 C 
ATOM     53  C   UNL A   1      44.821  25.659  26.738  1.00  0.00     0.029 A 
ATOM     54  C   UNL A   1      44.888  27.041  27.194  1.00  0.00     0.049 A 
ATOM     55  H   UNL A   1      43.445  28.097  28.267  1.00  0.00     0.167 HD
ATOM     56  C   UNL A   1      39.968  30.236  30.125  1.00  0.00     0.037 A 
ATOM     57  C   UNL A   1      45.916  27.887  27.001  1.00  0.00     0.037 A 
ATOM     58  C   UNL A   1      41.035  31.196  30.016  1.00  0.00     0.049 A 
ATOM     59  C   UNL A   1      45.752  29.307  27.471  1.00  0.00     0.074 A 
ATOM     60  C   UNL A   1      41.077  32.498  30.472  1.00  0.00     0.029 A 
ATOM     61  N   UNL A   1      42.254  30.943  29.397  1.00  0.00    -0.354 N 
ATOM     62  N   UNL A   1      44.734  29.859  28.090  1.00  0.00    -0.248 NA
ATOM     63  C   UNL A   1      46.863  30.223  27.201  1.00  0.00     0.031 C 
ATOM     64  C   UNL A   1      42.300  33.052  30.077  1.00  0.00     0.029 A 
ATOM     65  C   UNL A   1      43.045  32.077  29.427  1.00  0.00     0.049 A 
ATOM     66  H   UNL A   1      42.515  30.083  28.995  1.00  0.00     0.167 HD
ATOM     67  C   UNL A   1      45.085  31.184  28.297  1.00  0.00     0.074 A 
ATOM     68  C   UNL A   1      46.423  31.343  27.757  1.00  0.00     0.031 C 
ATOM     69  C   UNL A   1      44.372  32.185  28.871  1.00  0.00     0.037 A 
BRANCH  56  70
ATOM     70  C   UNL A   1      38.670  30.642  30.753  1.00  0.00     0.064 A 
ATOM     71  C   UNL A   1      37.559  31.031  29.988  1.00  0.00     0.173 A 
ATOM     72  C   UNL A   1      38.537  30.648  32.150  1.00  0.00     0.173 A 
ATOM     73  F   UNL A   1      37.641  31.069  28.650  1.00  0.00    -0.203 F 
ATOM     74  C   UNL A   1      36.373  31.431  30.600  1.00  0.00     0.198 A 
ATOM     75  C   UNL A   1      37.341  31.020  32.757  1.00  0.00     0.198 A 
ATOM     76  F   UNL A   1      39.571  30.296  32.930  1.00  0.00    -0.203 F 
ATOM     77  F   UNL A   1      35.344  31.850  29.851  1.00  0.00    -0.200 F 
ATOM     78  C   UNL A   1      36.262  31.418  31.983  1.00  0.00     0.200 A 
ATOM     79  F   UNL A   1      37.235  31.000  34.093  1.00  0.00    -0.200 F 
ATOM     80  F   UNL A   1      35.120  31.800  32.569  1.00  0.00    -0.200 F 
ENDBRANCH  56  70
BRANCH  57  81
ATOM     81  C   UNL A   1      47.135  27.431  26.285  1.00  0.00     0.064 A 
ATOM     82  C   UNL A   1      48.219  26.886  26.985  1.00  0.00     0.173 A 
ATOM     83  C   UNL A   1      47.241  27.520  24.888  1.00  0.00     0.173 A 
ATOM     84  F   UNL A   1      48.175  26.795  28.322  1.00  0.00    -0.203 F 
ATOM     85  C   UNL A   1      49.368  26.464  26.316  1.00  0.00     0.198 A 
ATOM     86  C   UNL A   1      48.375  27.068  24.218  1.00  0.00     0.198 A 
ATOM     87  F   UNL A   1      46.232  28.032  24.167  1.00  0.00    -0.203 F 
ATOM     88  F   UNL A   1      50.406  25.986  27.015  1.00  0.00    -0.200 F 
ATOM     89  C   UNL A   1      49.443  26.548  24.934  1.00  0.00     0.200 A 
ATOM     90  F   UNL A   1      48.434  27.134  22.881  1.00  0.00    -0.200 F 
ATOM     91  F   UNL A   1      50.544  26.133  24.293  1.00  0.00    -0.200 F 
ENDBRANCH  57  81
BRANCH  69  92
ATOM     92  C   UNL A   1      45.040  33.524  28.956  1.00  0.00     0.064 A 
ATOM     93  C   UNL A   1      44.857  34.497  27.964  1.00  0.00     0.173 A 
ATOM     94  C   UNL A   1      45.832  33.851  30.067  1.00  0.00     0.173 A 
ATOM     95  F   UNL A   1      44.124  34.222  26.874  1.00  0.00    -0.203 F 
ATOM     96  C   UNL A   1      45.464  35.745  28.070  1.00  0.00     0.198 A 
ATOM     97  C   UNL A   1      46.406  35.111  30.188  1.00  0.00     0.198 A 
ATOM     98  F   UNL A   1      46.029  32.955  31.045  1.00  0.00    -0.203 F 
ATOM     99  F   UNL A   1      45.318  36.643  27.087  1.00  0.00    -0.200 F 
ATOM    100  C   UNL A   1      46.228  36.054  29.186  1.00  0.00     0.200 A 
ATOM    101  F   UNL A   1      47.129  35.415  31.273  1.00  0.00    -0.200 F 
ATOM    102  F   UNL A   1      46.800  37.261  29.293  1.00  0.00    -0.200 F 
ENDBRANCH  69  92
ENDBRANCH  43  44
ENDBRANCH  36  38
ENDBRANCH  35  36
ENDBRANCH  34  35
ENDBRANCH   1  34
TORSDOF 17
ENDMDL
MODEL 3
REMARK VINA RESULT:     -13.2      4.221      9.910
REMARK SMILES CC(C)[C@H](NC(=O)[C@H](Cc1ccccc1)n1c(=O)[nH]c2ccccc2c1=O)C(=O)OCCOC(=O)c1ccc(-c2c3nc(c(-c4c(F)c(F)c(F)c(F)c4F)c4ccc([nH]4)c(-c4c(F)c(F)c(F)c(F)c4F)c4nc(c(-c5c(F)c(F)c(F)c(F)c5F)c5ccc2[nH]5)C=C4)C=C3)cc1
REMARK SMILES IDX 31 1 30 2 28 3 29 4 4 5 2 6 1 7 3 8 5 9 6 10 7 12 8 13 16 14
REMARK SMILES IDX 17 15 26 16 18 17 19 18 25 19 27 20 20 21 24 23 21 24 23 25
REMARK SMILES IDX 22 26 9 27 10 28 11 29 15 30 12 31 14 32 13 33 32 34 33 35
REMARK SMILES IDX 34 36 35 37 36 38 37 39 98 40 38 41 97 42 39 43 40 44 41 45
REMARK SMILES IDX 91 46 42 47 96 48 90 49 92 50 43 51 95 52 89 53 88 54 44 56
REMARK SMILES IDX 76 57 56 58 75 59 57 60 60 61 74 62 93 63 58 64 59 65 73 67
REMARK SMILES IDX 94 68 61 69 45 70 46 71 54 72 47 73 48 74 52 75 55 76 49 77
REMARK SMILES IDX 50 78 53 79 51 80 77 81 78 82 86 83 79 84 80 85 84 86 87 87
REMARK SMILES IDX 81 88 82 89 85 90 83 91 62 92 63 93 71 94 64 95 65 96 69 97
REMARK SMILES IDX 72 98 66 99 67 100 70 101 68 102
REMARK H PARENT 5 11 19 22 92 55 60 66
REMARK Flexibility Score: inf
ROOT
ATOM      1  C   UNL A   1      32.219  28.052  26.317  1.00  0.00     0.274 C 
ENDROOT
BRANCH   1   2
ATOM      2  O   UNL A   1      31.602  27.257  25.277  1.00  0.00    -0.461 OA
BRANCH   2   3
ATOM      3  C   UNL A   1      32.298  26.310  24.582  1.00  0.00     0.329 C 
ATOM      4  O   UNL A   1      33.470  26.408  24.250  1.00  0.00    -0.250 OA
BRANCH   3   5
ATOM      5  C   UNL A   1      31.434  25.023  24.423  1.00  0.00     0.194 C 
BRANCH   5   6
ATOM      6  C   UNL A   1      30.894  24.292  25.673  1.00  0.00     0.017 C 
ATOM      7  C   UNL A   1      31.930  24.220  26.806  1.00  0.00     0.010 C 
ATOM      8  C   UNL A   1      29.645  24.921  26.236  1.00  0.00     0.010 C 
ENDBRANCH   5   6
BRANCH   5   9
ATOM      9  N   UNL A   1      31.730  24.194  23.269  1.00  0.00    -0.341 N 
ATOM     10  C   UNL A   1      32.677  23.286  22.959  1.00  0.00     0.244 C 
ATOM     11  H   UNL A   1      31.086  24.327  22.537  1.00  0.00     0.164 HD
ATOM     12  O   UNL A   1      32.884  23.303  21.735  1.00  0.00    -0.273 OA
BRANCH  10  13
ATOM     13  C   UNL A   1      33.654  22.526  23.914  1.00  0.00     0.189 C 
BRANCH  13  14
ATOM     14  N   UNL A   1      33.308  21.178  24.459  1.00  0.00    -0.247 N 
ATOM     15  C   UNL A   1      33.396  20.907  25.809  1.00  0.00     0.329 A 
ATOM     16  C   UNL A   1      32.738  20.236  23.604  1.00  0.00     0.264 A 
ATOM     17  O   UNL A   1      33.875  21.658  26.649  1.00  0.00    -0.248 OA
ATOM     18  N   UNL A   1      32.999  19.662  26.238  1.00  0.00    -0.307 N 
ATOM     19  C   UNL A   1      32.834  18.825  24.014  1.00  0.00     0.064 A 
ATOM     20  O   UNL A   1      32.143  20.489  22.563  1.00  0.00    -0.268 OA
ATOM     21  C   UNL A   1      32.867  18.576  25.375  1.00  0.00     0.055 A 
ATOM     22  H   UNL A   1      32.798  19.533  27.194  1.00  0.00     0.171 HD
ATOM     23  C   UNL A   1      33.007  17.785  23.096  1.00  0.00     0.016 A 
ATOM     24  C   UNL A   1      32.979  17.270  25.850  1.00  0.00     0.027 A 
ATOM     25  C   UNL A   1      33.211  16.487  23.566  1.00  0.00     0.001 A 
ATOM     26  C   UNL A   1      33.173  16.227  24.939  1.00  0.00     0.002 A 
ENDBRANCH  13  14
BRANCH  13  27
ATOM     27  C   UNL A   1      35.147  22.726  23.462  1.00  0.00     0.071 C 
BRANCH  27  28
ATOM     28  C   UNL A   1      36.227  22.633  24.525  1.00  0.00    -0.045 A 
ATOM     29  C   UNL A   1      36.997  21.479  24.656  1.00  0.00     0.004 A 
ATOM     30  C   UNL A   1      36.546  23.732  25.340  1.00  0.00     0.004 A 
ATOM     31  C   UNL A   1      38.168  21.492  25.417  1.00  0.00     0.000 A 
ATOM     32  C   UNL A   1      37.720  23.755  26.090  1.00  0.00     0.000 A 
ATOM     33  C   UNL A   1      38.551  22.644  26.100  1.00  0.00     0.000 A 
ENDBRANCH  27  28
ENDBRANCH  13  27
ENDBRANCH  10  13
ENDBRANCH   5   9
ENDBRANCH   3   5
ENDBRANCH   2   3
ENDBRANCH   1   2
BRANCH   1  34
ATOM     34  C   UNL A   1      32.249  29.524  25.895  1.00  0.00     0.275 C 
BRANCH  34  35
ATOM     35  O   UNL A   1      33.558  30.057  26.120  1.00  0.00    -0.458 OA
BRANCH  35  36
ATOM     36  C   UNL A   1      33.591  31.102  26.972  1.00  0.00     0.338 C 
ATOM     37  O   UNL A   1      32.689  31.863  27.287  1.00  0.00    -0.246 OA
BRANCH  36  38
ATOM     38  C   UNL A   1      34.829  30.966  27.731  1.00  0.00     0.060 A 
ATOM     39  C   UNL A   1      35.131  29.691  28.211  1.00  0.00     0.016 A 
ATOM     40  C   UNL A   1      35.703  32.030  27.917  1.00  0.00     0.016 A 
ATOM     41  C   UNL A   1      36.301  29.449  28.892  1.00  0.00     0.010 A 
ATOM     42  C   UNL A   1      36.894  31.792  28.594  1.00  0.00     0.010 A 
ATOM     43  C   UNL A   1      37.189  30.503  29.077  1.00  0.00    -0.014 A 
BRANCH  43  44
ATOM     44  C   UNL A   1      38.411  30.263  29.848  1.00  0.00     0.031 A 
ATOM     45  C   UNL A   1      39.451  29.378  29.254  1.00  0.00     0.074 A 
ATOM     46  C   UNL A   1      38.557  30.854  31.045  1.00  0.00     0.049 A 
ATOM     47  N   UNL A   1      40.491  28.834  29.820  1.00  0.00    -0.248 NA
ATOM     48  C   UNL A   1      39.290  29.050  27.827  1.00  0.00     0.031 C 
ATOM     49  C   UNL A   1      37.627  31.823  31.631  1.00  0.00     0.029 A 
ATOM     50  N   UNL A   1      39.535  30.712  31.990  1.00  0.00    -0.354 N 
ATOM     51  C   UNL A   1      41.084  28.062  28.834  1.00  0.00     0.074 A 
ATOM     52  C   UNL A   1      40.292  28.205  27.633  1.00  0.00     0.031 C 
ATOM     53  C   UNL A   1      38.068  32.170  32.850  1.00  0.00     0.029 A 
ATOM     54  C   UNL A   1      39.260  31.387  33.152  1.00  0.00     0.049 A 
ATOM     55  H   UNL A   1      40.352  30.181  31.849  1.00  0.00     0.167 HD
ATOM     56  C   UNL A   1      42.189  27.294  28.949  1.00  0.00     0.037 A 
ATOM     57  C   UNL A   1      39.872  31.312  34.347  1.00  0.00     0.037 A 
ATOM     58  C   UNL A   1      42.944  27.191  30.170  1.00  0.00     0.049 A 
ATOM     59  C   UNL A   1      41.039  30.372  34.478  1.00  0.00     0.074 A 
ATOM     60  C   UNL A   1      44.081  26.451  30.425  1.00  0.00     0.029 A 
ATOM     61  N   UNL A   1      42.622  27.859  31.347  1.00  0.00    -0.354 N 
ATOM     62  N   UNL A   1      41.590  29.608  33.563  1.00  0.00    -0.248 NA
ATOM     63  C   UNL A   1      41.656  30.266  35.802  1.00  0.00     0.031 C 
ATOM     64  C   UNL A   1      44.413  26.625  31.774  1.00  0.00     0.029 A 
ATOM     65  C   UNL A   1      43.519  27.521  32.344  1.00  0.00     0.049 A 
ATOM     66  H   UNL A   1      41.865  28.480  31.455  1.00  0.00     0.167 HD
ATOM     67  C   UNL A   1      42.627  28.940  34.195  1.00  0.00     0.074 A 
ATOM     68  C   UNL A   1      42.640  29.411  35.568  1.00  0.00     0.031 C 
ATOM     69  C   UNL A   1      43.487  28.016  33.699  1.00  0.00     0.037 A 
BRANCH  56  70
ATOM     70  C   UNL A   1      42.590  26.473  27.762  1.00  0.00     0.064 A 
ATOM     71  C   UNL A   1      43.555  26.911  26.842  1.00  0.00     0.173 A 
ATOM     72  C   UNL A   1      41.991  25.225  27.537  1.00  0.00     0.173 A 
ATOM     73  F   UNL A   1      44.139  28.108  26.996  1.00  0.00    -0.203 F 
ATOM     74  C   UNL A   1      43.887  26.139  25.731  1.00  0.00     0.198 A 
ATOM     75  C   UNL A   1      42.346  24.443  26.441  1.00  0.00     0.198 A 
ATOM     76  F   UNL A   1      41.053  24.762  28.379  1.00  0.00    -0.203 F 
ATOM     77  F   UNL A   1      44.772  26.602  24.837  1.00  0.00    -0.200 F 
ATOM     78  C   UNL A   1      43.289  24.903  25.535  1.00  0.00     0.200 A 
ATOM     79  F   UNL A   1      41.771  23.246  26.259  1.00  0.00    -0.200 F 
ATOM     80  F   UNL A   1      43.612  24.161  24.468  1.00  0.00    -0.200 F 
ENDBRANCH  56  70
BRANCH  57  81
ATOM     81  C   UNL A   1      39.354  32.089  35.503  1.00  0.00     0.064 A 
ATOM     82  C   UNL A   1      38.487  31.504  36.434  1.00  0.00     0.173 A 
ATOM     83  C   UNL A   1      39.722  33.429  35.708  1.00  0.00     0.173 A 
ATOM     84  F   UNL A   1      38.092  30.233  36.273  1.00  0.00    -0.203 F 
ATOM     85  C   UNL A   1      37.994  32.233  37.515  1.00  0.00     0.198 A 
ATOM     86  C   UNL A   1      39.254  34.146  36.806  1.00  0.00     0.198 A 
ATOM     87  F   UNL A   1      40.552  34.039  34.849  1.00  0.00    -0.203 F 
ATOM     88  F   UNL A   1      37.132  31.661  38.366  1.00  0.00    -0.200 F 
ATOM     89  C   UNL A   1      38.383  33.550  37.705  1.00  0.00     0.200 A 
ATOM     90  F   UNL A   1      39.649  35.413  36.996  1.00  0.00    -0.200 F 
ATOM     91  F   UNL A   1      37.915  34.247  38.750  1.00  0.00    -0.200 F 
ENDBRANCH  57  81
BRANCH  69  92
ATOM     92  C   UNL A   1      44.518  27.480  34.645  1.00  0.00     0.064 A 
ATOM     93  C   UNL A   1      45.735  28.143  34.856  1.00  0.00     0.173 A 
ATOM     94  C   UNL A   1      44.261  26.316  35.386  1.00  0.00     0.173 A 
ATOM     95  F   UNL A   1      46.031  29.249  34.155  1.00  0.00    -0.203 F 
ATOM     96  C   UNL A   1      46.670  27.646  35.758  1.00  0.00     0.198 A 
ATOM     97  C   UNL A   1      45.183  25.843  36.313  1.00  0.00     0.198 A 
ATOM     98  F   UNL A   1      43.108  25.651  35.224  1.00  0.00    -0.203 F 
ATOM     99  F   UNL A   1      47.848  28.266  35.907  1.00  0.00    -0.200 F 
ATOM    100  C   UNL A   1      46.389  26.504  36.493  1.00  0.00     0.200 A 
ATOM    101  F   UNL A   1      44.903  24.750  37.035  1.00  0.00    -0.200 F 
ATOM    102  F   UNL A   1      47.285  26.035  37.371  1.00  0.00    -0.200 F 
ENDBRANCH  69  92
ENDBRANCH  43  44
ENDBRANCH  36  38
ENDBRANCH  35  36
ENDBRANCH  34  35
ENDBRANCH   1  34
TORSDOF 17
ENDMDL
