MODEL 1
REMARK VINA RESULT:     -10.8      0.000      0.000
REMARK SMILES O=C(OCCOC(=O)c1sccc1NS(=O)(=O)N1CCCC1)c1ccc(-c2c3nc(c(-c4c(F)c(F)c(F)c(F)c4F)c4ccc([nH]4)c(-c4c(F)c(F)c(F)c(F)c4F)c4nc(c(-c5c(F)c(F)c(F)c(F)c5F)c5ccc2[nH]5)C=C4)C=C3)cc1
REMARK SMILES IDX 5 1 4 2 3 3 2 4 1 5 23 6 24 7 85 8 25 9 84 10 26 11 27 12
REMARK SMILES IDX 28 13 78 14 29 15 83 16 77 17 79 18 30 19 82 20 76 21 75 22
REMARK SMILES IDX 31 24 63 25 43 26 62 27 44 28 47 29 61 30 80 31 45 32 46 33
REMARK SMILES IDX 60 35 81 36 48 37 32 38 33 39 41 40 34 41 35 42 39 43 42 44
REMARK SMILES IDX 36 45 37 46 40 47 38 48 64 49 65 50 73 51 66 52 67 53 71 54
REMARK SMILES IDX 74 55 68 56 69 57 72 58 70 59 49 60 50 61 58 62 51 63 52 64
REMARK SMILES IDX 56 65 59 66 53 67 54 68 57 69 55 70 6 71 7 72 8 73 9 74
REMARK SMILES IDX 10 75 13 76 11 77 12 78 14 79 15 81 16 82 17 83 18 84 19 85
REMARK SMILES IDX 22 86 20 87 21 88
REMARK H PARENT 79 23 47 34 14 80
REMARK Flexibility Score: inf
ROOT
ATOM      1  C   UNL A   1      33.272  34.186  28.171  1.00  0.00     0.275 C 
ENDROOT
BRANCH   1   2
ATOM      2  C   UNL A   1      33.084  32.727  27.733  1.00  0.00     0.275 C 
BRANCH   2   3
ATOM      3  O   UNL A   1      34.036  31.814  28.310  1.00  0.00    -0.458 OA
BRANCH   3   4
ATOM      4  C   UNL A   1      34.521  30.656  27.800  1.00  0.00     0.338 C 
ATOM      5  O   UNL A   1      33.792  29.959  27.095  1.00  0.00    -0.246 OA
BRANCH   4   6
ATOM      6  C   UNL A   1      35.850  30.090  28.188  1.00  0.00     0.060 A 
ATOM      7  C   UNL A   1      36.161  29.521  29.423  1.00  0.00     0.016 A 
ATOM      8  C   UNL A   1      36.882  30.191  27.233  1.00  0.00     0.016 A 
ATOM      9  C   UNL A   1      37.444  29.048  29.695  1.00  0.00     0.010 A 
ATOM     10  C   UNL A   1      38.169  29.705  27.494  1.00  0.00     0.010 A 
ATOM     11  C   UNL A   1      38.460  29.143  28.741  1.00  0.00    -0.014 A 
BRANCH  11  12
ATOM     12  C   UNL A   1      39.839  28.788  29.149  1.00  0.00     0.031 A 
ATOM     13  C   UNL A   1      40.561  29.680  30.111  1.00  0.00     0.074 A 
ATOM     14  C   UNL A   1      40.372  27.599  28.810  1.00  0.00     0.049 A 
ATOM     15  N   UNL A   1      41.725  29.504  30.681  1.00  0.00    -0.248 NA
ATOM     16  C   UNL A   1      39.861  30.904  30.526  1.00  0.00     0.031 C 
ATOM     17  C   UNL A   1      39.701  26.578  28.014  1.00  0.00     0.029 A 
ATOM     18  N   UNL A   1      41.584  27.035  29.115  1.00  0.00    -0.354 N 
ATOM     19  C   UNL A   1      41.867  30.560  31.568  1.00  0.00     0.074 A 
ATOM     20  C   UNL A   1      40.713  31.417  31.401  1.00  0.00     0.031 C 
ATOM     21  C   UNL A   1      40.514  25.519  27.873  1.00  0.00     0.029 A 
ATOM     22  C   UNL A   1      41.777  25.809  28.528  1.00  0.00     0.049 A 
ATOM     23  H   UNL A   1      42.250  27.467  29.697  1.00  0.00     0.167 HD
ATOM     24  C   UNL A   1      42.850  30.768  32.473  1.00  0.00     0.037 A 
ATOM     25  C   UNL A   1      42.868  25.026  28.492  1.00  0.00     0.037 A 
ATOM     26  C   UNL A   1      44.010  29.930  32.612  1.00  0.00     0.049 A 
ATOM     27  C   UNL A   1      44.074  25.435  29.275  1.00  0.00     0.074 A 
ATOM     28  C   UNL A   1      45.070  30.055  33.493  1.00  0.00     0.029 A 
ATOM     29  N   UNL A   1      44.272  28.815  31.828  1.00  0.00    -0.354 N 
ATOM     30  N   UNL A   1      44.223  26.462  30.073  1.00  0.00    -0.248 NA
ATOM     31  C   UNL A   1      45.251  24.567  29.166  1.00  0.00     0.031 C 
ATOM     32  C   UNL A   1      46.000  29.048  33.202  1.00  0.00     0.029 A 
ATOM     33  C   UNL A   1      45.495  28.263  32.178  1.00  0.00     0.049 A 
ATOM     34  H   UNL A   1      43.677  28.467  31.125  1.00  0.00     0.167 HD
ATOM     35  C   UNL A   1      45.489  26.333  30.615  1.00  0.00     0.074 A 
ATOM     36  C   UNL A   1      46.083  25.154  30.016  1.00  0.00     0.031 C 
ATOM     37  C   UNL A   1      46.081  27.099  31.563  1.00  0.00     0.037 A 
BRANCH  24  38
ATOM     38  C   UNL A   1      42.705  31.970  33.356  1.00  0.00     0.064 A 
ATOM     39  C   UNL A   1      42.017  31.905  34.579  1.00  0.00     0.173 A 
ATOM     40  C   UNL A   1      43.226  33.209  32.959  1.00  0.00     0.173 A 
ATOM     41  F   UNL A   1      41.478  30.746  34.990  1.00  0.00    -0.203 F 
ATOM     42  C   UNL A   1      41.829  33.045  35.356  1.00  0.00     0.198 A 
ATOM     43  C   UNL A   1      43.057  34.341  33.751  1.00  0.00     0.198 A 
ATOM     44  F   UNL A   1      43.883  33.324  31.796  1.00  0.00    -0.203 F 
ATOM     45  F   UNL A   1      41.118  32.971  36.490  1.00  0.00    -0.200 F 
ATOM     46  C   UNL A   1      42.352  34.261  34.943  1.00  0.00     0.200 A 
ATOM     47  F   UNL A   1      43.564  35.516  33.353  1.00  0.00    -0.200 F 
ATOM     48  F   UNL A   1      42.161  35.360  35.685  1.00  0.00    -0.200 F 
ENDBRANCH  24  38
BRANCH  25  49
ATOM     49  C   UNL A   1      42.915  23.847  27.598  1.00  0.00     0.064 A 
ATOM     50  C   UNL A   1      43.256  23.931  26.246  1.00  0.00     0.173 A 
ATOM     51  C   UNL A   1      42.548  22.594  28.108  1.00  0.00     0.173 A 
ATOM     52  F   UNL A   1      43.567  25.118  25.706  1.00  0.00    -0.203 F 
ATOM     53  C   UNL A   1      43.231  22.797  25.433  1.00  0.00     0.198 A 
ATOM     54  C   UNL A   1      42.541  21.460  27.303  1.00  0.00     0.198 A 
ATOM     55  F   UNL A   1      42.165  22.489  29.388  1.00  0.00    -0.203 F 
ATOM     56  F   UNL A   1      43.520  22.902  24.129  1.00  0.00    -0.200 F 
ATOM     57  C   UNL A   1      42.880  21.562  25.964  1.00  0.00     0.200 A 
ATOM     58  F   UNL A   1      42.187  20.276  27.823  1.00  0.00    -0.200 F 
ATOM     59  F   UNL A   1      42.842  20.476  25.180  1.00  0.00    -0.200 F 
ENDBRANCH  25  49
BRANCH  37  60
ATOM     60  C   UNL A   1      47.403  26.616  32.070  1.00  0.00     0.064 A 
ATOM     61  C   UNL A   1      48.618  27.069  31.537  1.00  0.00     0.173 A 
ATOM     62  C   UNL A   1      47.444  25.647  33.084  1.00  0.00     0.173 A 
ATOM     63  F   UNL A   1      48.625  27.968  30.542  1.00  0.00    -0.203 F 
ATOM     64  C   UNL A   1      49.828  26.540  31.979  1.00  0.00     0.198 A 
ATOM     65  C   UNL A   1      48.655  25.145  33.544  1.00  0.00     0.198 A 
ATOM     66  F   UNL A   1      46.306  25.179  33.617  1.00  0.00    -0.203 F 
ATOM     67  F   UNL A   1      50.975  26.933  31.409  1.00  0.00    -0.200 F 
ATOM     68  C   UNL A   1      49.846  25.582  32.983  1.00  0.00     0.200 A 
ATOM     69  F   UNL A   1      48.670  24.223  34.516  1.00  0.00    -0.200 F 
ATOM     70  F   UNL A   1      51.010  25.067  33.399  1.00  0.00    -0.200 F 
ENDBRANCH  37  60
ENDBRANCH  11  12
ENDBRANCH   4   6
ENDBRANCH   3   4
ENDBRANCH   2   3
ENDBRANCH   1   2
BRANCH   1  71
ATOM     71  O   UNL A   1      33.155  34.376  29.594  1.00  0.00    -0.458 OA
BRANCH  71  72
ATOM     72  C   UNL A   1      32.946  35.679  29.971  1.00  0.00     0.350 C 
ATOM     73  O   UNL A   1      32.305  36.484  29.304  1.00  0.00    -0.245 OA
BRANCH  72  74
ATOM     74  C   UNL A   1      33.462  35.904  31.304  1.00  0.00     0.136 A 
ATOM     75  S   UNL A   1      33.463  37.541  31.846  1.00  0.00    -0.135 S 
ATOM     76  C   UNL A   1      33.972  35.048  32.270  1.00  0.00     0.075 A 
ATOM     77  C   UNL A   1      33.943  37.096  33.413  1.00  0.00     0.068 A 
ATOM     78  C   UNL A   1      34.190  35.748  33.499  1.00  0.00     0.039 A 
BRANCH  76  79
ATOM     79  N   UNL A   1      34.188  33.653  32.160  1.00  0.00    -0.269 N 
ATOM     80  H   UNL A   1      33.415  33.044  32.111  1.00  0.00     0.181 HD
BRANCH  79  81
ATOM     81  S   UNL A   1      35.758  33.020  32.110  1.00  0.00     0.301 S 
ATOM     82  O   UNL A   1      36.295  33.116  33.449  1.00  0.00    -0.189 OA
ATOM     83  O   UNL A   1      35.653  31.735  31.459  1.00  0.00    -0.189 OA
BRANCH  81  84
ATOM     84  N   UNL A   1      36.635  34.060  31.117  1.00  0.00    -0.185 NA
ATOM     85  C   UNL A   1      36.514  33.765  29.653  1.00  0.00     0.104 C 
ATOM     86  C   UNL A   1      38.086  34.268  31.401  1.00  0.00     0.104 C 
ATOM     87  C   UNL A   1      37.940  33.553  29.169  1.00  0.00     0.018 C 
ATOM     88  C   UNL A   1      38.706  34.528  30.033  1.00  0.00     0.018 C 
ENDBRANCH  81  84
ENDBRANCH  79  81
ENDBRANCH  76  79
ENDBRANCH  72  74
ENDBRANCH  71  72
ENDBRANCH   1  71
TORSDOF 14
ENDMDL
MODEL 2
REMARK VINA RESULT:     -10.6      5.202     11.675
REMARK SMILES O=C(OCCOC(=O)c1sccc1NS(=O)(=O)N1CCCC1)c1ccc(-c2c3nc(c(-c4c(F)c(F)c(F)c(F)c4F)c4ccc([nH]4)c(-c4c(F)c(F)c(F)c(F)c4F)c4nc(c(-c5c(F)c(F)c(F)c(F)c5F)c5ccc2[nH]5)C=C4)C=C3)cc1
REMARK SMILES IDX 5 1 4 2 3 3 2 4 1 5 23 6 24 7 85 8 25 9 84 10 26 11 27 12
REMARK SMILES IDX 28 13 78 14 29 15 83 16 77 17 79 18 30 19 82 20 76 21 75 22
REMARK SMILES IDX 31 24 63 25 43 26 62 27 44 28 47 29 61 30 80 31 45 32 46 33
REMARK SMILES IDX 60 35 81 36 48 37 32 38 33 39 41 40 34 41 35 42 39 43 42 44
REMARK SMILES IDX 36 45 37 46 40 47 38 48 64 49 65 50 73 51 66 52 67 53 71 54
REMARK SMILES IDX 74 55 68 56 69 57 72 58 70 59 49 60 50 61 58 62 51 63 52 64
REMARK SMILES IDX 56 65 59 66 53 67 54 68 57 69 55 70 6 71 7 72 8 73 9 74
REMARK SMILES IDX 10 75 13 76 11 77 12 78 14 79 15 81 16 82 17 83 18 84 19 85
REMARK SMILES IDX 22 86 20 87 21 88
REMARK H PARENT 79 23 47 34 14 80
REMARK Flexibility Score: inf
ROOT
ATOM      1  C   UNL A   1      41.031  19.664  26.537  1.00  0.00     0.275 C 
ENDROOT
BRANCH   1   2
ATOM      2  C   UNL A   1      40.439  20.973  27.078  1.00  0.00     0.275 C 
BRANCH   2   3
ATOM      3  O   UNL A   1      39.933  21.854  26.059  1.00  0.00    -0.458 OA
BRANCH   3   4
ATOM      4  C   UNL A   1      39.014  22.844  26.169  1.00  0.00     0.338 C 
ATOM      5  O   UNL A   1      37.905  22.693  25.658  1.00  0.00    -0.246 OA
BRANCH   4   6
ATOM      6  C   UNL A   1      39.333  24.190  26.739  1.00  0.00     0.060 A 
ATOM      7  C   UNL A   1      40.006  25.214  26.073  1.00  0.00     0.016 A 
ATOM      8  C   UNL A   1      38.960  24.412  28.079  1.00  0.00     0.016 A 
ATOM      9  C   UNL A   1      40.280  26.425  26.706  1.00  0.00     0.010 A 
ATOM     10  C   UNL A   1      39.219  25.632  28.717  1.00  0.00     0.010 A 
ATOM     11  C   UNL A   1      39.900  26.643  28.032  1.00  0.00    -0.014 A 
BRANCH  11  12
ATOM     12  C   UNL A   1      40.373  27.876  28.703  1.00  0.00     0.031 A 
ATOM     13  C   UNL A   1      41.832  28.017  29.012  1.00  0.00     0.074 A 
ATOM     14  C   UNL A   1      39.550  28.926  28.873  1.00  0.00     0.049 A 
ATOM     15  N   UNL A   1      42.475  29.048  29.493  1.00  0.00    -0.248 NA
ATOM     16  C   UNL A   1      42.688  26.866  28.687  1.00  0.00     0.031 C 
ATOM     17  C   UNL A   1      38.151  28.968  28.464  1.00  0.00     0.029 A 
ATOM     18  N   UNL A   1      39.773  30.170  29.404  1.00  0.00    -0.354 N 
ATOM     19  C   UNL A   1      43.815  28.695  29.470  1.00  0.00     0.074 A 
ATOM     20  C   UNL A   1      43.888  27.325  29.007  1.00  0.00     0.031 C 
ATOM     21  C   UNL A   1      37.631  30.164  28.776  1.00  0.00     0.029 A 
ATOM     22  C   UNL A   1      38.647  30.954  29.448  1.00  0.00     0.049 A 
ATOM     23  H   UNL A   1      40.654  30.471  29.724  1.00  0.00     0.167 HD
ATOM     24  C   UNL A   1      44.890  29.461  29.763  1.00  0.00     0.037 A 
ATOM     25  C   UNL A   1      38.450  32.161  30.006  1.00  0.00     0.037 A 
ATOM     26  C   UNL A   1      44.810  30.811  30.253  1.00  0.00     0.049 A 
ATOM     27  C   UNL A   1      39.618  32.876  30.605  1.00  0.00     0.074 A 
ATOM     28  C   UNL A   1      45.837  31.675  30.588  1.00  0.00     0.029 A 
ATOM     29  N   UNL A   1      43.623  31.487  30.500  1.00  0.00    -0.354 N 
ATOM     30  N   UNL A   1      40.876  32.516  30.627  1.00  0.00    -0.248 NA
ATOM     31  C   UNL A   1      39.340  34.170  31.238  1.00  0.00     0.031 C 
ATOM     32  C   UNL A   1      45.270  32.853  31.091  1.00  0.00     0.029 A 
ATOM     33  C   UNL A   1      43.891  32.745  31.017  1.00  0.00     0.049 A 
ATOM     34  H   UNL A   1      42.722  31.127  30.331  1.00  0.00     0.167 HD
ATOM     35  C   UNL A   1      41.555  33.566  31.218  1.00  0.00     0.074 A 
ATOM     36  C   UNL A   1      40.560  34.555  31.583  1.00  0.00     0.031 C 
ATOM     37  C   UNL A   1      42.891  33.713  31.392  1.00  0.00     0.037 A 
BRANCH  24  38
ATOM     38  C   UNL A   1      46.235  28.828  29.579  1.00  0.00     0.064 A 
ATOM     39  C   UNL A   1      46.932  28.923  28.364  1.00  0.00     0.173 A 
ATOM     40  C   UNL A   1      46.819  28.086  30.616  1.00  0.00     0.173 A 
ATOM     41  F   UNL A   1      46.403  29.600  27.333  1.00  0.00    -0.203 F 
ATOM     42  C   UNL A   1      48.149  28.271  28.183  1.00  0.00     0.198 A 
ATOM     43  C   UNL A   1      48.047  27.457  30.439  1.00  0.00     0.198 A 
ATOM     44  F   UNL A   1      46.188  27.960  31.793  1.00  0.00    -0.203 F 
ATOM     45  F   UNL A   1      48.768  28.325  26.995  1.00  0.00    -0.200 F 
ATOM     46  C   UNL A   1      48.706  27.541  29.222  1.00  0.00     0.200 A 
ATOM     47  F   UNL A   1      48.587  26.754  31.444  1.00  0.00    -0.200 F 
ATOM     48  F   UNL A   1      49.872  26.904  29.045  1.00  0.00    -0.200 F 
ENDBRANCH  24  38
BRANCH  25  49
ATOM     49  C   UNL A   1      37.082  32.715  30.131  1.00  0.00     0.064 A 
ATOM     50  C   UNL A   1      36.501  33.531  29.158  1.00  0.00     0.173 A 
ATOM     51  C   UNL A   1      36.351  32.459  31.299  1.00  0.00     0.173 A 
ATOM     52  F   UNL A   1      37.185  33.840  28.047  1.00  0.00    -0.203 F 
ATOM     53  C   UNL A   1      35.229  34.072  29.350  1.00  0.00     0.198 A 
ATOM     54  C   UNL A   1      35.077  32.982  31.483  1.00  0.00     0.198 A 
ATOM     55  F   UNL A   1      36.902  31.722  32.274  1.00  0.00    -0.203 F 
ATOM     56  F   UNL A   1      34.703  34.887  28.426  1.00  0.00    -0.200 F 
ATOM     57  C   UNL A   1      34.516  33.792  30.508  1.00  0.00     0.200 A 
ATOM     58  F   UNL A   1      34.403  32.717  32.611  1.00  0.00    -0.200 F 
ATOM     59  F   UNL A   1      33.301  34.324  30.698  1.00  0.00    -0.200 F 
ENDBRANCH  25  49
BRANCH  37  60
ATOM     60  C   UNL A   1      43.345  35.038  31.920  1.00  0.00     0.064 A 
ATOM     61  C   UNL A   1      43.661  36.110  31.074  1.00  0.00     0.173 A 
ATOM     62  C   UNL A   1      43.504  35.214  33.303  1.00  0.00     0.173 A 
ATOM     63  F   UNL A   1      43.557  35.974  29.744  1.00  0.00    -0.203 F 
ATOM     64  C   UNL A   1      44.155  37.303  31.595  1.00  0.00     0.198 A 
ATOM     65  C   UNL A   1      43.968  36.417  33.820  1.00  0.00     0.198 A 
ATOM     66  F   UNL A   1      43.222  34.212  34.149  1.00  0.00    -0.203 F 
ATOM     67  F   UNL A   1      44.518  38.292  30.768  1.00  0.00    -0.200 F 
ATOM     68  C   UNL A   1      44.305  37.456  32.967  1.00  0.00     0.200 A 
ATOM     69  F   UNL A   1      44.108  36.565  35.145  1.00  0.00    -0.200 F 
ATOM     70  F   UNL A   1      44.791  38.601  33.464  1.00  0.00    -0.200 F 
ENDBRANCH  37  60
ENDBRANCH  11  12
ENDBRANCH   4   6
ENDBRANCH   3   4
ENDBRANCH   2   3
ENDBRANCH   1   2
BRANCH   1  71
ATOM     71  O   UNL A   1      42.083  19.868  25.575  1.00  0.00    -0.458 OA
BRANCH  71  72
ATOM     72  C   UNL A   1      43.074  18.918  25.619  1.00  0.00     0.350 C 
ATOM     73  O   UNL A   1      42.860  17.720  25.770  1.00  0.00    -0.245 OA
BRANCH  72  74
ATOM     74  C   UNL A   1      44.356  19.517  25.321  1.00  0.00     0.136 A 
ATOM     75  S   UNL A   1      45.713  18.454  25.354  1.00  0.00    -0.135 S 
ATOM     76  C   UNL A   1      44.735  20.815  25.004  1.00  0.00     0.075 A 
ATOM     77  C   UNL A   1      46.757  19.653  24.756  1.00  0.00     0.068 A 
ATOM     78  C   UNL A   1      46.114  20.859  24.626  1.00  0.00     0.039 A 
BRANCH  76  79
ATOM     79  N   UNL A   1      43.911  21.966  24.949  1.00  0.00    -0.269 N 
ATOM     80  H   UNL A   1      43.227  22.041  24.245  1.00  0.00     0.181 HD
BRANCH  79  81
ATOM     81  S   UNL A   1      44.090  23.214  26.081  1.00  0.00     0.301 S 
ATOM     82  O   UNL A   1      42.767  23.532  26.571  1.00  0.00    -0.189 OA
ATOM     83  O   UNL A   1      45.121  22.783  26.996  1.00  0.00    -0.189 OA
BRANCH  81  84
ATOM     84  N   UNL A   1      44.658  24.538  25.208  1.00  0.00    -0.185 NA
ATOM     85  C   UNL A   1      46.123  24.804  25.374  1.00  0.00     0.104 C 
ATOM     86  C   UNL A   1      43.958  25.848  25.358  1.00  0.00     0.104 C 
ATOM     87  C   UNL A   1      46.214  26.236  25.877  1.00  0.00     0.018 C 
ATOM     88  C   UNL A   1      45.054  26.889  25.161  1.00  0.00     0.018 C 
ENDBRANCH  81  84
ENDBRANCH  79  81
ENDBRANCH  76  79
ENDBRANCH  72  74
ENDBRANCH  71  72
ENDBRANCH   1  71
TORSDOF 14
ENDMDL
MODEL 3
REMARK VINA RESULT:     -10.5      6.116     11.460
REMARK SMILES O=C(OCCOC(=O)c1sccc1NS(=O)(=O)N1CCCC1)c1ccc(-c2c3nc(c(-c4c(F)c(F)c(F)c(F)c4F)c4ccc([nH]4)c(-c4c(F)c(F)c(F)c(F)c4F)c4nc(c(-c5c(F)c(F)c(F)c(F)c5F)c5ccc2[nH]5)C=C4)C=C3)cc1
REMARK SMILES IDX 5 1 4 2 3 3 2 4 1 5 23 6 24 7 85 8 25 9 84 10 26 11 27 12
REMARK SMILES IDX 28 13 78 14 29 15 83 16 77 17 79 18 30 19 82 20 76 21 75 22
REMARK SMILES IDX 31 24 63 25 43 26 62 27 44 28 47 29 61 30 80 31 45 32 46 33
REMARK SMILES IDX 60 35 81 36 48 37 32 38 33 39 41 40 34 41 35 42 39 43 42 44
REMARK SMILES IDX 36 45 37 46 40 47 38 48 64 49 65 50 73 51 66 52 67 53 71 54
REMARK SMILES IDX 74 55 68 56 69 57 72 58 70 59 49 60 50 61 58 62 51 63 52 64
REMARK SMILES IDX 56 65 59 66 53 67 54 68 57 69 55 70 6 71 7 72 8 73 9 74
REMARK SMILES IDX 10 75 13 76 11 77 12 78 14 79 15 81 16 82 17 83 18 84 19 85
REMARK SMILES IDX 22 86 20 87 21 88
REMARK H PARENT 79 23 47 34 14 80
REMARK Flexibility Score: inf
ROOT
ATOM      1  C   UNL A   1      38.117  20.079  24.835  1.00  0.00     0.275 C 
ENDROOT
BRANCH   1   2
ATOM      2  C   UNL A   1      39.152  20.108  25.968  1.00  0.00     0.275 C 
BRANCH   2   3
ATOM      3  O   UNL A   1      40.274  19.230  25.761  1.00  0.00    -0.458 OA
BRANCH   3   4
ATOM      4  C   UNL A   1      41.587  19.452  26.012  1.00  0.00     0.338 C 
ATOM      5  O   UNL A   1      42.363  18.499  26.031  1.00  0.00    -0.246 OA
BRANCH   4   6
ATOM      6  C   UNL A   1      42.119  20.784  26.437  1.00  0.00     0.060 A 
ATOM      7  C   UNL A   1      42.284  21.209  27.755  1.00  0.00     0.016 A 
ATOM      8  C   UNL A   1      42.431  21.696  25.409  1.00  0.00     0.016 A 
ATOM      9  C   UNL A   1      42.763  22.486  28.045  1.00  0.00     0.010 A 
ATOM     10  C   UNL A   1      42.926  22.975  25.692  1.00  0.00     0.010 A 
ATOM     11  C   UNL A   1      43.079  23.382  27.021  1.00  0.00    -0.014 A 
BRANCH  11  12
ATOM     12  C   UNL A   1      43.412  24.777  27.389  1.00  0.00     0.031 A 
ATOM     13  C   UNL A   1      44.808  25.271  27.167  1.00  0.00     0.074 A 
ATOM     14  C   UNL A   1      42.446  25.644  27.748  1.00  0.00     0.049 A 
ATOM     15  N   UNL A   1      45.288  26.478  27.316  1.00  0.00    -0.248 NA
ATOM     16  C   UNL A   1      45.780  24.291  26.660  1.00  0.00     0.031 C 
ATOM     17  C   UNL A   1      41.027  25.323  27.841  1.00  0.00     0.029 A 
ATOM     18  N   UNL A   1      42.504  26.975  28.071  1.00  0.00    -0.354 N 
ATOM     19  C   UNL A   1      46.597  26.417  26.862  1.00  0.00     0.074 A 
ATOM     20  C   UNL A   1      46.863  25.038  26.512  1.00  0.00     0.031 C 
ATOM     21  C   UNL A   1      40.347  26.416  28.218  1.00  0.00     0.029 A 
ATOM     22  C   UNL A   1      41.289  27.500  28.436  1.00  0.00     0.049 A 
ATOM     23  H   UNL A   1      43.335  27.502  28.044  1.00  0.00     0.167 HD
ATOM     24  C   UNL A   1      47.479  27.430  26.708  1.00  0.00     0.037 A 
ATOM     25  C   UNL A   1      40.979  28.710  28.930  1.00  0.00     0.037 A 
ATOM     26  C   UNL A   1      47.219  28.792  27.088  1.00  0.00     0.049 A 
ATOM     27  C   UNL A   1      42.056  29.742  29.034  1.00  0.00     0.074 A 
ATOM     28  C   UNL A   1      48.047  29.896  26.982  1.00  0.00     0.029 A 
ATOM     29  N   UNL A   1      46.039  29.233  27.672  1.00  0.00    -0.354 N 
ATOM     30  N   UNL A   1      43.305  29.664  28.652  1.00  0.00    -0.248 NA
ATOM     31  C   UNL A   1      41.674  31.031  29.620  1.00  0.00     0.031 C 
ATOM     32  C   UNL A   1      47.388  30.992  27.554  1.00  0.00     0.029 A 
ATOM     33  C   UNL A   1      46.130  30.584  27.966  1.00  0.00     0.049 A 
ATOM     34  H   UNL A   1      45.253  28.668  27.852  1.00  0.00     0.167 HD
ATOM     35  C   UNL A   1      43.848  30.914  28.890  1.00  0.00     0.074 A 
ATOM     36  C   UNL A   1      42.802  31.716  29.495  1.00  0.00     0.031 C 
ATOM     37  C   UNL A   1      45.088  31.366  28.583  1.00  0.00     0.037 A 
BRANCH  24  38
ATOM     38  C   UNL A   1      48.812  27.074  26.125  1.00  0.00     0.064 A 
ATOM     39  C   UNL A   1      49.051  27.142  24.743  1.00  0.00     0.173 A 
ATOM     40  C   UNL A   1      49.852  26.625  26.951  1.00  0.00     0.173 A 
ATOM     41  F   UNL A   1      48.079  27.540  23.908  1.00  0.00    -0.203 F 
ATOM     42  C   UNL A   1      50.272  26.741  24.206  1.00  0.00     0.198 A 
ATOM     43  C   UNL A   1      51.080  26.250  26.414  1.00  0.00     0.198 A 
ATOM     44  F   UNL A   1      49.670  26.536  28.277  1.00  0.00    -0.203 F 
ATOM     45  F   UNL A   1      50.458  26.757  22.879  1.00  0.00    -0.200 F 
ATOM     46  C   UNL A   1      51.286  26.299  25.043  1.00  0.00     0.200 A 
ATOM     47  F   UNL A   1      52.060  25.824  27.222  1.00  0.00    -0.200 F 
ATOM     48  F   UNL A   1      52.457  25.903  24.526  1.00  0.00    -0.200 F 
ENDBRANCH  24  38
BRANCH  25  49
ATOM     49  C   UNL A   1      39.627  28.975  29.472  1.00  0.00     0.064 A 
ATOM     50  C   UNL A   1      39.281  28.732  30.804  1.00  0.00     0.173 A 
ATOM     51  C   UNL A   1      38.628  29.438  28.606  1.00  0.00     0.173 A 
ATOM     52  F   UNL A   1      40.195  28.243  31.655  1.00  0.00    -0.203 F 
ATOM     53  C   UNL A   1      37.977  28.946  31.251  1.00  0.00     0.198 A 
ATOM     54  C   UNL A   1      37.333  29.669  29.055  1.00  0.00     0.198 A 
ATOM     55  F   UNL A   1      38.915  29.632  27.311  1.00  0.00    -0.203 F 
ATOM     56  F   UNL A   1      37.651  28.667  32.520  1.00  0.00    -0.200 F 
ATOM     57  C   UNL A   1      37.006  29.421  30.378  1.00  0.00     0.200 A 
ATOM     58  F   UNL A   1      36.400  30.115  28.201  1.00  0.00    -0.200 F 
ATOM     59  F   UNL A   1      35.750  29.612  30.805  1.00  0.00    -0.200 F 
ENDBRANCH  25  49
BRANCH  37  60
ATOM     60  C   UNL A   1      45.335  32.823  28.817  1.00  0.00     0.064 A 
ATOM     61  C   UNL A   1      45.737  33.321  30.064  1.00  0.00     0.173 A 
ATOM     62  C   UNL A   1      45.121  33.738  27.775  1.00  0.00     0.173 A 
ATOM     63  F   UNL A   1      45.919  32.486  31.098  1.00  0.00    -0.203 F 
ATOM     64  C   UNL A   1      45.883  34.691  30.267  1.00  0.00     0.198 A 
ATOM     65  C   UNL A   1      45.297  35.102  27.974  1.00  0.00     0.198 A 
ATOM     66  F   UNL A   1      44.727  33.307  26.568  1.00  0.00    -0.203 F 
ATOM     67  F   UNL A   1      46.199  35.155  31.484  1.00  0.00    -0.200 F 
ATOM     68  C   UNL A   1      45.666  35.579  29.223  1.00  0.00     0.200 A 
ATOM     69  F   UNL A   1      45.092  35.956  26.963  1.00  0.00    -0.200 F 
ATOM     70  F   UNL A   1      45.796  36.897  29.424  1.00  0.00    -0.200 F 
ENDBRANCH  37  60
ENDBRANCH  11  12
ENDBRANCH   4   6
ENDBRANCH   3   4
ENDBRANCH   2   3
ENDBRANCH   1   2
BRANCH   1  71
ATOM     71  O   UNL A   1      36.844  20.639  25.210  1.00  0.00    -0.458 OA
BRANCH  71  72
ATOM     72  C   UNL A   1      36.570  21.850  24.625  1.00  0.00     0.350 C 
ATOM     73  O   UNL A   1      37.091  22.234  23.584  1.00  0.00    -0.245 OA
BRANCH  72  74
ATOM     74  C   UNL A   1      35.496  22.515  25.330  1.00  0.00     0.136 A 
ATOM     75  S   UNL A   1      35.579  24.237  25.382  1.00  0.00    -0.135 S 
ATOM     76  C   UNL A   1      34.373  22.040  25.995  1.00  0.00     0.075 A 
ATOM     77  C   UNL A   1      34.044  24.360  26.100  1.00  0.00     0.068 A 
ATOM     78  C   UNL A   1      33.521  23.123  26.381  1.00  0.00     0.039 A 
BRANCH  76  79
ATOM     79  N   UNL A   1      34.009  20.690  26.217  1.00  0.00    -0.269 N 
ATOM     80  H   UNL A   1      34.258  20.252  27.064  1.00  0.00     0.181 HD
BRANCH  79  81
ATOM     81  S   UNL A   1      33.151  19.819  25.044  1.00  0.00     0.301 S 
ATOM     82  O   UNL A   1      31.751  19.904  25.396  1.00  0.00    -0.189 OA
ATOM     83  O   UNL A   1      33.612  20.306  23.765  1.00  0.00    -0.189 OA
BRANCH  81  84
ATOM     84  N   UNL A   1      33.640  18.217  25.222  1.00  0.00    -0.185 NA
ATOM     85  C   UNL A   1      34.688  17.779  24.246  1.00  0.00     0.104 C 
ATOM     86  C   UNL A   1      32.598  17.149  25.250  1.00  0.00     0.104 C 
ATOM     87  C   UNL A   1      34.092  16.576  23.532  1.00  0.00     0.018 C 
ATOM     88  C   UNL A   1      33.283  15.934  24.636  1.00  0.00     0.018 C 
ENDBRANCH  81  84
ENDBRANCH  79  81
ENDBRANCH  76  79
ENDBRANCH  72  74
ENDBRANCH  71  72
ENDBRANCH   1  71
TORSDOF 14
ENDMDL
