MODEL 1
REMARK VINA RESULT:     -11.8      0.000      0.000
REMARK SMILES C[C@H](COc1ccccc1C(=O)OCCOC(=O)c1ccc(-c2c3nc(c(-c4c(F)c(F)c(F)c(F)c4F)c4ccc([nH]4)c(-c4c(F)c(F)c(F)c(F)c4F)c4nc(c(-c5c(F)c(F)c(F)c(F)c5F)c5ccc2[nH]5)C=C4)C=C3)cc1)C(N)=O
REMARK SMILES IDX 14 1 13 2 11 3 12 4 10 5 5 6 6 7 7 8 9 9 8 10 4 11 3 12 2 13
REMARK SMILES IDX 1 14 82 15 83 16 84 17 15 20 16 21 17 22 18 23 19 24 20 25
REMARK SMILES IDX 81 26 21 27 80 28 22 29 23 30 24 31 74 32 25 33 79 34 73 35
REMARK SMILES IDX 75 36 26 37 78 38 72 39 71 40 27 42 59 43 39 44 58 45 40 46
REMARK SMILES IDX 43 47 57 48 76 49 41 50 42 51 56 53 77 54 44 55 28 56 29 57
REMARK SMILES IDX 37 58 30 59 31 60 35 61 38 62 32 63 33 64 36 65 34 66 60 67
REMARK SMILES IDX 61 68 69 69 62 70 63 71 67 72 70 73 64 74 65 75 68 76 66 77
REMARK SMILES IDX 45 78 46 79 54 80 47 81 48 82 52 83 55 84 49 85 50 86 53 87
REMARK SMILES IDX 51 88
REMARK H PARENT 83 18 83 19 75 41 43 52
REMARK Flexibility Score: inf
ROOT
ATOM      1  C   UNL A   1      33.160  29.138  24.522  1.00  0.00     0.275 C 
ENDROOT
BRANCH   1   2
ATOM      2  O   UNL A   1      32.446  29.233  23.266  1.00  0.00    -0.458 OA
BRANCH   2   3
ATOM      3  C   UNL A   1      32.026  28.048  22.769  1.00  0.00     0.342 C 
ATOM      4  O   UNL A   1      32.652  27.333  21.997  1.00  0.00    -0.246 OA
BRANCH   3   5
ATOM      5  C   UNL A   1      30.743  27.609  23.357  1.00  0.00     0.102 A 
ATOM      6  C   UNL A   1      29.503  28.101  22.933  1.00  0.00     0.133 A 
ATOM      7  C   UNL A   1      28.328  27.473  23.363  1.00  0.00     0.047 A 
ATOM      8  C   UNL A   1      28.392  26.391  24.251  1.00  0.00     0.004 A 
ATOM      9  C   UNL A   1      30.798  26.523  24.243  1.00  0.00     0.019 A 
ATOM     10  C   UNL A   1      29.625  25.938  24.716  1.00  0.00     0.001 A 
BRANCH   6  11
ATOM     11  O   UNL A   1      29.424  29.281  22.252  1.00  0.00    -0.492 OA
BRANCH  11  12
ATOM     12  C   UNL A   1      28.102  29.814  22.089  1.00  0.00     0.242 C 
BRANCH  12  13
ATOM     13  C   UNL A   1      28.043  31.175  22.815  1.00  0.00     0.113 C 
ATOM     14  C   UNL A   1      29.147  31.300  23.877  1.00  0.00     0.022 C 
BRANCH  13  15
ATOM     15  C   UNL A   1      28.200  32.261  21.770  1.00  0.00     0.223 C 
ATOM     16  N   UNL A   1      28.573  31.842  20.527  1.00  0.00    -0.369 N 
ATOM     17  O   UNL A   1      28.028  33.452  21.996  1.00  0.00    -0.275 OA
ATOM     18  H   UNL A   1      28.710  30.883  20.350  1.00  0.00     0.159 HD
ATOM     19  H   UNL A   1      28.706  32.498  19.805  1.00  0.00     0.159 HD
ENDBRANCH  13  15
ENDBRANCH  12  13
ENDBRANCH  11  12
ENDBRANCH   6  11
ENDBRANCH   3   5
ENDBRANCH   2   3
ENDBRANCH   1   2
BRANCH   1  20
ATOM     20  C   UNL A   1      32.408  29.909  25.614  1.00  0.00     0.275 C 
BRANCH  20  21
ATOM     21  O   UNL A   1      33.228  29.943  26.798  1.00  0.00    -0.458 OA
BRANCH  21  22
ATOM     22  C   UNL A   1      33.554  31.200  27.191  1.00  0.00     0.338 C 
ATOM     23  O   UNL A   1      32.842  32.176  27.248  1.00  0.00    -0.246 OA
BRANCH  22  24
ATOM     24  C   UNL A   1      34.829  31.053  27.914  1.00  0.00     0.060 A 
ATOM     25  C   UNL A   1      35.129  29.774  28.393  1.00  0.00     0.016 A 
ATOM     26  C   UNL A   1      35.747  32.092  28.016  1.00  0.00     0.016 A 
ATOM     27  C   UNL A   1      36.368  29.503  28.948  1.00  0.00     0.010 A 
ATOM     28  C   UNL A   1      36.978  31.836  28.614  1.00  0.00     0.010 A 
ATOM     29  C   UNL A   1      37.289  30.542  29.076  1.00  0.00    -0.014 A 
BRANCH  29  30
ATOM     30  C   UNL A   1      38.511  30.335  29.871  1.00  0.00     0.031 A 
ATOM     31  C   UNL A   1      39.547  29.426  29.294  1.00  0.00     0.074 A 
ATOM     32  C   UNL A   1      38.677  30.932  31.062  1.00  0.00     0.049 A 
ATOM     33  N   UNL A   1      40.536  28.813  29.881  1.00  0.00    -0.248 NA
ATOM     34  C   UNL A   1      39.436  29.160  27.849  1.00  0.00     0.031 C 
ATOM     35  C   UNL A   1      37.789  31.942  31.635  1.00  0.00     0.029 A 
ATOM     36  N   UNL A   1      39.643  30.750  32.016  1.00  0.00    -0.354 N 
ATOM     37  C   UNL A   1      41.126  28.040  28.891  1.00  0.00     0.074 A 
ATOM     38  C   UNL A   1      40.395  28.268  27.665  1.00  0.00     0.031 C 
ATOM     39  C   UNL A   1      38.234  32.267  32.861  1.00  0.00     0.029 A 
ATOM     40  C   UNL A   1      39.381  31.423  33.184  1.00  0.00     0.049 A 
ATOM     41  H   UNL A   1      40.444  30.193  31.877  1.00  0.00     0.167 HD
ATOM     42  C   UNL A   1      42.179  27.202  29.021  1.00  0.00     0.037 A 
ATOM     43  C   UNL A   1      39.960  31.296  34.392  1.00  0.00     0.037 A 
ATOM     44  C   UNL A   1      42.880  27.021  30.262  1.00  0.00     0.049 A 
ATOM     45  C   UNL A   1      41.059  30.275  34.545  1.00  0.00     0.074 A 
ATOM     46  C   UNL A   1      43.950  26.194  30.542  1.00  0.00     0.029 A 
ATOM     47  N   UNL A   1      42.569  27.696  31.437  1.00  0.00    -0.354 N 
ATOM     48  N   UNL A   1      41.589  29.485  33.639  1.00  0.00    -0.248 NA
ATOM     49  C   UNL A   1      41.623  30.103  35.890  1.00  0.00     0.031 C 
ATOM     50  C   UNL A   1      44.252  26.329  31.902  1.00  0.00     0.029 A 
ATOM     51  C   UNL A   1      43.410  27.285  32.455  1.00  0.00     0.049 A 
ATOM     52  H   UNL A   1      41.855  28.366  31.532  1.00  0.00     0.167 HD
ATOM     53  C   UNL A   1      42.559  28.740  34.295  1.00  0.00     0.074 A 
ATOM     54  C   UNL A   1      42.556  29.186  35.675  1.00  0.00     0.031 C 
ATOM     55  C   UNL A   1      43.375  27.771  33.812  1.00  0.00     0.037 A 
BRANCH  42  56
ATOM     56  C   UNL A   1      42.571  26.388  27.824  1.00  0.00     0.064 A 
ATOM     57  C   UNL A   1      43.575  26.799  26.935  1.00  0.00     0.173 A 
ATOM     58  C   UNL A   1      41.919  25.173  27.556  1.00  0.00     0.173 A 
ATOM     59  F   UNL A   1      44.212  27.964  27.128  1.00  0.00    -0.203 F 
ATOM     60  C   UNL A   1      43.893  26.040  25.810  1.00  0.00     0.198 A 
ATOM     61  C   UNL A   1      42.261  24.401  26.450  1.00  0.00     0.198 A 
ATOM     62  F   UNL A   1      40.944  24.736  28.369  1.00  0.00    -0.203 F 
ATOM     63  F   UNL A   1      44.816  26.482  24.945  1.00  0.00    -0.200 F 
ATOM     64  C   UNL A   1      43.241  24.839  25.573  1.00  0.00     0.200 A 
ATOM     65  F   UNL A   1      41.635  23.238  26.228  1.00  0.00    -0.200 F 
ATOM     66  F   UNL A   1      43.551  24.109  24.493  1.00  0.00    -0.200 F 
ENDBRANCH  42  56
BRANCH  43  67
ATOM     67  C   UNL A   1      39.469  32.089  35.553  1.00  0.00     0.064 A 
ATOM     68  C   UNL A   1      39.974  33.369  35.817  1.00  0.00     0.173 A 
ATOM     69  C   UNL A   1      38.499  31.582  36.433  1.00  0.00     0.173 A 
ATOM     70  F   UNL A   1      40.920  33.892  35.023  1.00  0.00    -0.203 F 
ATOM     71  C   UNL A   1      39.540  34.104  36.920  1.00  0.00     0.198 A 
ATOM     72  C   UNL A   1      38.043  32.329  37.517  1.00  0.00     0.198 A 
ATOM     73  F   UNL A   1      37.986  30.358  36.236  1.00  0.00    -0.203 F 
ATOM     74  F   UNL A   1      40.077  35.305  37.175  1.00  0.00    -0.200 F 
ATOM     75  C   UNL A   1      38.570  33.587  37.765  1.00  0.00     0.200 A 
ATOM     76  F   UNL A   1      37.094  31.831  38.321  1.00  0.00    -0.200 F 
ATOM     77  F   UNL A   1      38.151  34.296  38.822  1.00  0.00    -0.200 F 
ENDBRANCH  43  67
BRANCH  55  78
ATOM     78  C   UNL A   1      44.353  27.161  34.772  1.00  0.00     0.064 A 
ATOM     79  C   UNL A   1      45.591  27.761  35.038  1.00  0.00     0.173 A 
ATOM     80  C   UNL A   1      44.010  26.002  35.487  1.00  0.00     0.173 A 
ATOM     81  F   UNL A   1      45.967  28.860  34.367  1.00  0.00    -0.203 F 
ATOM     82  C   UNL A   1      46.459  27.214  35.977  1.00  0.00     0.198 A 
ATOM     83  C   UNL A   1      44.866  25.479  36.449  1.00  0.00     0.198 A 
ATOM     84  F   UNL A   1      42.832  25.398  35.271  1.00  0.00    -0.203 F 
ATOM     85  F   UNL A   1      47.655  27.779  36.189  1.00  0.00    -0.200 F 
ATOM     86  C   UNL A   1      46.092  26.081  36.690  1.00  0.00     0.200 A 
ATOM     87  F   UNL A   1      44.501  24.396  37.149  1.00  0.00    -0.200 F 
ATOM     88  F   UNL A   1      46.921  25.568  37.608  1.00  0.00    -0.200 F 
ENDBRANCH  55  78
ENDBRANCH  29  30
ENDBRANCH  22  24
ENDBRANCH  21  22
ENDBRANCH  20  21
ENDBRANCH   1  20
TORSDOF 15
ENDMDL
MODEL 2
REMARK VINA RESULT:     -11.6      0.367      2.040
REMARK SMILES C[C@H](COc1ccccc1C(=O)OCCOC(=O)c1ccc(-c2c3nc(c(-c4c(F)c(F)c(F)c(F)c4F)c4ccc([nH]4)c(-c4c(F)c(F)c(F)c(F)c4F)c4nc(c(-c5c(F)c(F)c(F)c(F)c5F)c5ccc2[nH]5)C=C4)C=C3)cc1)C(N)=O
REMARK SMILES IDX 14 1 13 2 11 3 12 4 10 5 5 6 6 7 7 8 9 9 8 10 4 11 3 12 2 13
REMARK SMILES IDX 1 14 82 15 83 16 84 17 15 20 16 21 17 22 18 23 19 24 20 25
REMARK SMILES IDX 81 26 21 27 80 28 22 29 23 30 24 31 74 32 25 33 79 34 73 35
REMARK SMILES IDX 75 36 26 37 78 38 72 39 71 40 27 42 59 43 39 44 58 45 40 46
REMARK SMILES IDX 43 47 57 48 76 49 41 50 42 51 56 53 77 54 44 55 28 56 29 57
REMARK SMILES IDX 37 58 30 59 31 60 35 61 38 62 32 63 33 64 36 65 34 66 60 67
REMARK SMILES IDX 61 68 69 69 62 70 63 71 67 72 70 73 64 74 65 75 68 76 66 77
REMARK SMILES IDX 45 78 46 79 54 80 47 81 48 82 52 83 55 84 49 85 50 86 53 87
REMARK SMILES IDX 51 88
REMARK H PARENT 83 18 83 19 75 41 43 52
REMARK Flexibility Score: inf
ROOT
ATOM      1  C   UNL A   1      33.318  28.961  24.590  1.00  0.00     0.275 C 
ENDROOT
BRANCH   1   2
ATOM      2  O   UNL A   1      32.802  29.110  23.246  1.00  0.00    -0.458 OA
BRANCH   2   3
ATOM      3  C   UNL A   1      32.342  27.965  22.693  1.00  0.00     0.342 C 
ATOM      4  O   UNL A   1      32.976  27.221  21.955  1.00  0.00    -0.246 OA
BRANCH   3   5
ATOM      5  C   UNL A   1      30.991  27.606  23.172  1.00  0.00     0.102 A 
ATOM      6  C   UNL A   1      29.868  28.415  22.960  1.00  0.00     0.133 A 
ATOM      7  C   UNL A   1      28.591  27.907  23.228  1.00  0.00     0.047 A 
ATOM      8  C   UNL A   1      28.443  26.617  23.753  1.00  0.00     0.004 A 
ATOM      9  C   UNL A   1      30.832  26.314  23.693  1.00  0.00     0.019 A 
ATOM     10  C   UNL A   1      29.565  25.833  24.015  1.00  0.00     0.001 A 
BRANCH   6  11
ATOM     11  O   UNL A   1      30.017  29.739  22.663  1.00  0.00    -0.492 OA
BRANCH  11  12
ATOM     12  C   UNL A   1      29.172  30.236  21.615  1.00  0.00     0.242 C 
BRANCH  12  13
ATOM     13  C   UNL A   1      28.113  31.160  22.253  1.00  0.00     0.113 C 
ATOM     14  C   UNL A   1      28.517  31.592  23.671  1.00  0.00     0.022 C 
BRANCH  13  15
ATOM     15  C   UNL A   1      27.965  32.375  21.360  1.00  0.00     0.223 C 
ATOM     16  N   UNL A   1      27.806  32.121  20.030  1.00  0.00    -0.369 N 
ATOM     17  O   UNL A   1      27.998  33.529  21.770  1.00  0.00    -0.275 OA
ATOM     18  H   UNL A   1      27.780  31.192  19.705  1.00  0.00     0.159 HD
ATOM     19  H   UNL A   1      27.718  32.866  19.392  1.00  0.00     0.159 HD
ENDBRANCH  13  15
ENDBRANCH  12  13
ENDBRANCH  11  12
ENDBRANCH   6  11
ENDBRANCH   3   5
ENDBRANCH   2   3
ENDBRANCH   1   2
BRANCH   1  20
ATOM     20  C   UNL A   1      32.552  29.878  25.552  1.00  0.00     0.275 C 
BRANCH  20  21
ATOM     21  O   UNL A   1      33.253  29.912  26.810  1.00  0.00    -0.458 OA
BRANCH  21  22
ATOM     22  C   UNL A   1      33.579  31.166  27.211  1.00  0.00     0.338 C 
ATOM     23  O   UNL A   1      32.863  32.137  27.293  1.00  0.00    -0.246 OA
BRANCH  22  24
ATOM     24  C   UNL A   1      34.870  31.019  27.907  1.00  0.00     0.060 A 
ATOM     25  C   UNL A   1      35.177  29.741  28.383  1.00  0.00     0.016 A 
ATOM     26  C   UNL A   1      35.790  32.058  27.988  1.00  0.00     0.016 A 
ATOM     27  C   UNL A   1      36.428  29.470  28.912  1.00  0.00     0.010 A 
ATOM     28  C   UNL A   1      37.033  31.801  28.561  1.00  0.00     0.010 A 
ATOM     29  C   UNL A   1      37.352  30.508  29.020  1.00  0.00    -0.014 A 
BRANCH  29  30
ATOM     30  C   UNL A   1      38.590  30.301  29.789  1.00  0.00     0.031 A 
ATOM     31  C   UNL A   1      39.612  29.389  29.193  1.00  0.00     0.074 A 
ATOM     32  C   UNL A   1      38.782  30.901  30.974  1.00  0.00     0.049 A 
ATOM     33  N   UNL A   1      40.612  28.776  29.761  1.00  0.00    -0.248 NA
ATOM     34  C   UNL A   1      39.470  29.119  27.751  1.00  0.00     0.031 C 
ATOM     35  C   UNL A   1      37.908  31.915  31.563  1.00  0.00     0.029 A 
ATOM     36  N   UNL A   1      39.768  30.720  31.908  1.00  0.00    -0.354 N 
ATOM     37  C   UNL A   1      41.181  27.999  28.761  1.00  0.00     0.074 A 
ATOM     38  C   UNL A   1      40.425  28.224  27.550  1.00  0.00     0.031 C 
ATOM     39  C   UNL A   1      38.379  32.242  32.779  1.00  0.00     0.029 A 
ATOM     40  C   UNL A   1      39.530  31.396  33.080  1.00  0.00     0.049 A 
ATOM     41  H   UNL A   1      40.565  30.162  31.755  1.00  0.00     0.167 HD
ATOM     42  C   UNL A   1      42.235  27.160  28.871  1.00  0.00     0.037 A 
ATOM     43  C   UNL A   1      40.135  31.272  34.276  1.00  0.00     0.037 A 
ATOM     44  C   UNL A   1      42.961  26.981  30.098  1.00  0.00     0.049 A 
ATOM     45  C   UNL A   1      41.235  30.250  34.409  1.00  0.00     0.074 A 
ATOM     46  C   UNL A   1      44.035  26.153  30.358  1.00  0.00     0.029 A 
ATOM     47  N   UNL A   1      42.676  27.659  31.278  1.00  0.00    -0.354 N 
ATOM     48  N   UNL A   1      41.745  29.456  33.494  1.00  0.00    -0.248 NA
ATOM     49  C   UNL A   1      41.827  30.081  35.743  1.00  0.00     0.031 C 
ATOM     50  C   UNL A   1      44.366  26.291  31.711  1.00  0.00     0.029 A 
ATOM     51  C   UNL A   1      43.538  27.250  32.279  1.00  0.00     0.049 A 
ATOM     52  H   UNL A   1      41.965  28.332  31.385  1.00  0.00     0.167 HD
ATOM     53  C   UNL A   1      42.727  28.712  34.132  1.00  0.00     0.074 A 
ATOM     54  C   UNL A   1      42.754  29.162  35.511  1.00  0.00     0.031 C 
ATOM     55  C   UNL A   1      43.531  27.740  33.635  1.00  0.00     0.037 A 
BRANCH  42  56
ATOM     56  C   UNL A   1      42.600  26.341  27.669  1.00  0.00     0.064 A 
ATOM     57  C   UNL A   1      41.987  25.111  27.388  1.00  0.00     0.173 A 
ATOM     58  C   UNL A   1      43.592  26.795  26.784  1.00  0.00     0.173 A 
ATOM     59  F   UNL A   1      41.053  24.618  28.214  1.00  0.00    -0.203 F 
ATOM     60  C   UNL A   1      42.373  24.354  26.283  1.00  0.00     0.198 A 
ATOM     61  C   UNL A   1      43.951  26.052  25.664  1.00  0.00     0.198 A 
ATOM     62  F   UNL A   1      44.217  27.961  27.009  1.00  0.00    -0.203 F 
ATOM     63  F   UNL A   1      41.814  23.155  26.068  1.00  0.00    -0.200 F 
ATOM     64  C   UNL A   1      43.348  24.828  25.419  1.00  0.00     0.200 A 
ATOM     65  F   UNL A   1      44.888  26.516  24.826  1.00  0.00    -0.200 F 
ATOM     66  F   UNL A   1      43.715  24.100  24.355  1.00  0.00    -0.200 F 
ENDBRANCH  42  56
BRANCH  43  67
ATOM     67  C   UNL A   1      39.670  32.069  35.445  1.00  0.00     0.064 A 
ATOM     68  C   UNL A   1      38.685  31.573  36.309  1.00  0.00     0.173 A 
ATOM     69  C   UNL A   1      40.185  33.346  35.718  1.00  0.00     0.173 A 
ATOM     70  F   UNL A   1      38.139  30.368  36.082  1.00  0.00    -0.203 F 
ATOM     71  C   UNL A   1      38.223  32.327  37.389  1.00  0.00     0.198 A 
ATOM     72  C   UNL A   1      39.747  34.086  36.814  1.00  0.00     0.198 A 
ATOM     73  F   UNL A   1      41.125  33.877  34.920  1.00  0.00    -0.203 F 
ATOM     74  F   UNL A   1      37.245  31.846  38.168  1.00  0.00    -0.200 F 
ATOM     75  C   UNL A   1      38.760  33.579  37.644  1.00  0.00     0.200 A 
ATOM     76  F   UNL A   1      40.280  35.289  37.066  1.00  0.00    -0.200 F 
ATOM     77  F   UNL A   1      38.319  34.300  38.684  1.00  0.00    -0.200 F 
ENDBRANCH  43  67
BRANCH  55  78
ATOM     78  C   UNL A   1      44.528  27.131  34.576  1.00  0.00     0.064 A 
ATOM     79  C   UNL A   1      44.244  25.956  35.285  1.00  0.00     0.173 A 
ATOM     80  C   UNL A   1      45.807  27.694  34.709  1.00  0.00     0.173 A 
ATOM     81  F   UNL A   1      43.030  25.393  35.202  1.00  0.00    -0.203 F 
ATOM     82  C   UNL A   1      45.203  25.373  36.107  1.00  0.00     0.198 A 
ATOM     83  C   UNL A   1      46.773  27.089  35.504  1.00  0.00     0.198 A 
ATOM     84  F   UNL A   1      46.126  28.814  34.043  1.00  0.00    -0.203 F 
ATOM     85  F   UNL A   1      44.901  24.272  36.808  1.00  0.00    -0.200 F 
ATOM     86  C   UNL A   1      46.470  25.932  36.207  1.00  0.00     0.200 A 
ATOM     87  F   UNL A   1      48.001  27.620  35.584  1.00  0.00    -0.200 F 
ATOM     88  F   UNL A   1      47.397  25.357  36.983  1.00  0.00    -0.200 F 
ENDBRANCH  55  78
ENDBRANCH  29  30
ENDBRANCH  22  24
ENDBRANCH  21  22
ENDBRANCH  20  21
ENDBRANCH   1  20
TORSDOF 15
ENDMDL
MODEL 3
REMARK VINA RESULT:     -11.5      1.476      2.793
REMARK SMILES C[C@H](COc1ccccc1C(=O)OCCOC(=O)c1ccc(-c2c3nc(c(-c4c(F)c(F)c(F)c(F)c4F)c4ccc([nH]4)c(-c4c(F)c(F)c(F)c(F)c4F)c4nc(c(-c5c(F)c(F)c(F)c(F)c5F)c5ccc2[nH]5)C=C4)C=C3)cc1)C(N)=O
REMARK SMILES IDX 14 1 13 2 11 3 12 4 10 5 5 6 6 7 7 8 9 9 8 10 4 11 3 12 2 13
REMARK SMILES IDX 1 14 82 15 83 16 84 17 15 20 16 21 17 22 18 23 19 24 20 25
REMARK SMILES IDX 81 26 21 27 80 28 22 29 23 30 24 31 74 32 25 33 79 34 73 35
REMARK SMILES IDX 75 36 26 37 78 38 72 39 71 40 27 42 59 43 39 44 58 45 40 46
REMARK SMILES IDX 43 47 57 48 76 49 41 50 42 51 56 53 77 54 44 55 28 56 29 57
REMARK SMILES IDX 37 58 30 59 31 60 35 61 38 62 32 63 33 64 36 65 34 66 60 67
REMARK SMILES IDX 61 68 69 69 62 70 63 71 67 72 70 73 64 74 65 75 68 76 66 77
REMARK SMILES IDX 45 78 46 79 54 80 47 81 48 82 52 83 55 84 49 85 50 86 53 87
REMARK SMILES IDX 51 88
REMARK H PARENT 83 18 83 19 75 41 43 52
REMARK Flexibility Score: inf
ROOT
ATOM      1  C   UNL A   1      32.200  27.975  27.184  1.00  0.00     0.275 C 
ENDROOT
BRANCH   1   2
ATOM      2  O   UNL A   1      33.031  27.053  26.438  1.00  0.00    -0.458 OA
BRANCH   2   3
ATOM      3  C   UNL A   1      32.375  25.976  25.950  1.00  0.00     0.342 C 
ATOM      4  O   UNL A   1      31.172  25.769  26.041  1.00  0.00    -0.246 OA
BRANCH   3   5
ATOM      5  C   UNL A   1      33.251  25.090  25.156  1.00  0.00     0.102 A 
ATOM      6  C   UNL A   1      33.239  25.064  23.756  1.00  0.00     0.133 A 
ATOM      7  C   UNL A   1      34.251  24.382  23.070  1.00  0.00     0.047 A 
ATOM      8  C   UNL A   1      35.240  23.689  23.780  1.00  0.00     0.004 A 
ATOM      9  C   UNL A   1      34.248  24.397  25.859  1.00  0.00     0.019 A 
ATOM     10  C   UNL A   1      35.219  23.670  25.173  1.00  0.00     0.001 A 
BRANCH   6  11
ATOM     11  O   UNL A   1      32.164  25.545  23.065  1.00  0.00    -0.492 OA
BRANCH  11  12
ATOM     12  C   UNL A   1      32.440  26.635  22.175  1.00  0.00     0.242 C 
BRANCH  12  13
ATOM     13  C   UNL A   1      32.195  27.952  22.943  1.00  0.00     0.113 C 
ATOM     14  C   UNL A   1      33.414  28.884  22.875  1.00  0.00     0.022 C 
BRANCH  13  15
ATOM     15  C   UNL A   1      30.987  28.628  22.325  1.00  0.00     0.223 C 
ATOM     16  N   UNL A   1      31.187  29.892  21.857  1.00  0.00    -0.369 N 
ATOM     17  O   UNL A   1      29.881  28.107  22.249  1.00  0.00    -0.275 OA
ATOM     18  H   UNL A   1      32.078  30.307  21.920  1.00  0.00     0.159 HD
ATOM     19  H   UNL A   1      30.441  30.394  21.455  1.00  0.00     0.159 HD
ENDBRANCH  13  15
ENDBRANCH  12  13
ENDBRANCH  11  12
ENDBRANCH   6  11
ENDBRANCH   3   5
ENDBRANCH   2   3
ENDBRANCH   1   2
BRANCH   1  20
ATOM     20  C   UNL A   1      32.117  29.320  26.452  1.00  0.00     0.275 C 
BRANCH  20  21
ATOM     21  O   UNL A   1      33.442  29.879  26.367  1.00  0.00    -0.458 OA
BRANCH  21  22
ATOM     22  C   UNL A   1      33.576  31.049  27.040  1.00  0.00     0.338 C 
ATOM     23  O   UNL A   1      32.728  31.877  27.281  1.00  0.00    -0.246 OA
BRANCH  22  24
ATOM     24  C   UNL A   1      34.853  30.926  27.765  1.00  0.00     0.060 A 
ATOM     25  C   UNL A   1      35.204  29.642  28.193  1.00  0.00     0.016 A 
ATOM     26  C   UNL A   1      35.725  31.998  27.918  1.00  0.00     0.016 A 
ATOM     27  C   UNL A   1      36.451  29.400  28.744  1.00  0.00     0.010 A 
ATOM     28  C   UNL A   1      36.962  31.769  28.513  1.00  0.00     0.010 A 
ATOM     29  C   UNL A   1      37.326  30.471  28.923  1.00  0.00    -0.014 A 
BRANCH  29  30
ATOM     30  C   UNL A   1      38.551  30.282  29.716  1.00  0.00     0.031 A 
ATOM     31  C   UNL A   1      39.601  29.389  29.139  1.00  0.00     0.074 A 
ATOM     32  C   UNL A   1      38.709  30.883  30.907  1.00  0.00     0.049 A 
ATOM     33  N   UNL A   1      40.599  28.791  29.725  1.00  0.00    -0.248 NA
ATOM     34  C   UNL A   1      39.492  29.121  27.694  1.00  0.00     0.031 C 
ATOM     35  C   UNL A   1      37.807  31.880  31.480  1.00  0.00     0.029 A 
ATOM     36  N   UNL A   1      39.679  30.715  31.860  1.00  0.00    -0.354 N 
ATOM     37  C   UNL A   1      41.200  28.027  28.735  1.00  0.00     0.074 A 
ATOM     38  C   UNL A   1      40.465  28.243  27.510  1.00  0.00     0.031 C 
ATOM     39  C   UNL A   1      38.248  32.212  32.706  1.00  0.00     0.029 A 
ATOM     40  C   UNL A   1      39.407  31.385  33.028  1.00  0.00     0.049 A 
ATOM     41  H   UNL A   1      40.488  30.171  31.721  1.00  0.00     0.167 HD
ATOM     42  C   UNL A   1      42.266  27.205  28.865  1.00  0.00     0.037 A 
ATOM     43  C   UNL A   1      39.989  31.268  34.236  1.00  0.00     0.037 A 
ATOM     44  C   UNL A   1      42.970  27.035  30.105  1.00  0.00     0.049 A 
ATOM     45  C   UNL A   1      41.104  30.263  34.389  1.00  0.00     0.074 A 
ATOM     46  C   UNL A   1      44.052  26.224  30.385  1.00  0.00     0.029 A 
ATOM     47  N   UNL A   1      42.650  27.705  31.281  1.00  0.00    -0.354 N 
ATOM     48  N   UNL A   1      41.645  29.480  33.482  1.00  0.00    -0.248 NA
ATOM     49  C   UNL A   1      41.671  30.100  35.733  1.00  0.00     0.031 C 
ATOM     50  C   UNL A   1      44.353  26.364  31.744  1.00  0.00     0.029 A 
ATOM     51  C   UNL A   1      43.498  27.307  32.298  1.00  0.00     0.049 A 
ATOM     52  H   UNL A   1      41.926  28.365  31.376  1.00  0.00     0.167 HD
ATOM     53  C   UNL A   1      42.626  28.750  34.138  1.00  0.00     0.074 A 
ATOM     54  C   UNL A   1      42.618  29.198  35.518  1.00  0.00     0.031 C 
ATOM     55  C   UNL A   1      43.457  27.793  33.655  1.00  0.00     0.037 A 
BRANCH  42  56
ATOM     56  C   UNL A   1      42.668  26.396  27.668  1.00  0.00     0.064 A 
ATOM     57  C   UNL A   1      42.070  25.164  27.362  1.00  0.00     0.173 A 
ATOM     58  C   UNL A   1      43.682  26.860  26.814  1.00  0.00     0.173 A 
ATOM     59  F   UNL A   1      41.116  24.661  28.159  1.00  0.00    -0.203 F 
ATOM     60  C   UNL A   1      42.490  24.416  26.264  1.00  0.00     0.198 A 
ATOM     61  C   UNL A   1      44.076  26.125  25.700  1.00  0.00     0.198 A 
ATOM     62  F   UNL A   1      44.295  28.027  27.064  1.00  0.00    -0.203 F 
ATOM     63  F   UNL A   1      41.943  23.215  26.026  1.00  0.00    -0.200 F 
ATOM     64  C   UNL A   1      43.487  24.900  25.430  1.00  0.00     0.200 A 
ATOM     65  F   UNL A   1      45.034  26.599  24.892  1.00  0.00    -0.200 F 
ATOM     66  F   UNL A   1      43.887  24.181  24.373  1.00  0.00    -0.200 F 
ENDBRANCH  42  56
BRANCH  43  67
ATOM     67  C   UNL A   1      39.488  32.053  35.397  1.00  0.00     0.064 A 
ATOM     68  C   UNL A   1      39.933  33.362  35.628  1.00  0.00     0.173 A 
ATOM     69  C   UNL A   1      38.567  31.513  36.309  1.00  0.00     0.173 A 
ATOM     70  F   UNL A   1      40.832  33.919  34.803  1.00  0.00    -0.203 F 
ATOM     71  C   UNL A   1      39.490  34.092  36.731  1.00  0.00     0.198 A 
ATOM     72  C   UNL A   1      38.100  32.254  37.392  1.00  0.00     0.198 A 
ATOM     73  F   UNL A   1      38.111  30.261  36.144  1.00  0.00    -0.203 F 
ATOM     74  F   UNL A   1      39.971  35.322  36.954  1.00  0.00    -0.200 F 
ATOM     75  C   UNL A   1      38.568  33.540  37.608  1.00  0.00     0.200 A 
ATOM     76  F   UNL A   1      37.198  31.722  38.228  1.00  0.00    -0.200 F 
ATOM     77  F   UNL A   1      38.140  34.244  38.665  1.00  0.00    -0.200 F 
ENDBRANCH  43  67
BRANCH  55  78
ATOM     78  C   UNL A   1      44.444  27.199  34.614  1.00  0.00     0.064 A 
ATOM     79  C   UNL A   1      44.165  26.019  35.317  1.00  0.00     0.173 A 
ATOM     80  C   UNL A   1      45.711  27.781  34.773  1.00  0.00     0.173 A 
ATOM     81  F   UNL A   1      42.961  25.436  35.209  1.00  0.00    -0.203 F 
ATOM     82  C   UNL A   1      45.117  25.449  36.156  1.00  0.00     0.198 A 
ATOM     83  C   UNL A   1      46.671  27.190  35.586  1.00  0.00     0.198 A 
ATOM     84  F   UNL A   1      46.026  28.907  34.114  1.00  0.00    -0.203 F 
ATOM     85  F   UNL A   1      44.818  24.342  36.850  1.00  0.00    -0.200 F 
ATOM     86  C   UNL A   1      46.372  26.027  36.281  1.00  0.00     0.200 A 
ATOM     87  F   UNL A   1      47.889  27.740  35.691  1.00  0.00    -0.200 F 
ATOM     88  F   UNL A   1      47.293  25.466  37.074  1.00  0.00    -0.200 F 
ENDBRANCH  55  78
ENDBRANCH  29  30
ENDBRANCH  22  24
ENDBRANCH  21  22
ENDBRANCH  20  21
ENDBRANCH   1  20
TORSDOF 15
ENDMDL
