MODEL 1
REMARK VINA RESULT:     -10.2      0.000      0.000
REMARK SMILES C[C@H](C(=O)OCCOC(=O)c1ccc(-c2c3nc(c(-c4c(F)c(F)c(F)c(F)c4F)c4ccc([nH]4)c(-c4c(F)c(F)c(F)c(F)c4F)c4nc(c(-c5c(F)c(F)c(F)c(F)c5F)c5ccc2[nH]5)C=C4)C=C3)cc1)[C@H](C)c1ccoc1
REMARK SMILES IDX 6 1 5 2 3 3 4 4 2 5 1 6 74 7 75 8 76 9 77 10 80 11 78 12
REMARK SMILES IDX 79 13 7 14 8 15 9 16 10 17 11 18 12 19 73 20 13 21 72 22
REMARK SMILES IDX 14 23 15 24 16 25 66 26 17 27 71 28 65 29 67 30 18 31 70 32
REMARK SMILES IDX 64 33 63 34 19 36 51 37 31 38 50 39 32 40 35 41 49 42 68 43
REMARK SMILES IDX 33 44 34 45 48 47 69 48 36 49 20 50 21 51 29 52 22 53 23 54
REMARK SMILES IDX 27 55 30 56 24 57 25 58 28 59 26 60 52 61 53 62 61 63 54 64
REMARK SMILES IDX 55 65 59 66 62 67 56 68 57 69 60 70 58 71 37 72 38 73 46 74
REMARK SMILES IDX 39 75 40 76 44 77 47 78 41 79 42 80 45 81 43 82
REMARK H PARENT 67 35 35 46
REMARK Flexibility Score: inf
ROOT
ATOM      1  C   UNL A   1      41.904  19.096  26.160  1.00  0.00     0.274 C 
ENDROOT
BRANCH   1   2
ATOM      2  O   UNL A   1      42.765  19.939  25.364  1.00  0.00    -0.462 OA
BRANCH   2   3
ATOM      3  C   UNL A   1      44.002  19.455  25.092  1.00  0.00     0.309 C 
ATOM      4  O   UNL A   1      44.229  18.336  24.644  1.00  0.00    -0.252 OA
BRANCH   3   5
ATOM      5  C   UNL A   1      45.118  20.447  25.382  1.00  0.00     0.103 C 
ATOM      6  C   UNL A   1      46.394  20.105  24.611  1.00  0.00     0.020 C 
BRANCH   5   7
ATOM      7  C   UNL A   1      44.723  21.942  25.310  1.00  0.00     0.033 C 
ATOM      8  C   UNL A   1      44.897  22.554  23.917  1.00  0.00     0.014 C 
BRANCH   7   9
ATOM      9  C   UNL A   1      45.296  22.817  26.393  1.00  0.00    -0.006 A 
ATOM     10  C   UNL A   1      44.748  22.987  27.701  1.00  0.00     0.046 A 
ATOM     11  C   UNL A   1      46.439  23.592  26.382  1.00  0.00     0.198 A 
ATOM     12  C   UNL A   1      45.592  23.832  28.377  1.00  0.00     0.195 A 
ATOM     13  O   UNL A   1      46.622  24.206  27.579  1.00  0.00    -0.472 OA
ENDBRANCH   7   9
ENDBRANCH   5   7
ENDBRANCH   3   5
ENDBRANCH   2   3
ENDBRANCH   1   2
BRANCH   1  14
ATOM     14  C   UNL A   1      40.434  19.442  25.943  1.00  0.00     0.275 C 
BRANCH  14  15
ATOM     15  O   UNL A   1      40.039  20.477  26.858  1.00  0.00    -0.458 OA
BRANCH  15  16
ATOM     16  C   UNL A   1      39.226  21.422  26.340  1.00  0.00     0.338 C 
ATOM     17  O   UNL A   1      38.243  21.268  25.638  1.00  0.00    -0.246 OA
BRANCH  16  18
ATOM     18  C   UNL A   1      39.674  22.740  26.800  1.00  0.00     0.060 A 
ATOM     19  C   UNL A   1      39.102  23.877  26.230  1.00  0.00     0.016 A 
ATOM     20  C   UNL A   1      40.743  22.850  27.686  1.00  0.00     0.016 A 
ATOM     21  C   UNL A   1      39.652  25.129  26.473  1.00  0.00     0.010 A 
ATOM     22  C   UNL A   1      41.243  24.118  27.994  1.00  0.00     0.010 A 
ATOM     23  C   UNL A   1      40.725  25.265  27.363  1.00  0.00    -0.014 A 
BRANCH  23  24
ATOM     24  C   UNL A   1      41.334  26.597  27.599  1.00  0.00     0.031 A 
ATOM     25  C   UNL A   1      42.715  26.890  27.085  1.00  0.00     0.074 A 
ATOM     26  C   UNL A   1      40.646  27.546  28.261  1.00  0.00     0.049 A 
ATOM     27  N   UNL A   1      43.492  27.913  27.333  1.00  0.00    -0.248 NA
ATOM     28  C   UNL A   1      43.304  25.894  26.175  1.00  0.00     0.031 C 
ATOM     29  C   UNL A   1      39.279  27.406  28.760  1.00  0.00     0.029 A 
ATOM     30  N   UNL A   1      41.007  28.819  28.626  1.00  0.00    -0.354 N 
ATOM     31  C   UNL A   1      44.677  27.661  26.654  1.00  0.00     0.074 A 
ATOM     32  C   UNL A   1      44.517  26.391  25.979  1.00  0.00     0.031 C 
ATOM     33  C   UNL A   1      38.908  28.553  29.350  1.00  0.00     0.029 A 
ATOM     34  C   UNL A   1      40.036  29.480  29.335  1.00  0.00     0.049 A 
ATOM     35  H   UNL A   1      41.877  29.220  28.399  1.00  0.00     0.167 HD
ATOM     36  C   UNL A   1      45.796  28.423  26.605  1.00  0.00     0.037 A 
ATOM     37  C   UNL A   1      40.065  30.679  29.945  1.00  0.00     0.037 A 
ATOM     38  C   UNL A   1      45.931  29.705  27.243  1.00  0.00     0.049 A 
ATOM     39  C   UNL A   1      41.324  31.494  29.895  1.00  0.00     0.074 A 
ATOM     40  C   UNL A   1      47.025  30.554  27.258  1.00  0.00     0.029 A 
ATOM     41  N   UNL A   1      44.928  30.333  27.967  1.00  0.00    -0.354 N 
ATOM     42  N   UNL A   1      42.464  31.220  29.309  1.00  0.00    -0.248 NA
ATOM     43  C   UNL A   1      41.309  32.779  30.608  1.00  0.00     0.031 C 
ATOM     44  C   UNL A   1      46.690  31.686  28.012  1.00  0.00     0.029 A 
ATOM     45  C   UNL A   1      45.378  31.555  28.437  1.00  0.00     0.049 A 
ATOM     46  H   UNL A   1      44.029  29.963  28.124  1.00  0.00     0.167 HD
ATOM     47  C   UNL A   1      43.300  32.293  29.579  1.00  0.00     0.074 A 
ATOM     48  C   UNL A   1      42.530  33.237  30.362  1.00  0.00     0.031 C 
ATOM     49  C   UNL A   1      44.592  32.476  29.217  1.00  0.00     0.037 A 
BRANCH  36  50
ATOM     50  C   UNL A   1      46.976  27.869  25.864  1.00  0.00     0.064 A 
ATOM     51  C   UNL A   1      47.088  27.969  24.470  1.00  0.00     0.173 A 
ATOM     52  C   UNL A   1      48.023  27.254  26.567  1.00  0.00     0.173 A 
ATOM     53  F   UNL A   1      46.105  28.533  23.754  1.00  0.00    -0.203 F 
ATOM     54  C   UNL A   1      48.198  27.455  23.805  1.00  0.00     0.198 A 
ATOM     55  C   UNL A   1      49.141  26.761  25.900  1.00  0.00     0.198 A 
ATOM     56  F   UNL A   1      47.965  27.136  27.902  1.00  0.00    -0.203 F 
ATOM     57  F   UNL A   1      48.267  27.526  22.468  1.00  0.00    -0.200 F 
ATOM     58  C   UNL A   1      49.226  26.856  24.520  1.00  0.00     0.200 A 
ATOM     59  F   UNL A   1      50.137  26.191  26.593  1.00  0.00    -0.200 F 
ATOM     60  F   UNL A   1      50.294  26.365  23.877  1.00  0.00    -0.200 F 
ENDBRANCH  36  50
BRANCH  37  61
ATOM     61  C   UNL A   1      38.870  31.155  30.686  1.00  0.00     0.064 A 
ATOM     62  C   UNL A   1      37.865  31.886  30.041  1.00  0.00     0.173 A 
ATOM     63  C   UNL A   1      38.699  30.868  32.049  1.00  0.00     0.173 A 
ATOM     64  F   UNL A   1      37.996  32.206  28.745  1.00  0.00    -0.203 F 
ATOM     65  C   UNL A   1      36.735  32.317  30.732  1.00  0.00     0.198 A 
ATOM     66  C   UNL A   1      37.557  31.276  32.731  1.00  0.00     0.198 A 
ATOM     67  F   UNL A   1      39.634  30.170  32.710  1.00  0.00    -0.203 F 
ATOM     68  F   UNL A   1      35.801  33.042  30.100  1.00  0.00    -0.200 F 
ATOM     69  C   UNL A   1      36.577  32.004  32.074  1.00  0.00     0.200 A 
ATOM     70  F   UNL A   1      37.404  30.960  34.025  1.00  0.00    -0.200 F 
ATOM     71  F   UNL A   1      35.485  32.409  32.736  1.00  0.00    -0.200 F 
ENDBRANCH  37  61
BRANCH  49  72
ATOM     72  C   UNL A   1      45.244  33.752  29.654  1.00  0.00     0.064 A 
ATOM     73  C   UNL A   1      45.179  34.910  28.865  1.00  0.00     0.173 A 
ATOM     74  C   UNL A   1      45.912  33.824  30.884  1.00  0.00     0.173 A 
ATOM     75  F   UNL A   1      44.565  34.882  27.674  1.00  0.00    -0.203 F 
ATOM     76  C   UNL A   1      45.778  36.094  29.288  1.00  0.00     0.198 A 
ATOM     77  C   UNL A   1      46.492  35.015  31.313  1.00  0.00     0.198 A 
ATOM     78  F   UNL A   1      45.997  32.742  31.672  1.00  0.00    -0.203 F 
ATOM     79  F   UNL A   1      45.738  37.180  28.504  1.00  0.00    -0.200 F 
ATOM     80  C   UNL A   1      46.429  36.147  30.512  1.00  0.00     0.200 A 
ATOM     81  F   UNL A   1      47.115  35.067  32.497  1.00  0.00    -0.200 F 
ATOM     82  F   UNL A   1      47.004  37.287  30.918  1.00  0.00    -0.200 F 
ENDBRANCH  49  72
ENDBRANCH  23  24
ENDBRANCH  16  18
ENDBRANCH  15  16
ENDBRANCH  14  15
ENDBRANCH   1  14
TORSDOF 13
ENDMDL
MODEL 2
REMARK VINA RESULT:     -10.0      6.259      9.697
REMARK SMILES C[C@H](C(=O)OCCOC(=O)c1ccc(-c2c3nc(c(-c4c(F)c(F)c(F)c(F)c4F)c4ccc([nH]4)c(-c4c(F)c(F)c(F)c(F)c4F)c4nc(c(-c5c(F)c(F)c(F)c(F)c5F)c5ccc2[nH]5)C=C4)C=C3)cc1)[C@H](C)c1ccoc1
REMARK SMILES IDX 6 1 5 2 3 3 4 4 2 5 1 6 74 7 75 8 76 9 77 10 80 11 78 12
REMARK SMILES IDX 79 13 7 14 8 15 9 16 10 17 11 18 12 19 73 20 13 21 72 22
REMARK SMILES IDX 14 23 15 24 16 25 66 26 17 27 71 28 65 29 67 30 18 31 70 32
REMARK SMILES IDX 64 33 63 34 19 36 51 37 31 38 50 39 32 40 35 41 49 42 68 43
REMARK SMILES IDX 33 44 34 45 48 47 69 48 36 49 20 50 21 51 29 52 22 53 23 54
REMARK SMILES IDX 27 55 30 56 24 57 25 58 28 59 26 60 52 61 53 62 61 63 54 64
REMARK SMILES IDX 55 65 59 66 62 67 56 68 57 69 60 70 58 71 37 72 38 73 46 74
REMARK SMILES IDX 39 75 40 76 44 77 47 78 41 79 42 80 45 81 43 82
REMARK H PARENT 67 35 35 46
REMARK Flexibility Score: inf
ROOT
ATOM      1  C   UNL A   1      32.253  29.580  24.978  1.00  0.00     0.274 C 
ENDROOT
BRANCH   1   2
ATOM      2  O   UNL A   1      32.530  28.336  25.658  1.00  0.00    -0.462 OA
BRANCH   2   3
ATOM      3  C   UNL A   1      31.644  27.329  25.462  1.00  0.00     0.309 C 
ATOM      4  O   UNL A   1      31.313  26.517  26.319  1.00  0.00    -0.252 OA
BRANCH   3   5
ATOM      5  C   UNL A   1      31.062  27.299  24.057  1.00  0.00     0.103 C 
ATOM      6  C   UNL A   1      31.463  26.027  23.307  1.00  0.00     0.020 C 
BRANCH   5   7
ATOM      7  C   UNL A   1      29.559  27.648  23.944  1.00  0.00     0.033 C 
ATOM      8  C   UNL A   1      28.649  26.418  23.870  1.00  0.00     0.014 C 
BRANCH   7   9
ATOM      9  C   UNL A   1      29.209  28.679  22.904  1.00  0.00    -0.006 A 
ATOM     10  C   UNL A   1      27.900  29.187  22.645  1.00  0.00     0.046 A 
ATOM     11  C   UNL A   1      30.033  29.355  22.026  1.00  0.00     0.198 A 
ATOM     12  C   UNL A   1      28.028  30.127  21.653  1.00  0.00     0.195 A 
ATOM     13  O   UNL A   1      29.324  30.232  21.270  1.00  0.00    -0.472 OA
ENDBRANCH   7   9
ENDBRANCH   5   7
ENDBRANCH   3   5
ENDBRANCH   2   3
ENDBRANCH   1   2
BRANCH   1  14
ATOM     14  C   UNL A   1      31.720  30.634  25.943  1.00  0.00     0.275 C 
BRANCH  14  15
ATOM     15  O   UNL A   1      32.506  30.632  27.146  1.00  0.00    -0.458 OA
BRANCH  15  16
ATOM     16  C   UNL A   1      33.230  31.752  27.361  1.00  0.00     0.338 C 
ATOM     17  O   UNL A   1      32.891  32.910  27.204  1.00  0.00    -0.246 OA
BRANCH  16  18
ATOM     18  C   UNL A   1      34.545  31.374  27.889  1.00  0.00     0.060 A 
ATOM     19  C   UNL A   1      34.743  30.060  28.309  1.00  0.00     0.016 A 
ATOM     20  C   UNL A   1      35.526  32.341  28.092  1.00  0.00     0.016 A 
ATOM     21  C   UNL A   1      35.890  29.721  29.016  1.00  0.00     0.010 A 
ATOM     22  C   UNL A   1      36.715  31.981  28.731  1.00  0.00     0.010 A 
ATOM     23  C   UNL A   1      36.892  30.676  29.230  1.00  0.00    -0.014 A 
BRANCH  23  24
ATOM     24  C   UNL A   1      38.102  30.325  30.013  1.00  0.00     0.031 A 
ATOM     25  C   UNL A   1      39.136  29.409  29.422  1.00  0.00     0.074 A 
ATOM     26  C   UNL A   1      38.282  30.836  31.246  1.00  0.00     0.049 A 
ATOM     27  N   UNL A   1      40.165  28.840  29.996  1.00  0.00    -0.248 NA
ATOM     28  C   UNL A   1      38.988  29.084  27.994  1.00  0.00     0.031 C 
ATOM     29  C   UNL A   1      37.382  31.779  31.909  1.00  0.00     0.029 A 
ATOM     30  N   UNL A   1      39.284  30.631  32.160  1.00  0.00    -0.354 N 
ATOM     31  C   UNL A   1      40.755  28.052  29.017  1.00  0.00     0.074 A 
ATOM     32  C   UNL A   1      39.974  28.217  27.810  1.00  0.00     0.031 C 
ATOM     33  C   UNL A   1      37.881  32.087  33.116  1.00  0.00     0.029 A 
ATOM     34  C   UNL A   1      39.094  31.307  33.339  1.00  0.00     0.049 A 
ATOM     35  H   UNL A   1      40.065  30.057  31.986  1.00  0.00     0.167 HD
ATOM     36  C   UNL A   1      41.849  27.259  29.122  1.00  0.00     0.037 A 
ATOM     37  C   UNL A   1      39.793  31.268  34.488  1.00  0.00     0.037 A 
ATOM     38  C   UNL A   1      42.646  27.133  30.313  1.00  0.00     0.049 A 
ATOM     39  C   UNL A   1      40.988  30.364  34.588  1.00  0.00     0.074 A 
ATOM     40  C   UNL A   1      43.770  26.353  30.525  1.00  0.00     0.029 A 
ATOM     41  N   UNL A   1      42.410  27.823  31.494  1.00  0.00    -0.354 N 
ATOM     42  N   UNL A   1      41.501  29.570  33.680  1.00  0.00    -0.248 NA
ATOM     43  C   UNL A   1      41.692  30.337  35.878  1.00  0.00     0.031 C 
ATOM     44  C   UNL A   1      44.200  26.554  31.842  1.00  0.00     0.029 A 
ATOM     45  C   UNL A   1      43.364  27.484  32.439  1.00  0.00     0.049 A 
ATOM     46  H   UNL A   1      41.673  28.459  31.638  1.00  0.00     0.167 HD
ATOM     47  C   UNL A   1      42.585  28.951  34.284  1.00  0.00     0.074 A 
ATOM     48  C   UNL A   1      42.672  29.479  35.631  1.00  0.00     0.031 C 
ATOM     49  C   UNL A   1      43.428  28.022  33.772  1.00  0.00     0.037 A 
BRANCH  36  50
ATOM     50  C   UNL A   1      42.225  26.438  27.925  1.00  0.00     0.064 A 
ATOM     51  C   UNL A   1      41.670  25.172  27.692  1.00  0.00     0.173 A 
ATOM     52  C   UNL A   1      43.136  26.943  26.984  1.00  0.00     0.173 A 
ATOM     53  F   UNL A   1      40.808  24.641  28.572  1.00  0.00    -0.203 F 
ATOM     54  C   UNL A   1      42.029  24.432  26.568  1.00  0.00     0.198 A 
ATOM     55  C   UNL A   1      43.475  26.209  25.851  1.00  0.00     0.198 A 
ATOM     56  F   UNL A   1      43.693  28.150  27.161  1.00  0.00    -0.203 F 
ATOM     57  F   UNL A   1      41.516  23.207  26.384  1.00  0.00    -0.200 F 
ATOM     58  C   UNL A   1      42.926  24.952  25.646  1.00  0.00     0.200 A 
ATOM     59  F   UNL A   1      44.335  26.716  24.957  1.00  0.00    -0.200 F 
ATOM     60  F   UNL A   1      43.266  24.239  24.564  1.00  0.00    -0.200 F 
ENDBRANCH  36  50
BRANCH  37  61
ATOM     61  C   UNL A   1      39.349  32.085  35.645  1.00  0.00     0.064 A 
ATOM     62  C   UNL A   1      38.439  31.578  36.580  1.00  0.00     0.173 A 
ATOM     63  C   UNL A   1      39.845  33.382  35.851  1.00  0.00     0.173 A 
ATOM     64  F   UNL A   1      37.919  30.354  36.411  1.00  0.00    -0.203 F 
ATOM     65  C   UNL A   1      38.036  32.339  37.675  1.00  0.00     0.198 A 
ATOM     66  C   UNL A   1      39.462  34.131  36.959  1.00  0.00     0.198 A 
ATOM     67  F   UNL A   1      40.720  33.911  34.982  1.00  0.00    -0.203 F 
ATOM     68  F   UNL A   1      37.139  31.843  38.539  1.00  0.00    -0.200 F 
ATOM     69  C   UNL A   1      38.555  33.611  37.869  1.00  0.00     0.200 A 
ATOM     70  F   UNL A   1      39.976  35.354  37.148  1.00  0.00    -0.200 F 
ATOM     71  F   UNL A   1      38.176  34.337  38.929  1.00  0.00    -0.200 F 
ENDBRANCH  37  61
BRANCH  49  72
ATOM     72  C   UNL A   1      44.523  27.532  34.670  1.00  0.00     0.064 A 
ATOM     73  C   UNL A   1      45.757  28.195  34.742  1.00  0.00     0.173 A 
ATOM     74  C   UNL A   1      44.325  26.410  35.486  1.00  0.00     0.173 A 
ATOM     75  F   UNL A   1      45.996  29.263  33.966  1.00  0.00    -0.203 F 
ATOM     76  C   UNL A   1      46.762  27.738  35.589  1.00  0.00     0.198 A 
ATOM     77  C   UNL A   1      45.325  25.969  36.347  1.00  0.00     0.198 A 
ATOM     78  F   UNL A   1      43.160  25.747  35.452  1.00  0.00    -0.203 F 
ATOM     79  F   UNL A   1      47.947  28.363  35.617  1.00  0.00    -0.200 F 
ATOM     80  C   UNL A   1      46.545  26.630  36.394  1.00  0.00     0.200 A 
ATOM     81  F   UNL A   1      45.112  24.901  37.128  1.00  0.00    -0.200 F 
ATOM     82  F   UNL A   1      47.513  26.192  37.210  1.00  0.00    -0.200 F 
ENDBRANCH  49  72
ENDBRANCH  23  24
ENDBRANCH  16  18
ENDBRANCH  15  16
ENDBRANCH  14  15
ENDBRANCH   1  14
TORSDOF 13
ENDMDL
MODEL 3
REMARK VINA RESULT:      -9.8      6.313      9.794
REMARK SMILES C[C@H](C(=O)OCCOC(=O)c1ccc(-c2c3nc(c(-c4c(F)c(F)c(F)c(F)c4F)c4ccc([nH]4)c(-c4c(F)c(F)c(F)c(F)c4F)c4nc(c(-c5c(F)c(F)c(F)c(F)c5F)c5ccc2[nH]5)C=C4)C=C3)cc1)[C@H](C)c1ccoc1
REMARK SMILES IDX 6 1 5 2 3 3 4 4 2 5 1 6 74 7 75 8 76 9 77 10 80 11 78 12
REMARK SMILES IDX 79 13 7 14 8 15 9 16 10 17 11 18 12 19 73 20 13 21 72 22
REMARK SMILES IDX 14 23 15 24 16 25 66 26 17 27 71 28 65 29 67 30 18 31 70 32
REMARK SMILES IDX 64 33 63 34 19 36 51 37 31 38 50 39 32 40 35 41 49 42 68 43
REMARK SMILES IDX 33 44 34 45 48 47 69 48 36 49 20 50 21 51 29 52 22 53 23 54
REMARK SMILES IDX 27 55 30 56 24 57 25 58 28 59 26 60 52 61 53 62 61 63 54 64
REMARK SMILES IDX 55 65 59 66 62 67 56 68 57 69 60 70 58 71 37 72 38 73 46 74
REMARK SMILES IDX 39 75 40 76 44 77 47 78 41 79 42 80 45 81 43 82
REMARK H PARENT 67 35 35 46
REMARK Flexibility Score: inf
ROOT
ATOM      1  C   UNL A   1      31.812  29.726  25.322  1.00  0.00     0.274 C 
ENDROOT
BRANCH   1   2
ATOM      2  O   UNL A   1      32.055  28.545  26.117  1.00  0.00    -0.462 OA
BRANCH   2   3
ATOM      3  C   UNL A   1      31.312  27.451  25.818  1.00  0.00     0.309 C 
ATOM      4  O   UNL A   1      30.971  26.598  26.631  1.00  0.00    -0.252 OA
BRANCH   3   5
ATOM      5  C   UNL A   1      30.907  27.375  24.354  1.00  0.00     0.103 C 
ATOM      6  C   UNL A   1      31.483  26.132  23.672  1.00  0.00     0.020 C 
BRANCH   5   7
ATOM      7  C   UNL A   1      29.408  27.616  24.057  1.00  0.00     0.033 C 
ATOM      8  C   UNL A   1      28.605  26.324  23.877  1.00  0.00     0.014 C 
BRANCH   7   9
ATOM      9  C   UNL A   1      29.115  28.625  22.979  1.00  0.00    -0.006 A 
ATOM     10  C   UNL A   1      27.852  29.251  22.747  1.00  0.00     0.046 A 
ATOM     11  C   UNL A   1      29.961  29.170  22.033  1.00  0.00     0.198 A 
ATOM     12  C   UNL A   1      28.027  30.123  21.702  1.00  0.00     0.195 A 
ATOM     13  O   UNL A   1      29.308  30.077  21.261  1.00  0.00    -0.472 OA
ENDBRANCH   7   9
ENDBRANCH   5   7
ENDBRANCH   3   5
ENDBRANCH   2   3
ENDBRANCH   1   2
BRANCH   1  14
ATOM     14  C   UNL A   1      31.785  30.981  26.186  1.00  0.00     0.275 C 
BRANCH  14  15
ATOM     15  O   UNL A   1      32.758  30.868  27.237  1.00  0.00    -0.458 OA
BRANCH  15  16
ATOM     16  C   UNL A   1      33.513  31.969  27.442  1.00  0.00     0.338 C 
ATOM     17  O   UNL A   1      33.208  33.135  27.272  1.00  0.00    -0.246 OA
BRANCH  16  18
ATOM     18  C   UNL A   1      34.816  31.559  27.976  1.00  0.00     0.060 A 
ATOM     19  C   UNL A   1      34.987  30.236  28.379  1.00  0.00     0.016 A 
ATOM     20  C   UNL A   1      35.813  32.505  28.202  1.00  0.00     0.016 A 
ATOM     21  C   UNL A   1      36.121  29.865  29.091  1.00  0.00     0.010 A 
ATOM     22  C   UNL A   1      36.990  32.113  28.845  1.00  0.00     0.010 A 
ATOM     23  C   UNL A   1      37.138  30.798  29.327  1.00  0.00    -0.014 A 
BRANCH  23  24
ATOM     24  C   UNL A   1      38.335  30.413  30.115  1.00  0.00     0.031 A 
ATOM     25  C   UNL A   1      39.361  29.494  29.516  1.00  0.00     0.074 A 
ATOM     26  C   UNL A   1      38.508  30.896  31.360  1.00  0.00     0.049 A 
ATOM     27  N   UNL A   1      40.376  28.898  30.089  1.00  0.00    -0.248 NA
ATOM     28  C   UNL A   1      39.224  29.200  28.080  1.00  0.00     0.031 C 
ATOM     29  C   UNL A   1      37.615  31.839  32.033  1.00  0.00     0.029 A 
ATOM     30  N   UNL A   1      39.498  30.658  32.280  1.00  0.00    -0.354 N 
ATOM     31  C   UNL A   1      40.964  28.121  29.101  1.00  0.00     0.074 A 
ATOM     32  C   UNL A   1      40.199  28.323  27.889  1.00  0.00     0.031 C 
ATOM     33  C   UNL A   1      38.106  32.115  33.251  1.00  0.00     0.029 A 
ATOM     34  C   UNL A   1      39.305  31.312  33.471  1.00  0.00     0.049 A 
ATOM     35  H   UNL A   1      40.272  30.076  32.102  1.00  0.00     0.167 HD
ATOM     36  C   UNL A   1      42.045  27.310  29.201  1.00  0.00     0.037 A 
ATOM     37  C   UNL A   1      39.991  31.240  34.626  1.00  0.00     0.037 A 
ATOM     38  C   UNL A   1      42.828  27.149  30.398  1.00  0.00     0.049 A 
ATOM     39  C   UNL A   1      41.172  30.317  34.720  1.00  0.00     0.074 A 
ATOM     40  C   UNL A   1      43.937  26.348  30.605  1.00  0.00     0.029 A 
ATOM     41  N   UNL A   1      42.589  27.818  31.590  1.00  0.00    -0.354 N 
ATOM     42  N   UNL A   1      41.682  29.534  33.802  1.00  0.00    -0.248 NA
ATOM     43  C   UNL A   1      41.861  30.253  36.016  1.00  0.00     0.031 C 
ATOM     44  C   UNL A   1      44.356  26.516  31.931  1.00  0.00     0.029 A 
ATOM     45  C   UNL A   1      43.527  27.445  32.537  1.00  0.00     0.049 A 
ATOM     46  H   UNL A   1      41.860  28.462  31.739  1.00  0.00     0.167 HD
ATOM     47  C   UNL A   1      42.750  28.886  34.404  1.00  0.00     0.074 A 
ATOM     48  C   UNL A   1      42.831  29.385  35.762  1.00  0.00     0.031 C 
ATOM     49  C   UNL A   1      43.585  27.955  33.882  1.00  0.00     0.037 A 
BRANCH  36  50
ATOM     50  C   UNL A   1      42.422  26.509  27.992  1.00  0.00     0.064 A 
ATOM     51  C   UNL A   1      41.865  25.247  27.737  1.00  0.00     0.173 A 
ATOM     52  C   UNL A   1      43.335  27.026  27.061  1.00  0.00     0.173 A 
ATOM     53  F   UNL A   1      41.000  24.704  28.606  1.00  0.00    -0.203 F 
ATOM     54  C   UNL A   1      42.224  24.525  26.602  1.00  0.00     0.198 A 
ATOM     55  C   UNL A   1      43.675  26.310  25.916  1.00  0.00     0.198 A 
ATOM     56  F   UNL A   1      43.894  28.229  27.258  1.00  0.00    -0.203 F 
ATOM     57  F   UNL A   1      41.710  23.304  26.396  1.00  0.00    -0.200 F 
ATOM     58  C   UNL A   1      43.124  25.058  25.690  1.00  0.00     0.200 A 
ATOM     59  F   UNL A   1      44.538  26.830  25.032  1.00  0.00    -0.200 F 
ATOM     60  F   UNL A   1      43.465  24.362  24.597  1.00  0.00    -0.200 F 
ENDBRANCH  36  50
BRANCH  37  61
ATOM     61  C   UNL A   1      39.547  32.040  35.795  1.00  0.00     0.064 A 
ATOM     62  C   UNL A   1      38.532  31.579  36.642  1.00  0.00     0.173 A 
ATOM     63  C   UNL A   1      40.145  33.273  36.100  1.00  0.00     0.173 A 
ATOM     64  F   UNL A   1      37.914  30.419  36.376  1.00  0.00    -0.203 F 
ATOM     65  C   UNL A   1      38.127  32.322  37.748  1.00  0.00     0.198 A 
ATOM     66  C   UNL A   1      39.758  34.001  37.221  1.00  0.00     0.198 A 
ATOM     67  F   UNL A   1      41.122  33.757  35.318  1.00  0.00    -0.203 F 
ATOM     68  F   UNL A   1      37.132  31.873  38.527  1.00  0.00    -0.200 F 
ATOM     69  C   UNL A   1      38.747  33.528  38.042  1.00  0.00     0.200 A 
ATOM     70  F   UNL A   1      40.369  35.160  37.507  1.00  0.00    -0.200 F 
ATOM     71  F   UNL A   1      38.365  34.236  39.114  1.00  0.00    -0.200 F 
ENDBRANCH  37  61
BRANCH  49  72
ATOM     72  C   UNL A   1      44.663  27.431  34.781  1.00  0.00     0.064 A 
ATOM     73  C   UNL A   1      44.470  26.276  35.552  1.00  0.00     0.173 A 
ATOM     74  C   UNL A   1      45.908  28.071  34.847  1.00  0.00     0.173 A 
ATOM     75  F   UNL A   1      43.289  25.640  35.533  1.00  0.00    -0.203 F 
ATOM     76  C   UNL A   1      45.484  25.790  36.374  1.00  0.00     0.198 A 
ATOM     77  C   UNL A   1      46.926  27.572  35.654  1.00  0.00     0.198 A 
ATOM     78  F   UNL A   1      46.138  29.178  34.124  1.00  0.00    -0.203 F 
ATOM     79  F   UNL A   1      45.268  24.707  37.132  1.00  0.00    -0.200 F 
ATOM     80  C   UNL A   1      46.711  26.435  36.420  1.00  0.00     0.200 A 
ATOM     81  F   UNL A   1      48.113  28.192  35.694  1.00  0.00    -0.200 F 
ATOM     82  F   UNL A   1      47.686  25.966  37.211  1.00  0.00    -0.200 F 
ENDBRANCH  49  72
ENDBRANCH  23  24
ENDBRANCH  16  18
ENDBRANCH  15  16
ENDBRANCH  14  15
ENDBRANCH   1  14
TORSDOF 13
ENDMDL
