MODEL 1
REMARK VINA RESULT:     -12.9      0.000      0.000
REMARK SMILES CCc1ccc([C@H](C)[N@@H+]2[C@@H](C(=O)OCCOC(=O)c3ccc(-c4c5nc(c(-c6c(F)c(F)c(F)c(F)c6F)c6ccc([nH]6)c(-c6c(F)c(F)c(F)c(F)c6F)c6nc(c(-c7c(F)c(F)c(F)c(F)c7F)c7ccc4[nH]7)C=C6)C=C5)cc3)C[C@H]3CCCC[C@H]32)s1
REMARK SMILES IDX 14 1 13 2 11 3 12 4 10 5 9 6 88 7 82 9 83 10 87 11 84 12
REMARK SMILES IDX 86 13 85 14 7 15 8 16 6 17 3 18 4 19 89 20 5 21 2 22 1 23
REMARK SMILES IDX 15 24 16 25 17 26 18 27 19 28 20 29 81 30 21 31 80 32 22 33
REMARK SMILES IDX 23 34 24 35 74 36 25 37 79 38 73 39 75 40 26 41 78 42 72 43
REMARK SMILES IDX 71 44 27 46 59 47 39 48 58 49 40 50 43 51 57 52 76 53 41 54
REMARK SMILES IDX 42 55 56 57 77 58 44 59 28 60 29 61 37 62 30 63 31 64 35 65
REMARK SMILES IDX 38 66 32 67 33 68 36 69 34 70 60 71 61 72 69 73 62 74 63 75
REMARK SMILES IDX 67 76 70 77 64 78 65 79 68 80 66 81 45 82 46 83 54 84 47 85
REMARK SMILES IDX 48 86 52 87 55 88 49 89 50 90 53 91 51 92
REMARK H PARENT 9 8 75 45 43 56
REMARK Flexibility Score: inf
ROOT
ATOM      1  C   UNL A   1      32.046  28.000  27.208  1.00  0.00     0.274 C 
ENDROOT
BRANCH   1   2
ATOM      2  O   UNL A   1      31.051  27.008  26.872  1.00  0.00    -0.458 OA
BRANCH   2   3
ATOM      3  C   UNL A   1      31.538  25.788  26.507  1.00  0.00     0.365 C 
ATOM      4  O   UNL A   1      31.180  24.727  27.015  1.00  0.00    -0.245 OA
BRANCH   3   5
ATOM      5  C   UNL A   1      32.687  25.871  25.495  1.00  0.00     0.296 C 
ATOM      6  N   UNL A   1      32.253  25.809  24.067  1.00  0.00    -0.314 N 
ATOM      7  C   UNL A   1      33.013  24.728  23.406  1.00  0.00     0.188 C 
ATOM      8  H   UNL A   1      31.257  25.594  24.038  1.00  0.00     0.349 HD
ATOM      9  C   UNL A   1      33.650  24.688  25.686  1.00  0.00     0.087 C 
ATOM     10  C   UNL A   1      34.224  24.481  24.298  1.00  0.00     0.054 C 
ATOM     11  C   UNL A   1      32.087  23.512  23.274  1.00  0.00     0.065 C 
ATOM     12  C   UNL A   1      34.925  23.149  24.046  1.00  0.00     0.010 C 
ATOM     13  C   UNL A   1      32.860  22.257  22.897  1.00  0.00     0.006 C 
ATOM     14  C   UNL A   1      33.979  21.967  23.888  1.00  0.00     0.001 C 
BRANCH   6  15
ATOM     15  C   UNL A   1      32.313  27.108  23.348  1.00  0.00     0.223 C 
ATOM     16  C   UNL A   1      33.043  27.072  21.990  1.00  0.00     0.082 C 
BRANCH  15  17
ATOM     17  C   UNL A   1      30.906  27.717  23.253  1.00  0.00     0.062 A 
ATOM     18  C   UNL A   1      28.930  29.138  22.729  1.00  0.00     0.005 A 
ATOM     19  C   UNL A   1      28.571  27.906  23.231  1.00  0.00     0.016 A 
ATOM     20  S   UNL A   1      30.626  29.324  22.700  1.00  0.00    -0.139 S 
ATOM     21  C   UNL A   1      29.703  27.092  23.534  1.00  0.00     0.022 A 
BRANCH  18  22
ATOM     22  C   UNL A   1      28.046  30.240  22.225  1.00  0.00     0.043 C 
ATOM     23  C   UNL A   1      27.657  31.213  23.325  1.00  0.00     0.010 C 
ENDBRANCH  18  22
ENDBRANCH  15  17
ENDBRANCH   6  15
ENDBRANCH   3   5
ENDBRANCH   2   3
ENDBRANCH   1   2
BRANCH   1  24
ATOM     24  C   UNL A   1      31.606  29.393  26.762  1.00  0.00     0.275 C 
BRANCH  24  25
ATOM     25  O   UNL A   1      32.738  30.102  26.235  1.00  0.00    -0.458 OA
BRANCH  25  26
ATOM     26  C   UNL A   1      33.188  31.139  26.979  1.00  0.00     0.338 C 
ATOM     27  O   UNL A   1      32.574  32.157  27.249  1.00  0.00    -0.246 OA
BRANCH  26  28
ATOM     28  C   UNL A   1      34.559  30.856  27.478  1.00  0.00     0.060 A 
ATOM     29  C   UNL A   1      35.061  29.558  27.530  1.00  0.00     0.016 A 
ATOM     30  C   UNL A   1      35.324  31.899  28.007  1.00  0.00     0.016 A 
ATOM     31  C   UNL A   1      36.251  29.292  28.214  1.00  0.00     0.010 A 
ATOM     32  C   UNL A   1      36.562  31.636  28.613  1.00  0.00     0.010 A 
ATOM     33  C   UNL A   1      37.017  30.319  28.792  1.00  0.00    -0.014 A 
BRANCH  33  34
ATOM     34  C   UNL A   1      38.216  30.016  29.648  1.00  0.00     0.031 A 
ATOM     35  C   UNL A   1      39.368  29.196  29.097  1.00  0.00     0.074 A 
ATOM     36  C   UNL A   1      38.342  30.506  30.900  1.00  0.00     0.049 A 
ATOM     37  N   UNL A   1      40.396  28.674  29.726  1.00  0.00    -0.248 NA
ATOM     38  C   UNL A   1      39.364  28.921  27.652  1.00  0.00     0.031 C 
ATOM     39  C   UNL A   1      37.382  31.373  31.578  1.00  0.00     0.029 A 
ATOM     40  N   UNL A   1      39.354  30.358  31.823  1.00  0.00    -0.354 N 
ATOM     41  C   UNL A   1      41.113  27.963  28.769  1.00  0.00     0.074 A 
ATOM     42  C   UNL A   1      40.419  28.131  27.513  1.00  0.00     0.031 C 
ATOM     43  C   UNL A   1      37.881  31.746  32.765  1.00  0.00     0.029 A 
ATOM     44  C   UNL A   1      39.138  31.043  32.996  1.00  0.00     0.049 A 
ATOM     45  H   UNL A   1      40.157  29.813  31.658  1.00  0.00     0.167 HD
ATOM     46  C   UNL A   1      42.241  27.226  28.919  1.00  0.00     0.037 A 
ATOM     47  C   UNL A   1      39.828  31.065  34.153  1.00  0.00     0.037 A 
ATOM     48  C   UNL A   1      42.983  27.092  30.145  1.00  0.00     0.049 A 
ATOM     49  C   UNL A   1      41.032  30.182  34.324  1.00  0.00     0.074 A 
ATOM     50  C   UNL A   1      44.133  26.358  30.383  1.00  0.00     0.029 A 
ATOM     51  N   UNL A   1      42.660  27.723  31.334  1.00  0.00    -0.354 N 
ATOM     52  N   UNL A   1      41.627  29.414  33.446  1.00  0.00    -0.248 NA
ATOM     53  C   UNL A   1      41.630  30.133  35.668  1.00  0.00     0.031 C 
ATOM     54  C   UNL A   1      44.486  26.516  31.728  1.00  0.00     0.029 A 
ATOM     55  C   UNL A   1      43.578  27.381  32.315  1.00  0.00     0.049 A 
ATOM     56  H   UNL A   1      41.892  28.325  31.464  1.00  0.00     0.167 HD
ATOM     57  C   UNL A   1      42.656  28.783  34.130  1.00  0.00     0.074 A 
ATOM     58  C   UNL A   1      42.628  29.279  35.489  1.00  0.00     0.031 C 
ATOM     59  C   UNL A   1      43.537  27.861  33.670  1.00  0.00     0.037 A 
BRANCH  46  60
ATOM     60  C   UNL A   1      42.724  26.450  27.727  1.00  0.00     0.064 A 
ATOM     61  C   UNL A   1      43.697  26.952  26.855  1.00  0.00     0.173 A 
ATOM     62  C   UNL A   1      42.223  25.160  27.486  1.00  0.00     0.173 A 
ATOM     63  F   UNL A   1      44.195  28.184  27.034  1.00  0.00    -0.203 F 
ATOM     64  C   UNL A   1      44.139  26.197  25.769  1.00  0.00     0.198 A 
ATOM     65  C   UNL A   1      42.685  24.400  26.417  1.00  0.00     0.198 A 
ATOM     66  F   UNL A   1      41.295  24.633  28.298  1.00  0.00    -0.203 F 
ATOM     67  F   UNL A   1      45.044  26.710  24.923  1.00  0.00    -0.200 F 
ATOM     68  C   UNL A   1      43.639  24.921  25.555  1.00  0.00     0.200 A 
ATOM     69  F   UNL A   1      42.208  23.163  26.219  1.00  0.00    -0.200 F 
ATOM     70  F   UNL A   1      44.070  24.195  24.515  1.00  0.00    -0.200 F 
ENDBRANCH  46  60
BRANCH  47  71
ATOM     71  C   UNL A   1      39.346  31.906  35.280  1.00  0.00     0.064 A 
ATOM     72  C   UNL A   1      38.547  31.360  36.294  1.00  0.00     0.173 A 
ATOM     73  C   UNL A   1      39.688  33.263  35.375  1.00  0.00     0.173 A 
ATOM     74  F   UNL A   1      38.160  30.078  36.226  1.00  0.00    -0.203 F 
ATOM     75  C   UNL A   1      38.118  32.140  37.367  1.00  0.00     0.198 A 
ATOM     76  C   UNL A   1      39.287  34.032  36.465  1.00  0.00     0.198 A 
ATOM     77  F   UNL A   1      40.439  33.834  34.423  1.00  0.00    -0.203 F 
ATOM     78  F   UNL A   1      37.332  31.603  38.310  1.00  0.00    -0.200 F 
ATOM     79  C   UNL A   1      38.501  33.470  37.459  1.00  0.00     0.200 A 
ATOM     80  F   UNL A   1      39.669  35.312  36.554  1.00  0.00    -0.200 F 
ATOM     81  F   UNL A   1      38.106  34.213  38.502  1.00  0.00    -0.200 F 
ENDBRANCH  47  71
BRANCH  59  82
ATOM     82  C   UNL A   1      44.543  27.325  34.644  1.00  0.00     0.064 A 
ATOM     83  C   UNL A   1      45.761  27.982  34.868  1.00  0.00     0.173 A 
ATOM     84  C   UNL A   1      44.277  26.160  35.378  1.00  0.00     0.173 A 
ATOM     85  F   UNL A   1      46.067  29.091  34.178  1.00  0.00    -0.203 F 
ATOM     86  C   UNL A   1      46.687  27.481  35.780  1.00  0.00     0.198 A 
ATOM     87  C   UNL A   1      45.196  25.673  36.305  1.00  0.00     0.198 A 
ATOM     88  F   UNL A   1      43.125  25.497  35.202  1.00  0.00    -0.203 F 
ATOM     89  F   UNL A   1      47.862  28.102  35.949  1.00  0.00    -0.200 F 
ATOM     90  C   UNL A   1      46.402  26.331  36.500  1.00  0.00     0.200 A 
ATOM     91  F   UNL A   1      44.918  24.566  37.005  1.00  0.00    -0.200 F 
ATOM     92  F   UNL A   1      47.294  25.849  37.377  1.00  0.00    -0.200 F 
ENDBRANCH  59  82
ENDBRANCH  33  34
ENDBRANCH  26  28
ENDBRANCH  25  26
ENDBRANCH  24  25
ENDBRANCH   1  24
TORSDOF 14
ENDMDL
MODEL 2
REMARK VINA RESULT:     -12.5      4.436      9.827
REMARK SMILES CCc1ccc([C@H](C)[N@@H+]2[C@@H](C(=O)OCCOC(=O)c3ccc(-c4c5nc(c(-c6c(F)c(F)c(F)c(F)c6F)c6ccc([nH]6)c(-c6c(F)c(F)c(F)c(F)c6F)c6nc(c(-c7c(F)c(F)c(F)c(F)c7F)c7ccc4[nH]7)C=C6)C=C5)cc3)C[C@H]3CCCC[C@H]32)s1
REMARK SMILES IDX 14 1 13 2 11 3 12 4 10 5 9 6 88 7 82 9 83 10 87 11 84 12
REMARK SMILES IDX 86 13 85 14 7 15 8 16 6 17 3 18 4 19 89 20 5 21 2 22 1 23
REMARK SMILES IDX 15 24 16 25 17 26 18 27 19 28 20 29 81 30 21 31 80 32 22 33
REMARK SMILES IDX 23 34 24 35 74 36 25 37 79 38 73 39 75 40 26 41 78 42 72 43
REMARK SMILES IDX 71 44 27 46 59 47 39 48 58 49 40 50 43 51 57 52 76 53 41 54
REMARK SMILES IDX 42 55 56 57 77 58 44 59 28 60 29 61 37 62 30 63 31 64 35 65
REMARK SMILES IDX 38 66 32 67 33 68 36 69 34 70 60 71 61 72 69 73 62 74 63 75
REMARK SMILES IDX 67 76 70 77 64 78 65 79 68 80 66 81 45 82 46 83 54 84 47 85
REMARK SMILES IDX 48 86 52 87 55 88 49 89 50 90 53 91 51 92
REMARK H PARENT 9 8 75 45 43 56
REMARK Flexibility Score: inf
ROOT
ATOM      1  C   UNL A   1      35.981  23.143  23.905  1.00  0.00     0.274 C 
ENDROOT
BRANCH   1   2
ATOM      2  O   UNL A   1      35.116  23.050  22.753  1.00  0.00    -0.458 OA
BRANCH   2   3
ATOM      3  C   UNL A   1      34.045  23.895  22.751  1.00  0.00     0.365 C 
ATOM      4  O   UNL A   1      33.532  24.350  21.731  1.00  0.00    -0.245 OA
BRANCH   3   5
ATOM      5  C   UNL A   1      33.625  24.342  24.156  1.00  0.00     0.296 C 
ATOM      6  N   UNL A   1      32.287  23.834  24.588  1.00  0.00    -0.314 N 
ATOM      7  C   UNL A   1      31.473  24.993  25.007  1.00  0.00     0.188 C 
ATOM      8  H   UNL A   1      31.842  23.374  23.794  1.00  0.00     0.349 HD
ATOM      9  C   UNL A   1      33.523  25.875  24.218  1.00  0.00     0.087 C 
ATOM     10  C   UNL A   1      32.472  26.110  25.285  1.00  0.00     0.054 C 
ATOM     11  C   UNL A   1      30.488  25.314  23.875  1.00  0.00     0.065 C 
ATOM     12  C   UNL A   1      31.854  27.505  25.331  1.00  0.00     0.010 C 
ATOM     13  C   UNL A   1      29.827  26.670  24.075  1.00  0.00     0.006 C 
ATOM     14  C   UNL A   1      30.858  27.783  24.214  1.00  0.00     0.001 C 
BRANCH   6  15
ATOM     15  C   UNL A   1      32.338  22.742  25.594  1.00  0.00     0.223 C 
ATOM     16  C   UNL A   1      31.122  22.668  26.541  1.00  0.00     0.082 C 
BRANCH  15  17
ATOM     17  C   UNL A   1      32.637  21.406  24.900  1.00  0.00     0.062 A 
ATOM     18  C   UNL A   1      33.304  19.067  24.371  1.00  0.00     0.005 A 
ATOM     19  C   UNL A   1      32.533  19.629  23.376  1.00  0.00     0.016 A 
ATOM     20  S   UNL A   1      33.620  20.187  25.618  1.00  0.00    -0.139 S 
ATOM     21  C   UNL A   1      32.153  20.971  23.678  1.00  0.00     0.022 A 
BRANCH  18  22
ATOM     22  C   UNL A   1      33.834  17.667  24.468  1.00  0.00     0.043 C 
ATOM     23  C   UNL A   1      33.819  16.952  23.126  1.00  0.00     0.010 C 
ENDBRANCH  18  22
ENDBRANCH  15  17
ENDBRANCH   6  15
ENDBRANCH   3   5
ENDBRANCH   2   3
ENDBRANCH   1   2
BRANCH   1  24
ATOM     24  C   UNL A   1      36.613  21.791  24.229  1.00  0.00     0.275 C 
BRANCH  24  25
ATOM     25  O   UNL A   1      37.022  21.777  25.606  1.00  0.00    -0.458 OA
BRANCH  25  26
ATOM     26  C   UNL A   1      38.340  21.563  25.831  1.00  0.00     0.338 C 
ATOM     27  O   UNL A   1      38.978  20.574  25.514  1.00  0.00    -0.246 OA
BRANCH  26  28
ATOM     28  C   UNL A   1      38.945  22.744  26.501  1.00  0.00     0.060 A 
ATOM     29  C   UNL A   1      38.358  24.005  26.422  1.00  0.00     0.016 A 
ATOM     30  C   UNL A   1      40.182  22.612  27.135  1.00  0.00     0.016 A 
ATOM     31  C   UNL A   1      39.059  25.133  26.858  1.00  0.00     0.010 A 
ATOM     32  C   UNL A   1      40.841  23.739  27.651  1.00  0.00     0.010 A 
ATOM     33  C   UNL A   1      40.325  25.031  27.459  1.00  0.00    -0.014 A 
BRANCH  33  34
ATOM     34  C   UNL A   1      41.135  26.253  27.794  1.00  0.00     0.031 A 
ATOM     35  C   UNL A   1      40.559  27.340  28.683  1.00  0.00     0.074 A 
ATOM     36  C   UNL A   1      42.410  26.401  27.374  1.00  0.00     0.049 A 
ATOM     37  N   UNL A   1      41.021  28.544  28.935  1.00  0.00    -0.248 NA
ATOM     38  C   UNL A   1      39.297  27.039  29.377  1.00  0.00     0.031 C 
ATOM     39  C   UNL A   1      43.165  25.437  26.577  1.00  0.00     0.029 A 
ATOM     40  N   UNL A   1      43.310  27.424  27.584  1.00  0.00    -0.354 N 
ATOM     41  C   UNL A   1      40.077  29.155  29.755  1.00  0.00     0.074 A 
ATOM     42  C   UNL A   1      39.025  28.189  29.976  1.00  0.00     0.031 C 
ATOM     43  C   UNL A   1      44.426  25.868  26.436  1.00  0.00     0.029 A 
ATOM     44  C   UNL A   1      44.542  27.202  27.017  1.00  0.00     0.049 A 
ATOM     45  H   UNL A   1      43.090  28.238  28.093  1.00  0.00     0.167 HD
ATOM     46  C   UNL A   1      40.076  30.408  30.271  1.00  0.00     0.037 A 
ATOM     47  C   UNL A   1      45.630  27.991  26.913  1.00  0.00     0.037 A 
ATOM     48  C   UNL A   1      41.139  31.366  30.114  1.00  0.00     0.049 A 
ATOM     49  C   UNL A   1      45.581  29.403  27.424  1.00  0.00     0.074 A 
ATOM     50  C   UNL A   1      41.213  32.661  30.599  1.00  0.00     0.029 A 
ATOM     51  N   UNL A   1      42.323  31.126  29.438  1.00  0.00    -0.354 N 
ATOM     52  N   UNL A   1      44.630  30.011  28.087  1.00  0.00    -0.248 NA
ATOM     53  C   UNL A   1      46.742  30.254  27.123  1.00  0.00     0.031 C 
ATOM     54  C   UNL A   1      42.429  33.218  30.184  1.00  0.00     0.029 A 
ATOM     55  C   UNL A   1      43.127  32.255  29.477  1.00  0.00     0.049 A 
ATOM     56  H   UNL A   1      42.559  30.278  28.995  1.00  0.00     0.167 HD
ATOM     57  C   UNL A   1      45.070  31.315  28.272  1.00  0.00     0.074 A 
ATOM     58  C   UNL A   1      46.387  31.404  27.679  1.00  0.00     0.031 C 
ATOM     59  C   UNL A   1      44.427  32.347  28.869  1.00  0.00     0.037 A 
BRANCH  46  60
ATOM     60  C   UNL A   1      38.850  30.848  31.019  1.00  0.00     0.064 A 
ATOM     61  C   UNL A   1      38.756  30.761  32.413  1.00  0.00     0.173 A 
ATOM     62  C   UNL A   1      37.768  31.404  30.318  1.00  0.00     0.173 A 
ATOM     63  F   UNL A   1      39.757  30.223  33.126  1.00  0.00    -0.203 F 
ATOM     64  C   UNL A   1      37.613  31.197  33.080  1.00  0.00     0.198 A 
ATOM     65  C   UNL A   1      36.639  31.862  30.988  1.00  0.00     0.198 A 
ATOM     66  F   UNL A   1      37.814  31.516  28.982  1.00  0.00    -0.203 F 
ATOM     67  F   UNL A   1      37.526  31.071  34.411  1.00  0.00    -0.200 F 
ATOM     68  C   UNL A   1      36.559  31.753  32.368  1.00  0.00     0.200 A 
ATOM     69  F   UNL A   1      35.627  32.408  30.300  1.00  0.00    -0.200 F 
ATOM     70  F   UNL A   1      35.463  32.178  33.012  1.00  0.00    -0.200 F 
ENDBRANCH  46  60
BRANCH  47  71
ATOM     71  C   UNL A   1      46.844  27.481  26.223  1.00  0.00     0.064 A 
ATOM     72  C   UNL A   1      47.004  27.637  24.840  1.00  0.00     0.173 A 
ATOM     73  C   UNL A   1      47.874  26.848  26.935  1.00  0.00     0.173 A 
ATOM     74  F   UNL A   1      46.030  28.201  24.112  1.00  0.00    -0.203 F 
ATOM     75  C   UNL A   1      48.155  27.187  24.196  1.00  0.00     0.198 A 
ATOM     76  C   UNL A   1      49.038  26.429  26.295  1.00  0.00     0.198 A 
ATOM     77  F   UNL A   1      47.762  26.663  28.258  1.00  0.00    -0.203 F 
ATOM     78  F   UNL A   1      48.274  27.322  22.868  1.00  0.00    -0.200 F 
ATOM     79  C   UNL A   1      49.177  26.597  24.926  1.00  0.00     0.200 A 
ATOM     80  F   UNL A   1      50.026  25.871  27.007  1.00  0.00    -0.200 F 
ATOM     81  F   UNL A   1      50.292  26.184  24.309  1.00  0.00    -0.200 F 
ENDBRANCH  47  71
BRANCH  59  82
ATOM     82  C   UNL A   1      45.137  33.667  28.911  1.00  0.00     0.064 A 
ATOM     83  C   UNL A   1      46.001  33.997  29.965  1.00  0.00     0.173 A 
ATOM     84  C   UNL A   1      44.974  34.600  27.876  1.00  0.00     0.173 A 
ATOM     85  F   UNL A   1      46.177  33.144  30.986  1.00  0.00    -0.203 F 
ATOM     86  C   UNL A   1      46.661  35.223  29.992  1.00  0.00     0.198 A 
ATOM     87  C   UNL A   1      45.652  35.816  27.895  1.00  0.00     0.198 A 
ATOM     88  F   UNL A   1      44.162  34.330  26.844  1.00  0.00    -0.203 F 
ATOM     89  F   UNL A   1      47.451  35.534  31.029  1.00  0.00    -0.200 F 
ATOM     90  C   UNL A   1      46.491  36.128  28.956  1.00  0.00     0.200 A 
ATOM     91  F   UNL A   1      45.492  36.687  26.891  1.00  0.00    -0.200 F 
ATOM     92  F   UNL A   1      47.127  37.308  28.983  1.00  0.00    -0.200 F 
ENDBRANCH  59  82
ENDBRANCH  33  34
ENDBRANCH  26  28
ENDBRANCH  25  26
ENDBRANCH  24  25
ENDBRANCH   1  24
TORSDOF 14
ENDMDL
MODEL 3
REMARK VINA RESULT:     -12.1      0.976      7.449
REMARK SMILES CCc1ccc([C@H](C)[N@@H+]2[C@@H](C(=O)OCCOC(=O)c3ccc(-c4c5nc(c(-c6c(F)c(F)c(F)c(F)c6F)c6ccc([nH]6)c(-c6c(F)c(F)c(F)c(F)c6F)c6nc(c(-c7c(F)c(F)c(F)c(F)c7F)c7ccc4[nH]7)C=C6)C=C5)cc3)C[C@H]3CCCC[C@H]32)s1
REMARK SMILES IDX 14 1 13 2 11 3 12 4 10 5 9 6 88 7 82 9 83 10 87 11 84 12
REMARK SMILES IDX 86 13 85 14 7 15 8 16 6 17 3 18 4 19 89 20 5 21 2 22 1 23
REMARK SMILES IDX 15 24 16 25 17 26 18 27 19 28 20 29 81 30 21 31 80 32 22 33
REMARK SMILES IDX 23 34 24 35 74 36 25 37 79 38 73 39 75 40 26 41 78 42 72 43
REMARK SMILES IDX 71 44 27 46 59 47 39 48 58 49 40 50 43 51 57 52 76 53 41 54
REMARK SMILES IDX 42 55 56 57 77 58 44 59 28 60 29 61 37 62 30 63 31 64 35 65
REMARK SMILES IDX 38 66 32 67 33 68 36 69 34 70 60 71 61 72 69 73 62 74 63 75
REMARK SMILES IDX 67 76 70 77 64 78 65 79 68 80 66 81 45 82 46 83 54 84 47 85
REMARK SMILES IDX 48 86 52 87 55 88 49 89 50 90 53 91 51 92
REMARK H PARENT 9 8 75 45 43 56
REMARK Flexibility Score: inf
ROOT
ATOM      1  C   UNL A   1      32.254  29.096  25.421  1.00  0.00     0.274 C 
ENDROOT
BRANCH   1   2
ATOM      2  O   UNL A   1      32.225  28.113  26.479  1.00  0.00    -0.458 OA
BRANCH   2   3
ATOM      3  C   UNL A   1      32.076  26.819  26.075  1.00  0.00     0.365 C 
ATOM      4  O   UNL A   1      31.447  25.972  26.705  1.00  0.00    -0.245 OA
BRANCH   3   5
ATOM      5  C   UNL A   1      32.893  26.477  24.823  1.00  0.00     0.296 C 
ATOM      6  N   UNL A   1      32.101  25.840  23.728  1.00  0.00    -0.314 N 
ATOM      7  C   UNL A   1      32.773  24.580  23.352  1.00  0.00     0.188 C 
ATOM      8  H   UNL A   1      31.165  25.636  24.078  1.00  0.00     0.349 HD
ATOM      9  C   UNL A   1      34.001  25.469  25.170  1.00  0.00     0.087 C 
ATOM     10  C   UNL A   1      34.200  24.712  23.871  1.00  0.00     0.054 C 
ATOM     11  C   UNL A   1      31.992  23.420  23.983  1.00  0.00     0.065 C 
ATOM     12  C   UNL A   1      34.956  23.390  23.968  1.00  0.00     0.010 C 
ATOM     13  C   UNL A   1      32.774  22.117  23.918  1.00  0.00     0.006 C 
ATOM     14  C   UNL A   1      34.145  22.250  24.569  1.00  0.00     0.001 C 
BRANCH   6  15
ATOM     15  C   UNL A   1      31.814  26.733  22.575  1.00  0.00     0.223 C 
ATOM     16  C   UNL A   1      31.855  26.050  21.193  1.00  0.00     0.082 C 
BRANCH  15  17
ATOM     17  C   UNL A   1      30.509  27.503  22.823  1.00  0.00     0.062 A 
ATOM     18  C   UNL A   1      28.622  29.125  22.748  1.00  0.00     0.005 A 
ATOM     19  C   UNL A   1      28.295  27.972  23.431  1.00  0.00     0.016 A 
ATOM     20  S   UNL A   1      30.249  29.101  22.236  1.00  0.00    -0.139 S 
ATOM     21  C   UNL A   1      29.378  27.044  23.476  1.00  0.00     0.022 A 
BRANCH  18  22
ATOM     22  C   UNL A   1      27.748  30.298  22.418  1.00  0.00     0.043 C 
ATOM     23  C   UNL A   1      27.561  31.228  23.606  1.00  0.00     0.010 C 
ENDBRANCH  18  22
ENDBRANCH  15  17
ENDBRANCH   6  15
ENDBRANCH   3   5
ENDBRANCH   2   3
ENDBRANCH   1   2
BRANCH   1  24
ATOM     24  C   UNL A   1      31.764  30.454  25.919  1.00  0.00     0.275 C 
BRANCH  24  25
ATOM     25  O   UNL A   1      32.248  30.673  27.253  1.00  0.00    -0.458 OA
BRANCH  25  26
ATOM     26  C   UNL A   1      33.066  31.738  27.419  1.00  0.00     0.338 C 
ATOM     27  O   UNL A   1      32.757  32.913  27.313  1.00  0.00    -0.246 OA
BRANCH  26  28
ATOM     28  C   UNL A   1      34.429  31.284  27.801  1.00  0.00     0.060 A 
ATOM     29  C   UNL A   1      34.722  29.934  27.983  1.00  0.00     0.016 A 
ATOM     30  C   UNL A   1      35.412  32.234  28.087  1.00  0.00     0.016 A 
ATOM     31  C   UNL A   1      35.934  29.552  28.563  1.00  0.00     0.010 A 
ATOM     32  C   UNL A   1      36.662  31.836  28.586  1.00  0.00     0.010 A 
ATOM     33  C   UNL A   1      36.922  30.492  28.901  1.00  0.00    -0.014 A 
BRANCH  33  34
ATOM     34  C   UNL A   1      38.162  30.093  29.654  1.00  0.00     0.031 A 
ATOM     35  C   UNL A   1      38.360  30.523  31.095  1.00  0.00     0.074 A 
ATOM     36  C   UNL A   1      39.104  29.296  29.105  1.00  0.00     0.049 A 
ATOM     37  N   UNL A   1      39.431  30.441  31.851  1.00  0.00    -0.248 NA
ATOM     38  C   UNL A   1      37.207  31.130  31.778  1.00  0.00     0.031 C 
ATOM     39  C   UNL A   1      39.060  28.719  27.764  1.00  0.00     0.029 A 
ATOM     40  N   UNL A   1      40.284  28.813  29.627  1.00  0.00    -0.354 N 
ATOM     41  C   UNL A   1      39.097  31.041  33.061  1.00  0.00     0.074 A 
ATOM     42  C   UNL A   1      37.720  31.468  32.951  1.00  0.00     0.031 C 
ATOM     43  C   UNL A   1      40.109  27.901  27.597  1.00  0.00     0.029 A 
ATOM     44  C   UNL A   1      40.976  27.993  28.768  1.00  0.00     0.049 A 
ATOM     45  H   UNL A   1      40.603  29.036  30.532  1.00  0.00     0.167 HD
ATOM     46  C   UNL A   1      39.865  31.232  34.161  1.00  0.00     0.037 A 
ATOM     47  C   UNL A   1      42.192  27.422  28.867  1.00  0.00     0.037 A 
ATOM     48  C   UNL A   1      41.217  30.764  34.316  1.00  0.00     0.049 A 
ATOM     49  C   UNL A   1      43.058  27.709  30.061  1.00  0.00     0.074 A 
ATOM     50  C   UNL A   1      42.068  30.921  35.397  1.00  0.00     0.029 A 
ATOM     51  N   UNL A   1      41.909  30.028  33.369  1.00  0.00    -0.354 N 
ATOM     52  N   UNL A   1      42.775  28.386  31.146  1.00  0.00    -0.248 NA
ATOM     53  C   UNL A   1      44.434  27.190  30.019  1.00  0.00     0.031 C 
ATOM     54  C   UNL A   1      43.289  30.311  35.090  1.00  0.00     0.029 A 
ATOM     55  C   UNL A   1      43.183  29.739  33.834  1.00  0.00     0.049 A 
ATOM     56  H   UNL A   1      41.549  29.750  32.495  1.00  0.00     0.167 HD
ATOM     57  C   UNL A   1      43.936  28.387  31.906  1.00  0.00     0.074 A 
ATOM     58  C   UNL A   1      44.920  27.617  31.177  1.00  0.00     0.031 C 
ATOM     59  C   UNL A   1      44.166  28.989  33.099  1.00  0.00     0.037 A 
BRANCH  46  60
ATOM     60  C   UNL A   1      39.277  32.037  35.284  1.00  0.00     0.064 A 
ATOM     61  C   UNL A   1      38.520  31.451  36.307  1.00  0.00     0.173 A 
ATOM     62  C   UNL A   1      39.515  33.420  35.350  1.00  0.00     0.173 A 
ATOM     63  F   UNL A   1      38.252  30.137  36.281  1.00  0.00    -0.203 F 
ATOM     64  C   UNL A   1      38.006  32.223  37.346  1.00  0.00     0.198 A 
ATOM     65  C   UNL A   1      39.021  34.183  36.402  1.00  0.00     0.198 A 
ATOM     66  F   UNL A   1      40.240  34.027  34.397  1.00  0.00    -0.203 F 
ATOM     67  F   UNL A   1      37.253  31.650  38.296  1.00  0.00    -0.200 F 
ATOM     68  C   UNL A   1      38.262  33.586  37.397  1.00  0.00     0.200 A 
ATOM     69  F   UNL A   1      39.279  35.498  36.454  1.00  0.00    -0.200 F 
ATOM     70  F   UNL A   1      37.772  34.326  38.401  1.00  0.00    -0.200 F 
ENDBRANCH  46  60
BRANCH  47  71
ATOM     71  C   UNL A   1      42.700  26.575  27.756  1.00  0.00     0.064 A 
ATOM     72  C   UNL A   1      42.375  25.214  27.683  1.00  0.00     0.173 A 
ATOM     73  C   UNL A   1      43.501  27.112  26.737  1.00  0.00     0.173 A 
ATOM     74  F   UNL A   1      41.644  24.646  28.654  1.00  0.00    -0.203 F 
ATOM     75  C   UNL A   1      42.825  24.425  26.626  1.00  0.00     0.198 A 
ATOM     76  C   UNL A   1      43.922  26.330  25.665  1.00  0.00     0.198 A 
ATOM     77  F   UNL A   1      43.850  28.406  26.770  1.00  0.00    -0.203 F 
ATOM     78  F   UNL A   1      42.524  23.119  26.592  1.00  0.00    -0.200 F 
ATOM     79  C   UNL A   1      43.585  24.987  25.611  1.00  0.00     0.200 A 
ATOM     80  F   UNL A   1      44.646  26.881  24.682  1.00  0.00    -0.200 F 
ATOM     81  F   UNL A   1      43.998  24.232  24.584  1.00  0.00    -0.200 F 
ENDBRANCH  47  71
BRANCH  59  82
ATOM     82  C   UNL A   1      45.535  28.841  33.691  1.00  0.00     0.064 A 
ATOM     83  C   UNL A   1      45.859  27.752  34.512  1.00  0.00     0.173 A 
ATOM     84  C   UNL A   1      46.538  29.781  33.416  1.00  0.00     0.173 A 
ATOM     85  F   UNL A   1      44.928  26.836  34.817  1.00  0.00    -0.203 F 
ATOM     86  C   UNL A   1      47.136  27.619  35.053  1.00  0.00     0.198 A 
ATOM     87  C   UNL A   1      47.820  29.635  33.941  1.00  0.00     0.198 A 
ATOM     88  F   UNL A   1      46.278  30.839  32.634  1.00  0.00    -0.203 F 
ATOM     89  F   UNL A   1      47.413  26.592  35.868  1.00  0.00    -0.200 F 
ATOM     90  C   UNL A   1      48.115  28.557  34.763  1.00  0.00     0.200 A 
ATOM     91  F   UNL A   1      48.767  30.537  33.655  1.00  0.00    -0.200 F 
ATOM     92  F   UNL A   1      49.344  28.429  35.285  1.00  0.00    -0.200 F 
ENDBRANCH  59  82
ENDBRANCH  33  34
ENDBRANCH  26  28
ENDBRANCH  25  26
ENDBRANCH  24  25
ENDBRANCH   1  24
TORSDOF 14
ENDMDL
