MODEL 1
REMARK VINA RESULT:     -10.2      0.000      0.000
REMARK SMILES O=C(CN1C(=O)N[C@](c2cccs2)(C2CC2)C1=O)OCCOC(=O)c1ccc(-c2c3nc(c(-c4c(F)c(F)c(F)c(F)c4F)c4ccc([nH]4)c(-c4c(F)c(F)c(F)c(F)c4F)c4nc(c(-c5c(F)c(F)c(F)c(F)c5F)c5ccc2[nH]5)C=C4)C=C3)cc1
REMARK SMILES IDX 20 1 19 2 2 3 1 4 3 5 4 6 5 7 17 8 6 9 7 10 8 11 18 12 14 14
REMARK SMILES IDX 15 15 16 16 9 17 10 18 13 19 11 20 12 21 21 22 22 23 23 24
REMARK SMILES IDX 24 25 25 26 26 27 87 28 27 29 86 30 28 31 29 32 30 33 80 34
REMARK SMILES IDX 31 35 85 36 79 37 81 38 32 39 84 40 78 41 77 42 33 44 65 45
REMARK SMILES IDX 45 46 64 47 46 48 49 49 63 50 82 51 47 52 48 53 62 55 83 56
REMARK SMILES IDX 50 57 34 58 35 59 43 60 36 61 37 62 41 63 44 64 38 65 39 66
REMARK SMILES IDX 42 67 40 68 66 69 67 70 75 71 68 72 69 73 73 74 76 75 70 76
REMARK SMILES IDX 71 77 74 78 72 79 51 80 52 81 60 82 53 83 54 84 58 85 61 86
REMARK SMILES IDX 55 87 56 88 59 89 57 90
REMARK H PARENT 7 13 81 43 49 54
REMARK Flexibility Score: inf
ROOT
ATOM      1  C   UNL A   1      42.043  20.481  26.216  1.00  0.00     0.274 C 
ENDROOT
BRANCH   1   2
ATOM      2  O   UNL A   1      43.226  21.270  26.477  1.00  0.00    -0.461 OA
BRANCH   2   3
ATOM      3  C   UNL A   1      44.007  21.811  25.507  1.00  0.00     0.326 C 
ATOM      4  O   UNL A   1      43.511  22.248  24.469  1.00  0.00    -0.250 OA
BRANCH   3   5
ATOM      5  C   UNL A   1      45.510  21.834  25.727  1.00  0.00     0.253 C 
BRANCH   5   6
ATOM      6  N   UNL A   1      45.986  23.152  26.046  1.00  0.00    -0.251 N 
ATOM      7  C   UNL A   1      45.729  23.802  27.210  1.00  0.00     0.325 C 
ATOM      8  C   UNL A   1      46.494  24.020  25.119  1.00  0.00     0.262 C 
ATOM      9  O   UNL A   1      45.146  23.362  28.187  1.00  0.00    -0.248 OA
ATOM     10  N   UNL A   1      46.172  25.095  27.102  1.00  0.00    -0.318 N 
ATOM     11  C   UNL A   1      46.736  25.394  25.802  1.00  0.00     0.158 C 
ATOM     12  O   UNL A   1      46.693  23.762  23.938  1.00  0.00    -0.271 OA
ATOM     13  H   UNL A   1      46.112  25.753  27.832  1.00  0.00     0.166 HD
BRANCH  11  14
ATOM     14  C   UNL A   1      45.811  26.388  25.128  1.00  0.00     0.030 C 
ATOM     15  C   UNL A   1      44.335  26.548  25.387  1.00  0.00     0.007 C 
ATOM     16  C   UNL A   1      45.294  27.644  25.788  1.00  0.00     0.007 C 
ENDBRANCH  11  14
BRANCH  11  17
ATOM     17  C   UNL A   1      48.245  25.511  25.989  1.00  0.00     0.040 A 
ATOM     18  C   UNL A   1      49.153  26.048  25.076  1.00  0.00     0.018 A 
ATOM     19  S   UNL A   1      49.087  24.993  27.390  1.00  0.00    -0.146 S 
ATOM     20  C   UNL A   1      50.485  26.112  25.565  1.00  0.00     0.012 A 
ATOM     21  C   UNL A   1      50.584  25.584  26.828  1.00  0.00     0.065 A 
ENDBRANCH  11  17
ENDBRANCH   5   6
ENDBRANCH   3   5
ENDBRANCH   2   3
ENDBRANCH   1   2
BRANCH   1  22
ATOM     22  C   UNL A   1      40.785  21.165  26.748  1.00  0.00     0.275 C 
BRANCH  22  23
ATOM     23  O   UNL A   1      40.416  22.263  25.891  1.00  0.00    -0.458 OA
BRANCH  23  24
ATOM     24  C   UNL A   1      39.244  22.874  26.204  1.00  0.00     0.338 C 
ATOM     25  O   UNL A   1      38.131  22.392  26.136  1.00  0.00    -0.246 OA
BRANCH  24  26
ATOM     26  C   UNL A   1      39.531  24.175  26.851  1.00  0.00     0.060 A 
ATOM     27  C   UNL A   1      40.218  25.139  26.102  1.00  0.00     0.016 A 
ATOM     28  C   UNL A   1      39.104  24.471  28.149  1.00  0.00     0.016 A 
ATOM     29  C   UNL A   1      40.491  26.393  26.651  1.00  0.00     0.010 A 
ATOM     30  C   UNL A   1      39.389  25.724  28.703  1.00  0.00     0.010 A 
ATOM     31  C   UNL A   1      40.098  26.686  27.963  1.00  0.00    -0.014 A 
BRANCH  31  32
ATOM     32  C   UNL A   1      40.528  27.952  28.605  1.00  0.00     0.031 A 
ATOM     33  C   UNL A   1      41.965  28.115  29.010  1.00  0.00     0.074 A 
ATOM     34  C   UNL A   1      39.651  28.949  28.828  1.00  0.00     0.049 A 
ATOM     35  N   UNL A   1      42.551  29.118  29.614  1.00  0.00    -0.248 NA
ATOM     36  C   UNL A   1      42.865  26.994  28.694  1.00  0.00     0.031 C 
ATOM     37  C   UNL A   1      38.237  28.926  28.464  1.00  0.00     0.029 A 
ATOM     38  N   UNL A   1      39.824  30.171  29.431  1.00  0.00    -0.354 N 
ATOM     39  C   UNL A   1      43.884  28.753  29.745  1.00  0.00     0.074 A 
ATOM     40  C   UNL A   1      44.017  27.424  29.188  1.00  0.00     0.031 C 
ATOM     41  C   UNL A   1      37.665  30.074  28.868  1.00  0.00     0.029 A 
ATOM     42  C   UNL A   1      38.666  30.899  29.542  1.00  0.00     0.049 A 
ATOM     43  H   UNL A   1      40.697  30.494  29.754  1.00  0.00     0.167 HD
ATOM     44  C   UNL A   1      44.905  29.467  30.274  1.00  0.00     0.037 A 
ATOM     45  C   UNL A   1      38.437  32.085  30.140  1.00  0.00     0.037 A 
ATOM     46  C   UNL A   1      44.776  30.788  30.829  1.00  0.00     0.049 A 
ATOM     47  C   UNL A   1      39.580  32.822  30.793  1.00  0.00     0.074 A 
ATOM     48  C   UNL A   1      45.766  31.604  31.349  1.00  0.00     0.029 A 
ATOM     49  N   UNL A   1      43.581  31.481  30.953  1.00  0.00    -0.354 N 
ATOM     50  N   UNL A   1      40.848  32.498  30.858  1.00  0.00    -0.248 NA
ATOM     51  C   UNL A   1      39.258  34.095  31.456  1.00  0.00     0.031 C 
ATOM     52  C   UNL A   1      45.163  32.766  31.841  1.00  0.00     0.029 A 
ATOM     53  C   UNL A   1      43.806  32.698  31.577  1.00  0.00     0.049 A 
ATOM     54  H   UNL A   1      42.705  31.156  30.643  1.00  0.00     0.167 HD
ATOM     55  C   UNL A   1      41.475  33.534  31.539  1.00  0.00     0.074 A 
ATOM     56  C   UNL A   1      40.454  34.508  31.852  1.00  0.00     0.031 C 
ATOM     57  C   UNL A   1      42.781  33.664  31.878  1.00  0.00     0.037 A 
BRANCH  44  58
ATOM     58  C   UNL A   1      46.262  28.831  30.296  1.00  0.00     0.064 A 
ATOM     59  C   UNL A   1      46.694  28.060  31.385  1.00  0.00     0.173 A 
ATOM     60  C   UNL A   1      47.112  28.938  29.185  1.00  0.00     0.173 A 
ATOM     61  F   UNL A   1      45.923  27.939  32.475  1.00  0.00    -0.203 F 
ATOM     62  C   UNL A   1      47.934  27.426  31.364  1.00  0.00     0.198 A 
ATOM     63  C   UNL A   1      48.339  28.282  29.157  1.00  0.00     0.198 A 
ATOM     64  F   UNL A   1      46.742  29.662  28.118  1.00  0.00    -0.203 F 
ATOM     65  F   UNL A   1      48.340  26.717  32.426  1.00  0.00    -0.200 F 
ATOM     66  C   UNL A   1      48.750  27.529  30.247  1.00  0.00     0.200 A 
ATOM     67  F   UNL A   1      49.121  28.373  28.073  1.00  0.00    -0.200 F 
ATOM     68  F   UNL A   1      49.936  26.905  30.221  1.00  0.00    -0.200 F 
ENDBRANCH  44  58
BRANCH  45  69
ATOM     69  C   UNL A   1      37.062  32.652  30.184  1.00  0.00     0.064 A 
ATOM     70  C   UNL A   1      36.602  33.517  29.182  1.00  0.00     0.173 A 
ATOM     71  C   UNL A   1      36.204  32.389  31.263  1.00  0.00     0.173 A 
ATOM     72  F   UNL A   1      37.397  33.827  28.147  1.00  0.00    -0.203 F 
ATOM     73  C   UNL A   1      35.350  34.123  29.272  1.00  0.00     0.198 A 
ATOM     74  C   UNL A   1      34.939  32.970  31.335  1.00  0.00     0.198 A 
ATOM     75  F   UNL A   1      36.599  31.576  32.254  1.00  0.00    -0.203 F 
ATOM     76  F   UNL A   1      34.963  35.000  28.336  1.00  0.00    -0.200 F 
ATOM     77  C   UNL A   1      34.518  33.846  30.347  1.00  0.00     0.200 A 
ATOM     78  F   UNL A   1      34.136  32.694  32.372  1.00  0.00    -0.200 F 
ATOM     79  F   UNL A   1      33.319  34.437  30.440  1.00  0.00    -0.200 F 
ENDBRANCH  45  69
BRANCH  57  80
ATOM     80  C   UNL A   1      43.189  34.914  32.605  1.00  0.00     0.064 A 
ATOM     81  C   UNL A   1      43.559  36.079  31.915  1.00  0.00     0.173 A 
ATOM     82  C   UNL A   1      43.163  34.964  34.008  1.00  0.00     0.173 A 
ATOM     83  F   UNL A   1      43.614  36.081  30.575  1.00  0.00    -0.203 F 
ATOM     84  C   UNL A   1      43.913  37.237  32.604  1.00  0.00     0.198 A 
ATOM     85  C   UNL A   1      43.486  36.133  34.691  1.00  0.00     0.198 A 
ATOM     86  F   UNL A   1      42.807  33.882  34.716  1.00  0.00    -0.203 F 
ATOM     87  F   UNL A   1      44.308  38.322  31.923  1.00  0.00    -0.200 F 
ATOM     88  C   UNL A   1      43.868  37.266  33.989  1.00  0.00     0.200 A 
ATOM     89  F   UNL A   1      43.427  36.164  36.029  1.00  0.00    -0.200 F 
ATOM     90  F   UNL A   1      44.199  38.385  34.648  1.00  0.00    -0.200 F 
ENDBRANCH  57  80
ENDBRANCH  31  32
ENDBRANCH  24  26
ENDBRANCH  23  24
ENDBRANCH  22  23
ENDBRANCH   1  22
TORSDOF 14
ENDMDL
MODEL 2
REMARK VINA RESULT:     -10.1      4.582     10.505
REMARK SMILES O=C(CN1C(=O)N[C@](c2cccs2)(C2CC2)C1=O)OCCOC(=O)c1ccc(-c2c3nc(c(-c4c(F)c(F)c(F)c(F)c4F)c4ccc([nH]4)c(-c4c(F)c(F)c(F)c(F)c4F)c4nc(c(-c5c(F)c(F)c(F)c(F)c5F)c5ccc2[nH]5)C=C4)C=C3)cc1
REMARK SMILES IDX 20 1 19 2 2 3 1 4 3 5 4 6 5 7 17 8 6 9 7 10 8 11 18 12 14 14
REMARK SMILES IDX 15 15 16 16 9 17 10 18 13 19 11 20 12 21 21 22 22 23 23 24
REMARK SMILES IDX 24 25 25 26 26 27 87 28 27 29 86 30 28 31 29 32 30 33 80 34
REMARK SMILES IDX 31 35 85 36 79 37 81 38 32 39 84 40 78 41 77 42 33 44 65 45
REMARK SMILES IDX 45 46 64 47 46 48 49 49 63 50 82 51 47 52 48 53 62 55 83 56
REMARK SMILES IDX 50 57 34 58 35 59 43 60 36 61 37 62 41 63 44 64 38 65 39 66
REMARK SMILES IDX 42 67 40 68 66 69 67 70 75 71 68 72 69 73 73 74 76 75 70 76
REMARK SMILES IDX 71 77 74 78 72 79 51 80 52 81 60 82 53 83 54 84 58 85 61 86
REMARK SMILES IDX 55 87 56 88 59 89 57 90
REMARK H PARENT 7 13 81 43 49 54
REMARK Flexibility Score: inf
ROOT
ATOM      1  C   UNL A   1      35.218  21.184  24.884  1.00  0.00     0.274 C 
ENDROOT
BRANCH   1   2
ATOM      2  O   UNL A   1      34.396  21.115  26.072  1.00  0.00    -0.461 OA
BRANCH   2   3
ATOM      3  C   UNL A   1      33.536  22.092  26.457  1.00  0.00     0.326 C 
ATOM      4  O   UNL A   1      33.845  22.891  27.341  1.00  0.00    -0.250 OA
BRANCH   3   5
ATOM      5  C   UNL A   1      32.174  22.154  25.787  1.00  0.00     0.253 C 
BRANCH   5   6
ATOM      6  N   UNL A   1      31.591  23.465  25.875  1.00  0.00    -0.251 N 
ATOM      7  C   UNL A   1      30.529  23.783  26.660  1.00  0.00     0.325 C 
ATOM      8  C   UNL A   1      31.834  24.465  24.976  1.00  0.00     0.262 C 
ATOM      9  O   UNL A   1      29.963  23.060  27.462  1.00  0.00    -0.248 OA
ATOM     10  N   UNL A   1      30.124  25.058  26.358  1.00  0.00    -0.318 N 
ATOM     11  C   UNL A   1      30.900  25.664  25.297  1.00  0.00     0.158 C 
ATOM     12  O   UNL A   1      32.635  24.409  24.049  1.00  0.00    -0.271 OA
ATOM     13  H   UNL A   1      29.380  25.514  26.816  1.00  0.00     0.166 HD
BRANCH  11  14
ATOM     14  C   UNL A   1      29.978  25.833  24.105  1.00  0.00     0.030 C 
ATOM     15  C   UNL A   1      28.683  26.604  24.084  1.00  0.00     0.007 C 
ATOM     16  C   UNL A   1      29.870  27.101  23.293  1.00  0.00     0.007 C 
ENDBRANCH  11  14
BRANCH  11  17
ATOM     17  C   UNL A   1      31.784  26.725  25.944  1.00  0.00     0.040 A 
ATOM     18  C   UNL A   1      31.405  27.618  26.946  1.00  0.00     0.018 A 
ATOM     19  S   UNL A   1      33.429  26.991  25.537  1.00  0.00    -0.146 S 
ATOM     20  C   UNL A   1      32.471  28.428  27.422  1.00  0.00     0.012 A 
ATOM     21  C   UNL A   1      33.639  28.172  26.747  1.00  0.00     0.065 A 
ENDBRANCH  11  17
ENDBRANCH   5   6
ENDBRANCH   3   5
ENDBRANCH   2   3
ENDBRANCH   1   2
BRANCH   1  22
ATOM     22  C   UNL A   1      36.642  20.705  25.159  1.00  0.00     0.275 C 
BRANCH  22  23
ATOM     23  O   UNL A   1      37.416  21.766  25.754  1.00  0.00    -0.458 OA
BRANCH  23  24
ATOM     24  C   UNL A   1      38.697  21.443  26.067  1.00  0.00     0.338 C 
ATOM     25  O   UNL A   1      39.256  20.388  25.847  1.00  0.00    -0.246 OA
BRANCH  24  26
ATOM     26  C   UNL A   1      39.402  22.656  26.541  1.00  0.00     0.060 A 
ATOM     27  C   UNL A   1      38.929  23.900  26.102  1.00  0.00     0.016 A 
ATOM     28  C   UNL A   1      40.480  22.591  27.429  1.00  0.00     0.016 A 
ATOM     29  C   UNL A   1      39.538  25.078  26.538  1.00  0.00     0.010 A 
ATOM     30  C   UNL A   1      41.098  23.773  27.857  1.00  0.00     0.010 A 
ATOM     31  C   UNL A   1      40.640  25.021  27.400  1.00  0.00    -0.014 A 
BRANCH  31  32
ATOM     32  C   UNL A   1      41.390  26.257  27.735  1.00  0.00     0.031 A 
ATOM     33  C   UNL A   1      40.675  27.378  28.434  1.00  0.00     0.074 A 
ATOM     34  C   UNL A   1      42.692  26.384  27.422  1.00  0.00     0.049 A 
ATOM     35  N   UNL A   1      41.121  28.556  28.791  1.00  0.00    -0.248 NA
ATOM     36  C   UNL A   1      39.263  27.140  28.777  1.00  0.00     0.031 C 
ATOM     37  C   UNL A   1      43.506  25.365  26.764  1.00  0.00     0.029 A 
ATOM     38  N   UNL A   1      43.554  27.439  27.603  1.00  0.00    -0.354 N 
ATOM     39  C   UNL A   1      40.052  29.196  29.401  1.00  0.00     0.074 A 
ATOM     40  C   UNL A   1      38.924  28.291  29.340  1.00  0.00     0.031 C 
ATOM     41  C   UNL A   1      44.746  25.850  26.580  1.00  0.00     0.029 A 
ATOM     42  C   UNL A   1      44.806  27.222  27.082  1.00  0.00     0.049 A 
ATOM     43  H   UNL A   1      43.299  28.271  28.064  1.00  0.00     0.167 HD
ATOM     44  C   UNL A   1      40.017  30.424  29.970  1.00  0.00     0.037 A 
ATOM     45  C   UNL A   1      45.869  28.047  27.000  1.00  0.00     0.037 A 
ATOM     46  C   UNL A   1      41.136  31.326  30.031  1.00  0.00     0.049 A 
ATOM     47  C   UNL A   1      45.776  29.440  27.572  1.00  0.00     0.074 A 
ATOM     48  C   UNL A   1      41.203  32.574  30.627  1.00  0.00     0.029 A 
ATOM     49  N   UNL A   1      42.379  31.086  29.465  1.00  0.00    -0.354 N 
ATOM     50  N   UNL A   1      44.781  30.015  28.202  1.00  0.00    -0.248 NA
ATOM     51  C   UNL A   1      46.959  30.300  27.421  1.00  0.00     0.031 C 
ATOM     52  C   UNL A   1      42.468  33.113  30.370  1.00  0.00     0.029 A 
ATOM     53  C   UNL A   1      43.206  32.179  29.664  1.00  0.00     0.049 A 
ATOM     54  H   UNL A   1      42.634  30.259  28.993  1.00  0.00     0.167 HD
ATOM     55  C   UNL A   1      45.226  31.286  28.545  1.00  0.00     0.074 A 
ATOM     56  C   UNL A   1      46.588  31.395  28.070  1.00  0.00     0.031 C 
ATOM     57  C   UNL A   1      44.563  32.275  29.192  1.00  0.00     0.037 A 
BRANCH  44  58
ATOM     58  C   UNL A   1      38.719  30.881  30.563  1.00  0.00     0.064 A 
ATOM     59  C   UNL A   1      37.690  31.401  29.765  1.00  0.00     0.173 A 
ATOM     60  C   UNL A   1      38.478  30.734  31.937  1.00  0.00     0.173 A 
ATOM     61  F   UNL A   1      37.877  31.573  28.448  1.00  0.00    -0.203 F 
ATOM     62  C   UNL A   1      36.467  31.765  30.324  1.00  0.00     0.198 A 
ATOM     63  C   UNL A   1      37.247  31.074  32.488  1.00  0.00     0.198 A 
ATOM     64  F   UNL A   1      39.431  30.239  32.742  1.00  0.00    -0.203 F 
ATOM     65  F   UNL A   1      35.506  32.286  29.548  1.00  0.00    -0.200 F 
ATOM     66  C   UNL A   1      36.243  31.592  31.682  1.00  0.00     0.200 A 
ATOM     67  F   UNL A   1      37.028  30.896  33.798  1.00  0.00    -0.200 F 
ATOM     68  F   UNL A   1      35.060  31.927  32.216  1.00  0.00    -0.200 F 
ENDBRANCH  44  58
BRANCH  45  69
ATOM     69  C   UNL A   1      47.117  27.599  26.324  1.00  0.00     0.064 A 
ATOM     70  C   UNL A   1      47.240  27.640  24.928  1.00  0.00     0.173 A 
ATOM     71  C   UNL A   1      48.186  27.064  27.058  1.00  0.00     0.173 A 
ATOM     72  F   UNL A   1      46.232  28.111  24.180  1.00  0.00    -0.203 F 
ATOM     73  C   UNL A   1      48.370  27.132  24.290  1.00  0.00     0.198 A 
ATOM     74  C   UNL A   1      49.329  26.586  26.420  1.00  0.00     0.198 A 
ATOM     75  F   UNL A   1      48.115  26.992  28.395  1.00  0.00    -0.203 F 
ATOM     76  F   UNL A   1      48.433  27.119  22.952  1.00  0.00    -0.200 F 
ATOM     77  C   UNL A   1      49.416  26.609  25.037  1.00  0.00     0.200 A 
ATOM     78  F   UNL A   1      50.339  26.088  27.146  1.00  0.00    -0.200 F 
ATOM     79  F   UNL A   1      50.497  26.111  24.423  1.00  0.00    -0.200 F 
ENDBRANCH  45  69
BRANCH  57  80
ATOM     80  C   UNL A   1      45.307  33.555  29.450  1.00  0.00     0.064 A 
ATOM     81  C   UNL A   1      46.089  33.733  30.602  1.00  0.00     0.173 A 
ATOM     82  C   UNL A   1      45.276  34.599  28.512  1.00  0.00     0.173 A 
ATOM     83  F   UNL A   1      46.142  32.772  31.537  1.00  0.00    -0.203 F 
ATOM     84  C   UNL A   1      46.790  34.917  30.816  1.00  0.00     0.198 A 
ATOM     85  C   UNL A   1      46.003  35.768  28.714  1.00  0.00     0.198 A 
ATOM     86  F   UNL A   1      44.551  34.478  27.390  1.00  0.00    -0.203 F 
ATOM     87  F   UNL A   1      47.492  35.081  31.946  1.00  0.00    -0.200 F 
ATOM     88  C   UNL A   1      46.754  35.929  29.870  1.00  0.00     0.200 A 
ATOM     89  F   UNL A   1      45.980  36.739  27.791  1.00  0.00    -0.200 F 
ATOM     90  F   UNL A   1      47.437  37.064  30.073  1.00  0.00    -0.200 F 
ENDBRANCH  57  80
ENDBRANCH  31  32
ENDBRANCH  24  26
ENDBRANCH  23  24
ENDBRANCH  22  23
ENDBRANCH   1  22
TORSDOF 14
ENDMDL
MODEL 3
REMARK VINA RESULT:     -10.0      4.770     11.154
REMARK SMILES O=C(CN1C(=O)N[C@](c2cccs2)(C2CC2)C1=O)OCCOC(=O)c1ccc(-c2c3nc(c(-c4c(F)c(F)c(F)c(F)c4F)c4ccc([nH]4)c(-c4c(F)c(F)c(F)c(F)c4F)c4nc(c(-c5c(F)c(F)c(F)c(F)c5F)c5ccc2[nH]5)C=C4)C=C3)cc1
REMARK SMILES IDX 20 1 19 2 2 3 1 4 3 5 4 6 5 7 17 8 6 9 7 10 8 11 18 12 14 14
REMARK SMILES IDX 15 15 16 16 9 17 10 18 13 19 11 20 12 21 21 22 22 23 23 24
REMARK SMILES IDX 24 25 25 26 26 27 87 28 27 29 86 30 28 31 29 32 30 33 80 34
REMARK SMILES IDX 31 35 85 36 79 37 81 38 32 39 84 40 78 41 77 42 33 44 65 45
REMARK SMILES IDX 45 46 64 47 46 48 49 49 63 50 82 51 47 52 48 53 62 55 83 56
REMARK SMILES IDX 50 57 34 58 35 59 43 60 36 61 37 62 41 63 44 64 38 65 39 66
REMARK SMILES IDX 42 67 40 68 66 69 67 70 75 71 68 72 69 73 73 74 76 75 70 76
REMARK SMILES IDX 71 77 74 78 72 79 51 80 52 81 60 82 53 83 54 84 58 85 61 86
REMARK SMILES IDX 55 87 56 88 59 89 57 90
REMARK H PARENT 7 13 81 43 49 54
REMARK Flexibility Score: inf
ROOT
ATOM      1  C   UNL A   1      34.036  33.756  29.087  1.00  0.00     0.274 C 
ENDROOT
BRANCH   1   2
ATOM      2  O   UNL A   1      35.072  33.857  30.092  1.00  0.00    -0.461 OA
BRANCH   2   3
ATOM      3  C   UNL A   1      34.847  33.752  31.426  1.00  0.00     0.326 C 
ATOM      4  O   UNL A   1      34.128  32.861  31.877  1.00  0.00    -0.250 OA
BRANCH   3   5
ATOM      5  C   UNL A   1      35.483  34.782  32.344  1.00  0.00     0.253 C 
BRANCH   5   6
ATOM      6  N   UNL A   1      36.660  34.271  32.992  1.00  0.00    -0.251 N 
ATOM      7  C   UNL A   1      37.844  34.039  32.367  1.00  0.00     0.325 C 
ATOM      8  C   UNL A   1      36.651  33.683  34.226  1.00  0.00     0.262 C 
ATOM      9  O   UNL A   1      38.129  34.299  31.210  1.00  0.00    -0.248 OA
ATOM     10  N   UNL A   1      38.680  33.383  33.233  1.00  0.00    -0.318 N 
ATOM     11  C   UNL A   1      38.064  33.104  34.514  1.00  0.00     0.158 C 
ATOM     12  O   UNL A   1      35.678  33.599  34.966  1.00  0.00    -0.271 OA
ATOM     13  H   UNL A   1      39.603  33.127  33.008  1.00  0.00     0.166 HD
BRANCH  11  14
ATOM     14  C   UNL A   1      37.909  31.599  34.619  1.00  0.00     0.030 C 
ATOM     15  C   UNL A   1      37.707  30.642  33.473  1.00  0.00     0.007 C 
ATOM     16  C   UNL A   1      38.993  30.610  34.264  1.00  0.00     0.007 C 
ENDBRANCH  11  14
BRANCH  11  17
ATOM     17  C   UNL A   1      38.705  34.044  35.529  1.00  0.00     0.040 A 
ATOM     18  C   UNL A   1      39.536  35.127  35.244  1.00  0.00     0.018 A 
ATOM     19  S   UNL A   1      38.494  33.920  37.227  1.00  0.00    -0.146 S 
ATOM     20  C   UNL A   1      39.906  35.881  36.390  1.00  0.00     0.012 A 
ATOM     21  C   UNL A   1      39.386  35.338  37.539  1.00  0.00     0.065 A 
ENDBRANCH  11  17
ENDBRANCH   5   6
ENDBRANCH   3   5
ENDBRANCH   2   3
ENDBRANCH   1   2
BRANCH   1  22
ATOM     22  C   UNL A   1      34.384  32.711  28.028  1.00  0.00     0.275 C 
BRANCH  22  23
ATOM     23  O   UNL A   1      34.028  31.395  28.494  1.00  0.00    -0.458 OA
BRANCH  23  24
ATOM     24  C   UNL A   1      34.511  30.367  27.750  1.00  0.00     0.338 C 
ATOM     25  O   UNL A   1      34.012  29.896  26.748  1.00  0.00    -0.246 OA
BRANCH  24  26
ATOM     26  C   UNL A   1      35.872  30.021  28.223  1.00  0.00     0.060 A 
ATOM     27  C   UNL A   1      36.926  30.125  27.307  1.00  0.00     0.016 A 
ATOM     28  C   UNL A   1      36.127  29.642  29.545  1.00  0.00     0.016 A 
ATOM     29  C   UNL A   1      38.233  29.838  27.703  1.00  0.00     0.010 A 
ATOM     30  C   UNL A   1      37.437  29.344  29.938  1.00  0.00     0.010 A 
ATOM     31  C   UNL A   1      38.494  29.424  29.016  1.00  0.00    -0.014 A 
BRANCH  31  32
ATOM     32  C   UNL A   1      39.852  28.963  29.397  1.00  0.00     0.031 A 
ATOM     33  C   UNL A   1      40.701  29.838  30.274  1.00  0.00     0.074 A 
ATOM     34  C   UNL A   1      40.328  27.780  28.968  1.00  0.00     0.049 A 
ATOM     35  N   UNL A   1      41.924  29.652  30.701  1.00  0.00    -0.248 NA
ATOM     36  C   UNL A   1      40.089  31.096  30.732  1.00  0.00     0.031 C 
ATOM     37  C   UNL A   1      39.599  26.830  28.132  1.00  0.00     0.029 A 
ATOM     38  N   UNL A   1      41.550  27.185  29.167  1.00  0.00    -0.354 N 
ATOM     39  C   UNL A   1      42.227  30.761  31.478  1.00  0.00     0.074 A 
ATOM     40  C   UNL A   1      41.073  31.633  31.439  1.00  0.00     0.031 C 
ATOM     41  C   UNL A   1      40.395  25.777  27.874  1.00  0.00     0.029 A 
ATOM     42  C   UNL A   1      41.697  25.992  28.503  1.00  0.00     0.049 A 
ATOM     43  H   UNL A   1      42.255  27.577  29.733  1.00  0.00     0.167 HD
ATOM     44  C   UNL A   1      43.361  31.023  32.168  1.00  0.00     0.037 A 
ATOM     45  C   UNL A   1      42.768  25.180  28.397  1.00  0.00     0.037 A 
ATOM     46  C   UNL A   1      44.511  30.159  32.207  1.00  0.00     0.049 A 
ATOM     47  C   UNL A   1      44.046  25.539  29.114  1.00  0.00     0.074 A 
ATOM     48  C   UNL A   1      45.689  30.325  32.916  1.00  0.00     0.029 A 
ATOM     49  N   UNL A   1      44.635  28.975  31.497  1.00  0.00    -0.354 N 
ATOM     50  N   UNL A   1      44.303  26.559  29.896  1.00  0.00    -0.248 NA
ATOM     51  C   UNL A   1      45.187  24.629  28.932  1.00  0.00     0.031 C 
ATOM     52  C   UNL A   1      46.548  29.272  32.588  1.00  0.00     0.029 A 
ATOM     53  C   UNL A   1      45.885  28.421  31.721  1.00  0.00     0.049 A 
ATOM     54  H   UNL A   1      43.937  28.586  30.921  1.00  0.00     0.167 HD
ATOM     55  C   UNL A   1      45.617  26.398  30.319  1.00  0.00     0.074 A 
ATOM     56  C   UNL A   1      46.101  25.173  29.723  1.00  0.00     0.031 C 
ATOM     57  C   UNL A   1      46.356  27.196  31.127  1.00  0.00     0.037 A 
BRANCH  44  58
ATOM     58  C   UNL A   1      43.430  32.311  32.933  1.00  0.00     0.064 A 
ATOM     59  C   UNL A   1      43.922  33.487  32.348  1.00  0.00     0.173 A 
ATOM     60  C   UNL A   1      42.935  32.383  34.243  1.00  0.00     0.173 A 
ATOM     61  F   UNL A   1      44.418  33.465  31.102  1.00  0.00    -0.203 F 
ATOM     62  C   UNL A   1      43.923  34.688  33.052  1.00  0.00     0.198 A 
ATOM     63  C   UNL A   1      42.914  33.590  34.934  1.00  0.00     0.198 A 
ATOM     64  F   UNL A   1      42.453  31.286  34.845  1.00  0.00    -0.203 F 
ATOM     65  F   UNL A   1      44.423  35.795  32.485  1.00  0.00    -0.200 F 
ATOM     66  C   UNL A   1      43.410  34.741  34.340  1.00  0.00     0.200 A 
ATOM     67  F   UNL A   1      42.408  33.642  36.174  1.00  0.00    -0.200 F 
ATOM     68  F   UNL A   1      43.397  35.902  35.010  1.00  0.00    -0.200 F 
ENDBRANCH  44  58
BRANCH  45  69
ATOM     69  C   UNL A   1      42.702  23.954  27.557  1.00  0.00     0.064 A 
ATOM     70  C   UNL A   1      42.349  22.715  28.110  1.00  0.00     0.173 A 
ATOM     71  C   UNL A   1      43.051  23.987  26.199  1.00  0.00     0.173 A 
ATOM     72  F   UNL A   1      42.041  22.625  29.412  1.00  0.00    -0.203 F 
ATOM     73  C   UNL A   1      42.381  21.550  27.344  1.00  0.00     0.198 A 
ATOM     74  C   UNL A   1      43.049  22.827  25.426  1.00  0.00     0.198 A 
ATOM     75  F   UNL A   1      43.405  25.145  25.623  1.00  0.00    -0.203 F 
ATOM     76  F   UNL A   1      42.107  20.369  27.914  1.00  0.00    -0.200 F 
ATOM     77  C   UNL A   1      42.726  21.608  26.002  1.00  0.00     0.200 A 
ATOM     78  F   UNL A   1      43.378  22.888  24.129  1.00  0.00    -0.200 F 
ATOM     79  F   UNL A   1      42.767  20.487  25.270  1.00  0.00    -0.200 F 
ENDBRANCH  45  69
BRANCH  57  80
ATOM     80  C   UNL A   1      47.761  26.761  31.436  1.00  0.00     0.064 A 
ATOM     81  C   UNL A   1      48.858  27.245  30.707  1.00  0.00     0.173 A 
ATOM     82  C   UNL A   1      48.018  25.888  32.504  1.00  0.00     0.173 A 
ATOM     83  F   UNL A   1      48.667  28.071  29.667  1.00  0.00    -0.203 F 
ATOM     84  C   UNL A   1      50.156  26.849  31.020  1.00  0.00     0.198 A 
ATOM     85  C   UNL A   1      49.319  25.520  32.834  1.00  0.00     0.198 A 
ATOM     86  F   UNL A   1      47.006  25.403  33.239  1.00  0.00    -0.203 F 
ATOM     87  F   UNL A   1      51.184  27.288  30.279  1.00  0.00    -0.200 F 
ATOM     88  C   UNL A   1      50.386  25.995  32.087  1.00  0.00     0.200 A 
ATOM     89  F   UNL A   1      49.541  24.707  33.876  1.00  0.00    -0.200 F 
ATOM     90  F   UNL A   1      51.637  25.624  32.393  1.00  0.00    -0.200 F 
ENDBRANCH  57  80
ENDBRANCH  31  32
ENDBRANCH  24  26
ENDBRANCH  23  24
ENDBRANCH  22  23
ENDBRANCH   1  22
TORSDOF 14
ENDMDL
