MODEL 1
REMARK VINA RESULT:     -12.5      0.000      0.000
REMARK SMILES O=C(OCCOC(=O)[C@@H](c1cccc(O)c1)[NH+]1CC[NH+](C2CCCC2)CC1)c1ccc(-c2c3nc(c(-c4c(F)c(F)c(F)c(F)c4F)c4ccc([nH]4)c(-c4c(F)c(F)c(F)c(F)c4F)c4nc(c(-c5c(F)c(F)c(F)c(F)c5F)c5ccc2[nH]5)C=C4)C=C3)cc1
REMARK SMILES IDX 4 1 3 2 2 3 1 4 28 5 29 6 90 7 30 8 89 9 31 10 32 11 33 12
REMARK SMILES IDX 83 13 34 14 88 15 82 16 84 17 35 18 87 19 81 20 80 21 36 23
REMARK SMILES IDX 68 24 48 25 67 26 49 27 52 28 66 29 85 30 50 31 51 32 65 34
REMARK SMILES IDX 86 35 53 36 37 37 38 38 46 39 39 40 40 41 44 42 47 43 41 44
REMARK SMILES IDX 42 45 45 46 43 47 69 48 70 49 78 50 71 51 72 52 76 53 79 54
REMARK SMILES IDX 73 55 74 56 77 57 75 58 54 59 55 60 63 61 56 62 57 63 61 64
REMARK SMILES IDX 64 65 58 66 59 67 62 68 60 69 5 70 6 71 7 72 8 73 9 74 10 75
REMARK SMILES IDX 11 76 16 77 12 78 14 79 13 80 15 81 17 83 18 84 27 85 19 87
REMARK SMILES IDX 26 88 20 89 21 91 22 92 25 93 23 94 24 95
REMARK H PARENT 84 22 52 33 15 82 17 86 20 90
REMARK Flexibility Score: inf
ROOT
ATOM      1  C   UNL A   1      32.426  28.623  24.792  1.00  0.00     0.275 C 
ENDROOT
BRANCH   1   2
ATOM      2  O   UNL A   1      33.227  29.720  25.258  1.00  0.00    -0.458 OA
BRANCH   2   3
ATOM      3  C   UNL A   1      33.161  30.354  26.449  1.00  0.00     0.338 C 
ATOM      4  O   UNL A   1      32.110  30.893  26.789  1.00  0.00    -0.246 OA
BRANCH   3   5
ATOM      5  C   UNL A   1      34.338  30.508  27.354  1.00  0.00     0.060 A 
ATOM      6  C   UNL A   1      35.040  31.687  27.624  1.00  0.00     0.016 A 
ATOM      7  C   UNL A   1      34.842  29.325  27.886  1.00  0.00     0.016 A 
ATOM      8  C   UNL A   1      36.188  31.681  28.457  1.00  0.00     0.010 A 
ATOM      9  C   UNL A   1      35.941  29.331  28.747  1.00  0.00     0.010 A 
ATOM     10  C   UNL A   1      36.658  30.500  29.045  1.00  0.00    -0.014 A 
BRANCH  10  11
ATOM     11  C   UNL A   1      37.925  30.363  29.854  1.00  0.00     0.031 A 
ATOM     12  C   UNL A   1      39.000  29.422  29.329  1.00  0.00     0.074 A 
ATOM     13  C   UNL A   1      38.113  30.938  31.064  1.00  0.00     0.049 A 
ATOM     14  N   UNL A   1      39.971  28.810  29.963  1.00  0.00    -0.248 NA
ATOM     15  C   UNL A   1      38.905  29.052  27.904  1.00  0.00     0.031 C 
ATOM     16  C   UNL A   1      37.193  31.855  31.734  1.00  0.00     0.029 A 
ATOM     17  N   UNL A   1      39.144  30.796  31.979  1.00  0.00    -0.354 N 
ATOM     18  C   UNL A   1      40.552  27.960  29.025  1.00  0.00     0.074 A 
ATOM     19  C   UNL A   1      39.737  28.025  27.835  1.00  0.00     0.031 C 
ATOM     20  C   UNL A   1      37.680  32.170  32.950  1.00  0.00     0.029 A 
ATOM     21  C   UNL A   1      38.916  31.432  33.186  1.00  0.00     0.049 A 
ATOM     22  H   UNL A   1      39.965  30.287  31.787  1.00  0.00     0.167 HD
ATOM     23  C   UNL A   1      41.718  27.271  29.096  1.00  0.00     0.037 A 
ATOM     24  C   UNL A   1      39.588  31.366  34.359  1.00  0.00     0.037 A 
ATOM     25  C   UNL A   1      42.629  27.367  30.202  1.00  0.00     0.049 A 
ATOM     26  C   UNL A   1      40.842  30.535  34.432  1.00  0.00     0.074 A 
ATOM     27  C   UNL A   1      43.952  26.968  30.266  1.00  0.00     0.029 A 
ATOM     28  N   UNL A   1      42.319  27.936  31.425  1.00  0.00    -0.354 N 
ATOM     29  N   UNL A   1      41.336  29.691  33.563  1.00  0.00    -0.248 NA
ATOM     30  C   UNL A   1      41.641  30.672  35.662  1.00  0.00     0.031 C 
ATOM     31  C   UNL A   1      44.445  27.293  31.533  1.00  0.00     0.029 A 
ATOM     32  C   UNL A   1      43.433  27.909  32.246  1.00  0.00     0.049 A 
ATOM     33  H   UNL A   1      41.440  28.303  31.673  1.00  0.00     0.167 HD
ATOM     34  C   UNL A   1      42.515  29.224  34.127  1.00  0.00     0.074 A 
ATOM     35  C   UNL A   1      42.620  29.809  35.446  1.00  0.00     0.031 C 
ATOM     36  C   UNL A   1      43.473  28.446  33.574  1.00  0.00     0.037 A 
BRANCH  23  37
ATOM     37  C   UNL A   1      42.159  26.480  27.893  1.00  0.00     0.064 A 
ATOM     38  C   UNL A   1      43.036  27.028  26.942  1.00  0.00     0.173 A 
ATOM     39  C   UNL A   1      41.779  25.139  27.729  1.00  0.00     0.173 A 
ATOM     40  F   UNL A   1      43.448  28.300  27.057  1.00  0.00    -0.203 F 
ATOM     41  C   UNL A   1      43.471  26.286  25.848  1.00  0.00     0.198 A 
ATOM     42  C   UNL A   1      42.250  24.385  26.655  1.00  0.00     0.198 A 
ATOM     43  F   UNL A   1      40.964  24.552  28.618  1.00  0.00    -0.203 F 
ATOM     44  F   UNL A   1      44.259  26.857  24.927  1.00  0.00    -0.200 F 
ATOM     45  C   UNL A   1      43.086  24.963  25.711  1.00  0.00     0.200 A 
ATOM     46  F   UNL A   1      41.900  23.098  26.535  1.00  0.00    -0.200 F 
ATOM     47  F   UNL A   1      43.523  24.243  24.668  1.00  0.00    -0.200 F 
ENDBRANCH  23  37
BRANCH  24  48
ATOM     48  C   UNL A   1      39.093  32.002  35.623  1.00  0.00     0.064 A 
ATOM     49  C   UNL A   1      38.271  31.339  36.539  1.00  0.00     0.173 A 
ATOM     50  C   UNL A   1      39.364  33.361  35.884  1.00  0.00     0.173 A 
ATOM     51  F   UNL A   1      37.900  30.072  36.312  1.00  0.00    -0.203 F 
ATOM     52  C   UNL A   1      37.791  31.989  37.681  1.00  0.00     0.198 A 
ATOM     53  C   UNL A   1      38.910  34.001  37.033  1.00  0.00     0.198 A 
ATOM     54  F   UNL A   1      40.044  34.096  34.991  1.00  0.00    -0.203 F 
ATOM     55  F   UNL A   1      36.984  31.337  38.530  1.00  0.00    -0.200 F 
ATOM     56  C   UNL A   1      38.125  33.312  37.936  1.00  0.00     0.200 A 
ATOM     57  F   UNL A   1      39.227  35.285  37.252  1.00  0.00    -0.200 F 
ATOM     58  F   UNL A   1      37.670  33.928  39.035  1.00  0.00    -0.200 F 
ENDBRANCH  24  48
BRANCH  36  59
ATOM     59  C   UNL A   1      44.728  28.282  34.368  1.00  0.00     0.064 A 
ATOM     60  C   UNL A   1      45.773  29.211  34.312  1.00  0.00     0.173 A 
ATOM     61  C   UNL A   1      44.892  27.139  35.166  1.00  0.00     0.173 A 
ATOM     62  F   UNL A   1      45.672  30.297  33.532  1.00  0.00    -0.203 F 
ATOM     63  C   UNL A   1      46.954  28.990  35.018  1.00  0.00     0.198 A 
ATOM     64  C   UNL A   1      46.063  26.930  35.881  1.00  0.00     0.198 A 
ATOM     65  F   UNL A   1      43.920  26.217  35.230  1.00  0.00    -0.203 F 
ATOM     66  F   UNL A   1      47.966  29.862  34.916  1.00  0.00    -0.200 F 
ATOM     67  C   UNL A   1      47.096  27.854  35.803  1.00  0.00     0.200 A 
ATOM     68  F   UNL A   1      46.201  25.829  36.632  1.00  0.00    -0.200 F 
ATOM     69  F   UNL A   1      48.238  27.636  36.469  1.00  0.00    -0.200 F 
ENDBRANCH  36  59
ENDBRANCH  10  11
ENDBRANCH   3   5
ENDBRANCH   2   3
ENDBRANCH   1   2
BRANCH   1  70
ATOM     70  C   UNL A   1      32.705  27.300  25.496  1.00  0.00     0.274 C 
BRANCH  70  71
ATOM     71  O   UNL A   1      31.797  26.259  25.105  1.00  0.00    -0.457 OA
BRANCH  71  72
ATOM     72  C   UNL A   1      32.015  25.025  25.665  1.00  0.00     0.370 C 
ATOM     73  O   UNL A   1      31.806  24.763  26.848  1.00  0.00    -0.245 OA
BRANCH  72  74
ATOM     74  C   UNL A   1      32.636  23.999  24.649  1.00  0.00     0.326 C 
BRANCH  74  75
ATOM     75  C   UNL A   1      34.181  23.883  24.818  1.00  0.00     0.025 A 
ATOM     76  C   UNL A   1      34.916  23.946  26.019  1.00  0.00     0.011 A 
ATOM     77  C   UNL A   1      34.956  23.541  23.687  1.00  0.00     0.056 A 
ATOM     78  C   UNL A   1      36.298  23.712  26.108  1.00  0.00     0.004 A 
ATOM     79  C   UNL A   1      36.342  23.342  23.767  1.00  0.00     0.116 A 
ATOM     80  C   UNL A   1      37.020  23.416  24.972  1.00  0.00     0.046 A 
BRANCH  79  81
ATOM     81  O   UNL A   1      37.016  23.079  22.612  1.00  0.00    -0.508 OA
ATOM     82  H   UNL A   1      37.742  23.616  22.360  1.00  0.00     0.293 HD
ENDBRANCH  79  81
ENDBRANCH  74  75
BRANCH  74  83
ATOM     83  N   UNL A   1      31.674  22.846  24.640  1.00  0.00    -0.310 N 
ATOM     84  C   UNL A   1      31.436  22.301  23.277  1.00  0.00     0.325 C 
ATOM     85  C   UNL A   1      31.860  21.735  25.545  1.00  0.00     0.325 C 
ATOM     86  H   UNL A   1      30.864  23.337  25.019  1.00  0.00     0.349 HD
ATOM     87  C   UNL A   1      32.375  21.138  22.807  1.00  0.00     0.324 C 
ATOM     88  C   UNL A   1      33.045  20.859  25.103  1.00  0.00     0.324 C 
ATOM     89  N   UNL A   1      32.835  20.185  23.831  1.00  0.00    -0.323 N 
ATOM     90  H   UNL A   1      33.755  19.864  23.529  1.00  0.00     0.348 HD
BRANCH  89  91
ATOM     91  C   UNL A   1      32.208  18.864  23.857  1.00  0.00     0.184 C 
ATOM     92  C   UNL A   1      32.549  17.992  22.628  1.00  0.00     0.065 C 
ATOM     93  C   UNL A   1      32.550  17.972  25.065  1.00  0.00     0.065 C 
ATOM     94  C   UNL A   1      33.665  17.089  23.122  1.00  0.00     0.006 C 
ATOM     95  C   UNL A   1      33.136  16.692  24.489  1.00  0.00     0.006 C 
ENDBRANCH  89  91
ENDBRANCH  74  83
ENDBRANCH  72  74
ENDBRANCH  71  72
ENDBRANCH  70  71
ENDBRANCH   1  70
TORSDOF 15
ENDMDL
MODEL 2
REMARK VINA RESULT:     -12.3      4.064      9.761
REMARK SMILES O=C(OCCOC(=O)[C@@H](c1cccc(O)c1)[NH+]1CC[NH+](C2CCCC2)CC1)c1ccc(-c2c3nc(c(-c4c(F)c(F)c(F)c(F)c4F)c4ccc([nH]4)c(-c4c(F)c(F)c(F)c(F)c4F)c4nc(c(-c5c(F)c(F)c(F)c(F)c5F)c5ccc2[nH]5)C=C4)C=C3)cc1
REMARK SMILES IDX 4 1 3 2 2 3 1 4 28 5 29 6 90 7 30 8 89 9 31 10 32 11 33 12
REMARK SMILES IDX 83 13 34 14 88 15 82 16 84 17 35 18 87 19 81 20 80 21 36 23
REMARK SMILES IDX 68 24 48 25 67 26 49 27 52 28 66 29 85 30 50 31 51 32 65 34
REMARK SMILES IDX 86 35 53 36 37 37 38 38 46 39 39 40 40 41 44 42 47 43 41 44
REMARK SMILES IDX 42 45 45 46 43 47 69 48 70 49 78 50 71 51 72 52 76 53 79 54
REMARK SMILES IDX 73 55 74 56 77 57 75 58 54 59 55 60 63 61 56 62 57 63 61 64
REMARK SMILES IDX 64 65 58 66 59 67 62 68 60 69 5 70 6 71 7 72 8 73 9 74 10 75
REMARK SMILES IDX 11 76 16 77 12 78 14 79 13 80 15 81 17 83 18 84 27 85 19 87
REMARK SMILES IDX 26 88 20 89 21 91 22 92 25 93 23 94 24 95
REMARK H PARENT 84 22 52 33 15 82 17 86 20 90
REMARK Flexibility Score: inf
ROOT
ATOM      1  C   UNL A   1      35.366  22.087  24.815  1.00  0.00     0.275 C 
ENDROOT
BRANCH   1   2
ATOM      2  O   UNL A   1      36.331  21.774  25.831  1.00  0.00    -0.458 OA
BRANCH   2   3
ATOM      3  C   UNL A   1      37.638  21.466  25.675  1.00  0.00     0.338 C 
ATOM      4  O   UNL A   1      37.950  20.367  25.220  1.00  0.00    -0.246 OA
BRANCH   3   5
ATOM      5  C   UNL A   1      38.742  22.371  26.108  1.00  0.00     0.060 A 
ATOM      6  C   UNL A   1      39.884  22.015  26.833  1.00  0.00     0.016 A 
ATOM      7  C   UNL A   1      38.542  23.724  25.850  1.00  0.00     0.016 A 
ATOM      8  C   UNL A   1      40.829  22.992  27.238  1.00  0.00     0.010 A 
ATOM      9  C   UNL A   1      39.500  24.676  26.205  1.00  0.00     0.010 A 
ATOM     10  C   UNL A   1      40.659  24.346  26.923  1.00  0.00    -0.014 A 
BRANCH  10  11
ATOM     11  C   UNL A   1      41.541  25.477  27.397  1.00  0.00     0.031 A 
ATOM     12  C   UNL A   1      40.889  26.594  28.198  1.00  0.00     0.074 A 
ATOM     13  C   UNL A   1      42.845  25.609  27.058  1.00  0.00     0.049 A 
ATOM     14  N   UNL A   1      41.271  27.834  28.386  1.00  0.00    -0.248 NA
ATOM     15  C   UNL A   1      39.575  26.287  28.796  1.00  0.00     0.031 C 
ATOM     16  C   UNL A   1      43.635  24.652  26.285  1.00  0.00     0.029 A 
ATOM     17  N   UNL A   1      43.735  26.645  27.290  1.00  0.00    -0.354 N 
ATOM     18  C   UNL A   1      40.224  28.447  29.070  1.00  0.00     0.074 A 
ATOM     19  C   UNL A   1      39.142  27.493  29.130  1.00  0.00     0.031 C 
ATOM     20  C   UNL A   1      44.871  25.150  26.086  1.00  0.00     0.029 A 
ATOM     21  C   UNL A   1      44.955  26.490  26.655  1.00  0.00     0.049 A 
ATOM     22  H   UNL A   1      43.519  27.421  27.855  1.00  0.00     0.167 HD
ATOM     23  C   UNL A   1      40.194  29.651  29.694  1.00  0.00     0.037 A 
ATOM     24  C   UNL A   1      45.982  27.357  26.495  1.00  0.00     0.037 A 
ATOM     25  C   UNL A   1      41.336  30.515  29.806  1.00  0.00     0.049 A 
ATOM     26  C   UNL A   1      45.894  28.716  27.138  1.00  0.00     0.074 A 
ATOM     27  C   UNL A   1      41.520  31.596  30.649  1.00  0.00     0.029 A 
ATOM     28  N   UNL A   1      42.504  30.367  29.078  1.00  0.00    -0.354 N 
ATOM     29  N   UNL A   1      44.877  29.299  27.718  1.00  0.00    -0.248 NA
ATOM     30  C   UNL A   1      47.121  29.528  27.110  1.00  0.00     0.031 C 
ATOM     31  C   UNL A   1      42.802  32.108  30.429  1.00  0.00     0.029 A 
ATOM     32  C   UNL A   1      43.417  31.332  29.464  1.00  0.00     0.049 A 
ATOM     33  H   UNL A   1      42.661  29.680  28.390  1.00  0.00     0.167 HD
ATOM     34  C   UNL A   1      45.352  30.529  28.152  1.00  0.00     0.074 A 
ATOM     35  C   UNL A   1      46.719  30.646  27.693  1.00  0.00     0.031 C 
ATOM     36  C   UNL A   1      44.744  31.450  28.934  1.00  0.00     0.037 A 
BRANCH  23  37
ATOM     37  C   UNL A   1      38.945  30.044  30.437  1.00  0.00     0.064 A 
ATOM     38  C   UNL A   1      38.778  29.732  31.797  1.00  0.00     0.173 A 
ATOM     39  C   UNL A   1      37.945  30.811  29.820  1.00  0.00     0.173 A 
ATOM     40  F   UNL A   1      39.710  29.016  32.445  1.00  0.00    -0.203 F 
ATOM     41  C   UNL A   1      37.639  30.125  32.494  1.00  0.00     0.198 A 
ATOM     42  C   UNL A   1      36.825  31.239  30.532  1.00  0.00     0.198 A 
ATOM     43  F   UNL A   1      38.060  31.163  28.531  1.00  0.00    -0.203 F 
ATOM     44  F   UNL A   1      37.483  29.760  33.774  1.00  0.00    -0.200 F 
ATOM     45  C   UNL A   1      36.669  30.885  31.864  1.00  0.00     0.200 A 
ATOM     46  F   UNL A   1      35.899  31.998  29.931  1.00  0.00    -0.200 F 
ATOM     47  F   UNL A   1      35.583  31.280  32.543  1.00  0.00    -0.200 F 
ENDBRANCH  23  37
BRANCH  24  48
ATOM     48  C   UNL A   1      47.168  27.067  25.625  1.00  0.00     0.064 A 
ATOM     49  C   UNL A   1      48.325  26.441  26.098  1.00  0.00     0.173 A 
ATOM     50  C   UNL A   1      47.195  27.522  24.291  1.00  0.00     0.173 A 
ATOM     51  F   UNL A   1      48.404  26.058  27.379  1.00  0.00    -0.203 F 
ATOM     52  C   UNL A   1      49.429  26.235  25.263  1.00  0.00     0.198 A 
ATOM     53  C   UNL A   1      48.282  27.295  23.452  1.00  0.00     0.198 A 
ATOM     54  F   UNL A   1      46.172  28.238  23.802  1.00  0.00    -0.203 F 
ATOM     55  F   UNL A   1      50.534  25.655  25.749  1.00  0.00    -0.200 F 
ATOM     56  C   UNL A   1      49.400  26.647  23.937  1.00  0.00     0.200 A 
ATOM     57  F   UNL A   1      48.242  27.717  22.180  1.00  0.00    -0.200 F 
ATOM     58  F   UNL A   1      50.455  26.441  23.139  1.00  0.00    -0.200 F 
ENDBRANCH  24  48
BRANCH  36  59
ATOM     59  C   UNL A   1      45.595  32.587  29.397  1.00  0.00     0.064 A 
ATOM     60  C   UNL A   1      46.424  32.490  30.520  1.00  0.00     0.173 A 
ATOM     61  C   UNL A   1      45.534  33.812  28.715  1.00  0.00     0.173 A 
ATOM     62  F   UNL A   1      46.482  31.348  31.221  1.00  0.00    -0.203 F 
ATOM     63  C   UNL A   1      47.153  33.593  30.958  1.00  0.00     0.198 A 
ATOM     64  C   UNL A   1      46.276  34.905  29.144  1.00  0.00     0.198 A 
ATOM     65  F   UNL A   1      44.737  33.950  27.646  1.00  0.00    -0.203 F 
ATOM     66  F   UNL A   1      47.904  33.500  32.063  1.00  0.00    -0.200 F 
ATOM     67  C   UNL A   1      47.081  34.796  30.269  1.00  0.00     0.200 A 
ATOM     68  F   UNL A   1      46.198  36.068  28.483  1.00  0.00    -0.200 F 
ATOM     69  F   UNL A   1      47.772  35.860  30.700  1.00  0.00    -0.200 F 
ENDBRANCH  36  59
ENDBRANCH  10  11
ENDBRANCH   3   5
ENDBRANCH   2   3
ENDBRANCH   1   2
BRANCH   1  70
ATOM     70  C   UNL A   1      34.710  23.453  24.974  1.00  0.00     0.274 C 
BRANCH  70  71
ATOM     71  O   UNL A   1      33.505  23.586  24.205  1.00  0.00    -0.457 OA
BRANCH  71  72
ATOM     72  C   UNL A   1      33.322  24.789  23.571  1.00  0.00     0.370 C 
ATOM     73  O   UNL A   1      34.037  25.198  22.657  1.00  0.00    -0.245 OA
BRANCH  72  74
ATOM     74  C   UNL A   1      32.145  25.627  24.188  1.00  0.00     0.326 C 
BRANCH  74  75
ATOM     75  C   UNL A   1      32.648  26.596  25.301  1.00  0.00     0.025 A 
ATOM     76  C   UNL A   1      33.845  27.342  25.307  1.00  0.00     0.011 A 
ATOM     77  C   UNL A   1      31.781  26.894  26.375  1.00  0.00     0.056 A 
ATOM     78  C   UNL A   1      34.176  28.288  26.290  1.00  0.00     0.004 A 
ATOM     79  C   UNL A   1      32.124  27.812  27.378  1.00  0.00     0.116 A 
ATOM     80  C   UNL A   1      33.313  28.521  27.340  1.00  0.00     0.046 A 
BRANCH  79  81
ATOM     81  O   UNL A   1      31.251  27.987  28.410  1.00  0.00    -0.508 OA
ATOM     82  H   UNL A   1      31.281  27.415  29.151  1.00  0.00     0.293 HD
ENDBRANCH  79  81
ENDBRANCH  74  75
BRANCH  74  83
ATOM     83  N   UNL A   1      31.302  26.022  23.011  1.00  0.00    -0.310 N 
ATOM     84  C   UNL A   1      29.847  25.835  23.251  1.00  0.00     0.325 C 
ATOM     85  C   UNL A   1      31.495  27.305  22.374  1.00  0.00     0.325 C 
ATOM     86  H   UNL A   1      31.682  25.356  22.337  1.00  0.00     0.349 HD
ATOM     87  C   UNL A   1      29.066  27.059  23.843  1.00  0.00     0.324 C 
ATOM     88  C   UNL A   1      30.946  28.441  23.253  1.00  0.00     0.324 C 
ATOM     89  N   UNL A   1      29.503  28.403  23.431  1.00  0.00    -0.323 N 
ATOM     90  H   UNL A   1      29.301  29.022  24.217  1.00  0.00     0.348 HD
BRANCH  89  91
ATOM     91  C   UNL A   1      28.677  29.114  22.456  1.00  0.00     0.184 C 
ATOM     92  C   UNL A   1      27.376  29.696  23.052  1.00  0.00     0.065 C 
ATOM     93  C   UNL A   1      29.340  30.309  21.745  1.00  0.00     0.065 C 
ATOM     94  C   UNL A   1      27.715  31.153  23.308  1.00  0.00     0.006 C 
ATOM     95  C   UNL A   1      28.453  31.511  22.031  1.00  0.00     0.006 C 
ENDBRANCH  89  91
ENDBRANCH  74  83
ENDBRANCH  72  74
ENDBRANCH  71  72
ENDBRANCH  70  71
ENDBRANCH   1  70
TORSDOF 15
ENDMDL
MODEL 3
REMARK VINA RESULT:     -12.3      3.360      7.811
REMARK SMILES O=C(OCCOC(=O)[C@@H](c1cccc(O)c1)[NH+]1CC[NH+](C2CCCC2)CC1)c1ccc(-c2c3nc(c(-c4c(F)c(F)c(F)c(F)c4F)c4ccc([nH]4)c(-c4c(F)c(F)c(F)c(F)c4F)c4nc(c(-c5c(F)c(F)c(F)c(F)c5F)c5ccc2[nH]5)C=C4)C=C3)cc1
REMARK SMILES IDX 4 1 3 2 2 3 1 4 28 5 29 6 90 7 30 8 89 9 31 10 32 11 33 12
REMARK SMILES IDX 83 13 34 14 88 15 82 16 84 17 35 18 87 19 81 20 80 21 36 23
REMARK SMILES IDX 68 24 48 25 67 26 49 27 52 28 66 29 85 30 50 31 51 32 65 34
REMARK SMILES IDX 86 35 53 36 37 37 38 38 46 39 39 40 40 41 44 42 47 43 41 44
REMARK SMILES IDX 42 45 45 46 43 47 69 48 70 49 78 50 71 51 72 52 76 53 79 54
REMARK SMILES IDX 73 55 74 56 77 57 75 58 54 59 55 60 63 61 56 62 57 63 61 64
REMARK SMILES IDX 64 65 58 66 59 67 62 68 60 69 5 70 6 71 7 72 8 73 9 74 10 75
REMARK SMILES IDX 11 76 16 77 12 78 14 79 13 80 15 81 17 83 18 84 27 85 19 87
REMARK SMILES IDX 26 88 20 89 21 91 22 92 25 93 23 94 24 95
REMARK H PARENT 84 22 52 33 15 82 17 86 20 90
REMARK Flexibility Score: inf
ROOT
ATOM      1  C   UNL A   1      33.234  28.827  26.219  1.00  0.00     0.275 C 
ENDROOT
BRANCH   1   2
ATOM      2  O   UNL A   1      33.198  29.785  27.287  1.00  0.00    -0.458 OA
BRANCH   2   3
ATOM      3  C   UNL A   1      34.198  30.575  27.734  1.00  0.00     0.338 C 
ATOM      4  O   UNL A   1      34.062  31.797  27.706  1.00  0.00    -0.246 OA
BRANCH   3   5
ATOM      5  C   UNL A   1      35.513  30.039  28.194  1.00  0.00     0.060 A 
ATOM      6  C   UNL A   1      35.842  29.620  29.487  1.00  0.00     0.016 A 
ATOM      7  C   UNL A   1      36.535  30.072  27.250  1.00  0.00     0.016 A 
ATOM      8  C   UNL A   1      37.156  29.191  29.805  1.00  0.00     0.010 A 
ATOM      9  C   UNL A   1      37.813  29.599  27.554  1.00  0.00     0.010 A 
ATOM     10  C   UNL A   1      38.169  29.164  28.839  1.00  0.00    -0.014 A 
BRANCH  10  11
ATOM     11  C   UNL A   1      39.620  28.831  29.094  1.00  0.00     0.031 A 
ATOM     12  C   UNL A   1      40.522  29.948  29.600  1.00  0.00     0.074 A 
ATOM     13  C   UNL A   1      40.184  27.638  28.796  1.00  0.00     0.049 A 
ATOM     14  N   UNL A   1      41.824  30.079  29.529  1.00  0.00    -0.248 NA
ATOM     15  C   UNL A   1      39.844  31.119  30.188  1.00  0.00     0.031 C 
ATOM     16  C   UNL A   1      39.485  26.457  28.289  1.00  0.00     0.029 A 
ATOM     17  N   UNL A   1      41.508  27.232  28.837  1.00  0.00    -0.354 N 
ATOM     18  C   UNL A   1      42.097  31.357  30.013  1.00  0.00     0.074 A 
ATOM     19  C   UNL A   1      40.826  32.006  30.229  1.00  0.00     0.031 C 
ATOM     20  C   UNL A   1      40.378  25.480  28.044  1.00  0.00     0.029 A 
ATOM     21  C   UNL A   1      41.726  25.971  28.309  1.00  0.00     0.049 A 
ATOM     22  H   UNL A   1      42.229  27.790  29.207  1.00  0.00     0.167 HD
ATOM     23  C   UNL A   1      43.287  31.910  30.355  1.00  0.00     0.037 A 
ATOM     24  C   UNL A   1      42.878  25.327  28.011  1.00  0.00     0.037 A 
ATOM     25  C   UNL A   1      44.531  31.193  30.330  1.00  0.00     0.049 A 
ATOM     26  C   UNL A   1      44.189  25.993  28.336  1.00  0.00     0.074 A 
ATOM     27  C   UNL A   1      45.734  31.532  30.923  1.00  0.00     0.029 A 
ATOM     28  N   UNL A   1      44.718  29.971  29.707  1.00  0.00    -0.354 N 
ATOM     29  N   UNL A   1      44.427  27.219  28.727  1.00  0.00    -0.248 NA
ATOM     30  C   UNL A   1      45.395  25.161  28.189  1.00  0.00     0.031 C 
ATOM     31  C   UNL A   1      46.654  30.514  30.657  1.00  0.00     0.029 A 
ATOM     32  C   UNL A   1      46.015  29.537  29.915  1.00  0.00     0.049 A 
ATOM     33  H   UNL A   1      44.032  29.485  29.195  1.00  0.00     0.167 HD
ATOM     34  C   UNL A   1      45.802  27.292  28.902  1.00  0.00     0.074 A 
ATOM     35  C   UNL A   1      46.354  26.020  28.493  1.00  0.00     0.031 C 
ATOM     36  C   UNL A   1      46.540  28.293  29.434  1.00  0.00     0.037 A 
BRANCH  23  37
ATOM     37  C   UNL A   1      43.293  33.300  30.936  1.00  0.00     0.064 A 
ATOM     38  C   UNL A   1      43.196  33.511  32.321  1.00  0.00     0.173 A 
ATOM     39  C   UNL A   1      43.483  34.425  30.119  1.00  0.00     0.173 A 
ATOM     40  F   UNL A   1      43.031  32.471  33.153  1.00  0.00    -0.203 F 
ATOM     41  C   UNL A   1      43.236  34.793  32.861  1.00  0.00     0.198 A 
ATOM     42  C   UNL A   1      43.565  35.704  30.667  1.00  0.00     0.198 A 
ATOM     43  F   UNL A   1      43.608  34.285  28.791  1.00  0.00    -0.203 F 
ATOM     44  F   UNL A   1      43.081  34.965  34.181  1.00  0.00    -0.200 F 
ATOM     45  C   UNL A   1      43.429  35.887  32.035  1.00  0.00     0.200 A 
ATOM     46  F   UNL A   1      43.778  36.761  29.872  1.00  0.00    -0.200 F 
ATOM     47  F   UNL A   1      43.488  37.119  32.560  1.00  0.00    -0.200 F 
ENDBRANCH  23  37
BRANCH  24  48
ATOM     48  C   UNL A   1      42.918  24.018  27.283  1.00  0.00     0.064 A 
ATOM     49  C   UNL A   1      43.191  23.914  25.916  1.00  0.00     0.173 A 
ATOM     50  C   UNL A   1      42.572  22.825  27.950  1.00  0.00     0.173 A 
ATOM     51  F   UNL A   1      43.444  25.016  25.197  1.00  0.00    -0.203 F 
ATOM     52  C   UNL A   1      43.169  22.675  25.265  1.00  0.00     0.198 A 
ATOM     53  C   UNL A   1      42.575  21.589  27.311  1.00  0.00     0.198 A 
ATOM     54  F   UNL A   1      42.180  22.861  29.233  1.00  0.00    -0.203 F 
ATOM     55  F   UNL A   1      43.409  22.609  23.948  1.00  0.00    -0.200 F 
ATOM     56  C   UNL A   1      42.878  21.513  25.966  1.00  0.00     0.200 A 
ATOM     57  F   UNL A   1      42.273  20.480  28.002  1.00  0.00    -0.200 F 
ATOM     58  F   UNL A   1      42.866  20.328  25.342  1.00  0.00    -0.200 F 
ENDBRANCH  24  48
BRANCH  36  59
ATOM     59  C   UNL A   1      47.983  27.990  29.677  1.00  0.00     0.064 A 
ATOM     60  C   UNL A   1      48.975  28.277  28.732  1.00  0.00     0.173 A 
ATOM     61  C   UNL A   1      48.360  27.355  30.870  1.00  0.00     0.173 A 
ATOM     62  F   UNL A   1      48.650  28.849  27.563  1.00  0.00    -0.203 F 
ATOM     63  C   UNL A   1      50.300  27.921  28.969  1.00  0.00     0.198 A 
ATOM     64  C   UNL A   1      49.686  27.017  31.110  1.00  0.00     0.198 A 
ATOM     65  F   UNL A   1      47.436  27.046  31.792  1.00  0.00    -0.203 F 
ATOM     66  F   UNL A   1      51.232  28.156  28.035  1.00  0.00    -0.200 F 
ATOM     67  C   UNL A   1      50.654  27.295  30.156  1.00  0.00     0.200 A 
ATOM     68  F   UNL A   1      50.023  26.405  32.253  1.00  0.00    -0.200 F 
ATOM     69  F   UNL A   1      51.927  26.940  30.375  1.00  0.00    -0.200 F 
ENDBRANCH  36  59
ENDBRANCH  10  11
ENDBRANCH   3   5
ENDBRANCH   2   3
ENDBRANCH   1   2
BRANCH   1  70
ATOM     70  C   UNL A   1      32.586  27.489  26.556  1.00  0.00     0.274 C 
BRANCH  70  71
ATOM     71  O   UNL A   1      33.139  26.397  25.806  1.00  0.00    -0.457 OA
BRANCH  71  72
ATOM     72  C   UNL A   1      32.520  25.182  25.962  1.00  0.00     0.370 C 
ATOM     73  O   UNL A   1      31.737  24.923  26.874  1.00  0.00    -0.245 OA
BRANCH  72  74
ATOM     74  C   UNL A   1      32.980  24.126  24.892  1.00  0.00     0.326 C 
BRANCH  74  75
ATOM     75  C   UNL A   1      34.530  23.956  24.878  1.00  0.00     0.025 A 
ATOM     76  C   UNL A   1      35.407  24.029  25.978  1.00  0.00     0.011 A 
ATOM     77  C   UNL A   1      35.149  23.549  23.675  1.00  0.00     0.056 A 
ATOM     78  C   UNL A   1      36.781  23.746  25.908  1.00  0.00     0.004 A 
ATOM     79  C   UNL A   1      36.527  23.300  23.593  1.00  0.00     0.116 A 
ATOM     80  C   UNL A   1      37.349  23.386  24.705  1.00  0.00     0.046 A 
BRANCH  79  81
ATOM     81  O   UNL A   1      37.046  22.975  22.376  1.00  0.00    -0.508 OA
ATOM     82  H   UNL A   1      37.838  23.380  22.081  1.00  0.00     0.293 HD
ENDBRANCH  79  81
ENDBRANCH  74  75
BRANCH  74  83
ATOM     83  N   UNL A   1      31.986  23.008  25.012  1.00  0.00    -0.310 N 
ATOM     84  C   UNL A   1      31.475  22.542  23.696  1.00  0.00     0.325 C 
ATOM     85  C   UNL A   1      32.289  21.846  25.817  1.00  0.00     0.325 C 
ATOM     86  H   UNL A   1      31.281  23.504  25.558  1.00  0.00     0.349 HD
ATOM     87  C   UNL A   1      32.260  21.373  23.007  1.00  0.00     0.324 C 
ATOM     88  C   UNL A   1      33.332  20.955  25.121  1.00  0.00     0.324 C 
ATOM     89  N   UNL A   1      32.862  20.354  23.883  1.00  0.00    -0.323 N 
ATOM     90  H   UNL A   1      33.695  20.018  23.400  1.00  0.00     0.348 HD
BRANCH  89  91
ATOM     91  C   UNL A   1      32.195  19.055  23.967  1.00  0.00     0.184 C 
ATOM     92  C   UNL A   1      32.490  18.128  22.766  1.00  0.00     0.065 C 
ATOM     93  C   UNL A   1      32.528  18.198  25.202  1.00  0.00     0.065 C 
ATOM     94  C   UNL A   1      33.585  17.210  23.278  1.00  0.00     0.006 C 
ATOM     95  C   UNL A   1      33.066  16.880  24.666  1.00  0.00     0.006 C 
ENDBRANCH  89  91
ENDBRANCH  74  83
ENDBRANCH  72  74
ENDBRANCH  71  72
ENDBRANCH  70  71
ENDBRANCH   1  70
TORSDOF 15
ENDMDL
