MODEL 1
REMARK VINA RESULT:     -11.5      0.000      0.000
REMARK SMILES COc1cccc([C@@]([NH3+])(C(=O)OCCOC(=O)c2ccc(-c3c4nc(c(-c5c(F)c(F)c(F)c(F)c5F)c5ccc([nH]5)c(-c5c(F)c(F)c(F)c(F)c5F)c5nc(c(-c6c(F)c(F)c(F)c(F)c6F)c6ccc3[nH]6)C=C5)C=C4)cc2)C(F)(F)F)c1
REMARK SMILES IDX 13 1 12 2 10 3 11 4 8 5 7 6 3 7 4 8 85 9 5 10 6 11 2 12 1 13
REMARK SMILES IDX 9 14 81 18 82 19 83 20 84 21 14 22 15 23 16 24 17 25 18 26
REMARK SMILES IDX 19 27 80 28 20 29 79 30 21 31 22 32 23 33 73 34 24 35 78 36
REMARK SMILES IDX 72 37 74 38 25 39 77 40 71 41 70 42 26 44 58 45 38 46 57 47
REMARK SMILES IDX 39 48 42 49 56 50 75 51 40 52 41 53 55 55 76 56 43 57 27 58
REMARK SMILES IDX 28 59 36 60 29 61 30 62 34 63 37 64 31 65 32 66 35 67 33 68
REMARK SMILES IDX 59 69 60 70 68 71 61 72 62 73 66 74 69 75 63 76 64 77 67 78
REMARK SMILES IDX 65 79 44 80 45 81 53 82 46 83 47 84 51 85 54 86 48 87 49 88
REMARK SMILES IDX 52 89 50 90
REMARK H PARENT 9 15 9 16 9 17 74 43 42 54
REMARK Flexibility Score: inf
ROOT
ATOM      1  C   UNL A   1      31.767  28.668  26.467  1.00  0.00     0.274 C 
ENDROOT
BRANCH   1   2
ATOM      2  O   UNL A   1      31.376  27.795  25.385  1.00  0.00    -0.457 OA
BRANCH   2   3
ATOM      3  C   UNL A   1      32.273  27.598  24.376  1.00  0.00     0.383 C 
ATOM      4  O   UNL A   1      33.460  27.353  24.575  1.00  0.00    -0.244 OA
BRANCH   3   5
ATOM      5  C   UNL A   1      31.685  27.846  22.962  1.00  0.00     0.314 C 
BRANCH   5   6
ATOM      6  C   UNL A   1      30.170  28.169  22.965  1.00  0.00     0.037 A 
ATOM      7  C   UNL A   1      28.259  29.640  22.515  1.00  0.00     0.119 A 
ATOM      8  C   UNL A   1      27.399  28.700  23.078  1.00  0.00     0.046 A 
ATOM      9  C   UNL A   1      29.633  29.375  22.460  1.00  0.00     0.057 A 
ATOM     10  C   UNL A   1      27.897  27.496  23.566  1.00  0.00     0.004 A 
ATOM     11  C   UNL A   1      29.265  27.237  23.513  1.00  0.00     0.011 A 
BRANCH   7  12
ATOM     12  O   UNL A   1      27.648  30.787  22.088  1.00  0.00    -0.497 OA
ATOM     13  C   UNL A   1      28.276  31.497  21.027  1.00  0.00     0.278 C 
ENDBRANCH   7  12
ENDBRANCH   5   6
BRANCH   5  14
ATOM     14  N   UNL A   1      32.425  29.048  22.393  1.00  0.00    -0.332 N 
ATOM     15  H   UNL A   1      33.068  29.415  23.094  1.00  0.00     0.346 HD
ATOM     16  H   UNL A   1      31.753  29.772  22.137  1.00  0.00     0.346 HD
ATOM     17  H   UNL A   1      32.950  28.765  21.565  1.00  0.00     0.346 HD
ENDBRANCH   5  14
BRANCH   5  18
ATOM     18  C   UNL A   1      32.042  26.552  22.165  1.00  0.00     0.460 C 
ATOM     19  F   UNL A   1      31.857  25.418  22.872  1.00  0.00    -0.164 F 
ATOM     20  F   UNL A   1      31.267  26.450  21.051  1.00  0.00    -0.164 F 
ATOM     21  F   UNL A   1      33.320  26.548  21.717  1.00  0.00    -0.164 F 
ENDBRANCH   5  18
ENDBRANCH   3   5
ENDBRANCH   2   3
ENDBRANCH   1   2
BRANCH   1  22
ATOM     22  C   UNL A   1      31.855  30.107  25.973  1.00  0.00     0.275 C 
BRANCH  22  23
ATOM     23  O   UNL A   1      33.214  30.543  26.127  1.00  0.00    -0.458 OA
BRANCH  23  24
ATOM     24  C   UNL A   1      33.434  31.510  27.045  1.00  0.00     0.338 C 
ATOM     25  O   UNL A   1      32.730  32.465  27.312  1.00  0.00    -0.246 OA
BRANCH  24  26
ATOM     26  C   UNL A   1      34.705  31.215  27.729  1.00  0.00     0.060 A 
ATOM     27  C   UNL A   1      35.047  29.892  28.009  1.00  0.00     0.016 A 
ATOM     28  C   UNL A   1      35.524  32.256  28.157  1.00  0.00     0.016 A 
ATOM     29  C   UNL A   1      36.170  29.608  28.779  1.00  0.00     0.010 A 
ATOM     30  C   UNL A   1      36.709  31.962  28.840  1.00  0.00     0.010 A 
ATOM     31  C   UNL A   1      37.036  30.635  29.176  1.00  0.00    -0.014 A 
BRANCH  31  32
ATOM     32  C   UNL A   1      38.280  30.326  29.935  1.00  0.00     0.031 A 
ATOM     33  C   UNL A   1      39.352  29.471  29.317  1.00  0.00     0.074 A 
ATOM     34  C   UNL A   1      38.446  30.798  31.186  1.00  0.00     0.049 A 
ATOM     35  N   UNL A   1      40.391  28.909  29.882  1.00  0.00    -0.248 NA
ATOM     36  C   UNL A   1      39.234  29.202  27.876  1.00  0.00     0.031 C 
ATOM     37  C   UNL A   1      37.510  31.672  31.896  1.00  0.00     0.029 A 
ATOM     38  N   UNL A   1      39.467  30.609  32.087  1.00  0.00    -0.354 N 
ATOM     39  C   UNL A   1      41.011  28.169  28.885  1.00  0.00     0.074 A 
ATOM     40  C   UNL A   1      40.241  28.362  27.674  1.00  0.00     0.031 C 
ATOM     41  C   UNL A   1      38.013  31.971  33.102  1.00  0.00     0.029 A 
ATOM     42  C   UNL A   1      39.258  31.235  33.291  1.00  0.00     0.049 A 
ATOM     43  H   UNL A   1      40.270  30.075  31.888  1.00  0.00     0.167 HD
ATOM     44  C   UNL A   1      42.117  27.393  28.978  1.00  0.00     0.037 A 
ATOM     45  C   UNL A   1      39.957  31.184  34.440  1.00  0.00     0.037 A 
ATOM     46  C   UNL A   1      42.916  27.255  30.167  1.00  0.00     0.049 A 
ATOM     47  C   UNL A   1      41.168  30.302  34.524  1.00  0.00     0.074 A 
ATOM     48  C   UNL A   1      44.075  26.521  30.348  1.00  0.00     0.029 A 
ATOM     49  N   UNL A   1      42.646  27.880  31.375  1.00  0.00    -0.354 N 
ATOM     50  N   UNL A   1      41.707  29.552  33.595  1.00  0.00    -0.248 NA
ATOM     51  C   UNL A   1      41.847  30.233  35.825  1.00  0.00     0.031 C 
ATOM     52  C   UNL A   1      44.492  26.679  31.675  1.00  0.00     0.029 A 
ATOM     53  C   UNL A   1      43.609  27.537  32.311  1.00  0.00     0.049 A 
ATOM     54  H   UNL A   1      41.884  28.480  31.543  1.00  0.00     0.167 HD
ATOM     55  C   UNL A   1      42.781  28.913  34.199  1.00  0.00     0.074 A 
ATOM     56  C   UNL A   1      42.835  29.388  35.566  1.00  0.00     0.031 C 
ATOM     57  C   UNL A   1      43.634  28.004  33.671  1.00  0.00     0.037 A 
BRANCH  44  58
ATOM     58  C   UNL A   1      42.515  26.599  27.771  1.00  0.00     0.064 A 
ATOM     59  C   UNL A   1      43.483  27.057  26.867  1.00  0.00     0.173 A 
ATOM     60  C   UNL A   1      41.954  25.331  27.549  1.00  0.00     0.173 A 
ATOM     61  F   UNL A   1      44.037  28.268  27.028  1.00  0.00    -0.203 F 
ATOM     62  C   UNL A   1      43.866  26.280  25.776  1.00  0.00     0.198 A 
ATOM     63  C   UNL A   1      42.354  24.549  26.470  1.00  0.00     0.198 A 
ATOM     64  F   UNL A   1      41.026  24.848  28.388  1.00  0.00    -0.203 F 
ATOM     65  F   UNL A   1      44.771  26.749  24.906  1.00  0.00    -0.200 F 
ATOM     66  C   UNL A   1      43.307  25.024  25.583  1.00  0.00     0.200 A 
ATOM     67  F   UNL A   1      41.819  23.333  26.290  1.00  0.00    -0.200 F 
ATOM     68  F   UNL A   1      43.685  24.275  24.538  1.00  0.00    -0.200 F 
ENDBRANCH  44  58
BRANCH  45  69
ATOM     69  C   UNL A   1      39.482  31.947  35.623  1.00  0.00     0.064 A 
ATOM     70  C   UNL A   1      38.513  31.417  36.483  1.00  0.00     0.173 A 
ATOM     71  C   UNL A   1      40.006  33.213  35.928  1.00  0.00     0.173 A 
ATOM     72  F   UNL A   1      37.963  30.223  36.215  1.00  0.00    -0.203 F 
ATOM     73  C   UNL A   1      38.086  32.122  37.605  1.00  0.00     0.198 A 
ATOM     74  C   UNL A   1      39.599  33.905  37.066  1.00  0.00     0.198 A 
ATOM     75  F   UNL A   1      40.934  33.766  35.133  1.00  0.00    -0.203 F 
ATOM     76  F   UNL A   1      37.136  31.606  38.397  1.00  0.00    -0.200 F 
ATOM     77  C   UNL A   1      38.637  33.360  37.902  1.00  0.00     0.200 A 
ATOM     78  F   UNL A   1      40.144  35.095  37.354  1.00  0.00    -0.200 F 
ATOM     79  F   UNL A   1      38.236  34.032  38.989  1.00  0.00    -0.200 F 
ENDBRANCH  45  69
BRANCH  57  80
ATOM     80  C   UNL A   1      44.692  27.460  34.581  1.00  0.00     0.064 A 
ATOM     81  C   UNL A   1      44.480  26.284  35.315  1.00  0.00     0.173 A 
ATOM     82  C   UNL A   1      45.932  28.102  34.703  1.00  0.00     0.173 A 
ATOM     83  F   UNL A   1      43.302  25.646  35.244  1.00  0.00    -0.203 F 
ATOM     84  C   UNL A   1      45.469  25.780  36.154  1.00  0.00     0.198 A 
ATOM     85  C   UNL A   1      46.926  27.583  35.527  1.00  0.00     0.198 A 
ATOM     86  F   UNL A   1      46.180  29.229  34.019  1.00  0.00    -0.203 F 
ATOM     87  F   UNL A   1      45.234  24.675  36.876  1.00  0.00    -0.200 F 
ATOM     88  C   UNL A   1      46.692  26.426  36.255  1.00  0.00     0.200 A 
ATOM     89  F   UNL A   1      48.109  28.206  35.621  1.00  0.00    -0.200 F 
ATOM     90  F   UNL A   1      47.644  25.938  37.063  1.00  0.00    -0.200 F 
ENDBRANCH  57  80
ENDBRANCH  31  32
ENDBRANCH  24  26
ENDBRANCH  23  24
ENDBRANCH  22  23
ENDBRANCH   1  22
TORSDOF 15
ENDMDL
MODEL 2
REMARK VINA RESULT:     -11.4      0.388      1.675
REMARK SMILES COc1cccc([C@@]([NH3+])(C(=O)OCCOC(=O)c2ccc(-c3c4nc(c(-c5c(F)c(F)c(F)c(F)c5F)c5ccc([nH]5)c(-c5c(F)c(F)c(F)c(F)c5F)c5nc(c(-c6c(F)c(F)c(F)c(F)c6F)c6ccc3[nH]6)C=C5)C=C4)cc2)C(F)(F)F)c1
REMARK SMILES IDX 13 1 12 2 10 3 11 4 8 5 7 6 3 7 4 8 85 9 5 10 6 11 2 12 1 13
REMARK SMILES IDX 9 14 81 18 82 19 83 20 84 21 14 22 15 23 16 24 17 25 18 26
REMARK SMILES IDX 19 27 80 28 20 29 79 30 21 31 22 32 23 33 73 34 24 35 78 36
REMARK SMILES IDX 72 37 74 38 25 39 77 40 71 41 70 42 26 44 58 45 38 46 57 47
REMARK SMILES IDX 39 48 42 49 56 50 75 51 40 52 41 53 55 55 76 56 43 57 27 58
REMARK SMILES IDX 28 59 36 60 29 61 30 62 34 63 37 64 31 65 32 66 35 67 33 68
REMARK SMILES IDX 59 69 60 70 68 71 61 72 62 73 66 74 69 75 63 76 64 77 67 78
REMARK SMILES IDX 65 79 44 80 45 81 53 82 46 83 47 84 51 85 54 86 48 87 49 88
REMARK SMILES IDX 52 89 50 90
REMARK H PARENT 9 15 9 16 9 17 74 43 42 54
REMARK Flexibility Score: inf
ROOT
ATOM      1  C   UNL A   1      31.877  28.025  26.323  1.00  0.00     0.274 C 
ENDROOT
BRANCH   1   2
ATOM      2  O   UNL A   1      31.551  27.170  25.205  1.00  0.00    -0.457 OA
BRANCH   2   3
ATOM      3  C   UNL A   1      32.416  27.153  24.150  1.00  0.00     0.383 C 
ATOM      4  O   UNL A   1      33.632  27.043  24.284  1.00  0.00    -0.244 OA
BRANCH   3   5
ATOM      5  C   UNL A   1      31.735  27.420  22.782  1.00  0.00     0.314 C 
BRANCH   5   6
ATOM      6  C   UNL A   1      30.235  27.788  22.894  1.00  0.00     0.037 A 
ATOM      7  C   UNL A   1      28.336  29.306  22.561  1.00  0.00     0.119 A 
ATOM      8  C   UNL A   1      27.496  28.401  23.207  1.00  0.00     0.046 A 
ATOM      9  C   UNL A   1      29.694  28.999  22.407  1.00  0.00     0.057 A 
ATOM     10  C   UNL A   1      27.996  27.192  23.679  1.00  0.00     0.004 A 
ATOM     11  C   UNL A   1      29.348  26.892  23.527  1.00  0.00     0.011 A 
BRANCH   7  12
ATOM     12  O   UNL A   1      27.726  30.462  22.159  1.00  0.00    -0.497 OA
ATOM     13  C   UNL A   1      28.444  31.288  21.249  1.00  0.00     0.278 C 
ENDBRANCH   7  12
ENDBRANCH   5   6
BRANCH   5  14
ATOM     14  N   UNL A   1      32.467  28.601  22.161  1.00  0.00    -0.332 N 
ATOM     15  H   UNL A   1      32.120  29.469  22.567  1.00  0.00     0.346 HD
ATOM     16  H   UNL A   1      32.306  28.610  21.153  1.00  0.00     0.346 HD
ATOM     17  H   UNL A   1      33.468  28.516  22.343  1.00  0.00     0.346 HD
ENDBRANCH   5  14
BRANCH   5  18
ATOM     18  C   UNL A   1      31.996  26.118  21.961  1.00  0.00     0.460 C 
ATOM     19  F   UNL A   1      31.624  24.993  22.608  1.00  0.00    -0.164 F 
ATOM     20  F   UNL A   1      31.301  26.145  20.792  1.00  0.00    -0.164 F 
ATOM     21  F   UNL A   1      33.295  25.973  21.607  1.00  0.00    -0.164 F 
ENDBRANCH   5  18
ENDBRANCH   3   5
ENDBRANCH   2   3
ENDBRANCH   1   2
BRANCH   1  22
ATOM     22  C   UNL A   1      31.727  29.488  25.924  1.00  0.00     0.275 C 
BRANCH  22  23
ATOM     23  O   UNL A   1      33.032  30.086  25.950  1.00  0.00    -0.458 OA
BRANCH  23  24
ATOM     24  C   UNL A   1      33.214  31.090  26.838  1.00  0.00     0.338 C 
ATOM     25  O   UNL A   1      32.476  32.026  27.074  1.00  0.00    -0.246 OA
BRANCH  24  26
ATOM     26  C   UNL A   1      34.494  30.862  27.532  1.00  0.00     0.060 A 
ATOM     27  C   UNL A   1      34.882  29.564  27.858  1.00  0.00     0.016 A 
ATOM     28  C   UNL A   1      35.276  31.946  27.923  1.00  0.00     0.016 A 
ATOM     29  C   UNL A   1      36.013  29.345  28.638  1.00  0.00     0.010 A 
ATOM     30  C   UNL A   1      36.470  31.717  28.616  1.00  0.00     0.010 A 
ATOM     31  C   UNL A   1      36.843  30.416  28.998  1.00  0.00    -0.014 A 
BRANCH  31  32
ATOM     32  C   UNL A   1      38.095  30.177  29.767  1.00  0.00     0.031 A 
ATOM     33  C   UNL A   1      39.189  29.323  29.187  1.00  0.00     0.074 A 
ATOM     34  C   UNL A   1      38.251  30.712  30.994  1.00  0.00     0.049 A 
ATOM     35  N   UNL A   1      40.244  28.816  29.775  1.00  0.00    -0.248 NA
ATOM     36  C   UNL A   1      39.076  28.982  27.761  1.00  0.00     0.031 C 
ATOM     37  C   UNL A   1      37.293  31.593  31.665  1.00  0.00     0.029 A 
ATOM     38  N   UNL A   1      39.278  30.593  31.900  1.00  0.00    -0.354 N 
ATOM     39  C   UNL A   1      40.882  28.047  28.813  1.00  0.00     0.074 A 
ATOM     40  C   UNL A   1      40.106  28.162  27.596  1.00  0.00     0.031 C 
ATOM     41  C   UNL A   1      37.789  31.963  32.853  1.00  0.00     0.029 A 
ATOM     42  C   UNL A   1      39.054  31.270  33.073  1.00  0.00     0.049 A 
ATOM     43  H   UNL A   1      40.094  30.072  31.724  1.00  0.00     0.167 HD
ATOM     44  C   UNL A   1      42.009  27.307  28.939  1.00  0.00     0.037 A 
ATOM     45  C   UNL A   1      39.755  31.293  34.222  1.00  0.00     0.037 A 
ATOM     46  C   UNL A   1      42.814  27.248  30.131  1.00  0.00     0.049 A 
ATOM     47  C   UNL A   1      40.991  30.449  34.344  1.00  0.00     0.074 A 
ATOM     48  C   UNL A   1      43.993  26.555  30.343  1.00  0.00     0.029 A 
ATOM     49  N   UNL A   1      42.529  27.922  31.309  1.00  0.00    -0.354 N 
ATOM     50  N   UNL A   1      41.548  29.671  33.450  1.00  0.00    -0.248 NA
ATOM     51  C   UNL A   1      41.673  30.460  35.644  1.00  0.00     0.031 C 
ATOM     52  C   UNL A   1      44.407  26.787  31.660  1.00  0.00     0.029 A 
ATOM     53  C   UNL A   1      43.502  27.649  32.257  1.00  0.00     0.049 A 
ATOM     54  H   UNL A   1      41.751  28.508  31.450  1.00  0.00     0.167 HD
ATOM     55  C   UNL A   1      42.640  29.090  34.080  1.00  0.00     0.074 A 
ATOM     56  C   UNL A   1      42.684  29.631  35.423  1.00  0.00     0.031 C 
ATOM     57  C   UNL A   1      43.517  28.181  33.593  1.00  0.00     0.037 A 
BRANCH  44  58
ATOM     58  C   UNL A   1      42.427  26.467  27.770  1.00  0.00     0.064 A 
ATOM     59  C   UNL A   1      41.861  25.210  27.519  1.00  0.00     0.173 A 
ATOM     60  C   UNL A   1      43.371  26.960  26.854  1.00  0.00     0.173 A 
ATOM     61  F   UNL A   1      40.966  24.690  28.372  1.00  0.00    -0.203 F 
ATOM     62  C   UNL A   1      42.237  24.468  26.400  1.00  0.00     0.198 A 
ATOM     63  C   UNL A   1      43.728  26.225  25.728  1.00  0.00     0.198 A 
ATOM     64  F   UNL A   1      43.937  28.160  27.050  1.00  0.00    -0.203 F 
ATOM     65  F   UNL A   1      41.707  23.254  26.195  1.00  0.00    -0.200 F 
ATOM     66  C   UNL A   1      43.163  24.980  25.503  1.00  0.00     0.200 A 
ATOM     67  F   UNL A   1      44.616  26.725  24.857  1.00  0.00    -0.200 F 
ATOM     68  F   UNL A   1      43.514  24.269  24.423  1.00  0.00    -0.200 F 
ENDBRANCH  44  58
BRANCH  45  69
ATOM     69  C   UNL A   1      39.262  32.098  35.368  1.00  0.00     0.064 A 
ATOM     70  C   UNL A   1      38.467  31.522  36.366  1.00  0.00     0.173 A 
ATOM     71  C   UNL A   1      39.596  33.455  35.499  1.00  0.00     0.173 A 
ATOM     72  F   UNL A   1      38.099  30.236  36.268  1.00  0.00    -0.203 F 
ATOM     73  C   UNL A   1      38.025  32.271  37.454  1.00  0.00     0.198 A 
ATOM     74  C   UNL A   1      39.177  34.196  36.602  1.00  0.00     0.198 A 
ATOM     75  F   UNL A   1      40.352  34.055  34.567  1.00  0.00    -0.203 F 
ATOM     76  F   UNL A   1      37.241  31.705  38.381  1.00  0.00    -0.200 F 
ATOM     77  C   UNL A   1      38.389  33.604  37.576  1.00  0.00     0.200 A 
ATOM     78  F   UNL A   1      39.542  35.480  36.721  1.00  0.00    -0.200 F 
ATOM     79  F   UNL A   1      37.975  34.321  38.629  1.00  0.00    -0.200 F 
ENDBRANCH  45  69
BRANCH  57  80
ATOM     80  C   UNL A   1      44.590  27.709  34.525  1.00  0.00     0.064 A 
ATOM     81  C   UNL A   1      45.808  28.397  34.634  1.00  0.00     0.173 A 
ATOM     82  C   UNL A   1      44.394  26.580  35.331  1.00  0.00     0.173 A 
ATOM     83  F   UNL A   1      46.047  29.472  33.868  1.00  0.00    -0.203 F 
ATOM     84  C   UNL A   1      46.799  27.957  35.507  1.00  0.00     0.198 A 
ATOM     85  C   UNL A   1      45.379  26.155  36.217  1.00  0.00     0.198 A 
ATOM     86  F   UNL A   1      43.245  25.891  35.262  1.00  0.00    -0.203 F 
ATOM     87  F   UNL A   1      47.970  28.605  35.569  1.00  0.00    -0.200 F 
ATOM     88  C   UNL A   1      46.582  26.841  36.301  1.00  0.00     0.200 A 
ATOM     89  F   UNL A   1      45.167  25.079  36.988  1.00  0.00    -0.200 F 
ATOM     90  F   UNL A   1      47.538  26.420  37.141  1.00  0.00    -0.200 F 
ENDBRANCH  57  80
ENDBRANCH  31  32
ENDBRANCH  24  26
ENDBRANCH  23  24
ENDBRANCH  22  23
ENDBRANCH   1  22
TORSDOF 15
ENDMDL
MODEL 3
REMARK VINA RESULT:     -11.4      3.870      9.748
REMARK SMILES COc1cccc([C@@]([NH3+])(C(=O)OCCOC(=O)c2ccc(-c3c4nc(c(-c5c(F)c(F)c(F)c(F)c5F)c5ccc([nH]5)c(-c5c(F)c(F)c(F)c(F)c5F)c5nc(c(-c6c(F)c(F)c(F)c(F)c6F)c6ccc3[nH]6)C=C5)C=C4)cc2)C(F)(F)F)c1
REMARK SMILES IDX 13 1 12 2 10 3 11 4 8 5 7 6 3 7 4 8 85 9 5 10 6 11 2 12 1 13
REMARK SMILES IDX 9 14 81 18 82 19 83 20 84 21 14 22 15 23 16 24 17 25 18 26
REMARK SMILES IDX 19 27 80 28 20 29 79 30 21 31 22 32 23 33 73 34 24 35 78 36
REMARK SMILES IDX 72 37 74 38 25 39 77 40 71 41 70 42 26 44 58 45 38 46 57 47
REMARK SMILES IDX 39 48 42 49 56 50 75 51 40 52 41 53 55 55 76 56 43 57 27 58
REMARK SMILES IDX 28 59 36 60 29 61 30 62 34 63 37 64 31 65 32 66 35 67 33 68
REMARK SMILES IDX 59 69 60 70 68 71 61 72 62 73 66 74 69 75 63 76 64 77 67 78
REMARK SMILES IDX 65 79 44 80 45 81 53 82 46 83 47 84 51 85 54 86 48 87 49 88
REMARK SMILES IDX 52 89 50 90
REMARK H PARENT 9 15 9 16 9 17 74 43 42 54
REMARK Flexibility Score: inf
ROOT
ATOM      1  C   UNL A   1      34.105  34.590  28.967  1.00  0.00     0.274 C 
ENDROOT
BRANCH   1   2
ATOM      2  O   UNL A   1      33.749  34.536  30.366  1.00  0.00    -0.457 OA
BRANCH   2   3
ATOM      3  C   UNL A   1      34.500  33.738  31.179  1.00  0.00     0.383 C 
ATOM      4  O   UNL A   1      34.511  32.513  31.088  1.00  0.00    -0.244 OA
BRANCH   3   5
ATOM      5  C   UNL A   1      35.228  34.510  32.311  1.00  0.00     0.314 C 
BRANCH   5   6
ATOM      6  C   UNL A   1      36.772  34.456  32.208  1.00  0.00     0.037 A 
ATOM      7  C   UNL A   1      38.859  34.127  30.960  1.00  0.00     0.119 A 
ATOM      8  C   UNL A   1      39.591  34.309  32.132  1.00  0.00     0.046 A 
ATOM      9  C   UNL A   1      37.461  34.201  31.001  1.00  0.00     0.057 A 
ATOM     10  C   UNL A   1      38.942  34.582  33.331  1.00  0.00     0.004 A 
ATOM     11  C   UNL A   1      37.550  34.651  33.368  1.00  0.00     0.011 A 
BRANCH   7  12
ATOM     12  O   UNL A   1      39.614  33.850  29.854  1.00  0.00    -0.497 OA
ATOM     13  C   UNL A   1      40.827  34.577  29.701  1.00  0.00     0.278 C 
ENDBRANCH   7  12
ENDBRANCH   5   6
BRANCH   5  14
ATOM     14  N   UNL A   1      34.794  35.964  32.187  1.00  0.00    -0.332 N 
ATOM     15  H   UNL A   1      33.971  36.023  31.589  1.00  0.00     0.346 HD
ATOM     16  H   UNL A   1      35.552  36.510  31.777  1.00  0.00     0.346 HD
ATOM     17  H   UNL A   1      34.571  36.333  33.111  1.00  0.00     0.346 HD
ENDBRANCH   5  14
BRANCH   5  18
ATOM     18  C   UNL A   1      34.670  33.880  33.626  1.00  0.00     0.460 C 
ATOM     19  F   UNL A   1      34.777  34.693  34.698  1.00  0.00    -0.164 F 
ATOM     20  F   UNL A   1      33.349  33.584  33.489  1.00  0.00    -0.164 F 
ATOM     21  F   UNL A   1      35.272  32.709  33.943  1.00  0.00    -0.164 F 
ENDBRANCH   5  18
ENDBRANCH   3   5
ENDBRANCH   2   3
ENDBRANCH   1   2
BRANCH   1  22
ATOM     22  C   UNL A   1      33.197  33.669  28.161  1.00  0.00     0.275 C 
BRANCH  22  23
ATOM     23  O   UNL A   1      34.016  32.956  27.221  1.00  0.00    -0.458 OA
BRANCH  23  24
ATOM     24  C   UNL A   1      33.928  31.608  27.250  1.00  0.00     0.338 C 
ATOM     25  O   UNL A   1      33.056  30.903  26.779  1.00  0.00    -0.246 OA
BRANCH  24  26
ATOM     26  C   UNL A   1      35.112  31.084  27.953  1.00  0.00     0.060 A 
ATOM     27  C   UNL A   1      35.051  29.838  28.576  1.00  0.00     0.016 A 
ATOM     28  C   UNL A   1      36.262  31.863  28.055  1.00  0.00     0.016 A 
ATOM     29  C   UNL A   1      36.110  29.396  29.363  1.00  0.00     0.010 A 
ATOM     30  C   UNL A   1      37.366  31.370  28.759  1.00  0.00     0.010 A 
ATOM     31  C   UNL A   1      37.296  30.139  29.437  1.00  0.00    -0.014 A 
BRANCH  31  32
ATOM     32  C   UNL A   1      38.458  29.631  30.216  1.00  0.00     0.031 A 
ATOM     33  C   UNL A   1      38.682  30.091  31.630  1.00  0.00     0.074 A 
ATOM     34  C   UNL A   1      39.327  28.767  29.655  1.00  0.00     0.049 A 
ATOM     35  N   UNL A   1      39.738  29.947  32.392  1.00  0.00    -0.248 NA
ATOM     36  C   UNL A   1      37.578  30.823  32.270  1.00  0.00     0.031 C 
ATOM     37  C   UNL A   1      39.213  28.203  28.309  1.00  0.00     0.029 A 
ATOM     38  N   UNL A   1      40.481  28.208  30.149  1.00  0.00    -0.354 N 
ATOM     39  C   UNL A   1      39.452  30.622  33.570  1.00  0.00     0.074 A 
ATOM     40  C   UNL A   1      38.118  31.168  33.431  1.00  0.00     0.031 C 
ATOM     41  C   UNL A   1      40.230  27.355  28.097  1.00  0.00     0.029 A 
ATOM     42  C   UNL A   1      41.120  27.388  29.252  1.00  0.00     0.049 A 
ATOM     43  H   UNL A   1      40.817  28.380  31.058  1.00  0.00     0.167 HD
ATOM     44  C   UNL A   1      40.238  30.778  34.662  1.00  0.00     0.037 A 
ATOM     45  C   UNL A   1      42.315  26.771  29.322  1.00  0.00     0.037 A 
ATOM     46  C   UNL A   1      41.537  30.180  34.821  1.00  0.00     0.049 A 
ATOM     47  C   UNL A   1      43.176  26.975  30.535  1.00  0.00     0.074 A 
ATOM     48  C   UNL A   1      42.393  30.250  35.906  1.00  0.00     0.029 A 
ATOM     49  N   UNL A   1      42.161  29.386  33.870  1.00  0.00    -0.354 N 
ATOM     50  N   UNL A   1      42.925  27.672  31.615  1.00  0.00    -0.248 NA
ATOM     51  C   UNL A   1      44.497  26.335  30.523  1.00  0.00     0.031 C 
ATOM     52  C   UNL A   1      43.548  29.521  35.602  1.00  0.00     0.029 A 
ATOM     53  C   UNL A   1      43.398  28.972  34.339  1.00  0.00     0.049 A 
ATOM     54  H   UNL A   1      41.781  29.150  32.993  1.00  0.00     0.167 HD
ATOM     55  C   UNL A   1      44.059  27.566  32.407  1.00  0.00     0.074 A 
ATOM     56  C   UNL A   1      44.987  26.710  31.696  1.00  0.00     0.031 C 
ATOM     57  C   UNL A   1      44.314  28.137  33.608  1.00  0.00     0.037 A 
BRANCH  44  58
ATOM     58  C   UNL A   1      39.733  31.660  35.763  1.00  0.00     0.064 A 
ATOM     59  C   UNL A   1      38.705  31.257  36.626  1.00  0.00     0.173 A 
ATOM     60  C   UNL A   1      40.332  32.910  35.991  1.00  0.00     0.173 A 
ATOM     61  F   UNL A   1      38.092  30.078  36.441  1.00  0.00    -0.203 F 
ATOM     62  C   UNL A   1      38.284  32.079  37.669  1.00  0.00     0.198 A 
ATOM     63  C   UNL A   1      39.923  33.719  37.046  1.00  0.00     0.198 A 
ATOM     64  F   UNL A   1      41.322  33.339  35.194  1.00  0.00    -0.203 F 
ATOM     65  F   UNL A   1      37.278  31.688  38.464  1.00  0.00    -0.200 F 
ATOM     66  C   UNL A   1      38.899  33.305  37.883  1.00  0.00     0.200 A 
ATOM     67  F   UNL A   1      40.523  34.900  37.256  1.00  0.00    -0.200 F 
ATOM     68  F   UNL A   1      38.498  34.089  38.893  1.00  0.00    -0.200 F 
ENDBRANCH  44  58
BRANCH  45  69
ATOM     69  C   UNL A   1      42.789  25.956  28.175  1.00  0.00     0.064 A 
ATOM     70  C   UNL A   1      43.485  26.542  27.111  1.00  0.00     0.173 A 
ATOM     71  C   UNL A   1      42.574  24.569  28.132  1.00  0.00     0.173 A 
ATOM     72  F   UNL A   1      43.688  27.868  27.095  1.00  0.00    -0.203 F 
ATOM     73  C   UNL A   1      43.951  25.773  26.048  1.00  0.00     0.198 A 
ATOM     74  C   UNL A   1      43.065  23.797  27.082  1.00  0.00     0.198 A 
ATOM     75  F   UNL A   1      41.909  23.961  29.126  1.00  0.00    -0.203 F 
ATOM     76  F   UNL A   1      44.589  26.362  25.027  1.00  0.00    -0.200 F 
ATOM     77  C   UNL A   1      43.750  24.401  26.040  1.00  0.00     0.200 A 
ATOM     78  F   UNL A   1      42.880  22.470  27.086  1.00  0.00    -0.200 F 
ATOM     79  F   UNL A   1      44.211  23.659  25.023  1.00  0.00    -0.200 F 
ENDBRANCH  45  69
BRANCH  57  80
ATOM     80  C   UNL A   1      45.653  27.861  34.219  1.00  0.00     0.064 A 
ATOM     81  C   UNL A   1      45.857  26.741  35.038  1.00  0.00     0.173 A 
ATOM     82  C   UNL A   1      46.743  28.705  33.968  1.00  0.00     0.173 A 
ATOM     83  F   UNL A   1      44.838  25.916  35.321  1.00  0.00    -0.203 F 
ATOM     84  C   UNL A   1      47.106  26.486  35.598  1.00  0.00     0.198 A 
ATOM     85  C   UNL A   1      47.995  28.435  34.513  1.00  0.00     0.198 A 
ATOM     86  F   UNL A   1      46.595  29.787  33.190  1.00  0.00    -0.203 F 
ATOM     87  F   UNL A   1      47.272  25.431  36.408  1.00  0.00    -0.200 F 
ATOM     88  C   UNL A   1      48.174  27.329  35.331  1.00  0.00     0.200 A 
ATOM     89  F   UNL A   1      49.028  29.248  34.251  1.00  0.00    -0.200 F 
ATOM     90  F   UNL A   1      49.375  27.081  35.871  1.00  0.00    -0.200 F 
ENDBRANCH  57  80
ENDBRANCH  31  32
ENDBRANCH  24  26
ENDBRANCH  23  24
ENDBRANCH  22  23
ENDBRANCH   1  22
TORSDOF 15
ENDMDL
