MODEL 1
REMARK VINA RESULT:     -12.2      0.000      0.000
REMARK SMILES C[NH+]1CCC(C[N@H+](C)[C@H]2CC[C@]([NH3+])(C(=O)OCCOC(=O)c3ccc(-c4c5nc(c(-c6c(F)c(F)c(F)c(F)c6F)c6ccc([nH]6)c(-c6c(F)c(F)c(F)c(F)c6F)c6nc(c(-c7c(F)c(F)c(F)c(F)c7F)c7ccc4[nH]7)C=C6)C=C5)cc3)C2)CC1
REMARK SMILES IDX 17 1 16 2 14 3 15 4 12 5 9 6 10 7 85 8 11 9 7 10 8 11 6 13
REMARK SMILES IDX 5 14 1 15 2 16 3 17 87 18 4 20 86 21 13 22 18 26 19 27 20 28
REMARK SMILES IDX 21 29 22 30 23 31 84 32 24 33 83 34 25 35 26 36 27 37 77 38
REMARK SMILES IDX 28 39 82 40 76 41 78 42 29 43 81 44 75 45 74 46 30 48 62 49
REMARK SMILES IDX 42 50 61 51 43 52 46 53 60 54 79 55 44 56 45 57 59 59 80 60
REMARK SMILES IDX 47 61 31 62 32 63 40 64 33 65 34 66 38 67 41 68 35 69 36 70
REMARK SMILES IDX 39 71 37 72 63 73 64 74 72 75 65 76 66 77 70 78 73 79 67 80
REMARK SMILES IDX 68 81 71 82 69 83 48 84 49 85 57 86 50 87 51 88 55 89 58 90
REMARK SMILES IDX 52 91 53 92 56 93 54 94
REMARK H PARENT 7 12 2 19 13 23 13 24 13 25 78 47 46 58
REMARK Flexibility Score: inf
ROOT
ATOM      1  C   UNL A   1      31.026  29.589  24.430  1.00  0.00     0.274 C 
ENDROOT
BRANCH   1   2
ATOM      2  O   UNL A   1      31.678  28.911  23.342  1.00  0.00    -0.457 OA
BRANCH   2   3
ATOM      3  C   UNL A   1      30.924  27.992  22.657  1.00  0.00     0.368 C 
ATOM      4  O   UNL A   1      29.851  28.222  22.118  1.00  0.00    -0.245 OA
BRANCH   3   5
ATOM      5  C   UNL A   1      31.748  26.686  22.513  1.00  0.00     0.198 C 
ATOM      6  C   UNL A   1      32.358  24.681  23.873  1.00  0.00     0.191 C 
ATOM      7  C   UNL A   1      33.602  25.559  23.697  1.00  0.00     0.072 C 
ATOM      8  C   UNL A   1      31.172  25.486  23.294  1.00  0.00     0.145 C 
ATOM      9  C   UNL A   1      33.157  26.882  23.089  1.00  0.00     0.087 C 
BRANCH   6  10
ATOM     10  N   UNL A   1      32.637  23.270  23.496  1.00  0.00    -0.334 N 
ATOM     11  C   UNL A   1      33.609  23.223  22.391  1.00  0.00     0.332 C 
ATOM     12  H   UNL A   1      31.706  22.940  23.245  1.00  0.00     0.348 HD
BRANCH  10  13
ATOM     13  C   UNL A   1      33.073  22.316  24.535  1.00  0.00     0.266 C 
BRANCH  13  14
ATOM     14  C   UNL A   1      34.566  22.294  24.880  1.00  0.00     0.055 C 
ATOM     15  C   UNL A   1      38.641  21.865  25.767  1.00  0.00     0.332 C 
ATOM     16  N   UNL A   1      37.198  21.791  26.042  1.00  0.00    -0.337 N 
ATOM     17  C   UNL A   1      36.590  20.830  25.114  1.00  0.00     0.262 C 
ATOM     18  C   UNL A   1      36.606  23.141  25.990  1.00  0.00     0.262 C 
ATOM     19  H   UNL A   1      37.016  21.447  26.985  1.00  0.00     0.347 HD
ATOM     20  C   UNL A   1      35.062  20.863  25.119  1.00  0.00     0.071 C 
ATOM     21  C   UNL A   1      35.064  23.146  26.042  1.00  0.00     0.071 C 
ENDBRANCH  13  14
ENDBRANCH  10  13
ENDBRANCH   6  10
BRANCH   5  22
ATOM     22  N   UNL A   1      31.758  26.413  21.069  1.00  0.00    -0.343 N 
ATOM     23  H   UNL A   1      31.213  27.125  20.584  1.00  0.00     0.345 HD
ATOM     24  H   UNL A   1      31.351  25.494  20.893  1.00  0.00     0.345 HD
ATOM     25  H   UNL A   1      32.719  26.429  20.726  1.00  0.00     0.345 HD
ENDBRANCH   5  22
ENDBRANCH   3   5
ENDBRANCH   2   3
ENDBRANCH   1   2
BRANCH   1  26
ATOM     26  C   UNL A   1      31.773  29.255  25.726  1.00  0.00     0.275 C 
BRANCH  26  27
ATOM     27  O   UNL A   1      33.017  29.981  25.785  1.00  0.00    -0.458 OA
BRANCH  27  28
ATOM     28  C   UNL A   1      33.095  30.901  26.776  1.00  0.00     0.338 C 
ATOM     29  O   UNL A   1      32.242  31.736  27.057  1.00  0.00    -0.246 OA
BRANCH  28  30
ATOM     30  C   UNL A   1      34.384  30.814  27.508  1.00  0.00     0.060 A 
ATOM     31  C   UNL A   1      35.178  31.936  27.757  1.00  0.00     0.016 A 
ATOM     32  C   UNL A   1      34.850  29.553  27.892  1.00  0.00     0.016 A 
ATOM     33  C   UNL A   1      36.456  31.789  28.308  1.00  0.00     0.010 A 
ATOM     34  C   UNL A   1      36.080  29.425  28.550  1.00  0.00     0.010 A 
ATOM     35  C   UNL A   1      36.910  30.540  28.757  1.00  0.00    -0.014 A 
BRANCH  35  36
ATOM     36  C   UNL A   1      38.203  30.374  29.490  1.00  0.00     0.031 A 
ATOM     37  C   UNL A   1      39.293  29.491  28.938  1.00  0.00     0.074 A 
ATOM     38  C   UNL A   1      38.380  30.936  30.704  1.00  0.00     0.049 A 
ATOM     39  N   UNL A   1      40.314  28.945  29.553  1.00  0.00    -0.248 NA
ATOM     40  C   UNL A   1      39.214  29.167  27.506  1.00  0.00     0.031 C 
ATOM     41  C   UNL A   1      37.447  31.847  31.367  1.00  0.00     0.029 A 
ATOM     42  N   UNL A   1      39.403  30.794  31.615  1.00  0.00    -0.354 N 
ATOM     43  C   UNL A   1      40.961  28.165  28.601  1.00  0.00     0.074 A 
ATOM     44  C   UNL A   1      40.223  28.317  27.364  1.00  0.00     0.031 C 
ATOM     45  C   UNL A   1      37.936  32.187  32.567  1.00  0.00     0.029 A 
ATOM     46  C   UNL A   1      39.161  31.434  32.807  1.00  0.00     0.049 A 
ATOM     47  H   UNL A   1      40.225  30.284  31.431  1.00  0.00     0.167 HD
ATOM     48  C   UNL A   1      42.061  27.387  28.752  1.00  0.00     0.037 A 
ATOM     49  C   UNL A   1      39.796  31.372  33.993  1.00  0.00     0.037 A 
ATOM     50  C   UNL A   1      42.825  27.276  29.970  1.00  0.00     0.049 A 
ATOM     51  C   UNL A   1      40.988  30.477  34.153  1.00  0.00     0.074 A 
ATOM     52  C   UNL A   1      43.965  26.527  30.211  1.00  0.00     0.029 A 
ATOM     53  N   UNL A   1      42.536  27.948  31.148  1.00  0.00    -0.354 N 
ATOM     54  N   UNL A   1      41.546  29.681  33.275  1.00  0.00    -0.248 NA
ATOM     55  C   UNL A   1      41.626  30.454  35.477  1.00  0.00     0.031 C 
ATOM     56  C   UNL A   1      44.348  26.721  31.543  1.00  0.00     0.029 A 
ATOM     57  C   UNL A   1      43.472  27.625  32.120  1.00  0.00     0.049 A 
ATOM     58  H   UNL A   1      41.779  28.564  31.276  1.00  0.00     0.167 HD
ATOM     59  C   UNL A   1      42.604  29.072  33.933  1.00  0.00     0.074 A 
ATOM     60  C   UNL A   1      42.620  29.599  35.281  1.00  0.00     0.031 C 
ATOM     61  C   UNL A   1      43.482  28.155  33.458  1.00  0.00     0.037 A 
BRANCH  48  62
ATOM     62  C   UNL A   1      42.500  26.560  27.578  1.00  0.00     0.064 A 
ATOM     63  C   UNL A   1      43.515  26.984  26.707  1.00  0.00     0.173 A 
ATOM     64  C   UNL A   1      41.935  25.293  27.358  1.00  0.00     0.173 A 
ATOM     65  F   UNL A   1      44.082  28.188  26.869  1.00  0.00    -0.203 F 
ATOM     66  C   UNL A   1      43.933  26.180  25.649  1.00  0.00     0.198 A 
ATOM     67  C   UNL A   1      42.374  24.480  26.316  1.00  0.00     0.198 A 
ATOM     68  F   UNL A   1      40.969  24.834  28.168  1.00  0.00    -0.203 F 
ATOM     69  F   UNL A   1      44.879  26.620  24.809  1.00  0.00    -0.200 F 
ATOM     70  C   UNL A   1      43.367  24.926  25.458  1.00  0.00     0.200 A 
ATOM     71  F   UNL A   1      41.837  23.264  26.143  1.00  0.00    -0.200 F 
ATOM     72  F   UNL A   1      43.779  24.150  24.446  1.00  0.00    -0.200 F 
ENDBRANCH  48  62
BRANCH  49  73
ATOM     73  C   UNL A   1      39.259  32.146  35.142  1.00  0.00     0.064 A 
ATOM     74  C   UNL A   1      38.465  31.531  36.117  1.00  0.00     0.173 A 
ATOM     75  C   UNL A   1      39.573  33.503  35.310  1.00  0.00     0.173 A 
ATOM     76  F   UNL A   1      38.119  30.242  35.982  1.00  0.00    -0.203 F 
ATOM     77  C   UNL A   1      38.007  32.243  37.222  1.00  0.00     0.198 A 
ATOM     78  C   UNL A   1      39.139  34.208  36.431  1.00  0.00     0.198 A 
ATOM     79  F   UNL A   1      40.333  34.135  34.403  1.00  0.00    -0.203 F 
ATOM     80  F   UNL A   1      37.229  31.640  38.130  1.00  0.00    -0.200 F 
ATOM     81  C   UNL A   1      38.354  33.578  37.385  1.00  0.00     0.200 A 
ATOM     82  F   UNL A   1      39.492  35.490  36.592  1.00  0.00    -0.200 F 
ATOM     83  F   UNL A   1      37.932  34.256  38.459  1.00  0.00    -0.200 F 
ENDBRANCH  49  73
BRANCH  61  84
ATOM     84  C   UNL A   1      44.559  27.692  34.391  1.00  0.00     0.064 A 
ATOM     85  C   UNL A   1      45.772  28.385  34.516  1.00  0.00     0.173 A 
ATOM     86  C   UNL A   1      44.363  26.556  35.191  1.00  0.00     0.173 A 
ATOM     87  F   UNL A   1      46.011  29.465  33.758  1.00  0.00    -0.203 F 
ATOM     88  C   UNL A   1      46.758  27.945  35.394  1.00  0.00     0.198 A 
ATOM     89  C   UNL A   1      45.343  26.132  36.084  1.00  0.00     0.198 A 
ATOM     90  F   UNL A   1      43.219  25.860  35.108  1.00  0.00    -0.203 F 
ATOM     91  F   UNL A   1      47.926  28.598  35.469  1.00  0.00    -0.200 F 
ATOM     92  C   UNL A   1      46.541  26.824  36.181  1.00  0.00     0.200 A 
ATOM     93  F   UNL A   1      45.130  25.053  36.848  1.00  0.00    -0.200 F 
ATOM     94  F   UNL A   1      47.492  26.403  37.028  1.00  0.00    -0.200 F 
ENDBRANCH  61  84
ENDBRANCH  35  36
ENDBRANCH  28  30
ENDBRANCH  27  28
ENDBRANCH  26  27
ENDBRANCH   1  26
TORSDOF 15
ENDMDL
MODEL 2
REMARK VINA RESULT:     -12.0      0.514      1.708
REMARK SMILES C[NH+]1CCC(C[N@H+](C)[C@H]2CC[C@]([NH3+])(C(=O)OCCOC(=O)c3ccc(-c4c5nc(c(-c6c(F)c(F)c(F)c(F)c6F)c6ccc([nH]6)c(-c6c(F)c(F)c(F)c(F)c6F)c6nc(c(-c7c(F)c(F)c(F)c(F)c7F)c7ccc4[nH]7)C=C6)C=C5)cc3)C2)CC1
REMARK SMILES IDX 17 1 16 2 14 3 15 4 12 5 9 6 10 7 85 8 11 9 7 10 8 11 6 13
REMARK SMILES IDX 5 14 1 15 2 16 3 17 87 18 4 20 86 21 13 22 18 26 19 27 20 28
REMARK SMILES IDX 21 29 22 30 23 31 84 32 24 33 83 34 25 35 26 36 27 37 77 38
REMARK SMILES IDX 28 39 82 40 76 41 78 42 29 43 81 44 75 45 74 46 30 48 62 49
REMARK SMILES IDX 42 50 61 51 43 52 46 53 60 54 79 55 44 56 45 57 59 59 80 60
REMARK SMILES IDX 47 61 31 62 32 63 40 64 33 65 34 66 38 67 41 68 35 69 36 70
REMARK SMILES IDX 39 71 37 72 63 73 64 74 72 75 65 76 66 77 70 78 73 79 67 80
REMARK SMILES IDX 68 81 71 82 69 83 48 84 49 85 57 86 50 87 51 88 55 89 58 90
REMARK SMILES IDX 52 91 53 92 56 93 54 94
REMARK H PARENT 7 12 2 19 13 23 13 24 13 25 78 47 46 58
REMARK Flexibility Score: inf
ROOT
ATOM      1  C   UNL A   1      31.116  29.327  24.498  1.00  0.00     0.274 C 
ENDROOT
BRANCH   1   2
ATOM      2  O   UNL A   1      30.588  28.058  24.077  1.00  0.00    -0.457 OA
BRANCH   2   3
ATOM      3  C   UNL A   1      30.772  27.728  22.759  1.00  0.00     0.368 C 
ATOM      4  O   UNL A   1      30.295  28.331  21.807  1.00  0.00    -0.245 OA
BRANCH   3   5
ATOM      5  C   UNL A   1      31.834  26.601  22.676  1.00  0.00     0.198 C 
ATOM      6  C   UNL A   1      32.976  24.970  24.185  1.00  0.00     0.191 C 
ATOM      7  C   UNL A   1      33.986  26.040  23.754  1.00  0.00     0.072 C 
ATOM      8  C   UNL A   1      31.598  25.437  23.661  1.00  0.00     0.145 C 
ATOM      9  C   UNL A   1      33.218  27.148  23.048  1.00  0.00     0.087 C 
BRANCH   6  10
ATOM     10  N   UNL A   1      33.509  23.601  23.952  1.00  0.00    -0.334 N 
ATOM     11  C   UNL A   1      32.489  22.766  23.296  1.00  0.00     0.332 C 
ATOM     12  H   UNL A   1      33.737  23.309  24.901  1.00  0.00     0.348 HD
BRANCH  10  13
ATOM     13  C   UNL A   1      34.781  23.434  23.223  1.00  0.00     0.266 C 
BRANCH  13  14
ATOM     14  C   UNL A   1      36.013  23.052  24.049  1.00  0.00     0.055 C 
ATOM     15  C   UNL A   1      39.282  21.650  26.269  1.00  0.00     0.332 C 
ATOM     16  N   UNL A   1      37.874  22.012  26.046  1.00  0.00    -0.337 N 
ATOM     17  C   UNL A   1      37.320  21.136  25.006  1.00  0.00     0.262 C 
ATOM     18  C   UNL A   1      37.767  23.452  25.746  1.00  0.00     0.262 C 
ATOM     19  H   UNL A   1      37.314  21.864  26.886  1.00  0.00     0.347 HD
ATOM     20  C   UNL A   1      35.952  21.586  24.497  1.00  0.00     0.071 C 
ATOM     21  C   UNL A   1      36.362  23.886  25.277  1.00  0.00     0.071 C 
ENDBRANCH  13  14
ENDBRANCH  10  13
ENDBRANCH   6  10
BRANCH   5  22
ATOM     22  N   UNL A   1      31.766  26.130  21.285  1.00  0.00    -0.343 N 
ATOM     23  H   UNL A   1      31.924  25.123  21.258  1.00  0.00     0.345 HD
ATOM     24  H   UNL A   1      32.481  26.601  20.730  1.00  0.00     0.345 HD
ATOM     25  H   UNL A   1      30.845  26.339  20.900  1.00  0.00     0.345 HD
ENDBRANCH   5  22
ENDBRANCH   3   5
ENDBRANCH   2   3
ENDBRANCH   1   2
BRANCH   1  26
ATOM     26  C   UNL A   1      31.811  29.138  25.851  1.00  0.00     0.275 C 
BRANCH  26  27
ATOM     27  O   UNL A   1      33.063  29.854  25.871  1.00  0.00    -0.458 OA
BRANCH  27  28
ATOM     28  C   UNL A   1      33.155  30.814  26.822  1.00  0.00     0.338 C 
ATOM     29  O   UNL A   1      32.325  31.685  27.055  1.00  0.00    -0.246 OA
BRANCH  28  30
ATOM     30  C   UNL A   1      34.432  30.722  27.575  1.00  0.00     0.060 A 
ATOM     31  C   UNL A   1      35.245  31.834  27.804  1.00  0.00     0.016 A 
ATOM     32  C   UNL A   1      34.868  29.463  27.999  1.00  0.00     0.016 A 
ATOM     33  C   UNL A   1      36.513  31.678  28.376  1.00  0.00     0.010 A 
ATOM     34  C   UNL A   1      36.086  29.329  28.677  1.00  0.00     0.010 A 
ATOM     35  C   UNL A   1      36.935  30.432  28.866  1.00  0.00    -0.014 A 
BRANCH  35  36
ATOM     36  C   UNL A   1      38.215  30.261  29.621  1.00  0.00     0.031 A 
ATOM     37  C   UNL A   1      39.314  29.380  29.084  1.00  0.00     0.074 A 
ATOM     38  C   UNL A   1      38.371  30.816  30.842  1.00  0.00     0.049 A 
ATOM     39  N   UNL A   1      40.324  28.830  29.714  1.00  0.00    -0.248 NA
ATOM     40  C   UNL A   1      39.261  29.065  27.649  1.00  0.00     0.031 C 
ATOM     41  C   UNL A   1      37.426  31.723  31.493  1.00  0.00     0.029 A 
ATOM     42  N   UNL A   1      39.376  30.667  31.770  1.00  0.00    -0.354 N 
ATOM     43  C   UNL A   1      40.987  28.055  28.770  1.00  0.00     0.074 A 
ATOM     44  C   UNL A   1      40.272  28.215  27.520  1.00  0.00     0.031 C 
ATOM     45  C   UNL A   1      37.893  32.056  32.703  1.00  0.00     0.029 A 
ATOM     46  C   UNL A   1      39.113  31.300  32.961  1.00  0.00     0.049 A 
ATOM     47  H   UNL A   1      40.201  30.158  31.598  1.00  0.00     0.167 HD
ATOM     48  C   UNL A   1      42.084  27.275  28.935  1.00  0.00     0.037 A 
ATOM     49  C   UNL A   1      39.727  31.232  34.158  1.00  0.00     0.037 A 
ATOM     50  C   UNL A   1      42.826  27.157  30.166  1.00  0.00     0.049 A 
ATOM     51  C   UNL A   1      40.915  30.334  34.335  1.00  0.00     0.074 A 
ATOM     52  C   UNL A   1      43.961  26.406  30.424  1.00  0.00     0.029 A 
ATOM     53  N   UNL A   1      42.516  27.822  31.343  1.00  0.00    -0.354 N 
ATOM     54  N   UNL A   1      41.488  29.543  33.462  1.00  0.00    -0.248 NA
ATOM     55  C   UNL A   1      41.529  30.304  35.669  1.00  0.00     0.031 C 
ATOM     56  C   UNL A   1      44.319  26.591  31.764  1.00  0.00     0.029 A 
ATOM     57  C   UNL A   1      43.433  27.492  32.330  1.00  0.00     0.049 A 
ATOM     58  H   UNL A   1      41.756  28.438  31.460  1.00  0.00     0.167 HD
ATOM     59  C   UNL A   1      42.534  28.929  34.136  1.00  0.00     0.074 A 
ATOM     60  C   UNL A   1      42.526  29.449  35.487  1.00  0.00     0.031 C 
ATOM     61  C   UNL A   1      43.419  28.015  33.671  1.00  0.00     0.037 A 
BRANCH  48  62
ATOM     62  C   UNL A   1      42.544  26.454  27.765  1.00  0.00     0.064 A 
ATOM     63  C   UNL A   1      42.017  25.182  27.496  1.00  0.00     0.173 A 
ATOM     64  C   UNL A   1      43.484  26.979  26.863  1.00  0.00     0.173 A 
ATOM     65  F   UNL A   1      41.122  24.634  28.330  1.00  0.00    -0.203 F 
ATOM     66  C   UNL A   1      42.431  24.457  26.381  1.00  0.00     0.198 A 
ATOM     67  C   UNL A   1      43.875  26.263  25.734  1.00  0.00     0.198 A 
ATOM     68  F   UNL A   1      44.010  28.196  27.066  1.00  0.00    -0.203 F 
ATOM     69  F   UNL A   1      41.941  23.229  26.163  1.00  0.00    -0.200 F 
ATOM     70  C   UNL A   1      43.353  25.000  25.497  1.00  0.00     0.200 A 
ATOM     71  F   UNL A   1      44.754  26.796  24.874  1.00  0.00    -0.200 F 
ATOM     72  F   UNL A   1      43.740  24.306  24.418  1.00  0.00    -0.200 F 
ENDBRANCH  48  62
BRANCH  49  73
ATOM     73  C   UNL A   1      39.169  31.999  35.301  1.00  0.00     0.064 A 
ATOM     74  C   UNL A   1      38.380  31.373  36.273  1.00  0.00     0.173 A 
ATOM     75  C   UNL A   1      39.459  33.362  35.468  1.00  0.00     0.173 A 
ATOM     76  F   UNL A   1      38.056  30.078  36.139  1.00  0.00    -0.203 F 
ATOM     77  C   UNL A   1      37.902  32.081  37.373  1.00  0.00     0.198 A 
ATOM     78  C   UNL A   1      39.006  34.062  36.584  1.00  0.00     0.198 A 
ATOM     79  F   UNL A   1      40.215  34.004  34.564  1.00  0.00    -0.203 F 
ATOM     80  F   UNL A   1      37.129  31.466  38.278  1.00  0.00    -0.200 F 
ATOM     81  C   UNL A   1      38.226  33.421  37.535  1.00  0.00     0.200 A 
ATOM     82  F   UNL A   1      39.337  35.350  36.744  1.00  0.00    -0.200 F 
ATOM     83  F   UNL A   1      37.786  34.095  38.605  1.00  0.00    -0.200 F 
ENDBRANCH  49  73
BRANCH  61  84
ATOM     84  C   UNL A   1      44.479  27.545  34.621  1.00  0.00     0.064 A 
ATOM     85  C   UNL A   1      44.303  26.398  35.409  1.00  0.00     0.173 A 
ATOM     86  C   UNL A   1      45.696  28.234  34.722  1.00  0.00     0.173 A 
ATOM     87  F   UNL A   1      43.148  25.717  35.360  1.00  0.00    -0.203 F 
ATOM     88  C   UNL A   1      45.302  25.971  36.280  1.00  0.00     0.198 A 
ATOM     89  C   UNL A   1      46.701  27.791  35.577  1.00  0.00     0.198 A 
ATOM     90  F   UNL A   1      45.912  29.336  33.988  1.00  0.00    -0.203 F 
ATOM     91  F   UNL A   1      45.098  24.896  37.054  1.00  0.00    -0.200 F 
ATOM     92  C   UNL A   1      46.500  26.663  36.359  1.00  0.00     0.200 A 
ATOM     93  F   UNL A   1      47.861  28.457  35.649  1.00  0.00    -0.200 F 
ATOM     94  F   UNL A   1      47.462  26.248  37.197  1.00  0.00    -0.200 F 
ENDBRANCH  61  84
ENDBRANCH  35  36
ENDBRANCH  28  30
ENDBRANCH  27  28
ENDBRANCH  26  27
ENDBRANCH   1  26
TORSDOF 15
ENDMDL
MODEL 3
REMARK VINA RESULT:     -11.9      1.383      2.234
REMARK SMILES C[NH+]1CCC(C[N@H+](C)[C@H]2CC[C@]([NH3+])(C(=O)OCCOC(=O)c3ccc(-c4c5nc(c(-c6c(F)c(F)c(F)c(F)c6F)c6ccc([nH]6)c(-c6c(F)c(F)c(F)c(F)c6F)c6nc(c(-c7c(F)c(F)c(F)c(F)c7F)c7ccc4[nH]7)C=C6)C=C5)cc3)C2)CC1
REMARK SMILES IDX 17 1 16 2 14 3 15 4 12 5 9 6 10 7 85 8 11 9 7 10 8 11 6 13
REMARK SMILES IDX 5 14 1 15 2 16 3 17 87 18 4 20 86 21 13 22 18 26 19 27 20 28
REMARK SMILES IDX 21 29 22 30 23 31 84 32 24 33 83 34 25 35 26 36 27 37 77 38
REMARK SMILES IDX 28 39 82 40 76 41 78 42 29 43 81 44 75 45 74 46 30 48 62 49
REMARK SMILES IDX 42 50 61 51 43 52 46 53 60 54 79 55 44 56 45 57 59 59 80 60
REMARK SMILES IDX 47 61 31 62 32 63 40 64 33 65 34 66 38 67 41 68 35 69 36 70
REMARK SMILES IDX 39 71 37 72 63 73 64 74 72 75 65 76 66 77 70 78 73 79 67 80
REMARK SMILES IDX 68 81 71 82 69 83 48 84 49 85 57 86 50 87 51 88 55 89 58 90
REMARK SMILES IDX 52 91 53 92 56 93 54 94
REMARK H PARENT 7 12 2 19 13 23 13 24 13 25 78 47 46 58
REMARK Flexibility Score: inf
ROOT
ATOM      1  C   UNL A   1      31.857  28.331  24.600  1.00  0.00     0.274 C 
ENDROOT
BRANCH   1   2
ATOM      2  O   UNL A   1      30.758  27.512  25.030  1.00  0.00    -0.457 OA
BRANCH   2   3
ATOM      3  C   UNL A   1      31.014  26.637  26.055  1.00  0.00     0.368 C 
ATOM      4  O   UNL A   1      31.142  26.947  27.231  1.00  0.00    -0.245 OA
BRANCH   3   5
ATOM      5  C   UNL A   1      30.914  25.190  25.506  1.00  0.00     0.198 C 
ATOM      6  C   UNL A   1      32.223  23.624  24.066  1.00  0.00     0.191 C 
ATOM      7  C   UNL A   1      30.967  24.066  23.306  1.00  0.00     0.072 C 
ATOM      8  C   UNL A   1      32.274  24.476  25.355  1.00  0.00     0.145 C 
ATOM      9  C   UNL A   1      30.322  25.199  24.091  1.00  0.00     0.087 C 
BRANCH   6  10
ATOM     10  N   UNL A   1      32.357  22.143  24.070  1.00  0.00    -0.334 N 
ATOM     11  C   UNL A   1      32.105  21.608  22.722  1.00  0.00     0.332 C 
ATOM     12  H   UNL A   1      31.654  21.879  24.760  1.00  0.00     0.348 HD
BRANCH  10  13
ATOM     13  C   UNL A   1      33.596  21.530  24.586  1.00  0.00     0.266 C 
BRANCH  13  14
ATOM     14  C   UNL A   1      33.657  19.999  24.619  1.00  0.00     0.055 C 
ATOM     15  C   UNL A   1      33.529  15.821  24.942  1.00  0.00     0.332 C 
ATOM     16  N   UNL A   1      33.840  17.188  25.388  1.00  0.00    -0.337 N 
ATOM     17  C   UNL A   1      32.584  17.930  25.548  1.00  0.00     0.262 C 
ATOM     18  C   UNL A   1      34.800  17.813  24.459  1.00  0.00     0.262 C 
ATOM     19  H   UNL A   1      34.300  17.186  26.298  1.00  0.00     0.347 HD
ATOM     20  C   UNL A   1      32.786  19.431  25.747  1.00  0.00     0.071 C 
ATOM     21  C   UNL A   1      35.018  19.320  24.712  1.00  0.00     0.071 C 
ENDBRANCH  13  14
ENDBRANCH  10  13
ENDBRANCH   6  10
BRANCH   5  22
ATOM     22  N   UNL A   1      30.060  24.486  26.474  1.00  0.00    -0.343 N 
ATOM     23  H   UNL A   1      30.301  23.495  26.483  1.00  0.00     0.345 HD
ATOM     24  H   UNL A   1      29.081  24.595  26.206  1.00  0.00     0.345 HD
ATOM     25  H   UNL A   1      30.203  24.879  27.404  1.00  0.00     0.345 HD
ENDBRANCH   5  22
ENDBRANCH   3   5
ENDBRANCH   2   3
ENDBRANCH   1   2
BRANCH   1  26
ATOM     26  C   UNL A   1      31.795  29.663  25.357  1.00  0.00     0.275 C 
BRANCH  26  27
ATOM     27  O   UNL A   1      33.119  30.065  25.765  1.00  0.00    -0.458 OA
BRANCH  27  28
ATOM     28  C   UNL A   1      33.156  30.930  26.806  1.00  0.00     0.338 C 
ATOM     29  O   UNL A   1      32.276  31.724  27.120  1.00  0.00    -0.246 OA
BRANCH  28  30
ATOM     30  C   UNL A   1      34.438  30.841  27.551  1.00  0.00     0.060 A 
ATOM     31  C   UNL A   1      35.237  31.959  27.799  1.00  0.00     0.016 A 
ATOM     32  C   UNL A   1      34.892  29.579  27.949  1.00  0.00     0.016 A 
ATOM     33  C   UNL A   1      36.509  31.808  28.363  1.00  0.00     0.010 A 
ATOM     34  C   UNL A   1      36.115  29.448  28.618  1.00  0.00     0.010 A 
ATOM     35  C   UNL A   1      36.950  30.559  28.826  1.00  0.00    -0.014 A 
BRANCH  35  36
ATOM     36  C   UNL A   1      38.236  30.389  29.572  1.00  0.00     0.031 A 
ATOM     37  C   UNL A   1      39.324  29.493  29.037  1.00  0.00     0.074 A 
ATOM     38  C   UNL A   1      38.407  30.962  30.782  1.00  0.00     0.049 A 
ATOM     39  N   UNL A   1      40.335  28.945  29.667  1.00  0.00    -0.248 NA
ATOM     40  C   UNL A   1      39.255  29.157  27.608  1.00  0.00     0.031 C 
ATOM     41  C   UNL A   1      37.474  31.886  31.428  1.00  0.00     0.029 A 
ATOM     42  N   UNL A   1      39.420  30.820  31.703  1.00  0.00    -0.354 N 
ATOM     43  C   UNL A   1      40.984  28.152  28.728  1.00  0.00     0.074 A 
ATOM     44  C   UNL A   1      40.259  28.297  27.483  1.00  0.00     0.031 C 
ATOM     45  C   UNL A   1      37.955  32.233  32.629  1.00  0.00     0.029 A 
ATOM     46  C   UNL A   1      39.172  31.473  32.887  1.00  0.00     0.049 A 
ATOM     47  H   UNL A   1      40.239  30.303  31.531  1.00  0.00     0.167 HD
ATOM     48  C   UNL A   1      42.077  27.366  28.896  1.00  0.00     0.037 A 
ATOM     49  C   UNL A   1      39.796  31.418  34.079  1.00  0.00     0.037 A 
ATOM     50  C   UNL A   1      42.830  27.261  30.121  1.00  0.00     0.049 A 
ATOM     51  C   UNL A   1      40.980  30.514  34.258  1.00  0.00     0.074 A 
ATOM     52  C   UNL A   1      43.961  26.506  30.380  1.00  0.00     0.029 A 
ATOM     53  N   UNL A   1      42.535  27.946  31.291  1.00  0.00    -0.354 N 
ATOM     54  N   UNL A   1      41.539  29.706  33.392  1.00  0.00    -0.248 NA
ATOM     55  C   UNL A   1      41.606  30.500  35.588  1.00  0.00     0.031 C 
ATOM     56  C   UNL A   1      44.333  26.709  31.714  1.00  0.00     0.029 A 
ATOM     57  C   UNL A   1      43.459  27.625  32.274  1.00  0.00     0.049 A 
ATOM     58  H   UNL A   1      41.781  28.569  31.406  1.00  0.00     0.167 HD
ATOM     59  C   UNL A   1      42.587  29.095  34.066  1.00  0.00     0.074 A 
ATOM     60  C   UNL A   1      42.595  29.635  35.409  1.00  0.00     0.031 C 
ATOM     61  C   UNL A   1      43.461  28.168  33.607  1.00  0.00     0.037 A 
BRANCH  48  62
ATOM     62  C   UNL A   1      42.520  26.525  27.733  1.00  0.00     0.064 A 
ATOM     63  C   UNL A   1      41.956  25.269  27.467  1.00  0.00     0.173 A 
ATOM     64  C   UNL A   1      43.484  27.014  26.836  1.00  0.00     0.173 A 
ATOM     65  F   UNL A   1      41.037  24.753  28.297  1.00  0.00    -0.203 F 
ATOM     66  C   UNL A   1      42.356  24.524  26.359  1.00  0.00     0.198 A 
ATOM     67  C   UNL A   1      43.861  26.280  25.715  1.00  0.00     0.198 A 
ATOM     68  F   UNL A   1      44.047  28.215  27.037  1.00  0.00    -0.203 F 
ATOM     69  F   UNL A   1      41.828  23.311  26.144  1.00  0.00    -0.200 F 
ATOM     70  C   UNL A   1      43.302  25.033  25.480  1.00  0.00     0.200 A 
ATOM     71  F   UNL A   1      44.764  26.779  24.860  1.00  0.00    -0.200 F 
ATOM     72  F   UNL A   1      43.675  24.320  24.409  1.00  0.00    -0.200 F 
ENDBRANCH  48  62
BRANCH  49  73
ATOM     73  C   UNL A   1      39.255  32.206  35.216  1.00  0.00     0.064 A 
ATOM     74  C   UNL A   1      38.470  31.600  36.204  1.00  0.00     0.173 A 
ATOM     75  C   UNL A   1      39.556  33.570  35.359  1.00  0.00     0.173 A 
ATOM     76  F   UNL A   1      38.137  30.306  36.094  1.00  0.00    -0.203 F 
ATOM     77  C   UNL A   1      38.008  32.328  37.298  1.00  0.00     0.198 A 
ATOM     78  C   UNL A   1      39.118  34.289  36.468  1.00  0.00     0.198 A 
ATOM     79  F   UNL A   1      40.307  34.193  34.439  1.00  0.00    -0.203 F 
ATOM     80  F   UNL A   1      37.239  31.733  38.220  1.00  0.00    -0.200 F 
ATOM     81  C   UNL A   1      38.343  33.668  37.436  1.00  0.00     0.200 A 
ATOM     82  F   UNL A   1      39.459  35.577  36.605  1.00  0.00    -0.200 F 
ATOM     83  F   UNL A   1      37.917  34.361  38.500  1.00  0.00    -0.200 F 
ENDBRANCH  49  73
BRANCH  61  84
ATOM     84  C   UNL A   1      44.527  27.704  34.554  1.00  0.00     0.064 A 
ATOM     85  C   UNL A   1      45.745  28.388  34.680  1.00  0.00     0.173 A 
ATOM     86  C   UNL A   1      44.314  26.580  35.365  1.00  0.00     0.173 A 
ATOM     87  F   UNL A   1      46.001  29.457  33.912  1.00  0.00    -0.203 F 
ATOM     88  C   UNL A   1      46.720  27.948  35.572  1.00  0.00     0.198 A 
ATOM     89  C   UNL A   1      45.282  26.157  36.271  1.00  0.00     0.198 A 
ATOM     90  F   UNL A   1      43.164  25.895  35.282  1.00  0.00    -0.203 F 
ATOM     91  F   UNL A   1      47.894  28.591  35.649  1.00  0.00    -0.200 F 
ATOM     92  C   UNL A   1      46.486  26.839  36.370  1.00  0.00     0.200 A 
ATOM     93  F   UNL A   1      45.052  25.089  37.046  1.00  0.00    -0.200 F 
ATOM     94  F   UNL A   1      47.426  26.418  37.229  1.00  0.00    -0.200 F 
ENDBRANCH  61  84
ENDBRANCH  35  36
ENDBRANCH  28  30
ENDBRANCH  27  28
ENDBRANCH  26  27
ENDBRANCH   1  26
TORSDOF 15
ENDMDL
