MODEL 1
REMARK VINA RESULT:     -12.4      0.000      0.000
REMARK SMILES O=C(OCCOC(=O)c1cccc(Br)c1O[C@@H]1CCOC2(CCC2)C1)c1ccc(-c2c3nc(c(-c4c(F)c(F)c(F)c(F)c4F)c4ccc([nH]4)c(-c4c(F)c(F)c(F)c(F)c4F)c4nc(c(-c5c(F)c(F)c(F)c(F)c5F)c5ccc2[nH]5)C=C4)C=C3)cc1
REMARK SMILES IDX 4 1 3 2 2 3 1 4 26 5 27 6 88 7 28 8 87 9 29 10 30 11 31 12
REMARK SMILES IDX 81 13 32 14 86 15 80 16 82 17 33 18 85 19 79 20 78 21 34 23
REMARK SMILES IDX 66 24 46 25 65 26 47 27 50 28 64 29 83 30 48 31 49 32 63 34
REMARK SMILES IDX 84 35 51 36 35 37 36 38 44 39 37 40 38 41 42 42 45 43 39 44
REMARK SMILES IDX 40 45 43 46 41 47 67 48 68 49 76 50 69 51 70 52 74 53 77 54
REMARK SMILES IDX 71 55 72 56 75 57 73 58 52 59 53 60 61 61 54 62 55 63 59 64
REMARK SMILES IDX 62 65 56 66 57 67 60 68 58 69 5 70 6 71 7 72 8 73 9 74 10 75
REMARK SMILES IDX 15 76 11 77 13 78 12 79 14 80 16 81 17 82 18 83 25 84 19 85
REMARK SMILES IDX 21 86 20 87 22 88 24 89 23 90
REMARK H PARENT 82 22 50 33
REMARK Flexibility Score: inf
ROOT
ATOM      1  C   UNL A   1      32.002  32.904  26.513  1.00  0.00     0.275 C 
ENDROOT
BRANCH   1   2
ATOM      2  O   UNL A   1      32.152  33.733  27.668  1.00  0.00    -0.458 OA
BRANCH   2   3
ATOM      3  C   UNL A   1      33.281  34.264  28.180  1.00  0.00     0.338 C 
ATOM      4  O   UNL A   1      33.301  35.479  28.382  1.00  0.00    -0.246 OA
BRANCH   3   5
ATOM      5  C   UNL A   1      34.540  33.491  28.494  1.00  0.00     0.060 A 
ATOM      6  C   UNL A   1      35.879  33.849  28.284  1.00  0.00     0.016 A 
ATOM      7  C   UNL A   1      34.324  32.278  29.144  1.00  0.00     0.016 A 
ATOM      8  C   UNL A   1      36.951  33.088  28.791  1.00  0.00     0.010 A 
ATOM      9  C   UNL A   1      35.384  31.547  29.678  1.00  0.00     0.010 A 
ATOM     10  C   UNL A   1      36.722  31.956  29.564  1.00  0.00    -0.014 A 
BRANCH  10  11
ATOM     11  C   UNL A   1      37.829  31.180  30.223  1.00  0.00     0.031 A 
ATOM     12  C   UNL A   1      38.192  31.504  31.650  1.00  0.00     0.074 A 
ATOM     13  C   UNL A   1      38.599  30.292  29.549  1.00  0.00     0.049 A 
ATOM     14  N   UNL A   1      39.257  31.179  32.339  1.00  0.00    -0.248 NA
ATOM     15  C   UNL A   1      37.270  32.395  32.374  1.00  0.00     0.031 C 
ATOM     16  C   UNL A   1      38.445  29.905  28.145  1.00  0.00     0.029 A 
ATOM     17  N   UNL A   1      39.704  29.570  29.951  1.00  0.00    -0.354 N 
ATOM     18  C   UNL A   1      39.151  31.888  33.528  1.00  0.00     0.074 A 
ATOM     19  C   UNL A   1      38.021  32.775  33.393  1.00  0.00     0.031 C 
ATOM     20  C   UNL A   1      39.408  29.030  27.805  1.00  0.00     0.029 A 
ATOM     21  C   UNL A   1      40.269  28.799  28.957  1.00  0.00     0.049 A 
ATOM     22  H   UNL A   1      40.060  29.603  30.869  1.00  0.00     0.167 HD
ATOM     23  C   UNL A   1      39.853  31.744  34.676  1.00  0.00     0.037 A 
ATOM     24  C   UNL A   1      41.354  27.995  28.971  1.00  0.00     0.037 A 
ATOM     25  C   UNL A   1      40.870  30.751  34.865  1.00  0.00     0.049 A 
ATOM     26  C   UNL A   1      42.112  27.818  30.265  1.00  0.00     0.074 A 
ATOM     27  C   UNL A   1      41.530  30.405  36.028  1.00  0.00     0.029 A 
ATOM     28  N   UNL A   1      41.351  29.925  33.862  1.00  0.00    -0.354 N 
ATOM     29  N   UNL A   1      41.914  28.397  31.423  1.00  0.00    -0.248 NA
ATOM     30  C   UNL A   1      43.221  26.851  30.264  1.00  0.00     0.031 C 
ATOM     31  C   UNL A   1      42.439  29.388  35.721  1.00  0.00     0.029 A 
ATOM     32  C   UNL A   1      42.311  29.073  34.378  1.00  0.00     0.049 A 
ATOM     33  H   UNL A   1      41.053  29.941  32.923  1.00  0.00     0.167 HD
ATOM     34  C   UNL A   1      42.830  27.826  32.298  1.00  0.00     0.074 A 
ATOM     35  C   UNL A   1      43.585  26.853  31.539  1.00  0.00     0.031 C 
ATOM     36  C   UNL A   1      43.020  28.079  33.615  1.00  0.00     0.037 A 
BRANCH  23  37
ATOM     37  C   UNL A   1      39.472  32.631  35.829  1.00  0.00     0.064 A 
ATOM     38  C   UNL A   1      40.099  33.870  36.045  1.00  0.00     0.173 A 
ATOM     39  C   UNL A   1      38.490  32.228  36.744  1.00  0.00     0.173 A 
ATOM     40  F   UNL A   1      41.050  34.304  35.201  1.00  0.00    -0.203 F 
ATOM     41  C   UNL A   1      39.816  34.632  37.174  1.00  0.00     0.198 A 
ATOM     42  C   UNL A   1      38.173  33.019  37.847  1.00  0.00     0.198 A 
ATOM     43  F   UNL A   1      37.845  31.064  36.578  1.00  0.00    -0.203 F 
ATOM     44  F   UNL A   1      40.506  35.756  37.408  1.00  0.00    -0.200 F 
ATOM     45  C   UNL A   1      38.851  34.208  38.071  1.00  0.00     0.200 A 
ATOM     46  F   UNL A   1      37.224  32.619  38.704  1.00  0.00    -0.200 F 
ATOM     47  F   UNL A   1      38.582  34.940  39.161  1.00  0.00    -0.200 F 
ENDBRANCH  23  37
BRANCH  24  48
ATOM     48  C   UNL A   1      41.775  27.243  27.753  1.00  0.00     0.064 A 
ATOM     49  C   UNL A   1      41.290  25.950  27.500  1.00  0.00     0.173 A 
ATOM     50  C   UNL A   1      42.716  27.766  26.852  1.00  0.00     0.173 A 
ATOM     51  F   UNL A   1      40.404  25.394  28.339  1.00  0.00    -0.203 F 
ATOM     52  C   UNL A   1      41.763  25.193  26.428  1.00  0.00     0.198 A 
ATOM     53  C   UNL A   1      43.167  27.018  25.763  1.00  0.00     0.198 A 
ATOM     54  F   UNL A   1      43.204  29.001  27.032  1.00  0.00    -0.203 F 
ATOM     55  F   UNL A   1      41.329  23.937  26.255  1.00  0.00    -0.200 F 
ATOM     56  C   UNL A   1      42.700  25.727  25.560  1.00  0.00     0.200 A 
ATOM     57  F   UNL A   1      44.064  27.542  24.916  1.00  0.00    -0.200 F 
ATOM     58  F   UNL A   1      43.164  24.995  24.536  1.00  0.00    -0.200 F 
ENDBRANCH  24  48
BRANCH  36  59
ATOM     59  C   UNL A   1      44.032  27.249  34.350  1.00  0.00     0.064 A 
ATOM     60  C   UNL A   1      45.345  27.695  34.552  1.00  0.00     0.173 A 
ATOM     61  C   UNL A   1      43.648  26.034  34.939  1.00  0.00     0.173 A 
ATOM     62  F   UNL A   1      45.762  28.842  33.994  1.00  0.00    -0.203 F 
ATOM     63  C   UNL A   1      46.242  26.948  35.311  1.00  0.00     0.198 A 
ATOM     64  C   UNL A   1      44.537  25.309  35.725  1.00  0.00     0.198 A 
ATOM     65  F   UNL A   1      42.400  25.568  34.779  1.00  0.00    -0.203 F 
ATOM     66  F   UNL A   1      47.502  27.375  35.465  1.00  0.00    -0.200 F 
ATOM     67  C   UNL A   1      45.833  25.764  35.908  1.00  0.00     0.200 A 
ATOM     68  F   UNL A   1      44.133  24.176  36.317  1.00  0.00    -0.200 F 
ATOM     69  F   UNL A   1      46.690  25.062  36.661  1.00  0.00    -0.200 F 
ENDBRANCH  36  59
ENDBRANCH  10  11
ENDBRANCH   3   5
ENDBRANCH   2   3
ENDBRANCH   1   2
BRANCH   1  70
ATOM     70  C   UNL A   1      31.707  31.444  26.876  1.00  0.00     0.275 C 
BRANCH  70  71
ATOM     71  O   UNL A   1      32.251  30.506  25.927  1.00  0.00    -0.458 OA
BRANCH  71  72
ATOM     72  C   UNL A   1      31.794  29.220  25.998  1.00  0.00     0.342 C 
ATOM     73  O   UNL A   1      31.836  28.503  26.977  1.00  0.00    -0.246 OA
BRANCH  72  74
ATOM     74  C   UNL A   1      31.271  28.823  24.658  1.00  0.00     0.103 A 
ATOM     75  C   UNL A   1      30.214  29.562  24.139  1.00  0.00     0.020 A 
ATOM     76  C   UNL A   1      31.868  27.792  23.880  1.00  0.00     0.148 A 
ATOM     77  C   UNL A   1      29.753  29.287  22.868  1.00  0.00     0.002 A 
ATOM     78  C   UNL A   1      31.458  27.404  22.505  1.00  0.00     0.060 A 
ATOM     79  C   UNL A   1      30.332  28.267  22.088  1.00  0.00     0.019 A 
ATOM     80  Br  UNL A   1      32.729  25.599  21.142  1.00  0.00    -0.047 Br
BRANCH  76  81
ATOM     81  O   UNL A   1      32.918  27.146  24.454  1.00  0.00    -0.488 OA
BRANCH  81  82
ATOM     82  C   UNL A   1      32.431  25.880  24.154  1.00  0.00     0.178 C 
ATOM     83  C   UNL A   1      31.264  25.480  25.660  1.00  0.00     0.074 C 
ATOM     84  C   UNL A   1      34.061  24.860  23.874  1.00  0.00     0.080 C 
ATOM     85  C   UNL A   1      31.804  24.075  26.857  1.00  0.00     0.165 C 
ATOM     86  C   UNL A   1      34.501  23.520  25.168  1.00  0.00     0.072 C 
ATOM     87  O   UNL A   1      33.325  23.133  26.487  1.00  0.00    -0.375 OA
ATOM     88  C   UNL A   1      35.049  22.154  24.544  1.00  0.00     0.036 C 
ATOM     89  C   UNL A   1      36.002  23.719  25.570  1.00  0.00     0.036 C 
ATOM     90  C   UNL A   1      36.182  22.213  25.589  1.00  0.00     0.006 C 
ENDBRANCH  81  82
ENDBRANCH  76  81
ENDBRANCH  72  74
ENDBRANCH  71  72
ENDBRANCH  70  71
ENDBRANCH   1  70
TORSDOF 13
ENDMDL
MODEL 2
REMARK VINA RESULT:     -12.1      4.433     10.559
REMARK SMILES O=C(OCCOC(=O)c1cccc(Br)c1O[C@@H]1CCOC2(CCC2)C1)c1ccc(-c2c3nc(c(-c4c(F)c(F)c(F)c(F)c4F)c4ccc([nH]4)c(-c4c(F)c(F)c(F)c(F)c4F)c4nc(c(-c5c(F)c(F)c(F)c(F)c5F)c5ccc2[nH]5)C=C4)C=C3)cc1
REMARK SMILES IDX 4 1 3 2 2 3 1 4 26 5 27 6 88 7 28 8 87 9 29 10 30 11 31 12
REMARK SMILES IDX 81 13 32 14 86 15 80 16 82 17 33 18 85 19 79 20 78 21 34 23
REMARK SMILES IDX 66 24 46 25 65 26 47 27 50 28 64 29 83 30 48 31 49 32 63 34
REMARK SMILES IDX 84 35 51 36 35 37 36 38 44 39 37 40 38 41 42 42 45 43 39 44
REMARK SMILES IDX 40 45 43 46 41 47 67 48 68 49 76 50 69 51 70 52 74 53 77 54
REMARK SMILES IDX 71 55 72 56 75 57 73 58 52 59 53 60 61 61 54 62 55 63 59 64
REMARK SMILES IDX 62 65 56 66 57 67 60 68 58 69 5 70 6 71 7 72 8 73 9 74 10 75
REMARK SMILES IDX 15 76 11 77 13 78 12 79 14 80 16 81 17 82 18 83 25 84 19 85
REMARK SMILES IDX 21 86 20 87 22 88 24 89 23 90
REMARK H PARENT 82 22 50 33
REMARK Flexibility Score: inf
ROOT
ATOM      1  C   UNL A   1      38.898  19.424  25.477  1.00  0.00     0.275 C 
ENDROOT
BRANCH   1   2
ATOM      2  O   UNL A   1      39.852  20.455  25.748  1.00  0.00    -0.458 OA
BRANCH   2   3
ATOM      3  C   UNL A   1      40.469  20.744  26.912  1.00  0.00     0.338 C 
ATOM      4  O   UNL A   1      40.778  19.801  27.643  1.00  0.00    -0.246 OA
BRANCH   3   5
ATOM      5  C   UNL A   1      40.780  22.134  27.410  1.00  0.00     0.060 A 
ATOM      6  C   UNL A   1      41.708  22.547  28.374  1.00  0.00     0.016 A 
ATOM      7  C   UNL A   1      40.079  23.148  26.760  1.00  0.00     0.016 A 
ATOM      8  C   UNL A   1      42.002  23.906  28.605  1.00  0.00     0.010 A 
ATOM      9  C   UNL A   1      40.398  24.490  26.962  1.00  0.00     0.010 A 
ATOM     10  C   UNL A   1      41.403  24.906  27.849  1.00  0.00    -0.014 A 
BRANCH  10  11
ATOM     11  C   UNL A   1      41.771  26.358  27.978  1.00  0.00     0.031 A 
ATOM     12  C   UNL A   1      43.106  26.819  27.450  1.00  0.00     0.074 A 
ATOM     13  C   UNL A   1      41.009  27.245  28.664  1.00  0.00     0.049 A 
ATOM     14  N   UNL A   1      43.758  27.931  27.677  1.00  0.00    -0.248 NA
ATOM     15  C   UNL A   1      43.853  25.854  26.628  1.00  0.00     0.031 C 
ATOM     16  C   UNL A   1      39.722  26.966  29.305  1.00  0.00     0.029 A 
ATOM     17  N   UNL A   1      41.227  28.573  28.969  1.00  0.00    -0.354 N 
ATOM     18  C   UNL A   1      45.002  27.750  27.087  1.00  0.00     0.074 A 
ATOM     19  C   UNL A   1      45.066  26.376  26.650  1.00  0.00     0.031 C 
ATOM     20  C   UNL A   1      39.272  28.072  29.923  1.00  0.00     0.029 A 
ATOM     21  C   UNL A   1      40.240  29.145  29.744  1.00  0.00     0.049 A 
ATOM     22  H   UNL A   1      42.019  29.071  28.660  1.00  0.00     0.167 HD
ATOM     23  C   UNL A   1      45.967  28.662  26.825  1.00  0.00     0.037 A 
ATOM     24  C   UNL A   1      40.126  30.391  30.251  1.00  0.00     0.037 A 
ATOM     25  C   UNL A   1      45.837  30.060  27.114  1.00  0.00     0.049 A 
ATOM     26  C   UNL A   1      41.192  31.410  29.928  1.00  0.00     0.074 A 
ATOM     27  C   UNL A   1      46.673  31.097  26.748  1.00  0.00     0.029 A 
ATOM     28  N   UNL A   1      44.781  30.617  27.817  1.00  0.00    -0.354 N 
ATOM     29  N   UNL A   1      42.303  31.255  29.250  1.00  0.00    -0.248 NA
ATOM     30  C   UNL A   1      40.975  32.784  30.410  1.00  0.00     0.031 C 
ATOM     31  C   UNL A   1      46.140  32.283  27.262  1.00  0.00     0.029 A 
ATOM     32  C   UNL A   1      44.949  31.987  27.907  1.00  0.00     0.049 A 
ATOM     33  H   UNL A   1      44.024  30.113  28.196  1.00  0.00     0.167 HD
ATOM     34  C   UNL A   1      42.884  32.515  29.174  1.00  0.00     0.074 A 
ATOM     35  C   UNL A   1      42.004  33.425  29.875  1.00  0.00     0.031 C 
ATOM     36  C   UNL A   1      44.039  32.884  28.570  1.00  0.00     0.037 A 
BRANCH  23  37
ATOM     37  C   UNL A   1      47.201  28.172  26.119  1.00  0.00     0.064 A 
ATOM     38  C   UNL A   1      47.218  27.954  24.731  1.00  0.00     0.173 A 
ATOM     39  C   UNL A   1      48.371  27.892  26.839  1.00  0.00     0.173 A 
ATOM     40  F   UNL A   1      46.124  28.203  23.993  1.00  0.00    -0.203 F 
ATOM     41  C   UNL A   1      48.329  27.398  24.104  1.00  0.00     0.198 A 
ATOM     42  C   UNL A   1      49.499  27.383  26.199  1.00  0.00     0.198 A 
ATOM     43  F   UNL A   1      48.419  28.098  28.163  1.00  0.00    -0.203 F 
ATOM     44  F   UNL A   1      48.278  27.103  22.799  1.00  0.00    -0.200 F 
ATOM     45  C   UNL A   1      49.470  27.117  24.837  1.00  0.00     0.200 A 
ATOM     46  F   UNL A   1      50.610  27.130  26.904  1.00  0.00    -0.200 F 
ATOM     47  F   UNL A   1      50.537  26.578  24.234  1.00  0.00    -0.200 F 
ENDBRANCH  23  37
BRANCH  24  48
ATOM     48  C   UNL A   1      38.943  30.788  31.070  1.00  0.00     0.064 A 
ATOM     49  C   UNL A   1      37.822  31.389  30.475  1.00  0.00     0.173 A 
ATOM     50  C   UNL A   1      38.928  30.638  32.466  1.00  0.00     0.173 A 
ATOM     51  F   UNL A   1      37.791  31.573  29.147  1.00  0.00    -0.203 F 
ATOM     52  C   UNL A   1      36.760  31.867  31.242  1.00  0.00     0.198 A 
ATOM     53  C   UNL A   1      37.852  31.091  33.230  1.00  0.00     0.198 A 
ATOM     54  F   UNL A   1      39.963  30.058  33.090  1.00  0.00    -0.203 F 
ATOM     55  F   UNL A   1      35.737  32.496  30.648  1.00  0.00    -0.200 F 
ATOM     56  C   UNL A   1      36.775  31.718  32.619  1.00  0.00     0.200 A 
ATOM     57  F   UNL A   1      37.862  30.934  34.561  1.00  0.00    -0.200 F 
ATOM     58  F   UNL A   1      35.760  32.188  33.358  1.00  0.00    -0.200 F 
ENDBRANCH  24  48
BRANCH  36  59
ATOM     59  C   UNL A   1      44.394  34.342  28.567  1.00  0.00     0.064 A 
ATOM     60  C   UNL A   1      43.882  35.224  27.607  1.00  0.00     0.173 A 
ATOM     61  C   UNL A   1      45.183  34.873  29.600  1.00  0.00     0.173 A 
ATOM     62  F   UNL A   1      43.138  34.760  26.592  1.00  0.00    -0.203 F 
ATOM     63  C   UNL A   1      44.155  36.588  27.675  1.00  0.00     0.198 A 
ATOM     64  C   UNL A   1      45.424  36.240  29.684  1.00  0.00     0.198 A 
ATOM     65  F   UNL A   1      45.690  34.069  30.547  1.00  0.00    -0.203 F 
ATOM     66  F   UNL A   1      43.684  37.411  26.729  1.00  0.00    -0.200 F 
ATOM     67  C   UNL A   1      44.913  37.096  28.721  1.00  0.00     0.200 A 
ATOM     68  F   UNL A   1      46.139  36.730  30.707  1.00  0.00    -0.200 F 
ATOM     69  F   UNL A   1      45.150  38.412  28.799  1.00  0.00    -0.200 F 
ENDBRANCH  36  59
ENDBRANCH  10  11
ENDBRANCH   3   5
ENDBRANCH   2   3
ENDBRANCH   1   2
BRANCH   1  70
ATOM     70  C   UNL A   1      37.695  19.936  24.678  1.00  0.00     0.275 C 
BRANCH  70  71
ATOM     71  O   UNL A   1      36.943  20.947  25.375  1.00  0.00    -0.458 OA
BRANCH  71  72
ATOM     72  C   UNL A   1      36.109  21.726  24.623  1.00  0.00     0.342 C 
ATOM     73  O   UNL A   1      36.445  22.661  23.926  1.00  0.00    -0.246 OA
BRANCH  72  74
ATOM     74  C   UNL A   1      34.705  21.264  24.833  1.00  0.00     0.103 A 
ATOM     75  C   UNL A   1      34.428  19.925  24.582  1.00  0.00     0.020 A 
ATOM     76  C   UNL A   1      33.691  22.116  25.353  1.00  0.00     0.148 A 
ATOM     77  C   UNL A   1      33.165  19.434  24.844  1.00  0.00     0.002 A 
ATOM     78  C   UNL A   1      32.299  21.703  25.670  1.00  0.00     0.060 A 
ATOM     79  C   UNL A   1      32.150  20.266  25.355  1.00  0.00     0.019 A 
ATOM     80  Br  UNL A   1      30.589  23.327  26.751  1.00  0.00    -0.047 Br
BRANCH  76  81
ATOM     81  O   UNL A   1      34.062  23.401  25.599  1.00  0.00    -0.488 OA
BRANCH  81  82
ATOM     82  C   UNL A   1      32.932  23.947  25.002  1.00  0.00     0.178 C 
ATOM     83  C   UNL A   1      33.434  24.074  23.126  1.00  0.00     0.074 C 
ATOM     84  C   UNL A   1      32.638  25.554  26.054  1.00  0.00     0.080 C 
ATOM     85  C   UNL A   1      33.655  25.832  22.380  1.00  0.00     0.165 C 
ATOM     86  C   UNL A   1      32.937  27.240  25.197  1.00  0.00     0.072 C 
ATOM     87  O   UNL A   1      33.306  27.289  23.427  1.00  0.00    -0.375 OA
ATOM     88  C   UNL A   1      31.838  28.353  25.529  1.00  0.00     0.036 C 
ATOM     89  C   UNL A   1      33.830  28.106  26.149  1.00  0.00     0.036 C 
ATOM     90  C   UNL A   1      33.005  29.328  25.787  1.00  0.00     0.006 C 
ENDBRANCH  81  82
ENDBRANCH  76  81
ENDBRANCH  72  74
ENDBRANCH  71  72
ENDBRANCH  70  71
ENDBRANCH   1  70
TORSDOF 13
ENDMDL
MODEL 3
REMARK VINA RESULT:     -12.1      0.911      7.486
REMARK SMILES O=C(OCCOC(=O)c1cccc(Br)c1O[C@@H]1CCOC2(CCC2)C1)c1ccc(-c2c3nc(c(-c4c(F)c(F)c(F)c(F)c4F)c4ccc([nH]4)c(-c4c(F)c(F)c(F)c(F)c4F)c4nc(c(-c5c(F)c(F)c(F)c(F)c5F)c5ccc2[nH]5)C=C4)C=C3)cc1
REMARK SMILES IDX 4 1 3 2 2 3 1 4 26 5 27 6 88 7 28 8 87 9 29 10 30 11 31 12
REMARK SMILES IDX 81 13 32 14 86 15 80 16 82 17 33 18 85 19 79 20 78 21 34 23
REMARK SMILES IDX 66 24 46 25 65 26 47 27 50 28 64 29 83 30 48 31 49 32 63 34
REMARK SMILES IDX 84 35 51 36 35 37 36 38 44 39 37 40 38 41 42 42 45 43 39 44
REMARK SMILES IDX 40 45 43 46 41 47 67 48 68 49 76 50 69 51 70 52 74 53 77 54
REMARK SMILES IDX 71 55 72 56 75 57 73 58 52 59 53 60 61 61 54 62 55 63 59 64
REMARK SMILES IDX 62 65 56 66 57 67 60 68 58 69 5 70 6 71 7 72 8 73 9 74 10 75
REMARK SMILES IDX 15 76 11 77 13 78 12 79 14 80 16 81 17 82 18 83 25 84 19 85
REMARK SMILES IDX 21 86 20 87 22 88 24 89 23 90
REMARK H PARENT 82 22 50 33
REMARK Flexibility Score: inf
ROOT
ATOM      1  C   UNL A   1      32.162  32.916  26.536  1.00  0.00     0.275 C 
ENDROOT
BRANCH   1   2
ATOM      2  O   UNL A   1      31.941  33.827  27.616  1.00  0.00    -0.458 OA
BRANCH   2   3
ATOM      3  C   UNL A   1      32.853  34.454  28.386  1.00  0.00     0.338 C 
ATOM      4  O   UNL A   1      32.599  35.604  28.751  1.00  0.00    -0.246 OA
BRANCH   3   5
ATOM      5  C   UNL A   1      34.180  33.874  28.809  1.00  0.00     0.060 A 
ATOM      6  C   UNL A   1      35.470  34.400  28.658  1.00  0.00     0.016 A 
ATOM      7  C   UNL A   1      34.087  32.672  29.507  1.00  0.00     0.016 A 
ATOM      8  C   UNL A   1      36.600  33.813  29.262  1.00  0.00     0.010 A 
ATOM      9  C   UNL A   1      35.198  32.114  30.137  1.00  0.00     0.010 A 
ATOM     10  C   UNL A   1      36.475  32.696  30.078  1.00  0.00    -0.014 A 
BRANCH  10  11
ATOM     11  C   UNL A   1      37.631  32.106  30.837  1.00  0.00     0.031 A 
ATOM     12  C   UNL A   1      38.454  31.024  30.182  1.00  0.00     0.074 A 
ATOM     13  C   UNL A   1      37.886  32.412  32.132  1.00  0.00     0.049 A 
ATOM     14  N   UNL A   1      39.308  30.185  30.711  1.00  0.00    -0.248 NA
ATOM     15  C   UNL A   1      38.210  30.795  28.749  1.00  0.00     0.031 C 
ATOM     16  C   UNL A   1      37.154  33.380  32.951  1.00  0.00     0.029 A 
ATOM     17  N   UNL A   1      38.824  31.909  33.010  1.00  0.00    -0.354 N 
ATOM     18  C   UNL A   1      39.630  29.302  29.689  1.00  0.00     0.074 A 
ATOM     19  C   UNL A   1      38.760  29.605  28.579  1.00  0.00     0.031 C 
ATOM     20  C   UNL A   1      37.660  33.398  34.198  1.00  0.00     0.029 A 
ATOM     21  C   UNL A   1      38.746  32.431  34.283  1.00  0.00     0.049 A 
ATOM     22  H   UNL A   1      39.493  31.234  32.750  1.00  0.00     0.167 HD
ATOM     23  C   UNL A   1      40.630  28.392  29.626  1.00  0.00     0.037 A 
ATOM     24  C   UNL A   1      39.467  32.164  35.394  1.00  0.00     0.037 A 
ATOM     25  C   UNL A   1      41.596  28.203  30.668  1.00  0.00     0.049 A 
ATOM     26  C   UNL A   1      40.600  31.171  35.305  1.00  0.00     0.074 A 
ATOM     27  C   UNL A   1      42.744  27.434  30.649  1.00  0.00     0.029 A 
ATOM     28  N   UNL A   1      41.539  28.818  31.908  1.00  0.00    -0.354 N 
ATOM     29  N   UNL A   1      40.979  30.440  34.287  1.00  0.00    -0.248 NA
ATOM     30  C   UNL A   1      41.428  30.991  36.509  1.00  0.00     0.031 C 
ATOM     31  C   UNL A   1      43.365  27.556  31.895  1.00  0.00     0.029 A 
ATOM     32  C   UNL A   1      42.628  28.436  32.671  1.00  0.00     0.049 A 
ATOM     33  H   UNL A   1      40.829  29.435  32.202  1.00  0.00     0.167 HD
ATOM     34  C   UNL A   1      42.116  29.761  34.704  1.00  0.00     0.074 A 
ATOM     35  C   UNL A   1      42.369  30.166  36.070  1.00  0.00     0.031 C 
ATOM     36  C   UNL A   1      42.887  28.886  34.014  1.00  0.00     0.037 A 
BRANCH  23  37
ATOM     37  C   UNL A   1      40.764  27.607  28.351  1.00  0.00     0.064 A 
ATOM     38  C   UNL A   1      40.139  26.359  28.185  1.00  0.00     0.173 A 
ATOM     39  C   UNL A   1      41.547  28.091  27.294  1.00  0.00     0.173 A 
ATOM     40  F   UNL A   1      39.380  25.846  29.167  1.00  0.00    -0.203 F 
ATOM     41  C   UNL A   1      40.358  25.592  27.045  1.00  0.00     0.198 A 
ATOM     42  C   UNL A   1      41.722  27.342  26.132  1.00  0.00     0.198 A 
ATOM     43  F   UNL A   1      42.152  29.284  27.389  1.00  0.00    -0.203 F 
ATOM     44  F   UNL A   1      39.834  24.362  26.960  1.00  0.00    -0.200 F 
ATOM     45  C   UNL A   1      41.145  26.085  26.018  1.00  0.00     0.200 A 
ATOM     46  F   UNL A   1      42.467  27.828  25.130  1.00  0.00    -0.200 F 
ATOM     47  F   UNL A   1      41.359  25.344  24.923  1.00  0.00    -0.200 F 
ENDBRANCH  23  37
BRANCH  24  48
ATOM     48  C   UNL A   1      39.198  32.874  36.679  1.00  0.00     0.064 A 
ATOM     49  C   UNL A   1      38.306  32.342  37.624  1.00  0.00     0.173 A 
ATOM     50  C   UNL A   1      39.770  34.123  36.965  1.00  0.00     0.173 A 
ATOM     51  F   UNL A   1      37.717  31.160  37.394  1.00  0.00    -0.203 F 
ATOM     52  C   UNL A   1      37.960  33.049  38.776  1.00  0.00     0.198 A 
ATOM     53  C   UNL A   1      39.444  34.817  38.132  1.00  0.00     0.198 A 
ATOM     54  F   UNL A   1      40.641  34.676  36.109  1.00  0.00    -0.203 F 
ATOM     55  F   UNL A   1      37.054  32.542  39.623  1.00  0.00    -0.200 F 
ATOM     56  C   UNL A   1      38.529  34.286  39.029  1.00  0.00     0.200 A 
ATOM     57  F   UNL A   1      40.007  36.008  38.382  1.00  0.00    -0.200 F 
ATOM     58  F   UNL A   1      38.188  34.971  40.130  1.00  0.00    -0.200 F 
ENDBRANCH  24  48
BRANCH  36  59
ATOM     59  C   UNL A   1      44.120  28.357  34.685  1.00  0.00     0.064 A 
ATOM     60  C   UNL A   1      44.116  27.143  35.384  1.00  0.00     0.173 A 
ATOM     61  C   UNL A   1      45.342  29.033  34.541  1.00  0.00     0.173 A 
ATOM     62  F   UNL A   1      42.970  26.470  35.563  1.00  0.00    -0.203 F 
ATOM     63  C   UNL A   1      45.292  26.629  35.925  1.00  0.00     0.198 A 
ATOM     64  C   UNL A   1      46.520  28.499  35.052  1.00  0.00     0.198 A 
ATOM     65  F   UNL A   1      45.398  30.196  33.874  1.00  0.00    -0.203 F 
ATOM     66  F   UNL A   1      45.262  25.483  36.619  1.00  0.00    -0.200 F 
ATOM     67  C   UNL A   1      46.494  27.299  35.745  1.00  0.00     0.200 A 
ATOM     68  F   UNL A   1      47.682  29.138  34.859  1.00  0.00    -0.200 F 
ATOM     69  F   UNL A   1      47.627  26.787  36.242  1.00  0.00    -0.200 F 
ENDBRANCH  36  59
ENDBRANCH  10  11
ENDBRANCH   3   5
ENDBRANCH   2   3
ENDBRANCH   1   2
BRANCH   1  70
ATOM     70  C   UNL A   1      31.773  31.478  26.896  1.00  0.00     0.275 C 
BRANCH  70  71
ATOM     71  O   UNL A   1      32.359  30.498  26.016  1.00  0.00    -0.458 OA
BRANCH  71  72
ATOM     72  C   UNL A   1      31.861  29.227  26.088  1.00  0.00     0.342 C 
ATOM     73  O   UNL A   1      31.875  28.512  27.068  1.00  0.00    -0.246 OA
BRANCH  72  74
ATOM     74  C   UNL A   1      31.331  28.845  24.746  1.00  0.00     0.103 A 
ATOM     75  C   UNL A   1      30.279  29.596  24.235  1.00  0.00     0.020 A 
ATOM     76  C   UNL A   1      31.918  27.814  23.959  1.00  0.00     0.148 A 
ATOM     77  C   UNL A   1      29.814  29.334  22.962  1.00  0.00     0.002 A 
ATOM     78  C   UNL A   1      31.501  27.440  22.583  1.00  0.00     0.060 A 
ATOM     79  C   UNL A   1      30.383  28.314  22.174  1.00  0.00     0.019 A 
ATOM     80  Br  UNL A   1      32.755  25.634  21.204  1.00  0.00    -0.047 Br
BRANCH  76  81
ATOM     81  O   UNL A   1      32.963  27.155  24.527  1.00  0.00    -0.488 OA
BRANCH  81  82
ATOM     82  C   UNL A   1      32.473  25.896  24.205  1.00  0.00     0.178 C 
ATOM     83  C   UNL A   1      31.272  25.492  25.682  1.00  0.00     0.074 C 
ATOM     84  C   UNL A   1      34.101  24.865  23.950  1.00  0.00     0.080 C 
ATOM     85  C   UNL A   1      31.775  24.072  26.878  1.00  0.00     0.165 C 
ATOM     86  C   UNL A   1      34.503  23.510  25.241  1.00  0.00     0.072 C 
ATOM     87  O   UNL A   1      33.297  23.121  26.532  1.00  0.00    -0.375 OA
ATOM     88  C   UNL A   1      35.053  22.145  24.616  1.00  0.00     0.036 C 
ATOM     89  C   UNL A   1      35.996  23.694  25.675  1.00  0.00     0.036 C 
ATOM     90  C   UNL A   1      36.165  22.186  25.684  1.00  0.00     0.006 C 
ENDBRANCH  81  82
ENDBRANCH  76  81
ENDBRANCH  72  74
ENDBRANCH  71  72
ENDBRANCH  70  71
ENDBRANCH   1  70
TORSDOF 13
ENDMDL
