MODEL 1
REMARK VINA RESULT:     -12.0      0.000      0.000
REMARK SMILES CCn1cc(C(=O)/C=C/c2cccc(O[C@H](C)C(=O)OCCOC(=O)c3ccc(-c4c5nc(c(-c6c(F)c(F)c(F)c(F)c6F)c6ccc([nH]6)c(-c6c(F)c(F)c(F)c(F)c6F)c6nc(c(-c7c(F)c(F)c(F)c(F)c7F)c7ccc4[nH]7)C=C6)C=C5)cc3)c2)cn1
REMARK SMILES IDX 18 1 19 2 16 3 17 4 15 5 14 6 10 7 11 8 89 9 12 10 13 11
REMARK SMILES IDX 9 12 8 13 6 14 7 15 5 16 3 17 4 18 91 19 90 20 2 21 1 22
REMARK SMILES IDX 20 23 21 24 22 25 23 26 24 27 25 28 26 29 27 30 88 31 28 32
REMARK SMILES IDX 87 33 29 34 30 35 31 36 81 37 32 38 86 39 80 40 82 41 33 42
REMARK SMILES IDX 85 43 79 44 78 45 34 47 66 48 46 49 65 50 47 51 50 52 64 53
REMARK SMILES IDX 83 54 48 55 49 56 63 58 84 59 51 60 35 61 36 62 44 63 37 64
REMARK SMILES IDX 38 65 42 66 45 67 39 68 40 69 43 70 41 71 67 72 68 73 76 74
REMARK SMILES IDX 69 75 70 76 74 77 77 78 71 79 72 80 75 81 73 82 52 83 53 84
REMARK SMILES IDX 61 85 54 86 55 87 59 88 62 89 56 90 57 91 60 92 58 93
REMARK H PARENT 82 46 50 57
REMARK Flexibility Score: inf
ROOT
ATOM      1  C   UNL A   1      38.943  21.938  26.000  1.00  0.00     0.347 C 
ATOM      2  O   UNL A   1      39.013  23.042  26.537  1.00  0.00    -0.248 OA
ENDROOT
BRANCH   1   3
ATOM      3  C   UNL A   1      37.703  21.467  25.236  1.00  0.00     0.279 C 
ATOM      4  C   UNL A   1      37.813  19.970  24.927  1.00  0.00     0.066 C 
BRANCH   3   5
ATOM      5  O   UNL A   1      36.386  21.764  25.717  1.00  0.00    -0.479 OA
BRANCH   5   6
ATOM      6  C   UNL A   1      35.547  22.568  24.999  1.00  0.00     0.121 A 
ATOM      7  C   UNL A   1      34.505  24.753  24.833  1.00  0.00    -0.022 A 
ATOM      8  C   UNL A   1      34.029  24.416  23.558  1.00  0.00     0.008 A 
ATOM      9  C   UNL A   1      35.325  23.845  25.520  1.00  0.00     0.054 A 
ATOM     10  C   UNL A   1      34.164  23.124  23.086  1.00  0.00     0.004 A 
ATOM     11  C   UNL A   1      34.827  22.188  23.868  1.00  0.00     0.046 A 
BRANCH   7  12
ATOM     12  C   UNL A   1      33.879  25.936  25.436  1.00  0.00     0.012 C 
ATOM     13  C   UNL A   1      32.774  25.998  26.188  1.00  0.00     0.053 C 
BRANCH  13  14
ATOM     14  C   UNL A   1      32.050  27.260  26.522  1.00  0.00     0.189 C 
ATOM     15  O   UNL A   1      31.981  27.598  27.701  1.00  0.00    -0.289 OA
BRANCH  14  16
ATOM     16  C   UNL A   1      31.391  28.025  25.463  1.00  0.00     0.060 A 
ATOM     17  N   UNL A   1      30.300  28.784  23.688  1.00  0.00    -0.272 N 
ATOM     18  C   UNL A   1      30.626  27.644  24.371  1.00  0.00     0.120 A 
ATOM     19  N   UNL A   1      30.721  29.900  24.299  1.00  0.00    -0.181 NA
ATOM     20  C   UNL A   1      31.365  29.442  25.377  1.00  0.00     0.147 A 
BRANCH  17  21
ATOM     21  C   UNL A   1      29.639  28.860  22.397  1.00  0.00     0.141 C 
ATOM     22  C   UNL A   1      29.585  30.273  21.842  1.00  0.00     0.029 C 
ENDBRANCH  17  21
ENDBRANCH  14  16
ENDBRANCH  13  14
ENDBRANCH   7  12
ENDBRANCH   5   6
ENDBRANCH   3   5
ENDBRANCH   1   3
BRANCH   1  23
ATOM     23  O   UNL A   1      39.860  20.933  26.151  1.00  0.00    -0.459 OA
BRANCH  23  24
ATOM     24  C   UNL A   1      40.968  21.174  27.040  1.00  0.00     0.274 C 
BRANCH  24  25
ATOM     25  C   UNL A   1      42.171  20.302  26.724  1.00  0.00     0.275 C 
BRANCH  25  26
ATOM     26  O   UNL A   1      42.636  20.597  25.416  1.00  0.00    -0.458 OA
BRANCH  26  27
ATOM     27  C   UNL A   1      43.981  20.679  25.292  1.00  0.00     0.338 C 
ATOM     28  O   UNL A   1      44.788  19.769  25.331  1.00  0.00    -0.246 OA
BRANCH  27  29
ATOM     29  C   UNL A   1      44.354  22.093  25.221  1.00  0.00     0.060 A 
ATOM     30  C   UNL A   1      45.344  22.495  26.119  1.00  0.00     0.016 A 
ATOM     31  C   UNL A   1      43.443  22.985  24.643  1.00  0.00     0.016 A 
ATOM     32  C   UNL A   1      45.190  23.722  26.708  1.00  0.00     0.010 A 
ATOM     33  C   UNL A   1      43.269  24.191  25.255  1.00  0.00     0.010 A 
ATOM     34  C   UNL A   1      44.072  24.481  26.353  1.00  0.00    -0.014 A 
BRANCH  34  35
ATOM     35  C   UNL A   1      43.791  25.669  27.111  1.00  0.00     0.031 A 
ATOM     36  C   UNL A   1      44.766  26.731  26.822  1.00  0.00     0.074 A 
ATOM     37  C   UNL A   1      42.700  25.785  27.887  1.00  0.00     0.049 A 
ATOM     38  N   UNL A   1      45.723  27.136  27.585  1.00  0.00    -0.248 NA
ATOM     39  C   UNL A   1      44.835  27.227  25.439  1.00  0.00     0.031 C 
ATOM     40  C   UNL A   1      41.548  24.889  28.001  1.00  0.00     0.029 A 
ATOM     41  N   UNL A   1      42.362  26.823  28.693  1.00  0.00    -0.354 N 
ATOM     42  C   UNL A   1      46.381  28.108  26.844  1.00  0.00     0.074 A 
ATOM     43  C   UNL A   1      45.964  27.933  25.480  1.00  0.00     0.031 C 
ATOM     44  C   UNL A   1      40.546  25.535  28.646  1.00  0.00     0.029 A 
ATOM     45  C   UNL A   1      41.035  26.826  29.100  1.00  0.00     0.049 A 
ATOM     46  H   UNL A   1      43.005  27.517  28.965  1.00  0.00     0.167 HD
ATOM     47  C   UNL A   1      46.949  29.172  27.467  1.00  0.00     0.037 A 
ATOM     48  C   UNL A   1      40.406  27.884  29.671  1.00  0.00     0.037 A 
ATOM     49  C   UNL A   1      47.165  28.894  28.868  1.00  0.00     0.049 A 
ATOM     50  C   UNL A   1      41.468  28.787  30.203  1.00  0.00     0.074 A 
ATOM     51  C   UNL A   1      47.875  27.930  29.560  1.00  0.00     0.029 A 
ATOM     52  N   UNL A   1      46.276  29.420  29.774  1.00  0.00    -0.354 N 
ATOM     53  N   UNL A   1      42.248  28.474  31.202  1.00  0.00    -0.248 NA
ATOM     54  C   UNL A   1      41.987  29.814  29.307  1.00  0.00     0.031 C 
ATOM     55  C   UNL A   1      47.058  27.596  30.680  1.00  0.00     0.029 A 
ATOM     56  C   UNL A   1      45.934  28.421  30.652  1.00  0.00     0.049 A 
ATOM     57  H   UNL A   1      45.943  30.346  29.791  1.00  0.00     0.167 HD
ATOM     58  C   UNL A   1      43.505  28.932  30.830  1.00  0.00     0.074 A 
ATOM     59  C   UNL A   1      43.270  29.805  29.682  1.00  0.00     0.031 C 
ATOM     60  C   UNL A   1      44.640  28.328  31.289  1.00  0.00     0.037 A 
BRANCH  47  61
ATOM     61  C   UNL A   1      46.900  30.574  26.910  1.00  0.00     0.064 A 
ATOM     62  C   UNL A   1      48.075  31.348  26.944  1.00  0.00     0.173 A 
ATOM     63  C   UNL A   1      45.713  31.287  26.623  1.00  0.00     0.173 A 
ATOM     64  F   UNL A   1      49.258  30.780  27.218  1.00  0.00    -0.203 F 
ATOM     65  C   UNL A   1      48.046  32.736  26.798  1.00  0.00     0.198 A 
ATOM     66  C   UNL A   1      45.696  32.663  26.421  1.00  0.00     0.198 A 
ATOM     67  F   UNL A   1      44.501  30.721  26.637  1.00  0.00    -0.203 F 
ATOM     68  F   UNL A   1      49.168  33.444  26.977  1.00  0.00    -0.200 F 
ATOM     69  C   UNL A   1      46.856  33.393  26.545  1.00  0.00     0.200 A 
ATOM     70  F   UNL A   1      44.528  33.280  26.192  1.00  0.00    -0.200 F 
ATOM     71  F   UNL A   1      46.816  34.730  26.471  1.00  0.00    -0.200 F 
ENDBRANCH  47  61
BRANCH  48  72
ATOM     72  C   UNL A   1      39.015  28.346  29.442  1.00  0.00     0.064 A 
ATOM     73  C   UNL A   1      38.143  28.572  30.520  1.00  0.00     0.173 A 
ATOM     74  C   UNL A   1      38.602  28.844  28.190  1.00  0.00     0.173 A 
ATOM     75  F   UNL A   1      38.482  28.174  31.755  1.00  0.00    -0.203 F 
ATOM     76  C   UNL A   1      36.943  29.275  30.360  1.00  0.00     0.198 A 
ATOM     77  C   UNL A   1      37.402  29.540  28.031  1.00  0.00     0.198 A 
ATOM     78  F   UNL A   1      39.397  28.755  27.115  1.00  0.00    -0.203 F 
ATOM     79  F   UNL A   1      36.168  29.526  31.424  1.00  0.00    -0.200 F 
ATOM     80  C   UNL A   1      36.579  29.767  29.117  1.00  0.00     0.200 A 
ATOM     81  F   UNL A   1      37.082  30.044  26.830  1.00  0.00    -0.200 F 
ATOM     82  F   UNL A   1      35.462  30.494  28.975  1.00  0.00    -0.200 F 
ENDBRANCH  48  72
BRANCH  60  83
ATOM     83  C   UNL A   1      44.502  27.319  32.397  1.00  0.00     0.064 A 
ATOM     84  C   UNL A   1      44.290  25.944  32.191  1.00  0.00     0.173 A 
ATOM     85  C   UNL A   1      44.746  27.742  33.710  1.00  0.00     0.173 A 
ATOM     86  F   UNL A   1      44.153  25.446  30.956  1.00  0.00    -0.203 F 
ATOM     87  C   UNL A   1      44.279  25.046  33.258  1.00  0.00     0.198 A 
ATOM     88  C   UNL A   1      44.773  26.838  34.768  1.00  0.00     0.198 A 
ATOM     89  F   UNL A   1      45.011  29.033  33.961  1.00  0.00    -0.203 F 
ATOM     90  F   UNL A   1      44.063  23.740  33.036  1.00  0.00    -0.200 F 
ATOM     91  C   UNL A   1      44.527  25.492  34.544  1.00  0.00     0.200 A 
ATOM     92  F   UNL A   1      45.064  27.269  36.003  1.00  0.00    -0.200 F 
ATOM     93  F   UNL A   1      44.561  24.624  35.564  1.00  0.00    -0.200 F 
ENDBRANCH  60  83
ENDBRANCH  34  35
ENDBRANCH  27  29
ENDBRANCH  26  27
ENDBRANCH  25  26
ENDBRANCH  24  25
ENDBRANCH  23  24
ENDBRANCH   1  23
TORSDOF 17
ENDMDL
MODEL 2
REMARK VINA RESULT:     -11.8      4.826     10.554
REMARK SMILES CCn1cc(C(=O)/C=C/c2cccc(O[C@H](C)C(=O)OCCOC(=O)c3ccc(-c4c5nc(c(-c6c(F)c(F)c(F)c(F)c6F)c6ccc([nH]6)c(-c6c(F)c(F)c(F)c(F)c6F)c6nc(c(-c7c(F)c(F)c(F)c(F)c7F)c7ccc4[nH]7)C=C6)C=C5)cc3)c2)cn1
REMARK SMILES IDX 18 1 19 2 16 3 17 4 15 5 14 6 10 7 11 8 89 9 12 10 13 11
REMARK SMILES IDX 9 12 8 13 6 14 7 15 5 16 3 17 4 18 91 19 90 20 2 21 1 22
REMARK SMILES IDX 20 23 21 24 22 25 23 26 24 27 25 28 26 29 27 30 88 31 28 32
REMARK SMILES IDX 87 33 29 34 30 35 31 36 81 37 32 38 86 39 80 40 82 41 33 42
REMARK SMILES IDX 85 43 79 44 78 45 34 47 66 48 46 49 65 50 47 51 50 52 64 53
REMARK SMILES IDX 83 54 48 55 49 56 63 58 84 59 51 60 35 61 36 62 44 63 37 64
REMARK SMILES IDX 38 65 42 66 45 67 39 68 40 69 43 70 41 71 67 72 68 73 76 74
REMARK SMILES IDX 69 75 70 76 74 77 77 78 71 79 72 80 75 81 73 82 52 83 53 84
REMARK SMILES IDX 61 85 54 86 55 87 59 88 62 89 56 90 57 91 60 92 58 93
REMARK H PARENT 82 46 50 57
REMARK Flexibility Score: inf
ROOT
ATOM      1  C   UNL A   1      33.385  35.537  30.015  1.00  0.00     0.347 C 
ATOM      2  O   UNL A   1      32.511  36.396  29.918  1.00  0.00    -0.248 OA
ENDROOT
BRANCH   1   3
ATOM      3  C   UNL A   1      34.023  35.154  31.353  1.00  0.00     0.279 C 
ATOM      4  C   UNL A   1      33.377  35.952  32.491  1.00  0.00     0.066 C 
BRANCH   3   5
ATOM      5  O   UNL A   1      34.150  33.780  31.740  1.00  0.00    -0.479 OA
BRANCH   5   6
ATOM      6  C   UNL A   1      35.377  33.245  32.016  1.00  0.00     0.121 A 
ATOM      7  C   UNL A   1      37.771  33.630  32.087  1.00  0.00    -0.022 A 
ATOM      8  C   UNL A   1      37.940  32.391  32.721  1.00  0.00     0.008 A 
ATOM      9  C   UNL A   1      36.474  34.081  31.800  1.00  0.00     0.054 A 
ATOM     10  C   UNL A   1      36.871  31.524  32.845  1.00  0.00     0.004 A 
ATOM     11  C   UNL A   1      35.623  31.924  32.385  1.00  0.00     0.046 A 
BRANCH   7  12
ATOM     12  C   UNL A   1      39.001  34.225  31.552  1.00  0.00     0.012 C 
ATOM     13  C   UNL A   1      40.210  33.665  31.430  1.00  0.00     0.053 C 
BRANCH  13  14
ATOM     14  C   UNL A   1      41.466  34.419  31.145  1.00  0.00     0.189 C 
ATOM     15  O   UNL A   1      42.200  34.708  32.088  1.00  0.00    -0.289 OA
BRANCH  14  16
ATOM     16  C   UNL A   1      41.764  34.850  29.779  1.00  0.00     0.060 A 
ATOM     17  N   UNL A   1      42.635  35.403  27.816  1.00  0.00    -0.272 N 
ATOM     18  C   UNL A   1      42.927  34.831  29.025  1.00  0.00     0.120 A 
ATOM     19  N   UNL A   1      41.339  35.719  27.685  1.00  0.00    -0.181 NA
ATOM     20  C   UNL A   1      40.813  35.372  28.863  1.00  0.00     0.147 A 
BRANCH  17  21
ATOM     21  C   UNL A   1      43.581  35.736  26.766  1.00  0.00     0.141 C 
ATOM     22  C   UNL A   1      44.751  36.567  27.264  1.00  0.00     0.029 C 
ENDBRANCH  17  21
ENDBRANCH  14  16
ENDBRANCH  13  14
ENDBRANCH   7  12
ENDBRANCH   5   6
ENDBRANCH   3   5
ENDBRANCH   1   3
BRANCH   1  23
ATOM     23  O   UNL A   1      34.020  34.941  28.959  1.00  0.00    -0.459 OA
BRANCH  23  24
ATOM     24  C   UNL A   1      33.204  34.217  28.018  1.00  0.00     0.274 C 
BRANCH  24  25
ATOM     25  C   UNL A   1      33.526  32.733  27.984  1.00  0.00     0.275 C 
BRANCH  25  26
ATOM     26  O   UNL A   1      34.924  32.551  28.143  1.00  0.00    -0.458 OA
BRANCH  26  27
ATOM     27  C   UNL A   1      35.358  31.280  27.975  1.00  0.00     0.338 C 
ATOM     28  O   UNL A   1      34.947  30.453  27.183  1.00  0.00    -0.246 OA
BRANCH  27  29
ATOM     29  C   UNL A   1      36.354  30.991  29.008  1.00  0.00     0.060 A 
ATOM     30  C   UNL A   1      37.463  31.838  29.021  1.00  0.00     0.016 A 
ATOM     31  C   UNL A   1      36.371  29.707  29.564  1.00  0.00     0.016 A 
ATOM     32  C   UNL A   1      38.682  31.265  29.268  1.00  0.00     0.010 A 
ATOM     33  C   UNL A   1      37.587  29.127  29.774  1.00  0.00     0.010 A 
ATOM     34  C   UNL A   1      38.720  29.888  29.506  1.00  0.00    -0.014 A 
BRANCH  34  35
ATOM     35  C   UNL A   1      40.004  29.245  29.560  1.00  0.00     0.031 A 
ATOM     36  C   UNL A   1      40.482  29.121  30.945  1.00  0.00     0.074 A 
ATOM     37  C   UNL A   1      40.601  28.738  28.468  1.00  0.00     0.049 A 
ATOM     38  N   UNL A   1      41.418  29.807  31.508  1.00  0.00    -0.248 NA
ATOM     39  C   UNL A   1      39.669  28.319  31.872  1.00  0.00     0.031 C 
ATOM     40  C   UNL A   1      40.064  28.570  27.117  1.00  0.00     0.029 A 
ATOM     41  N   UNL A   1      41.829  28.169  28.382  1.00  0.00    -0.354 N 
ATOM     42  C   UNL A   1      41.453  29.351  32.819  1.00  0.00     0.074 A 
ATOM     43  C   UNL A   1      40.217  28.651  33.040  1.00  0.00     0.031 C 
ATOM     44  C   UNL A   1      40.874  27.739  26.417  1.00  0.00     0.029 A 
ATOM     45  C   UNL A   1      42.041  27.431  27.226  1.00  0.00     0.049 A 
ATOM     46  H   UNL A   1      42.513  28.271  29.083  1.00  0.00     0.167 HD
ATOM     47  C   UNL A   1      42.630  29.305  33.494  1.00  0.00     0.037 A 
ATOM     48  C   UNL A   1      43.068  26.563  27.043  1.00  0.00     0.037 A 
ATOM     49  C   UNL A   1      43.610  30.168  32.879  1.00  0.00     0.049 A 
ATOM     50  C   UNL A   1      44.121  26.916  28.040  1.00  0.00     0.074 A 
ATOM     51  C   UNL A   1      43.661  31.522  32.598  1.00  0.00     0.029 A 
ATOM     52  N   UNL A   1      44.570  29.589  32.083  1.00  0.00    -0.354 N 
ATOM     53  N   UNL A   1      44.807  28.026  28.002  1.00  0.00    -0.248 NA
ATOM     54  C   UNL A   1      44.051  26.271  29.347  1.00  0.00     0.031 C 
ATOM     55  C   UNL A   1      44.293  31.615  31.324  1.00  0.00     0.029 A 
ATOM     56  C   UNL A   1      44.658  30.328  30.929  1.00  0.00     0.049 A 
ATOM     57  H   UNL A   1      45.100  28.789  32.302  1.00  0.00     0.167 HD
ATOM     58  C   UNL A   1      44.889  28.439  29.325  1.00  0.00     0.074 A 
ATOM     59  C   UNL A   1      44.460  27.286  30.114  1.00  0.00     0.031 C 
ATOM     60  C   UNL A   1      45.001  29.762  29.645  1.00  0.00     0.037 A 
BRANCH  47  61
ATOM     61  C   UNL A   1      43.002  28.174  34.421  1.00  0.00     0.064 A 
ATOM     62  C   UNL A   1      43.359  28.486  35.746  1.00  0.00     0.173 A 
ATOM     63  C   UNL A   1      43.311  26.858  34.004  1.00  0.00     0.173 A 
ATOM     64  F   UNL A   1      43.124  29.708  36.245  1.00  0.00    -0.203 F 
ATOM     65  C   UNL A   1      44.053  27.582  36.553  1.00  0.00     0.198 A 
ATOM     66  C   UNL A   1      43.952  25.941  34.832  1.00  0.00     0.198 A 
ATOM     67  F   UNL A   1      43.119  26.426  32.753  1.00  0.00    -0.203 F 
ATOM     68  F   UNL A   1      44.492  27.973  37.756  1.00  0.00    -0.200 F 
ATOM     69  C   UNL A   1      44.356  26.315  36.093  1.00  0.00     0.200 A 
ATOM     70  F   UNL A   1      44.249  24.723  34.357  1.00  0.00    -0.200 F 
ATOM     71  F   UNL A   1      45.080  25.471  36.840  1.00  0.00    -0.200 F 
ENDBRANCH  47  61
BRANCH  48  72
ATOM     72  C   UNL A   1      43.034  25.246  26.360  1.00  0.00     0.064 A 
ATOM     73  C   UNL A   1      43.958  24.933  25.349  1.00  0.00     0.173 A 
ATOM     74  C   UNL A   1      42.283  24.170  26.873  1.00  0.00     0.173 A 
ATOM     75  F   UNL A   1      44.748  25.890  24.840  1.00  0.00    -0.203 F 
ATOM     76  C   UNL A   1      44.138  23.620  24.898  1.00  0.00     0.198 A 
ATOM     77  C   UNL A   1      42.459  22.862  26.418  1.00  0.00     0.198 A 
ATOM     78  F   UNL A   1      41.435  24.346  27.895  1.00  0.00    -0.203 F 
ATOM     79  F   UNL A   1      45.074  23.352  23.977  1.00  0.00    -0.200 F 
ATOM     80  C   UNL A   1      43.395  22.585  25.440  1.00  0.00     0.200 A 
ATOM     81  F   UNL A   1      41.761  21.864  26.980  1.00  0.00    -0.200 F 
ATOM     82  F   UNL A   1      43.610  21.319  25.054  1.00  0.00    -0.200 F 
ENDBRANCH  48  72
BRANCH  60  83
ATOM     83  C   UNL A   1      45.286  30.733  28.532  1.00  0.00     0.064 A 
ATOM     84  C   UNL A   1      44.308  31.241  27.657  1.00  0.00     0.173 A 
ATOM     85  C   UNL A   1      46.571  31.284  28.447  1.00  0.00     0.173 A 
ATOM     86  F   UNL A   1      43.033  30.841  27.743  1.00  0.00    -0.203 F 
ATOM     87  C   UNL A   1      44.618  32.221  26.714  1.00  0.00     0.198 A 
ATOM     88  C   UNL A   1      46.869  32.290  27.531  1.00  0.00     0.198 A 
ATOM     89  F   UNL A   1      47.531  30.881  29.293  1.00  0.00    -0.203 F 
ATOM     90  F   UNL A   1      43.670  32.680  25.884  1.00  0.00    -0.200 F 
ATOM     91  C   UNL A   1      45.896  32.750  26.658  1.00  0.00     0.200 A 
ATOM     92  F   UNL A   1      48.093  32.833  27.516  1.00  0.00    -0.200 F 
ATOM     93  F   UNL A   1      46.185  33.722  25.782  1.00  0.00    -0.200 F 
ENDBRANCH  60  83
ENDBRANCH  34  35
ENDBRANCH  27  29
ENDBRANCH  26  27
ENDBRANCH  25  26
ENDBRANCH  24  25
ENDBRANCH  23  24
ENDBRANCH   1  23
TORSDOF 17
ENDMDL
MODEL 3
REMARK VINA RESULT:     -11.7      4.494      9.838
REMARK SMILES CCn1cc(C(=O)/C=C/c2cccc(O[C@H](C)C(=O)OCCOC(=O)c3ccc(-c4c5nc(c(-c6c(F)c(F)c(F)c(F)c6F)c6ccc([nH]6)c(-c6c(F)c(F)c(F)c(F)c6F)c6nc(c(-c7c(F)c(F)c(F)c(F)c7F)c7ccc4[nH]7)C=C6)C=C5)cc3)c2)cn1
REMARK SMILES IDX 18 1 19 2 16 3 17 4 15 5 14 6 10 7 11 8 89 9 12 10 13 11
REMARK SMILES IDX 9 12 8 13 6 14 7 15 5 16 3 17 4 18 91 19 90 20 2 21 1 22
REMARK SMILES IDX 20 23 21 24 22 25 23 26 24 27 25 28 26 29 27 30 88 31 28 32
REMARK SMILES IDX 87 33 29 34 30 35 31 36 81 37 32 38 86 39 80 40 82 41 33 42
REMARK SMILES IDX 85 43 79 44 78 45 34 47 66 48 46 49 65 50 47 51 50 52 64 53
REMARK SMILES IDX 83 54 48 55 49 56 63 58 84 59 51 60 35 61 36 62 44 63 37 64
REMARK SMILES IDX 38 65 42 66 45 67 39 68 40 69 43 70 41 71 67 72 68 73 76 74
REMARK SMILES IDX 69 75 70 76 74 77 77 78 71 79 72 80 75 81 73 82 52 83 53 84
REMARK SMILES IDX 61 85 54 86 55 87 59 88 62 89 56 90 57 91 60 92 58 93
REMARK H PARENT 82 46 50 57
REMARK Flexibility Score: inf
ROOT
ATOM      1  C   UNL A   1      34.562  32.486  27.931  1.00  0.00     0.347 C 
ATOM      2  O   UNL A   1      35.595  33.055  27.585  1.00  0.00    -0.248 OA
ENDROOT
BRANCH   1   3
ATOM      3  C   UNL A   1      34.138  31.127  27.367  1.00  0.00     0.279 C 
ATOM      4  C   UNL A   1      35.127  30.043  27.812  1.00  0.00     0.066 C 
BRANCH   3   5
ATOM      5  O   UNL A   1      32.796  30.650  27.529  1.00  0.00    -0.479 OA
BRANCH   5   6
ATOM      6  C   UNL A   1      32.281  29.716  26.674  1.00  0.00     0.121 A 
ATOM      7  C   UNL A   1      31.608  27.403  26.390  1.00  0.00    -0.022 A 
ATOM      8  C   UNL A   1      31.057  27.729  25.142  1.00  0.00     0.008 A 
ATOM      9  C   UNL A   1      32.158  28.421  27.182  1.00  0.00     0.054 A 
ATOM     10  C   UNL A   1      31.265  28.983  24.598  1.00  0.00     0.004 A 
ATOM     11  C   UNL A   1      31.975  29.925  25.331  1.00  0.00     0.046 A 
BRANCH   7  12
ATOM     12  C   UNL A   1      31.783  25.966  26.634  1.00  0.00     0.012 C 
ATOM     13  C   UNL A   1      30.973  24.960  26.284  1.00  0.00     0.053 C 
BRANCH  13  14
ATOM     14  C   UNL A   1      31.078  23.568  26.814  1.00  0.00     0.189 C 
ATOM     15  O   UNL A   1      30.139  23.123  27.469  1.00  0.00    -0.289 OA
BRANCH  14  16
ATOM     16  C   UNL A   1      32.302  22.796  26.601  1.00  0.00     0.060 A 
ATOM     17  N   UNL A   1      34.069  21.690  25.847  1.00  0.00    -0.272 N 
ATOM     18  C   UNL A   1      33.022  22.480  25.459  1.00  0.00     0.120 A 
ATOM     19  N   UNL A   1      34.144  21.533  27.176  1.00  0.00    -0.181 NA
ATOM     20  C   UNL A   1      33.087  22.213  27.630  1.00  0.00     0.147 A 
BRANCH  17  21
ATOM     21  C   UNL A   1      35.000  20.996  24.974  1.00  0.00     0.141 C 
ATOM     22  C   UNL A   1      34.665  19.524  24.802  1.00  0.00     0.029 C 
ENDBRANCH  17  21
ENDBRANCH  14  16
ENDBRANCH  13  14
ENDBRANCH   7  12
ENDBRANCH   5   6
ENDBRANCH   3   5
ENDBRANCH   1   3
BRANCH   1  23
ATOM     23  O   UNL A   1      33.582  33.041  28.709  1.00  0.00    -0.459 OA
BRANCH  23  24
ATOM     24  C   UNL A   1      33.326  34.450  28.548  1.00  0.00     0.274 C 
BRANCH  24  25
ATOM     25  C   UNL A   1      33.424  35.215  29.856  1.00  0.00     0.275 C 
BRANCH  25  26
ATOM     26  O   UNL A   1      33.709  34.311  30.912  1.00  0.00    -0.458 OA
BRANCH  26  27
ATOM     27  C   UNL A   1      33.911  34.887  32.119  1.00  0.00     0.338 C 
ATOM     28  O   UNL A   1      33.423  35.918  32.542  1.00  0.00    -0.246 OA
BRANCH  27  29
ATOM     29  C   UNL A   1      34.938  34.124  32.830  1.00  0.00     0.060 A 
ATOM     30  C   UNL A   1      36.125  34.813  33.084  1.00  0.00     0.016 A 
ATOM     31  C   UNL A   1      34.862  32.726  32.794  1.00  0.00     0.016 A 
ATOM     32  C   UNL A   1      37.294  34.113  32.944  1.00  0.00     0.010 A 
ATOM     33  C   UNL A   1      36.026  32.037  32.619  1.00  0.00     0.010 A 
ATOM     34  C   UNL A   1      37.209  32.766  32.580  1.00  0.00    -0.014 A 
BRANCH  34  35
ATOM     35  C   UNL A   1      38.423  32.081  32.231  1.00  0.00     0.031 A 
ATOM     36  C   UNL A   1      39.256  31.831  33.416  1.00  0.00     0.074 A 
ATOM     37  C   UNL A   1      38.670  31.646  30.983  1.00  0.00     0.049 A 
ATOM     38  N   UNL A   1      40.345  32.439  33.743  1.00  0.00    -0.248 NA
ATOM     39  C   UNL A   1      38.689  30.982  34.475  1.00  0.00     0.031 C 
ATOM     40  C   UNL A   1      37.774  31.605  29.826  1.00  0.00     0.029 A 
ATOM     41  N   UNL A   1      39.796  31.048  30.520  1.00  0.00    -0.354 N 
ATOM     42  C   UNL A   1      40.715  31.877  34.958  1.00  0.00     0.074 A 
ATOM     43  C   UNL A   1      39.552  31.201  35.465  1.00  0.00     0.031 C 
ATOM     44  C   UNL A   1      38.317  30.808  28.873  1.00  0.00     0.029 A 
ATOM     45  C   UNL A   1      39.643  30.400  29.302  1.00  0.00     0.049 A 
ATOM     46  H   UNL A   1      40.650  31.072  31.009  1.00  0.00     0.167 HD
ATOM     47  C   UNL A   1      42.028  31.740  35.274  1.00  0.00     0.037 A 
ATOM     48  C   UNL A   1      40.534  29.518  28.782  1.00  0.00     0.037 A 
ATOM     49  C   UNL A   1      42.845  32.620  34.472  1.00  0.00     0.049 A 
ATOM     50  C   UNL A   1      41.837  29.756  29.469  1.00  0.00     0.074 A 
ATOM     51  C   UNL A   1      42.888  33.990  34.283  1.00  0.00     0.029 A 
ATOM     52  N   UNL A   1      43.518  32.078  33.403  1.00  0.00    -0.354 N 
ATOM     53  N   UNL A   1      42.543  30.844  29.319  1.00  0.00    -0.248 NA
ATOM     54  C   UNL A   1      42.095  29.011  30.696  1.00  0.00     0.031 C 
ATOM     55  C   UNL A   1      43.150  34.167  32.893  1.00  0.00     0.029 A 
ATOM     56  C   UNL A   1      43.324  32.905  32.324  1.00  0.00     0.049 A 
ATOM     57  H   UNL A   1      44.045  31.247  33.410  1.00  0.00     0.167 HD
ATOM     58  C   UNL A   1      43.006  31.146  30.592  1.00  0.00     0.074 A 
ATOM     59  C   UNL A   1      42.751  29.947  31.388  1.00  0.00     0.031 C 
ATOM     60  C   UNL A   1      43.272  32.434  30.959  1.00  0.00     0.037 A 
BRANCH  47  61
ATOM     61  C   UNL A   1      42.581  30.527  35.980  1.00  0.00     0.064 A 
ATOM     62  C   UNL A   1      43.500  30.725  37.028  1.00  0.00     0.173 A 
ATOM     63  C   UNL A   1      42.488  29.201  35.498  1.00  0.00     0.173 A 
ATOM     64  F   UNL A   1      43.680  31.944  37.556  1.00  0.00    -0.203 F 
ATOM     65  C   UNL A   1      44.325  29.696  37.486  1.00  0.00     0.198 A 
ATOM     66  C   UNL A   1      43.273  28.166  35.997  1.00  0.00     0.198 A 
ATOM     67  F   UNL A   1      41.730  28.858  34.451  1.00  0.00    -0.203 F 
ATOM     68  F   UNL A   1      45.279  29.965  38.387  1.00  0.00    -0.200 F 
ATOM     69  C   UNL A   1      44.217  28.420  36.965  1.00  0.00     0.200 A 
ATOM     70  F   UNL A   1      43.161  26.941  35.464  1.00  0.00    -0.200 F 
ATOM     71  F   UNL A   1      45.053  27.449  37.355  1.00  0.00    -0.200 F 
ENDBRANCH  47  61
BRANCH  48  72
ATOM     72  C   UNL A   1      40.244  28.263  28.045  1.00  0.00     0.064 A 
ATOM     73  C   UNL A   1      40.870  27.985  26.818  1.00  0.00     0.173 A 
ATOM     74  C   UNL A   1      39.571  27.188  28.660  1.00  0.00     0.173 A 
ATOM     75  F   UNL A   1      41.574  28.939  26.191  1.00  0.00    -0.203 F 
ATOM     76  C   UNL A   1      40.844  26.705  26.253  1.00  0.00     0.198 A 
ATOM     77  C   UNL A   1      39.541  25.913  28.092  1.00  0.00     0.198 A 
ATOM     78  F   UNL A   1      39.012  27.325  29.870  1.00  0.00    -0.203 F 
ATOM     79  F   UNL A   1      41.507  26.464  25.113  1.00  0.00    -0.200 F 
ATOM     80  C   UNL A   1      40.189  25.668  26.896  1.00  0.00     0.200 A 
ATOM     81  F   UNL A   1      38.936  24.910  28.745  1.00  0.00    -0.200 F 
ATOM     82  F   UNL A   1      40.216  24.428  26.388  1.00  0.00    -0.200 F 
ENDBRANCH  48  72
BRANCH  60  83
ATOM     83  C   UNL A   1      43.290  33.483  29.881  1.00  0.00     0.064 A 
ATOM     84  C   UNL A   1      42.169  34.244  29.500  1.00  0.00     0.173 A 
ATOM     85  C   UNL A   1      44.524  33.833  29.319  1.00  0.00     0.173 A 
ATOM     86  F   UNL A   1      40.974  34.041  30.068  1.00  0.00    -0.203 F 
ATOM     87  C   UNL A   1      42.278  35.276  28.568  1.00  0.00     0.198 A 
ATOM     88  C   UNL A   1      44.637  34.889  28.418  1.00  0.00     0.198 A 
ATOM     89  F   UNL A   1      45.637  33.180  29.686  1.00  0.00    -0.203 F 
ATOM     90  F   UNL A   1      41.192  35.980  28.213  1.00  0.00    -0.200 F 
ATOM     91  C   UNL A   1      43.512  35.602  28.034  1.00  0.00     0.200 A 
ATOM     92  F   UNL A   1      45.842  35.232  27.944  1.00  0.00    -0.200 F 
ATOM     93  F   UNL A   1      43.626  36.622  27.171  1.00  0.00    -0.200 F 
ENDBRANCH  60  83
ENDBRANCH  34  35
ENDBRANCH  27  29
ENDBRANCH  26  27
ENDBRANCH  25  26
ENDBRANCH  24  25
ENDBRANCH  23  24
ENDBRANCH   1  23
TORSDOF 17
ENDMDL
