MODEL 1
REMARK VINA RESULT:     -11.5      0.000      0.000
REMARK SMILES CSc1nc2ccccc2c(=O)n1CC(=O)OCCOC(=O)c1ccc(-c2c3nc(c(-c4c(F)c(F)c(F)c(F)c4F)c4ccc([nH]4)c(-c4c(F)c(F)c(F)c(F)c4F)c4nc(c(-c5c(F)c(F)c(F)c(F)c5F)c5ccc2[nH]5)C=C4)C=C3)cc1
REMARK SMILES IDX 18 1 17 2 15 3 16 4 14 5 13 6 3 7 4 8 5 9 11 10 6 11 10 12
REMARK SMILES IDX 12 13 7 14 9 15 8 16 2 17 1 18 19 19 20 20 21 21 22 22 23 23
REMARK SMILES IDX 24 24 85 25 25 26 84 27 26 28 27 29 28 30 78 31 29 32 83 33
REMARK SMILES IDX 77 34 79 35 30 36 82 37 76 38 75 39 31 41 63 42 43 43 62 44
REMARK SMILES IDX 44 45 47 46 61 47 80 48 45 49 46 50 60 52 81 53 48 54 32 55
REMARK SMILES IDX 33 56 41 57 34 58 35 59 39 60 42 61 36 62 37 63 40 64 38 65
REMARK SMILES IDX 64 66 65 67 73 68 66 69 67 70 71 71 74 72 68 73 69 74 72 75
REMARK SMILES IDX 70 76 49 77 50 78 58 79 51 80 52 81 56 82 59 83 53 84 54 85
REMARK SMILES IDX 57 86 55 87
REMARK H PARENT 79 40 47 51
REMARK Flexibility Score: inf
ROOT
ATOM      1  C   UNL A   1      31.770  28.428  27.143  1.00  0.00     0.274 C 
ENDROOT
BRANCH   1   2
ATOM      2  O   UNL A   1      32.417  27.362  26.418  1.00  0.00    -0.461 OA
BRANCH   2   3
ATOM      3  C   UNL A   1      31.651  26.272  26.140  1.00  0.00     0.326 C 
ATOM      4  O   UNL A   1      31.109  25.564  26.983  1.00  0.00    -0.250 OA
BRANCH   3   5
ATOM      5  C   UNL A   1      31.532  25.976  24.648  1.00  0.00     0.250 C 
BRANCH   5   6
ATOM      6  N   UNL A   1      31.038  27.095  23.840  1.00  0.00    -0.276 N 
ATOM      7  C   UNL A   1      31.838  27.954  23.114  1.00  0.00     0.171 A 
ATOM      8  N   UNL A   1      31.400  28.933  22.393  1.00  0.00    -0.224 NA
ATOM      9  C   UNL A   1      30.027  29.201  22.399  1.00  0.00     0.079 A 
ATOM     10  C   UNL A   1      29.655  27.227  23.784  1.00  0.00     0.262 A 
ATOM     11  C   UNL A   1      29.544  30.306  21.698  1.00  0.00     0.029 A 
ATOM     12  C   UNL A   1      29.124  28.417  23.108  1.00  0.00     0.066 A 
ATOM     13  O   UNL A   1      28.875  26.387  24.222  1.00  0.00    -0.269 OA
ATOM     14  C   UNL A   1      28.185  30.639  21.742  1.00  0.00     0.002 A 
ATOM     15  C   UNL A   1      27.765  28.744  23.173  1.00  0.00     0.016 A 
ATOM     16  C   UNL A   1      27.298  29.866  22.490  1.00  0.00     0.001 A 
BRANCH   7  17
ATOM     17  S   UNL A   1      33.570  27.700  23.133  1.00  0.00    -0.091 SA
ATOM     18  C   UNL A   1      33.637  26.355  21.929  1.00  0.00     0.094 C 
ENDBRANCH   7  17
ENDBRANCH   5   6
ENDBRANCH   3   5
ENDBRANCH   2   3
ENDBRANCH   1   2
BRANCH   1  19
ATOM     19  C   UNL A   1      31.837  29.733  26.354  1.00  0.00     0.275 C 
BRANCH  19  20
ATOM     20  O   UNL A   1      33.201  30.181  26.280  1.00  0.00    -0.458 OA
BRANCH  20  21
ATOM     21  C   UNL A   1      33.529  31.200  27.108  1.00  0.00     0.338 C 
ATOM     22  O   UNL A   1      32.914  32.231  27.307  1.00  0.00    -0.246 OA
BRANCH  21  23
ATOM     23  C   UNL A   1      34.821  30.877  27.730  1.00  0.00     0.060 A 
ATOM     24  C   UNL A   1      35.734  31.898  27.983  1.00  0.00     0.016 A 
ATOM     25  C   UNL A   1      35.100  29.565  28.114  1.00  0.00     0.016 A 
ATOM     26  C   UNL A   1      36.942  31.591  28.611  1.00  0.00     0.010 A 
ATOM     27  C   UNL A   1      36.274  29.271  28.802  1.00  0.00     0.010 A 
ATOM     28  C   UNL A   1      37.217  30.278  29.039  1.00  0.00    -0.014 A 
BRANCH  28  29
ATOM     29  C   UNL A   1      38.484  29.967  29.744  1.00  0.00     0.031 A 
ATOM     30  C   UNL A   1      38.762  30.542  31.105  1.00  0.00     0.074 A 
ATOM     31  C   UNL A   1      39.381  29.153  29.156  1.00  0.00     0.049 A 
ATOM     32  N   UNL A   1      39.767  30.304  31.910  1.00  0.00    -0.248 NA
ATOM     33  C   UNL A   1      37.793  31.519  31.632  1.00  0.00     0.031 C 
ATOM     34  C   UNL A   1      39.247  28.581  27.815  1.00  0.00     0.029 A 
ATOM     35  N   UNL A   1      40.571  28.648  29.616  1.00  0.00    -0.354 N 
ATOM     36  C   UNL A   1      39.539  31.077  33.039  1.00  0.00     0.074 A 
ATOM     37  C   UNL A   1      38.340  31.846  32.794  1.00  0.00     0.031 C 
ATOM     38  C   UNL A   1      40.284  27.759  27.583  1.00  0.00     0.029 A 
ATOM     39  C   UNL A   1      41.165  27.765  28.747  1.00  0.00     0.049 A 
ATOM     40  H   UNL A   1      40.962  28.894  30.486  1.00  0.00     0.167 HD
ATOM     41  C   UNL A   1      40.247  31.112  34.193  1.00  0.00     0.037 A 
ATOM     42  C   UNL A   1      42.283  27.027  28.886  1.00  0.00     0.037 A 
ATOM     43  C   UNL A   1      41.438  30.342  34.439  1.00  0.00     0.049 A 
ATOM     44  C   UNL A   1      43.065  27.113  30.168  1.00  0.00     0.074 A 
ATOM     45  C   UNL A   1      42.214  30.298  35.584  1.00  0.00     0.029 A 
ATOM     46  N   UNL A   1      42.021  29.480  33.525  1.00  0.00    -0.354 N 
ATOM     47  N   UNL A   1      42.800  27.795  31.256  1.00  0.00    -0.248 NA
ATOM     48  C   UNL A   1      44.300  26.318  30.245  1.00  0.00     0.031 C 
ATOM     49  C   UNL A   1      43.284  29.430  35.353  1.00  0.00     0.029 A 
ATOM     50  C   UNL A   1      43.154  28.906  34.077  1.00  0.00     0.049 A 
ATOM     51  H   UNL A   1      41.682  29.302  32.618  1.00  0.00     0.167 HD
ATOM     52  C   UNL A   1      43.815  27.490  32.153  1.00  0.00     0.074 A 
ATOM     53  C   UNL A   1      44.693  26.549  31.490  1.00  0.00     0.031 C 
ATOM     54  C   UNL A   1      44.003  27.954  33.411  1.00  0.00     0.037 A 
BRANCH  41  55
ATOM     55  C   UNL A   1      39.734  31.977  35.305  1.00  0.00     0.064 A 
ATOM     56  C   UNL A   1      40.081  33.334  35.378  1.00  0.00     0.173 A 
ATOM     57  C   UNL A   1      38.811  31.482  36.238  1.00  0.00     0.173 A 
ATOM     58  F   UNL A   1      40.966  33.852  34.512  1.00  0.00    -0.203 F 
ATOM     59  C   UNL A   1      39.527  34.163  36.349  1.00  0.00     0.198 A 
ATOM     60  C   UNL A   1      38.242  32.320  37.193  1.00  0.00     0.198 A 
ATOM     61  F   UNL A   1      38.440  30.193  36.204  1.00  0.00    -0.203 F 
ATOM     62  F   UNL A   1      39.885  35.453  36.410  1.00  0.00    -0.200 F 
ATOM     63  C   UNL A   1      38.599  33.659  37.247  1.00  0.00     0.200 A 
ATOM     64  F   UNL A   1      37.333  31.835  38.051  1.00  0.00    -0.200 F 
ATOM     65  F   UNL A   1      38.046  34.465  38.164  1.00  0.00    -0.200 F 
ENDBRANCH  41  55
BRANCH  42  66
ATOM     66  C   UNL A   1      42.702  26.097  27.806  1.00  0.00     0.064 A 
ATOM     67  C   UNL A   1      43.579  26.521  26.798  1.00  0.00     0.173 A 
ATOM     68  C   UNL A   1      42.225  24.780  27.745  1.00  0.00     0.173 A 
ATOM     69  F   UNL A   1      44.044  27.780  26.802  1.00  0.00    -0.203 F 
ATOM     70  C   UNL A   1      43.946  25.671  25.758  1.00  0.00     0.198 A 
ATOM     71  C   UNL A   1      42.614  23.921  26.718  1.00  0.00     0.198 A 
ATOM     72  F   UNL A   1      41.385  24.326  28.686  1.00  0.00    -0.203 F 
ATOM     73  F   UNL A   1      44.748  26.117  24.781  1.00  0.00    -0.200 F 
ATOM     74  C   UNL A   1      43.467  24.370  25.722  1.00  0.00     0.200 A 
ATOM     75  F   UNL A   1      42.158  22.663  26.692  1.00  0.00    -0.200 F 
ATOM     76  F   UNL A   1      43.819  23.553  24.720  1.00  0.00    -0.200 F 
ENDBRANCH  42  66
BRANCH  54  77
ATOM     77  C   UNL A   1      45.186  27.433  34.172  1.00  0.00     0.064 A 
ATOM     78  C   UNL A   1      46.417  28.105  34.159  1.00  0.00     0.173 A 
ATOM     79  C   UNL A   1      45.065  26.291  34.979  1.00  0.00     0.173 A 
ATOM     80  F   UNL A   1      46.584  29.193  33.393  1.00  0.00    -0.203 F 
ATOM     81  C   UNL A   1      47.490  27.643  34.916  1.00  0.00     0.198 A 
ATOM     82  C   UNL A   1      46.132  25.849  35.755  1.00  0.00     0.198 A 
ATOM     83  F   UNL A   1      43.905  25.620  35.032  1.00  0.00    -0.203 F 
ATOM     84  F   UNL A   1      48.667  28.281  34.864  1.00  0.00    -0.200 F 
ATOM     85  C   UNL A   1      47.344  26.522  35.720  1.00  0.00     0.200 A 
ATOM     86  F   UNL A   1      45.986  24.774  36.543  1.00  0.00    -0.200 F 
ATOM     87  F   UNL A   1      48.374  26.089  36.460  1.00  0.00    -0.200 F 
ENDBRANCH  54  77
ENDBRANCH  28  29
ENDBRANCH  21  23
ENDBRANCH  20  21
ENDBRANCH  19  20
ENDBRANCH   1  19
TORSDOF 13
ENDMDL
MODEL 2
REMARK VINA RESULT:     -11.4      0.357      1.671
REMARK SMILES CSc1nc2ccccc2c(=O)n1CC(=O)OCCOC(=O)c1ccc(-c2c3nc(c(-c4c(F)c(F)c(F)c(F)c4F)c4ccc([nH]4)c(-c4c(F)c(F)c(F)c(F)c4F)c4nc(c(-c5c(F)c(F)c(F)c(F)c5F)c5ccc2[nH]5)C=C4)C=C3)cc1
REMARK SMILES IDX 18 1 17 2 15 3 16 4 14 5 13 6 3 7 4 8 5 9 11 10 6 11 10 12
REMARK SMILES IDX 12 13 7 14 9 15 8 16 2 17 1 18 19 19 20 20 21 21 22 22 23 23
REMARK SMILES IDX 24 24 85 25 25 26 84 27 26 28 27 29 28 30 78 31 29 32 83 33
REMARK SMILES IDX 77 34 79 35 30 36 82 37 76 38 75 39 31 41 63 42 43 43 62 44
REMARK SMILES IDX 44 45 47 46 61 47 80 48 45 49 46 50 60 52 81 53 48 54 32 55
REMARK SMILES IDX 33 56 41 57 34 58 35 59 39 60 42 61 36 62 37 63 40 64 38 65
REMARK SMILES IDX 64 66 65 67 73 68 66 69 67 70 71 71 74 72 68 73 69 74 72 75
REMARK SMILES IDX 70 76 49 77 50 78 58 79 51 80 52 81 56 82 59 83 53 84 54 85
REMARK SMILES IDX 57 86 55 87
REMARK H PARENT 79 40 47 51
REMARK Flexibility Score: inf
ROOT
ATOM      1  C   UNL A   1      31.753  28.350  27.010  1.00  0.00     0.274 C 
ENDROOT
BRANCH   1   2
ATOM      2  O   UNL A   1      32.364  27.225  26.347  1.00  0.00    -0.461 OA
BRANCH   2   3
ATOM      3  C   UNL A   1      31.578  26.128  26.174  1.00  0.00     0.326 C 
ATOM      4  O   UNL A   1      31.095  25.463  27.086  1.00  0.00    -0.250 OA
BRANCH   3   5
ATOM      5  C   UNL A   1      31.353  25.765  24.709  1.00  0.00     0.250 C 
BRANCH   5   6
ATOM      6  N   UNL A   1      30.902  26.875  23.865  1.00  0.00    -0.276 N 
ATOM      7  C   UNL A   1      31.730  27.648  23.076  1.00  0.00     0.171 A 
ATOM      8  N   UNL A   1      31.330  28.620  22.324  1.00  0.00    -0.224 NA
ATOM      9  C   UNL A   1      29.977  28.975  22.360  1.00  0.00     0.079 A 
ATOM     10  C   UNL A   1      29.529  27.093  23.846  1.00  0.00     0.262 A 
ATOM     11  C   UNL A   1      29.540  30.076  21.623  1.00  0.00     0.029 A 
ATOM     12  C   UNL A   1      29.051  28.282  23.132  1.00  0.00     0.066 A 
ATOM     13  O   UNL A   1      28.714  26.324  24.347  1.00  0.00    -0.269 OA
ATOM     14  C   UNL A   1      28.207  30.496  21.692  1.00  0.00     0.002 A 
ATOM     15  C   UNL A   1      27.718  28.698  23.223  1.00  0.00     0.016 A 
ATOM     16  C   UNL A   1      27.299  29.816  22.504  1.00  0.00     0.001 A 
BRANCH   7  17
ATOM     17  S   UNL A   1      33.442  27.286  23.053  1.00  0.00    -0.091 SA
ATOM     18  C   UNL A   1      34.047  28.961  22.751  1.00  0.00     0.094 C 
ENDBRANCH   7  17
ENDBRANCH   5   6
ENDBRANCH   3   5
ENDBRANCH   2   3
ENDBRANCH   1   2
BRANCH   1  19
ATOM     19  C   UNL A   1      31.777  29.583  26.111  1.00  0.00     0.275 C 
BRANCH  19  20
ATOM     20  O   UNL A   1      33.106  30.131  26.080  1.00  0.00    -0.458 OA
BRANCH  20  21
ATOM     21  C   UNL A   1      33.364  31.097  26.994  1.00  0.00     0.338 C 
ATOM     22  O   UNL A   1      32.691  32.076  27.257  1.00  0.00    -0.246 OA
BRANCH  21  23
ATOM     23  C   UNL A   1      34.657  30.791  27.621  1.00  0.00     0.060 A 
ATOM     24  C   UNL A   1      35.540  31.828  27.912  1.00  0.00     0.016 A 
ATOM     25  C   UNL A   1      34.967  29.476  27.972  1.00  0.00     0.016 A 
ATOM     26  C   UNL A   1      36.749  31.535  28.545  1.00  0.00     0.010 A 
ATOM     27  C   UNL A   1      36.141  29.194  28.664  1.00  0.00     0.010 A 
ATOM     28  C   UNL A   1      37.054  30.218  28.939  1.00  0.00    -0.014 A 
BRANCH  28  29
ATOM     29  C   UNL A   1      38.322  29.921  29.649  1.00  0.00     0.031 A 
ATOM     30  C   UNL A   1      38.584  30.492  31.015  1.00  0.00     0.074 A 
ATOM     31  C   UNL A   1      39.234  29.124  29.061  1.00  0.00     0.049 A 
ATOM     32  N   UNL A   1      39.588  30.264  31.824  1.00  0.00    -0.248 NA
ATOM     33  C   UNL A   1      37.599  31.452  31.542  1.00  0.00     0.031 C 
ATOM     34  C   UNL A   1      39.115  28.558  27.717  1.00  0.00     0.029 A 
ATOM     35  N   UNL A   1      40.428  28.632  29.526  1.00  0.00    -0.354 N 
ATOM     36  C   UNL A   1      39.343  31.027  32.957  1.00  0.00     0.074 A 
ATOM     37  C   UNL A   1      38.135  31.780  32.709  1.00  0.00     0.031 C 
ATOM     38  C   UNL A   1      40.164  27.752  27.485  1.00  0.00     0.029 A 
ATOM     39  C   UNL A   1      41.039  27.763  28.655  1.00  0.00     0.049 A 
ATOM     40  H   UNL A   1      40.810  28.879  30.398  1.00  0.00     0.167 HD
ATOM     41  C   UNL A   1      40.044  31.066  34.114  1.00  0.00     0.037 A 
ATOM     42  C   UNL A   1      42.167  27.041  28.795  1.00  0.00     0.037 A 
ATOM     43  C   UNL A   1      41.245  30.312  34.362  1.00  0.00     0.049 A 
ATOM     44  C   UNL A   1      42.940  27.130  30.082  1.00  0.00     0.074 A 
ATOM     45  C   UNL A   1      42.015  30.272  35.512  1.00  0.00     0.029 A 
ATOM     46  N   UNL A   1      41.845  29.463  33.446  1.00  0.00    -0.354 N 
ATOM     47  N   UNL A   1      42.660  27.802  31.172  1.00  0.00    -0.248 NA
ATOM     48  C   UNL A   1      44.186  26.352  30.162  1.00  0.00     0.031 C 
ATOM     49  C   UNL A   1      43.099  29.421  35.281  1.00  0.00     0.029 A 
ATOM     50  C   UNL A   1      42.983  28.902  34.002  1.00  0.00     0.049 A 
ATOM     51  H   UNL A   1      41.513  29.285  32.537  1.00  0.00     0.167 HD
ATOM     52  C   UNL A   1      43.674  27.507  32.073  1.00  0.00     0.074 A 
ATOM     53  C   UNL A   1      44.569  26.582  31.410  1.00  0.00     0.031 C 
ATOM     54  C   UNL A   1      43.850  27.966  33.335  1.00  0.00     0.037 A 
BRANCH  41  55
ATOM     55  C   UNL A   1      39.513  31.917  35.229  1.00  0.00     0.064 A 
ATOM     56  C   UNL A   1      39.789  33.291  35.277  1.00  0.00     0.173 A 
ATOM     57  C   UNL A   1      38.641  31.386  36.190  1.00  0.00     0.173 A 
ATOM     58  F   UNL A   1      40.623  33.844  34.383  1.00  0.00    -0.203 F 
ATOM     59  C   UNL A   1      39.215  34.103  36.251  1.00  0.00     0.198 A 
ATOM     60  C   UNL A   1      38.051  32.205  37.149  1.00  0.00     0.198 A 
ATOM     61  F   UNL A   1      38.338  30.078  36.181  1.00  0.00    -0.203 F 
ATOM     62  F   UNL A   1      39.506  35.411  36.288  1.00  0.00    -0.200 F 
ATOM     63  C   UNL A   1      38.337  33.562  37.178  1.00  0.00     0.200 A 
ATOM     64  F   UNL A   1      37.191  31.685  38.035  1.00  0.00    -0.200 F 
ATOM     65  F   UNL A   1      37.765  34.349  38.099  1.00  0.00    -0.200 F 
ENDBRANCH  41  55
BRANCH  42  66
ATOM     66  C   UNL A   1      42.604  26.123  27.713  1.00  0.00     0.064 A 
ATOM     67  C   UNL A   1      42.086  24.822  27.626  1.00  0.00     0.173 A 
ATOM     68  C   UNL A   1      43.555  26.511  26.758  1.00  0.00     0.173 A 
ATOM     69  F   UNL A   1      41.190  24.398  28.530  1.00  0.00    -0.203 F 
ATOM     70  C   UNL A   1      42.519  23.939  26.640  1.00  0.00     0.198 A 
ATOM     71  C   UNL A   1      43.967  25.635  25.756  1.00  0.00     0.198 A 
ATOM     72  F   UNL A   1      44.080  27.744  26.797  1.00  0.00    -0.203 F 
ATOM     73  F   UNL A   1      42.042  22.687  26.610  1.00  0.00    -0.200 F 
ATOM     74  C   UNL A   1      43.455  24.348  25.703  1.00  0.00     0.200 A 
ATOM     75  F   UNL A   1      44.864  26.036  24.846  1.00  0.00    -0.200 F 
ATOM     76  F   UNL A   1      43.872  23.497  24.756  1.00  0.00    -0.200 F 
ENDBRANCH  42  66
BRANCH  54  77
ATOM     77  C   UNL A   1      45.035  27.457  34.100  1.00  0.00     0.064 A 
ATOM     78  C   UNL A   1      44.967  26.277  34.854  1.00  0.00     0.173 A 
ATOM     79  C   UNL A   1      46.270  28.118  34.018  1.00  0.00     0.173 A 
ATOM     80  F   UNL A   1      43.805  25.618  34.973  1.00  0.00    -0.203 F 
ATOM     81  C   UNL A   1      46.090  25.785  35.512  1.00  0.00     0.198 A 
ATOM     82  C   UNL A   1      47.397  27.608  34.655  1.00  0.00     0.198 A 
ATOM     83  F   UNL A   1      46.387  29.246  33.301  1.00  0.00    -0.203 F 
ATOM     84  F   UNL A   1      45.995  24.674  36.255  1.00  0.00    -0.200 F 
ATOM     85  C   UNL A   1      47.306  26.445  35.405  1.00  0.00     0.200 A 
ATOM     86  F   UNL A   1      48.575  28.238  34.538  1.00  0.00    -0.200 F 
ATOM     87  F   UNL A   1      48.390  25.960  36.025  1.00  0.00    -0.200 F 
ENDBRANCH  54  77
ENDBRANCH  28  29
ENDBRANCH  21  23
ENDBRANCH  20  21
ENDBRANCH  19  20
ENDBRANCH   1  19
TORSDOF 13
ENDMDL
MODEL 3
REMARK VINA RESULT:     -11.4      1.455      2.558
REMARK SMILES CSc1nc2ccccc2c(=O)n1CC(=O)OCCOC(=O)c1ccc(-c2c3nc(c(-c4c(F)c(F)c(F)c(F)c4F)c4ccc([nH]4)c(-c4c(F)c(F)c(F)c(F)c4F)c4nc(c(-c5c(F)c(F)c(F)c(F)c5F)c5ccc2[nH]5)C=C4)C=C3)cc1
REMARK SMILES IDX 18 1 17 2 15 3 16 4 14 5 13 6 3 7 4 8 5 9 11 10 6 11 10 12
REMARK SMILES IDX 12 13 7 14 9 15 8 16 2 17 1 18 19 19 20 20 21 21 22 22 23 23
REMARK SMILES IDX 24 24 85 25 25 26 84 27 26 28 27 29 28 30 78 31 29 32 83 33
REMARK SMILES IDX 77 34 79 35 30 36 82 37 76 38 75 39 31 41 63 42 43 43 62 44
REMARK SMILES IDX 44 45 47 46 61 47 80 48 45 49 46 50 60 52 81 53 48 54 32 55
REMARK SMILES IDX 33 56 41 57 34 58 35 59 39 60 42 61 36 62 37 63 40 64 38 65
REMARK SMILES IDX 64 66 65 67 73 68 66 69 67 70 71 71 74 72 68 73 69 74 72 75
REMARK SMILES IDX 70 76 49 77 50 78 58 79 51 80 52 81 56 82 59 83 53 84 54 85
REMARK SMILES IDX 57 86 55 87
REMARK H PARENT 79 40 47 51
REMARK Flexibility Score: inf
ROOT
ATOM      1  C   UNL A   1      31.575  29.574  25.264  1.00  0.00     0.274 C 
ENDROOT
BRANCH   1   2
ATOM      2  O   UNL A   1      32.125  28.290  25.622  1.00  0.00    -0.461 OA
BRANCH   2   3
ATOM      3  C   UNL A   1      31.322  27.475  26.360  1.00  0.00     0.326 C 
ATOM      4  O   UNL A   1      31.340  27.399  27.585  1.00  0.00    -0.250 OA
BRANCH   3   5
ATOM      5  C   UNL A   1      30.380  26.622  25.516  1.00  0.00     0.250 C 
BRANCH   5   6
ATOM      6  N   UNL A   1      31.012  25.467  24.872  1.00  0.00    -0.276 N 
ATOM      7  C   UNL A   1      31.499  25.458  23.580  1.00  0.00     0.171 A 
ATOM      8  N   UNL A   1      32.067  24.443  23.017  1.00  0.00    -0.224 NA
ATOM      9  C   UNL A   1      32.129  23.238  23.726  1.00  0.00     0.079 A 
ATOM     10  C   UNL A   1      31.161  24.341  25.674  1.00  0.00     0.262 A 
ATOM     11  C   UNL A   1      32.658  22.106  23.104  1.00  0.00     0.029 A 
ATOM     12  C   UNL A   1      31.654  23.120  25.027  1.00  0.00     0.066 A 
ATOM     13  O   UNL A   1      30.949  24.338  26.883  1.00  0.00    -0.269 OA
ATOM     14  C   UNL A   1      32.671  20.872  23.763  1.00  0.00     0.002 A 
ATOM     15  C   UNL A   1      31.647  21.890  25.695  1.00  0.00     0.016 A 
ATOM     16  C   UNL A   1      32.153  20.761  25.053  1.00  0.00     0.001 A 
BRANCH   7  17
ATOM     17  S   UNL A   1      31.379  26.923  22.630  1.00  0.00    -0.091 SA
ATOM     18  C   UNL A   1      33.147  27.206  22.386  1.00  0.00     0.094 C 
ENDBRANCH   7  17
ENDBRANCH   5   6
ENDBRANCH   3   5
ENDBRANCH   2   3
ENDBRANCH   1   2
BRANCH   1  19
ATOM     19  C   UNL A   1      31.842  30.598  26.364  1.00  0.00     0.275 C 
BRANCH  19  20
ATOM     20  O   UNL A   1      33.250  30.878  26.431  1.00  0.00    -0.458 OA
BRANCH  20  21
ATOM     21  C   UNL A   1      33.619  31.819  27.332  1.00  0.00     0.338 C 
ATOM     22  O   UNL A   1      33.058  32.866  27.593  1.00  0.00    -0.246 OA
BRANCH  21  23
ATOM     23  C   UNL A   1      34.880  31.383  27.948  1.00  0.00     0.060 A 
ATOM     24  C   UNL A   1      35.910  32.303  28.126  1.00  0.00     0.016 A 
ATOM     25  C   UNL A   1      35.016  30.070  28.402  1.00  0.00     0.016 A 
ATOM     26  C   UNL A   1      37.090  31.893  28.749  1.00  0.00     0.010 A 
ATOM     27  C   UNL A   1      36.165  29.680  29.084  1.00  0.00     0.010 A 
ATOM     28  C   UNL A   1      37.223  30.582  29.246  1.00  0.00    -0.014 A 
BRANCH  28  29
ATOM     29  C   UNL A   1      38.463  30.166  29.945  1.00  0.00     0.031 A 
ATOM     30  C   UNL A   1      38.749  30.641  31.341  1.00  0.00     0.074 A 
ATOM     31  C   UNL A   1      39.327  29.346  29.317  1.00  0.00     0.049 A 
ATOM     32  N   UNL A   1      39.729  30.304  32.142  1.00  0.00    -0.248 NA
ATOM     33  C   UNL A   1      37.822  31.630  31.917  1.00  0.00     0.031 C 
ATOM     34  C   UNL A   1      39.185  28.866  27.942  1.00  0.00     0.029 A 
ATOM     35  N   UNL A   1      40.485  28.754  29.759  1.00  0.00    -0.354 N 
ATOM     36  C   UNL A   1      39.523  31.016  33.315  1.00  0.00     0.074 A 
ATOM     37  C   UNL A   1      38.367  31.858  33.104  1.00  0.00     0.031 C 
ATOM     38  C   UNL A   1      40.183  28.009  27.670  1.00  0.00     0.029 A 
ATOM     39  C   UNL A   1      41.047  27.899  28.843  1.00  0.00     0.049 A 
ATOM     40  H   UNL A   1      40.874  28.927  30.646  1.00  0.00     0.167 HD
ATOM     41  C   UNL A   1      40.215  30.945  34.476  1.00  0.00     0.037 A 
ATOM     42  C   UNL A   1      42.126  27.099  28.948  1.00  0.00     0.037 A 
ATOM     43  C   UNL A   1      41.363  30.103  34.687  1.00  0.00     0.049 A 
ATOM     44  C   UNL A   1      42.891  27.066  30.242  1.00  0.00     0.074 A 
ATOM     45  C   UNL A   1      42.120  29.950  35.836  1.00  0.00     0.029 A 
ATOM     46  N   UNL A   1      41.917  29.271  33.727  1.00  0.00    -0.354 N 
ATOM     47  N   UNL A   1      42.645  27.692  31.367  1.00  0.00    -0.248 NA
ATOM     48  C   UNL A   1      44.085  26.207  30.283  1.00  0.00     0.031 C 
ATOM     49  C   UNL A   1      43.149  29.045  35.563  1.00  0.00     0.029 A 
ATOM     50  C   UNL A   1      43.012  28.608  34.256  1.00  0.00     0.049 A 
ATOM     51  H   UNL A   1      41.582  29.166  32.808  1.00  0.00     0.167 HD
ATOM     52  C   UNL A   1      43.630  27.283  32.254  1.00  0.00     0.074 A 
ATOM     53  C   UNL A   1      44.471  26.342  31.545  1.00  0.00     0.031 C 
ATOM     54  C   UNL A   1      43.823  27.657  33.542  1.00  0.00     0.037 A 
BRANCH  41  55
ATOM     55  C   UNL A   1      39.729  31.764  35.634  1.00  0.00     0.064 A 
ATOM     56  C   UNL A   1      40.233  33.053  35.863  1.00  0.00     0.173 A 
ATOM     57  C   UNL A   1      38.686  31.309  36.453  1.00  0.00     0.173 A 
ATOM     58  F   UNL A   1      41.236  33.529  35.111  1.00  0.00    -0.203 F 
ATOM     59  C   UNL A   1      39.712  33.855  36.875  1.00  0.00     0.198 A 
ATOM     60  C   UNL A   1      38.153  32.123  37.449  1.00  0.00     0.198 A 
ATOM     61  F   UNL A   1      38.164  30.086  36.268  1.00  0.00    -0.203 F 
ATOM     62  F   UNL A   1      40.220  35.077  37.086  1.00  0.00    -0.200 F 
ATOM     63  C   UNL A   1      38.665  33.395  37.658  1.00  0.00     0.200 A 
ATOM     64  F   UNL A   1      37.130  31.683  38.195  1.00  0.00    -0.200 F 
ATOM     65  F   UNL A   1      38.147  34.178  38.614  1.00  0.00    -0.200 F 
ENDBRANCH  41  55
BRANCH  42  66
ATOM     66  C   UNL A   1      42.513  26.217  27.817  1.00  0.00     0.064 A 
ATOM     67  C   UNL A   1      43.484  26.627  26.892  1.00  0.00     0.173 A 
ATOM     68  C   UNL A   1      41.915  24.964  27.624  1.00  0.00     0.173 A 
ATOM     69  F   UNL A   1      44.068  27.828  27.023  1.00  0.00    -0.203 F 
ATOM     70  C   UNL A   1      43.826  25.827  25.805  1.00  0.00     0.198 A 
ATOM     71  C   UNL A   1      42.278  24.152  26.551  1.00  0.00     0.198 A 
ATOM     72  F   UNL A   1      40.983  24.525  28.482  1.00  0.00    -0.203 F 
ATOM     73  F   UNL A   1      44.721  26.264  24.909  1.00  0.00    -0.200 F 
ATOM     74  C   UNL A   1      43.226  24.588  25.638  1.00  0.00     0.200 A 
ATOM     75  F   UNL A   1      41.705  22.951  26.398  1.00  0.00    -0.200 F 
ATOM     76  F   UNL A   1      43.554  23.819  24.591  1.00  0.00    -0.200 F 
ENDBRANCH  42  66
BRANCH  54  77
ATOM     77  C   UNL A   1      44.968  27.032  34.282  1.00  0.00     0.064 A 
ATOM     78  C   UNL A   1      46.228  27.645  34.331  1.00  0.00     0.173 A 
ATOM     79  C   UNL A   1      44.782  25.847  35.009  1.00  0.00     0.173 A 
ATOM     80  F   UNL A   1      46.458  28.773  33.642  1.00  0.00    -0.203 F 
ATOM     81  C   UNL A   1      47.266  27.084  35.070  1.00  0.00     0.198 A 
ATOM     82  C   UNL A   1      45.814  25.304  35.768  1.00  0.00     0.198 A 
ATOM     83  F   UNL A   1      43.591  25.229  35.000  1.00  0.00    -0.203 F 
ATOM     84  F   UNL A   1      48.472  27.669  35.076  1.00  0.00    -0.200 F 
ATOM     85  C   UNL A   1      47.056  25.920  35.795  1.00  0.00     0.200 A 
ATOM     86  F   UNL A   1      45.605  24.188  36.480  1.00  0.00    -0.200 F 
ATOM     87  F   UNL A   1      48.052  25.391  36.518  1.00  0.00    -0.200 F 
ENDBRANCH  54  77
ENDBRANCH  28  29
ENDBRANCH  21  23
ENDBRANCH  20  21
ENDBRANCH  19  20
ENDBRANCH   1  19
TORSDOF 13
ENDMDL
