MODEL 1
REMARK VINA RESULT:     -16.0      0.000      0.000
REMARK SMILES O=C(OCCOC(=O)c1ccc(-c2c3nc(c(-c4c(F)c(F)c(F)c(F)c4F)c4ccc([nH]4)c(-c4c(F)c(F)c(F)c(F)c4F)c4nc(c(-c5c(F)c(F)c(F)c(F)c5F)c5ccc2[nH]5)C=C4)C=C3)cc1)C1=Cc2cc(Cl)cc(-c3ccccc3)c2O[C@@H]1C(F)(F)F
REMARK SMILES IDX 5 1 4 2 3 3 2 4 1 5 72 6 73 7 88 8 74 9 87 10 75 11 86 12
REMARK SMILES IDX 76 13 79 14 77 15 78 16 89 17 90 18 91 19 92 20 80 21 81 22
REMARK SMILES IDX 85 23 82 24 84 25 83 26 6 27 7 28 8 29 9 30 10 31 71 32
REMARK SMILES IDX 11 33 70 34 12 35 13 36 14 37 64 38 15 39 69 40 63 41 65 42
REMARK SMILES IDX 16 43 68 44 62 45 61 46 17 48 49 49 29 50 48 51 30 52 33 53
REMARK SMILES IDX 47 54 66 55 31 56 32 57 46 59 67 60 34 61 18 62 19 63 27 64
REMARK SMILES IDX 20 65 21 66 25 67 28 68 22 69 23 70 26 71 24 72 50 73 51 74
REMARK SMILES IDX 59 75 52 76 53 77 57 78 60 79 54 80 55 81 58 82 56 83 35 84
REMARK SMILES IDX 36 85 44 86 37 87 38 88 42 89 45 90 39 91 40 92 43 93 41 94
REMARK H PARENT 65 47 33 58
REMARK Flexibility Score: inf
ROOT
ATOM      1  C   UNL A   1      31.923  29.800  25.970  1.00  0.00     0.275 C 
ENDROOT
BRANCH   1   2
ATOM      2  C   UNL A   1      31.745  27.654  25.727  1.00  0.00     0.275 C 
BRANCH   2   3
ATOM      3  O   UNL A   1      32.709  26.575  26.343  1.00  0.00    -0.459 OA
BRANCH   3   4
ATOM      4  C   UNL A   1      32.228  25.329  26.289  1.00  0.00     0.338 C 
ATOM      5  O   UNL A   1      31.690  24.644  27.118  1.00  0.00    -0.246 OA
BRANCH   4   6
ATOM      6  C   UNL A   1      32.825  25.028  25.018  1.00  0.00     0.087 C 
ATOM      7  C   UNL A   1      34.282  24.821  25.193  1.00  0.00     0.027 C 
ATOM      8  C   UNL A   1      31.572  23.665  24.456  1.00  0.00     0.316 C 
ATOM      9  C   UNL A   1      35.080  23.203  25.014  1.00  0.00     0.019 A 
ATOM     10  O   UNL A   1      32.403  21.933  24.298  1.00  0.00    -0.475 OA
ATOM     11  C   UNL A   1      36.407  23.128  25.339  1.00  0.00     0.032 A 
ATOM     12  C   UNL A   1      34.176  21.744  24.676  1.00  0.00     0.135 A 
ATOM     13  C   UNL A   1      36.927  21.834  25.360  1.00  0.00     0.042 A 
ATOM     14  C   UNL A   1      34.770  20.507  24.780  1.00  0.00     0.026 A 
ATOM     15  Cl  UNL A   1      38.597  21.660  25.791  1.00  0.00    -0.084 Cl
ATOM     16  C   UNL A   1      36.168  20.628  25.102  1.00  0.00     0.033 A 
BRANCH   8  17
ATOM     17  C   UNL A   1      30.685  24.499  23.474  1.00  0.00     0.430 C 
ATOM     18  F   UNL A   1      31.402  25.073  22.498  1.00  0.00    -0.167 F 
ATOM     19  F   UNL A   1      29.852  23.630  22.825  1.00  0.00    -0.167 F 
ATOM     20  F   UNL A   1      29.832  25.380  24.031  1.00  0.00    -0.167 F 
ENDBRANCH   8  17
BRANCH  14  21
ATOM     21  C   UNL A   1      34.225  19.156  24.747  1.00  0.00    -0.015 A 
ATOM     22  C   UNL A   1      33.008  18.906  25.420  1.00  0.00     0.009 A 
ATOM     23  C   UNL A   1      34.980  18.060  24.321  1.00  0.00     0.009 A 
ATOM     24  C   UNL A   1      32.578  17.607  25.691  1.00  0.00     0.001 A 
ATOM     25  C   UNL A   1      34.547  16.755  24.592  1.00  0.00     0.001 A 
ATOM     26  C   UNL A   1      33.355  16.529  25.283  1.00  0.00     0.000 A 
ENDBRANCH  14  21
ENDBRANCH   4   6
ENDBRANCH   3   4
ENDBRANCH   2   3
ENDBRANCH   1   2
BRANCH   1  27
ATOM     27  O   UNL A   1      32.841  30.620  27.113  1.00  0.00    -0.458 OA
BRANCH  27  28
ATOM     28  C   UNL A   1      33.394  31.826  27.428  1.00  0.00     0.338 C 
ATOM     29  O   UNL A   1      32.871  32.889  27.690  1.00  0.00    -0.246 OA
BRANCH  28  30
ATOM     30  C   UNL A   1      34.831  31.509  27.679  1.00  0.00     0.060 A 
ATOM     31  C   UNL A   1      35.748  32.562  27.820  1.00  0.00     0.016 A 
ATOM     32  C   UNL A   1      35.156  30.234  28.142  1.00  0.00     0.016 A 
ATOM     33  C   UNL A   1      36.864  32.400  28.656  1.00  0.00     0.010 A 
ATOM     34  C   UNL A   1      36.300  30.060  28.918  1.00  0.00     0.010 A 
ATOM     35  C   UNL A   1      37.119  31.154  29.247  1.00  0.00    -0.014 A 
BRANCH  35  36
ATOM     36  C   UNL A   1      38.347  30.877  30.031  1.00  0.00     0.031 A 
ATOM     37  C   UNL A   1      39.298  29.894  29.431  1.00  0.00     0.074 A 
ATOM     38  C   UNL A   1      38.519  31.319  31.293  1.00  0.00     0.049 A 
ATOM     39  N   UNL A   1      40.278  29.232  29.984  1.00  0.00    -0.248 NA
ATOM     40  C   UNL A   1      39.059  29.568  28.017  1.00  0.00     0.031 C 
ATOM     41  C   UNL A   1      37.661  32.276  31.990  1.00  0.00     0.029 A 
ATOM     42  N   UNL A   1      39.463  30.972  32.234  1.00  0.00    -0.354 N 
ATOM     43  C   UNL A   1      40.742  28.381  28.994  1.00  0.00     0.074 A 
ATOM     44  C   UNL A   1      39.916  28.585  27.825  1.00  0.00     0.031 C 
ATOM     45  C   UNL A   1      38.098  32.415  33.257  1.00  0.00     0.029 A 
ATOM     46  C   UNL A   1      39.244  31.532  33.473  1.00  0.00     0.049 A 
ATOM     47  H   UNL A   1      40.225  30.380  32.039  1.00  0.00     0.167 HD
ATOM     48  C   UNL A   1      41.766  27.499  29.049  1.00  0.00     0.037 A 
ATOM     49  C   UNL A   1      39.884  31.323  34.644  1.00  0.00     0.037 A 
ATOM     50  C   UNL A   1      42.561  27.277  30.219  1.00  0.00     0.049 A 
ATOM     51  C   UNL A   1      41.022  30.326  34.693  1.00  0.00     0.074 A 
ATOM     52  C   UNL A   1      43.627  26.416  30.390  1.00  0.00     0.029 A 
ATOM     53  N   UNL A   1      42.360  27.923  31.431  1.00  0.00    -0.354 N 
ATOM     54  N   UNL A   1      41.497  29.560  33.739  1.00  0.00    -0.248 NA
ATOM     55  C   UNL A   1      41.711  30.159  35.983  1.00  0.00     0.031 C 
ATOM     56  C   UNL A   1      44.049  26.513  31.720  1.00  0.00     0.029 A 
ATOM     57  C   UNL A   1      43.279  27.475  32.361  1.00  0.00     0.049 A 
ATOM     58  H   UNL A   1      41.666  28.600  31.603  1.00  0.00     0.167 HD
ATOM     59  C   UNL A   1      42.559  28.858  34.297  1.00  0.00     0.074 A 
ATOM     60  C   UNL A   1      42.659  29.282  35.677  1.00  0.00     0.031 C 
ATOM     61  C   UNL A   1      43.379  27.946  33.719  1.00  0.00     0.037 A 
BRANCH  48  62
ATOM     62  C   UNL A   1      42.005  26.698  27.806  1.00  0.00     0.064 A 
ATOM     63  C   UNL A   1      41.377  25.458  27.603  1.00  0.00     0.173 A 
ATOM     64  C   UNL A   1      42.970  27.109  26.877  1.00  0.00     0.173 A 
ATOM     65  F   UNL A   1      40.473  25.007  28.487  1.00  0.00    -0.203 F 
ATOM     66  C   UNL A   1      41.764  24.625  26.559  1.00  0.00     0.198 A 
ATOM     67  C   UNL A   1      43.325  26.290  25.808  1.00  0.00     0.198 A 
ATOM     68  F   UNL A   1      43.603  28.282  27.029  1.00  0.00    -0.203 F 
ATOM     69  F   UNL A   1      41.237  23.397  26.454  1.00  0.00    -0.200 F 
ATOM     70  C   UNL A   1      42.739  25.041  25.664  1.00  0.00     0.200 A 
ATOM     71  F   UNL A   1      44.265  26.691  24.942  1.00  0.00    -0.200 F 
ATOM     72  F   UNL A   1      43.134  24.224  24.677  1.00  0.00    -0.200 F 
ENDBRANCH  48  62
BRANCH  49  73
ATOM     73  C   UNL A   1      39.484  32.063  35.875  1.00  0.00     0.064 A 
ATOM     74  C   UNL A   1      38.483  31.562  36.721  1.00  0.00     0.173 A 
ATOM     75  C   UNL A   1      40.050  33.302  36.211  1.00  0.00     0.173 A 
ATOM     76  F   UNL A   1      37.881  30.399  36.425  1.00  0.00    -0.203 F 
ATOM     77  C   UNL A   1      38.051  32.275  37.839  1.00  0.00     0.198 A 
ATOM     78  C   UNL A   1      39.635  34.005  37.344  1.00  0.00     0.198 A 
ATOM     79  F   UNL A   1      41.003  33.839  35.435  1.00  0.00    -0.203 F 
ATOM     80  F   UNL A   1      37.055  31.793  38.595  1.00  0.00    -0.200 F 
ATOM     81  C   UNL A   1      38.630  33.494  38.152  1.00  0.00     0.200 A 
ATOM     82  F   UNL A   1      40.197  35.184  37.644  1.00  0.00    -0.200 F 
ATOM     83  F   UNL A   1      38.211  34.183  39.222  1.00  0.00    -0.200 F 
ENDBRANCH  49  73
BRANCH  61  84
ATOM     84  C   UNL A   1      44.507  27.388  34.538  1.00  0.00     0.064 A 
ATOM     85  C   UNL A   1      45.731  28.056  34.666  1.00  0.00     0.173 A 
ATOM     86  C   UNL A   1      44.301  26.232  35.307  1.00  0.00     0.173 A 
ATOM     87  F   UNL A   1      45.978  29.160  33.944  1.00  0.00    -0.203 F 
ATOM     88  C   UNL A   1      46.711  27.587  35.538  1.00  0.00     0.198 A 
ATOM     89  C   UNL A   1      45.271  25.782  36.198  1.00  0.00     0.198 A 
ATOM     90  F   UNL A   1      43.141  25.563  35.226  1.00  0.00    -0.203 F 
ATOM     91  F   UNL A   1      47.881  28.233  35.638  1.00  0.00    -0.200 F 
ATOM     92  C   UNL A   1      46.475  26.460  36.314  1.00  0.00     0.200 A 
ATOM     93  F   UNL A   1      45.032  24.705  36.959  1.00  0.00    -0.200 F 
ATOM     94  F   UNL A   1      47.405  26.031  37.176  1.00  0.00    -0.200 F 
ENDBRANCH  61  84
ENDBRANCH  35  36
ENDBRANCH  28  30
ENDBRANCH  27  28
ENDBRANCH   1  27
TORSDOF 13
ENDMDL
MODEL 2
REMARK VINA RESULT:     -15.9      0.239      1.133
REMARK SMILES O=C(OCCOC(=O)c1ccc(-c2c3nc(c(-c4c(F)c(F)c(F)c(F)c4F)c4ccc([nH]4)c(-c4c(F)c(F)c(F)c(F)c4F)c4nc(c(-c5c(F)c(F)c(F)c(F)c5F)c5ccc2[nH]5)C=C4)C=C3)cc1)C1=Cc2cc(Cl)cc(-c3ccccc3)c2O[C@@H]1C(F)(F)F
REMARK SMILES IDX 5 1 4 2 3 3 2 4 1 5 72 6 73 7 88 8 74 9 87 10 75 11 86 12
REMARK SMILES IDX 76 13 79 14 77 15 78 16 89 17 90 18 91 19 92 20 80 21 81 22
REMARK SMILES IDX 85 23 82 24 84 25 83 26 6 27 7 28 8 29 9 30 10 31 71 32
REMARK SMILES IDX 11 33 70 34 12 35 13 36 14 37 64 38 15 39 69 40 63 41 65 42
REMARK SMILES IDX 16 43 68 44 62 45 61 46 17 48 49 49 29 50 48 51 30 52 33 53
REMARK SMILES IDX 47 54 66 55 31 56 32 57 46 59 67 60 34 61 18 62 19 63 27 64
REMARK SMILES IDX 20 65 21 66 25 67 28 68 22 69 23 70 26 71 24 72 50 73 51 74
REMARK SMILES IDX 59 75 52 76 53 77 57 78 60 79 54 80 55 81 58 82 56 83 35 84
REMARK SMILES IDX 36 85 44 86 37 87 38 88 42 89 45 90 39 91 40 92 43 93 41 94
REMARK H PARENT 65 47 33 58
REMARK Flexibility Score: inf
ROOT
ATOM      1  C   UNL A   1      31.830  29.598  26.282  1.00  0.00     0.275 C 
ENDROOT
BRANCH   1   2
ATOM      2  C   UNL A   1      31.531  27.458  26.455  1.00  0.00     0.275 C 
BRANCH   2   3
ATOM      3  O   UNL A   1      32.664  26.368  26.462  1.00  0.00    -0.459 OA
BRANCH   3   4
ATOM      4  C   UNL A   1      32.206  25.114  26.386  1.00  0.00     0.338 C 
ATOM      5  O   UNL A   1      31.677  24.406  27.202  1.00  0.00    -0.246 OA
BRANCH   4   6
ATOM      6  C   UNL A   1      32.815  24.844  25.114  1.00  0.00     0.087 C 
ATOM      7  C   UNL A   1      34.267  24.614  25.299  1.00  0.00     0.027 C 
ATOM      8  C   UNL A   1      31.553  23.514  24.496  1.00  0.00     0.316 C 
ATOM      9  C   UNL A   1      35.048  22.993  25.080  1.00  0.00     0.019 A 
ATOM     10  O   UNL A   1      32.365  21.778  24.295  1.00  0.00    -0.475 OA
ATOM     11  C   UNL A   1      36.370  22.891  25.419  1.00  0.00     0.032 A 
ATOM     12  C   UNL A   1      34.130  21.555  24.689  1.00  0.00     0.135 A 
ATOM     13  C   UNL A   1      36.874  21.591  25.407  1.00  0.00     0.042 A 
ATOM     14  C   UNL A   1      34.709  20.309  24.761  1.00  0.00     0.026 A 
ATOM     15  Cl  UNL A   1      38.537  21.384  25.852  1.00  0.00    -0.084 Cl
ATOM     16  C   UNL A   1      36.104  20.403  25.103  1.00  0.00     0.033 A 
BRANCH   8  17
ATOM     17  C   UNL A   1      30.688  24.388  23.530  1.00  0.00     0.430 C 
ATOM     18  F   UNL A   1      31.425  24.997  22.591  1.00  0.00    -0.167 F 
ATOM     19  F   UNL A   1      29.865  23.547  22.831  1.00  0.00    -0.167 F 
ATOM     20  F   UNL A   1      29.826  25.249  24.103  1.00  0.00    -0.167 F 
ENDBRANCH   8  17
BRANCH  14  21
ATOM     21  C   UNL A   1      34.148  18.967  24.682  1.00  0.00    -0.015 A 
ATOM     22  C   UNL A   1      32.955  18.693  25.388  1.00  0.00     0.009 A 
ATOM     23  C   UNL A   1      34.874  17.886  24.172  1.00  0.00     0.009 A 
ATOM     24  C   UNL A   1      32.521  17.386  25.610  1.00  0.00     0.001 A 
ATOM     25  C   UNL A   1      34.438  16.574  24.393  1.00  0.00     0.001 A 
ATOM     26  C   UNL A   1      33.270  16.324  25.117  1.00  0.00     0.000 A 
ENDBRANCH  14  21
ENDBRANCH   4   6
ENDBRANCH   3   4
ENDBRANCH   2   3
ENDBRANCH   1   2
BRANCH   1  27
ATOM     27  O   UNL A   1      32.701  30.589  27.322  1.00  0.00    -0.458 OA
BRANCH  27  28
ATOM     28  C   UNL A   1      33.276  31.818  27.455  1.00  0.00     0.338 C 
ATOM     29  O   UNL A   1      32.771  32.914  27.589  1.00  0.00    -0.246 OA
BRANCH  28  30
ATOM     30  C   UNL A   1      34.717  31.518  27.698  1.00  0.00     0.060 A 
ATOM     31  C   UNL A   1      35.622  32.582  27.842  1.00  0.00     0.016 A 
ATOM     32  C   UNL A   1      35.060  30.245  28.153  1.00  0.00     0.016 A 
ATOM     33  C   UNL A   1      36.743  32.429  28.673  1.00  0.00     0.010 A 
ATOM     34  C   UNL A   1      36.209  30.080  28.922  1.00  0.00     0.010 A 
ATOM     35  C   UNL A   1      37.015  31.183  29.255  1.00  0.00    -0.014 A 
BRANCH  35  36
ATOM     36  C   UNL A   1      38.250  30.917  30.033  1.00  0.00     0.031 A 
ATOM     37  C   UNL A   1      39.207  29.943  29.428  1.00  0.00     0.074 A 
ATOM     38  C   UNL A   1      38.425  31.360  31.295  1.00  0.00     0.049 A 
ATOM     39  N   UNL A   1      40.196  29.290  29.976  1.00  0.00    -0.248 NA
ATOM     40  C   UNL A   1      38.963  29.615  28.015  1.00  0.00     0.031 C 
ATOM     41  C   UNL A   1      37.562  32.309  31.996  1.00  0.00     0.029 A 
ATOM     42  N   UNL A   1      39.376  31.022  32.231  1.00  0.00    -0.354 N 
ATOM     43  C   UNL A   1      40.662  28.442  28.983  1.00  0.00     0.074 A 
ATOM     44  C   UNL A   1      39.829  28.640  27.818  1.00  0.00     0.031 C 
ATOM     45  C   UNL A   1      38.003  32.452  33.261  1.00  0.00     0.029 A 
ATOM     46  C   UNL A   1      39.158  31.579  33.471  1.00  0.00     0.049 A 
ATOM     47  H   UNL A   1      40.142  30.436  32.031  1.00  0.00     0.167 HD
ATOM     48  C   UNL A   1      41.694  27.570  29.032  1.00  0.00     0.037 A 
ATOM     49  C   UNL A   1      39.806  31.376  34.639  1.00  0.00     0.037 A 
ATOM     50  C   UNL A   1      42.498  27.355  30.198  1.00  0.00     0.049 A 
ATOM     51  C   UNL A   1      40.954  30.389  34.681  1.00  0.00     0.074 A 
ATOM     52  C   UNL A   1      43.572  26.504  30.364  1.00  0.00     0.029 A 
ATOM     53  N   UNL A   1      42.296  27.999  31.412  1.00  0.00    -0.354 N 
ATOM     54  N   UNL A   1      41.430  29.628  33.724  1.00  0.00    -0.248 NA
ATOM     55  C   UNL A   1      41.651  30.228  35.968  1.00  0.00     0.031 C 
ATOM     56  C   UNL A   1      44.000  26.604  31.692  1.00  0.00     0.029 A 
ATOM     57  C   UNL A   1      43.225  27.558  32.337  1.00  0.00     0.049 A 
ATOM     58  H   UNL A   1      41.597  28.669  31.588  1.00  0.00     0.167 HD
ATOM     59  C   UNL A   1      42.501  28.935  34.277  1.00  0.00     0.074 A 
ATOM     60  C   UNL A   1      42.605  29.360  35.657  1.00  0.00     0.031 C 
ATOM     61  C   UNL A   1      43.327  28.031  33.695  1.00  0.00     0.037 A 
BRANCH  48  62
ATOM     62  C   UNL A   1      41.935  26.772  27.788  1.00  0.00     0.064 A 
ATOM     63  C   UNL A   1      41.308  25.532  27.583  1.00  0.00     0.173 A 
ATOM     64  C   UNL A   1      42.899  27.185  26.859  1.00  0.00     0.173 A 
ATOM     65  F   UNL A   1      40.405  25.078  28.466  1.00  0.00    -0.203 F 
ATOM     66  C   UNL A   1      41.696  24.701  26.537  1.00  0.00     0.198 A 
ATOM     67  C   UNL A   1      43.255  26.369  25.790  1.00  0.00     0.198 A 
ATOM     68  F   UNL A   1      43.530  28.359  27.014  1.00  0.00    -0.203 F 
ATOM     69  F   UNL A   1      41.171  23.472  26.430  1.00  0.00    -0.200 F 
ATOM     70  C   UNL A   1      42.670  25.120  25.643  1.00  0.00     0.200 A 
ATOM     71  F   UNL A   1      44.194  26.773  24.924  1.00  0.00    -0.200 F 
ATOM     72  F   UNL A   1      43.067  24.304  24.655  1.00  0.00    -0.200 F 
ENDBRANCH  48  62
BRANCH  49  73
ATOM     73  C   UNL A   1      39.406  32.112  35.871  1.00  0.00     0.064 A 
ATOM     74  C   UNL A   1      38.481  31.557  36.770  1.00  0.00     0.173 A 
ATOM     75  C   UNL A   1      39.893  33.396  36.159  1.00  0.00     0.173 A 
ATOM     76  F   UNL A   1      37.955  30.348  36.524  1.00  0.00    -0.203 F 
ATOM     77  C   UNL A   1      38.046  32.262  37.893  1.00  0.00     0.198 A 
ATOM     78  C   UNL A   1      39.475  34.091  37.295  1.00  0.00     0.198 A 
ATOM     79  F   UNL A   1      40.770  33.983  35.331  1.00  0.00    -0.203 F 
ATOM     80  F   UNL A   1      37.122  31.726  38.702  1.00  0.00    -0.200 F 
ATOM     81  C   UNL A   1      38.547  33.527  38.157  1.00  0.00     0.200 A 
ATOM     82  F   UNL A   1      39.961  35.314  37.548  1.00  0.00    -0.200 F 
ATOM     83  F   UNL A   1      38.124  34.206  39.231  1.00  0.00    -0.200 F 
ENDBRANCH  49  73
BRANCH  61  84
ATOM     84  C   UNL A   1      44.464  27.483  34.508  1.00  0.00     0.064 A 
ATOM     85  C   UNL A   1      44.358  26.276  35.210  1.00  0.00     0.173 A 
ATOM     86  C   UNL A   1      45.715  28.119  34.471  1.00  0.00     0.173 A 
ATOM     87  F   UNL A   1      43.181  25.637  35.283  1.00  0.00    -0.203 F 
ATOM     88  C   UNL A   1      45.467  25.722  35.846  1.00  0.00     0.198 A 
ATOM     89  C   UNL A   1      46.827  27.549  35.083  1.00  0.00     0.198 A 
ATOM     90  F   UNL A   1      45.868  29.272  33.803  1.00  0.00    -0.203 F 
ATOM     91  F   UNL A   1      45.343  24.572  36.523  1.00  0.00    -0.200 F 
ATOM     92  C   UNL A   1      46.702  26.350  35.769  1.00  0.00     0.200 A 
ATOM     93  F   UNL A   1      48.022  28.148  34.992  1.00  0.00    -0.200 F 
ATOM     94  F   UNL A   1      47.774  25.798  36.353  1.00  0.00    -0.200 F 
ENDBRANCH  61  84
ENDBRANCH  35  36
ENDBRANCH  28  30
ENDBRANCH  27  28
ENDBRANCH   1  27
TORSDOF 13
ENDMDL
MODEL 3
REMARK VINA RESULT:     -15.6      0.749      7.308
REMARK SMILES O=C(OCCOC(=O)c1ccc(-c2c3nc(c(-c4c(F)c(F)c(F)c(F)c4F)c4ccc([nH]4)c(-c4c(F)c(F)c(F)c(F)c4F)c4nc(c(-c5c(F)c(F)c(F)c(F)c5F)c5ccc2[nH]5)C=C4)C=C3)cc1)C1=Cc2cc(Cl)cc(-c3ccccc3)c2O[C@@H]1C(F)(F)F
REMARK SMILES IDX 5 1 4 2 3 3 2 4 1 5 72 6 73 7 88 8 74 9 87 10 75 11 86 12
REMARK SMILES IDX 76 13 79 14 77 15 78 16 89 17 90 18 91 19 92 20 80 21 81 22
REMARK SMILES IDX 85 23 82 24 84 25 83 26 6 27 7 28 8 29 9 30 10 31 71 32
REMARK SMILES IDX 11 33 70 34 12 35 13 36 14 37 64 38 15 39 69 40 63 41 65 42
REMARK SMILES IDX 16 43 68 44 62 45 61 46 17 48 49 49 29 50 48 51 30 52 33 53
REMARK SMILES IDX 47 54 66 55 31 56 32 57 46 59 67 60 34 61 18 62 19 63 27 64
REMARK SMILES IDX 20 65 21 66 25 67 28 68 22 69 23 70 26 71 24 72 50 73 51 74
REMARK SMILES IDX 59 75 52 76 53 77 57 78 60 79 54 80 55 81 58 82 56 83 35 84
REMARK SMILES IDX 36 85 44 86 37 87 38 88 42 89 45 90 39 91 40 92 43 93 41 94
REMARK H PARENT 65 47 33 58
REMARK Flexibility Score: inf
ROOT
ATOM      1  C   UNL A   1      31.896  29.939  25.954  1.00  0.00     0.275 C 
ENDROOT
BRANCH   1   2
ATOM      2  C   UNL A   1      31.678  27.788  25.806  1.00  0.00     0.275 C 
BRANCH   2   3
ATOM      3  O   UNL A   1      32.669  26.720  26.397  1.00  0.00    -0.459 OA
BRANCH   3   4
ATOM      4  C   UNL A   1      32.205  25.467  26.346  1.00  0.00     0.338 C 
ATOM      5  O   UNL A   1      31.677  24.776  27.177  1.00  0.00    -0.246 OA
BRANCH   4   6
ATOM      6  C   UNL A   1      32.804  25.172  25.075  1.00  0.00     0.087 C 
ATOM      7  C   UNL A   1      34.261  24.964  25.252  1.00  0.00     0.027 C 
ATOM      8  C   UNL A   1      31.552  23.812  24.503  1.00  0.00     0.316 C 
ATOM      9  C   UNL A   1      35.059  23.347  25.066  1.00  0.00     0.019 A 
ATOM     10  O   UNL A   1      32.383  22.082  24.338  1.00  0.00    -0.475 OA
ATOM     11  C   UNL A   1      36.385  23.269  25.394  1.00  0.00     0.032 A 
ATOM     12  C   UNL A   1      34.154  21.889  24.719  1.00  0.00     0.135 A 
ATOM     13  C   UNL A   1      36.904  21.975  25.409  1.00  0.00     0.042 A 
ATOM     14  C   UNL A   1      34.748  20.652  24.818  1.00  0.00     0.026 A 
ATOM     15  Cl  UNL A   1      38.573  21.798  25.843  1.00  0.00    -0.084 Cl
ATOM     16  C   UNL A   1      36.145  20.770  25.143  1.00  0.00     0.033 A 
BRANCH   8  17
ATOM     17  C   UNL A   1      30.668  24.652  23.524  1.00  0.00     0.430 C 
ATOM     18  F   UNL A   1      31.395  25.305  22.608  1.00  0.00    -0.167 F 
ATOM     19  F   UNL A   1      29.904  23.778  22.799  1.00  0.00    -0.167 F 
ATOM     20  F   UNL A   1      29.751  25.465  24.083  1.00  0.00    -0.167 F 
ENDBRANCH   8  17
BRANCH  14  21
ATOM     21  C   UNL A   1      34.203  19.302  24.778  1.00  0.00    -0.015 A 
ATOM     22  C   UNL A   1      32.998  19.042  25.469  1.00  0.00     0.009 A 
ATOM     23  C   UNL A   1      34.949  18.211  24.324  1.00  0.00     0.009 A 
ATOM     24  C   UNL A   1      32.572  17.739  25.731  1.00  0.00     0.001 A 
ATOM     25  C   UNL A   1      34.521  16.903  24.585  1.00  0.00     0.001 A 
ATOM     26  C   UNL A   1      33.342  16.667  25.294  1.00  0.00     0.000 A 
ENDBRANCH  14  21
ENDBRANCH   4   6
ENDBRANCH   3   4
ENDBRANCH   2   3
ENDBRANCH   1   2
BRANCH   1  27
ATOM     27  O   UNL A   1      32.673  30.800  27.170  1.00  0.00    -0.458 OA
BRANCH  27  28
ATOM     28  C   UNL A   1      33.486  31.864  27.425  1.00  0.00     0.338 C 
ATOM     29  O   UNL A   1      33.217  33.025  27.652  1.00  0.00    -0.246 OA
BRANCH  28  30
ATOM     30  C   UNL A   1      34.825  31.246  27.660  1.00  0.00     0.060 A 
ATOM     31  C   UNL A   1      35.909  32.074  27.993  1.00  0.00     0.016 A 
ATOM     32  C   UNL A   1      34.885  29.878  27.922  1.00  0.00     0.016 A 
ATOM     33  C   UNL A   1      36.928  31.578  28.822  1.00  0.00     0.010 A 
ATOM     34  C   UNL A   1      35.932  29.375  28.690  1.00  0.00     0.010 A 
ATOM     35  C   UNL A   1      36.917  30.231  29.212  1.00  0.00    -0.014 A 
BRANCH  35  36
ATOM     36  C   UNL A   1      38.028  29.611  29.975  1.00  0.00     0.031 A 
ATOM     37  C   UNL A   1      38.249  30.141  31.354  1.00  0.00     0.074 A 
ATOM     38  C   UNL A   1      38.915  28.767  29.412  1.00  0.00     0.049 A 
ATOM     39  N   UNL A   1      39.287  30.029  32.138  1.00  0.00    -0.248 NA
ATOM     40  C   UNL A   1      37.161  30.971  31.892  1.00  0.00     0.031 C 
ATOM     41  C   UNL A   1      38.812  28.183  28.076  1.00  0.00     0.029 A 
ATOM     42  N   UNL A   1      40.116  28.293  29.890  1.00  0.00    -0.354 N 
ATOM     43  C   UNL A   1      38.991  30.812  33.243  1.00  0.00     0.074 A 
ATOM     44  C   UNL A   1      37.699  31.417  33.011  1.00  0.00     0.031 C 
ATOM     45  C   UNL A   1      39.919  27.455  27.828  1.00  0.00     0.029 A 
ATOM     46  C   UNL A   1      40.825  27.550  28.972  1.00  0.00     0.049 A 
ATOM     47  H   UNL A   1      40.438  28.468  30.804  1.00  0.00     0.167 HD
ATOM     48  C   UNL A   1      39.730  31.016  34.356  1.00  0.00     0.037 A 
ATOM     49  C   UNL A   1      42.073  27.038  29.050  1.00  0.00     0.037 A 
ATOM     50  C   UNL A   1      41.024  30.439  34.568  1.00  0.00     0.049 A 
ATOM     51  C   UNL A   1      42.892  27.282  30.299  1.00  0.00     0.074 A 
ATOM     52  C   UNL A   1      41.861  30.569  35.659  1.00  0.00     0.029 A 
ATOM     53  N   UNL A   1      41.673  29.626  33.649  1.00  0.00    -0.354 N 
ATOM     54  N   UNL A   1      42.587  27.979  31.369  1.00  0.00    -0.248 NA
ATOM     55  C   UNL A   1      44.232  26.674  30.351  1.00  0.00     0.031 C 
ATOM     56  C   UNL A   1      43.037  29.863  35.384  1.00  0.00     0.029 A 
ATOM     57  C   UNL A   1      42.908  29.250  34.145  1.00  0.00     0.049 A 
ATOM     58  H   UNL A   1      41.309  29.357  32.775  1.00  0.00     0.167 HD
ATOM     59  C   UNL A   1      43.671  27.858  32.232  1.00  0.00     0.074 A 
ATOM     60  C   UNL A   1      44.647  27.026  31.561  1.00  0.00     0.031 C 
ATOM     61  C   UNL A   1      43.842  28.386  33.469  1.00  0.00     0.037 A 
BRANCH  48  62
ATOM     62  C   UNL A   1      39.140  31.947  35.370  1.00  0.00     0.064 A 
ATOM     63  C   UNL A   1      39.478  33.310  35.396  1.00  0.00     0.173 A 
ATOM     64  C   UNL A   1      38.337  31.447  36.404  1.00  0.00     0.173 A 
ATOM     65  F   UNL A   1      40.275  33.825  34.447  1.00  0.00    -0.203 F 
ATOM     66  C   UNL A   1      39.099  34.119  36.462  1.00  0.00     0.198 A 
ATOM     67  C   UNL A   1      37.924  32.270  37.448  1.00  0.00     0.198 A 
ATOM     68  F   UNL A   1      37.990  30.151  36.428  1.00  0.00    -0.203 F 
ATOM     69  F   UNL A   1      39.533  35.385  36.526  1.00  0.00    -0.200 F 
ATOM     70  C   UNL A   1      38.324  33.598  37.487  1.00  0.00     0.200 A 
ATOM     71  F   UNL A   1      37.174  31.769  38.438  1.00  0.00    -0.200 F 
ATOM     72  F   UNL A   1      37.988  34.370  38.530  1.00  0.00    -0.200 F 
ENDBRANCH  48  62
BRANCH  49  73
ATOM     73  C   UNL A   1      42.640  26.238  27.927  1.00  0.00     0.064 A 
ATOM     74  C   UNL A   1      43.430  26.847  26.940  1.00  0.00     0.173 A 
ATOM     75  C   UNL A   1      42.372  24.868  27.783  1.00  0.00     0.173 A 
ATOM     76  F   UNL A   1      43.686  28.163  27.008  1.00  0.00    -0.203 F 
ATOM     77  C   UNL A   1      43.912  26.126  25.847  1.00  0.00     0.198 A 
ATOM     78  C   UNL A   1      42.875  24.141  26.703  1.00  0.00     0.198 A 
ATOM     79  F   UNL A   1      41.613  24.234  28.689  1.00  0.00    -0.203 F 
ATOM     80  F   UNL A   1      44.619  26.749  24.894  1.00  0.00    -0.200 F 
ATOM     81  C   UNL A   1      43.638  24.773  25.732  1.00  0.00     0.200 A 
ATOM     82  F   UNL A   1      42.608  22.833  26.593  1.00  0.00    -0.200 F 
ATOM     83  F   UNL A   1      44.096  24.081  24.679  1.00  0.00    -0.200 F 
ENDBRANCH  49  73
BRANCH  61  84
ATOM     84  C   UNL A   1      45.091  28.033  34.223  1.00  0.00     0.064 A 
ATOM     85  C   UNL A   1      46.229  28.850  34.195  1.00  0.00     0.173 A 
ATOM     86  C   UNL A   1      45.093  26.926  35.085  1.00  0.00     0.173 A 
ATOM     87  F   UNL A   1      46.279  29.913  33.379  1.00  0.00    -0.203 F 
ATOM     88  C   UNL A   1      47.325  28.572  35.008  1.00  0.00     0.198 A 
ATOM     89  C   UNL A   1      46.179  26.667  35.917  1.00  0.00     0.198 A 
ATOM     90  F   UNL A   1      44.023  26.120  35.154  1.00  0.00    -0.203 F 
ATOM     91  F   UNL A   1      48.410  29.358  34.959  1.00  0.00    -0.200 F 
ATOM     92  C   UNL A   1      47.294  27.491  35.879  1.00  0.00     0.200 A 
ATOM     93  F   UNL A   1      46.138  25.634  36.769  1.00  0.00    -0.200 F 
ATOM     94  F   UNL A   1      48.336  27.245  36.683  1.00  0.00    -0.200 F 
ENDBRANCH  61  84
ENDBRANCH  35  36
ENDBRANCH  28  30
ENDBRANCH  27  28
ENDBRANCH   1  27
TORSDOF 13
ENDMDL
