MODEL 1
REMARK VINA RESULT:     -12.6      0.000      0.000
REMARK SMILES O=C(OCCOC(=O)[C@H]1CCCN(C(=O)c2c[nH]c3ccccc23)C1)c1ccc(-c2c3nc(c(-c4c(F)c(F)c(F)c(F)c4F)c4ccc([nH]4)c(-c4c(F)c(F)c(F)c(F)c4F)c4nc(c(-c5c(F)c(F)c(F)c(F)c5F)c5ccc2[nH]5)C=C4)C=C3)cc1
REMARK SMILES IDX 4 1 3 2 2 3 1 4 26 5 27 6 88 7 28 8 87 9 29 10 30 11 31 12
REMARK SMILES IDX 81 13 32 14 86 15 80 16 82 17 33 18 85 19 79 20 78 21 34 23
REMARK SMILES IDX 66 24 46 25 65 26 47 27 50 28 64 29 83 30 48 31 49 32 63 34
REMARK SMILES IDX 84 35 51 36 35 37 36 38 44 39 37 40 38 41 42 42 45 43 39 44
REMARK SMILES IDX 40 45 43 46 41 47 67 48 68 49 76 50 69 51 70 52 74 53 77 54
REMARK SMILES IDX 71 55 72 56 75 57 73 58 52 59 53 60 61 61 54 62 55 63 59 64
REMARK SMILES IDX 62 65 56 66 57 67 60 68 58 69 5 70 6 71 7 72 8 73 9 74 10 75
REMARK SMILES IDX 25 76 11 77 13 78 12 79 14 80 15 81 16 82 17 83 24 84 18 85
REMARK SMILES IDX 19 86 23 87 20 89 22 90 21 91
REMARK H PARENT 82 22 50 33 18 88
REMARK Flexibility Score: inf
ROOT
ATOM      1  C   UNL A   1      31.462  32.073  27.008  1.00  0.00     0.275 C 
ENDROOT
BRANCH   1   2
ATOM      2  O   UNL A   1      32.232  33.290  26.984  1.00  0.00    -0.458 OA
BRANCH   2   3
ATOM      3  C   UNL A   1      32.893  33.932  27.975  1.00  0.00     0.338 C 
ATOM      4  O   UNL A   1      32.478  35.031  28.340  1.00  0.00    -0.246 OA
BRANCH   3   5
ATOM      5  C   UNL A   1      34.176  33.448  28.585  1.00  0.00     0.060 A 
ATOM      6  C   UNL A   1      35.466  33.693  28.104  1.00  0.00     0.016 A 
ATOM      7  C   UNL A   1      34.050  32.681  29.757  1.00  0.00     0.016 A 
ATOM      8  C   UNL A   1      36.601  33.291  28.821  1.00  0.00     0.010 A 
ATOM      9  C   UNL A   1      35.178  32.263  30.471  1.00  0.00     0.010 A 
ATOM     10  C   UNL A   1      36.466  32.593  30.019  1.00  0.00    -0.014 A 
BRANCH  10  11
ATOM     11  C   UNL A   1      37.651  32.067  30.733  1.00  0.00     0.031 A 
ATOM     12  C   UNL A   1      38.305  30.848  30.168  1.00  0.00     0.074 A 
ATOM     13  C   UNL A   1      38.123  32.639  31.858  1.00  0.00     0.049 A 
ATOM     14  N   UNL A   1      39.335  30.184  30.619  1.00  0.00    -0.248 NA
ATOM     15  C   UNL A   1      37.760  30.337  28.899  1.00  0.00     0.031 C 
ATOM     16  C   UNL A   1      37.675  33.902  32.433  1.00  0.00     0.029 A 
ATOM     17  N   UNL A   1      39.052  32.189  32.764  1.00  0.00    -0.354 N 
ATOM     18  C   UNL A   1      39.609  29.235  29.649  1.00  0.00     0.074 A 
ATOM     19  C   UNL A   1      38.576  29.329  28.643  1.00  0.00     0.031 C 
ATOM     20  C   UNL A   1      38.185  34.041  33.669  1.00  0.00     0.029 A 
ATOM     21  C   UNL A   1      39.061  32.910  33.938  1.00  0.00     0.049 A 
ATOM     22  H   UNL A   1      39.652  31.428  32.593  1.00  0.00     0.167 HD
ATOM     23  C   UNL A   1      40.672  28.404  29.581  1.00  0.00     0.037 A 
ATOM     24  C   UNL A   1      39.704  32.673  35.097  1.00  0.00     0.037 A 
ATOM     25  C   UNL A   1      41.655  28.291  30.620  1.00  0.00     0.049 A 
ATOM     26  C   UNL A   1      40.734  31.578  35.110  1.00  0.00     0.074 A 
ATOM     27  C   UNL A   1      42.775  27.485  30.670  1.00  0.00     0.029 A 
ATOM     28  N   UNL A   1      41.607  28.992  31.820  1.00  0.00    -0.354 N 
ATOM     29  N   UNL A   1      41.059  30.747  34.149  1.00  0.00    -0.248 NA
ATOM     30  C   UNL A   1      41.545  31.439  36.326  1.00  0.00     0.031 C 
ATOM     31  C   UNL A   1      43.364  27.646  31.929  1.00  0.00     0.029 A 
ATOM     32  C   UNL A   1      42.649  28.600  32.638  1.00  0.00     0.049 A 
ATOM     33  H   UNL A   1      40.930  29.668  32.052  1.00  0.00     0.167 HD
ATOM     34  C   UNL A   1      42.160  30.043  34.609  1.00  0.00     0.074 A 
ATOM     35  C   UNL A   1      42.432  30.528  35.948  1.00  0.00     0.031 C 
ATOM     36  C   UNL A   1      42.900  29.106  33.966  1.00  0.00     0.037 A 
BRANCH  23  37
ATOM     37  C   UNL A   1      40.790  27.567  28.345  1.00  0.00     0.064 A 
ATOM     38  C   UNL A   1      40.187  26.300  28.260  1.00  0.00     0.173 A 
ATOM     39  C   UNL A   1      41.547  28.010  27.252  1.00  0.00     0.173 A 
ATOM     40  F   UNL A   1      39.473  25.822  29.291  1.00  0.00    -0.203 F 
ATOM     41  C   UNL A   1      40.371  25.493  27.142  1.00  0.00     0.198 A 
ATOM     42  C   UNL A   1      41.704  27.210  26.123  1.00  0.00     0.198 A 
ATOM     43  F   UNL A   1      42.149  29.207  27.287  1.00  0.00    -0.203 F 
ATOM     44  F   UNL A   1      39.842  24.262  27.112  1.00  0.00    -0.200 F 
ATOM     45  C   UNL A   1      41.126  25.950  26.073  1.00  0.00     0.200 A 
ATOM     46  F   UNL A   1      42.433  27.653  25.089  1.00  0.00    -0.200 F 
ATOM     47  F   UNL A   1      41.312  25.168  25.001  1.00  0.00    -0.200 F 
ENDBRANCH  23  37
BRANCH  24  48
ATOM     48  C   UNL A   1      39.444  33.508  36.301  1.00  0.00     0.064 A 
ATOM     49  C   UNL A   1      40.098  34.731  36.498  1.00  0.00     0.173 A 
ATOM     50  C   UNL A   1      38.560  33.077  37.303  1.00  0.00     0.173 A 
ATOM     51  F   UNL A   1      40.961  35.181  35.575  1.00  0.00    -0.203 F 
ATOM     52  C   UNL A   1      39.907  35.475  37.661  1.00  0.00     0.198 A 
ATOM     53  C   UNL A   1      38.355  33.829  38.460  1.00  0.00     0.198 A 
ATOM     54  F   UNL A   1      37.901  31.917  37.164  1.00  0.00    -0.203 F 
ATOM     55  F   UNL A   1      40.582  36.618  37.841  1.00  0.00    -0.200 F 
ATOM     56  C   UNL A   1      39.037  35.024  38.643  1.00  0.00     0.200 A 
ATOM     57  F   UNL A   1      37.509  33.395  39.404  1.00  0.00    -0.200 F 
ATOM     58  F   UNL A   1      38.862  35.734  39.765  1.00  0.00    -0.200 F 
ENDBRANCH  24  48
BRANCH  36  59
ATOM     59  C   UNL A   1      44.106  28.577  34.683  1.00  0.00     0.064 A 
ATOM     60  C   UNL A   1      45.347  29.225  34.616  1.00  0.00     0.173 A 
ATOM     61  C   UNL A   1      43.995  27.442  35.500  1.00  0.00     0.173 A 
ATOM     62  F   UNL A   1      45.506  30.302  33.832  1.00  0.00    -0.203 F 
ATOM     63  C   UNL A   1      46.439  28.744  35.330  1.00  0.00     0.198 A 
ATOM     64  C   UNL A   1      45.080  26.987  36.241  1.00  0.00     0.198 A 
ATOM     65  F   UNL A   1      42.827  26.790  35.599  1.00  0.00    -0.203 F 
ATOM     66  F   UNL A   1      47.629  29.351  35.217  1.00  0.00    -0.200 F 
ATOM     67  C   UNL A   1      46.303  27.634  36.151  1.00  0.00     0.200 A 
ATOM     68  F   UNL A   1      44.939  25.926  37.047  1.00  0.00    -0.200 F 
ATOM     69  F   UNL A   1      47.351  27.185  36.853  1.00  0.00    -0.200 F 
ENDBRANCH  36  59
ENDBRANCH  10  11
ENDBRANCH   3   5
ENDBRANCH   2   3
ENDBRANCH   1   2
BRANCH   1  70
ATOM     70  C   UNL A   1      32.182  30.852  26.433  1.00  0.00     0.274 C 
BRANCH  70  71
ATOM     71  O   UNL A   1      32.513  29.897  27.450  1.00  0.00    -0.462 OA
BRANCH  71  72
ATOM     72  C   UNL A   1      31.903  28.675  27.392  1.00  0.00     0.310 C 
ATOM     73  O   UNL A   1      31.098  28.261  28.213  1.00  0.00    -0.252 OA
BRANCH  72  74
ATOM     74  C   UNL A   1      32.309  27.939  26.125  1.00  0.00     0.119 C 
ATOM     75  C   UNL A   1      33.642  27.206  26.318  1.00  0.00     0.019 C 
ATOM     76  C   UNL A   1      31.231  26.948  25.666  1.00  0.00     0.135 C 
ATOM     77  C   UNL A   1      34.027  26.435  25.063  1.00  0.00     0.022 C 
ATOM     78  N   UNL A   1      31.700  26.136  24.531  1.00  0.00    -0.338 N 
ATOM     79  C   UNL A   1      32.951  25.419  24.755  1.00  0.00     0.120 C 
BRANCH  78  80
ATOM     80  C   UNL A   1      31.142  26.308  23.263  1.00  0.00     0.256 C 
ATOM     81  O   UNL A   1      30.814  25.355  22.555  1.00  0.00    -0.269 OA
BRANCH  80  82
ATOM     82  C   UNL A   1      30.921  27.683  22.819  1.00  0.00     0.065 A 
ATOM     83  C   UNL A   1      31.906  28.529  22.339  1.00  0.00     0.097 A 
ATOM     84  C   UNL A   1      29.688  28.419  22.765  1.00  0.00     0.012 A 
ATOM     85  N   UNL A   1      31.317  29.702  21.950  1.00  0.00    -0.360 N 
ATOM     86  C   UNL A   1      29.961  29.655  22.180  1.00  0.00     0.046 A 
ATOM     87  C   UNL A   1      28.352  28.126  23.123  1.00  0.00     0.011 A 
ATOM     88  H   UNL A   1      31.795  30.469  21.562  1.00  0.00     0.166 HD
ATOM     89  C   UNL A   1      28.964  30.602  21.914  1.00  0.00     0.027 A 
ATOM     90  C   UNL A   1      27.343  29.054  22.852  1.00  0.00     0.001 A 
ATOM     91  C   UNL A   1      27.648  30.273  22.254  1.00  0.00     0.002 A 
ENDBRANCH  80  82
ENDBRANCH  78  80
ENDBRANCH  72  74
ENDBRANCH  71  72
ENDBRANCH  70  71
ENDBRANCH   1  70
TORSDOF 13
ENDMDL
MODEL 2
REMARK VINA RESULT:     -12.5      1.348      3.225
REMARK SMILES O=C(OCCOC(=O)[C@H]1CCCN(C(=O)c2c[nH]c3ccccc23)C1)c1ccc(-c2c3nc(c(-c4c(F)c(F)c(F)c(F)c4F)c4ccc([nH]4)c(-c4c(F)c(F)c(F)c(F)c4F)c4nc(c(-c5c(F)c(F)c(F)c(F)c5F)c5ccc2[nH]5)C=C4)C=C3)cc1
REMARK SMILES IDX 4 1 3 2 2 3 1 4 26 5 27 6 88 7 28 8 87 9 29 10 30 11 31 12
REMARK SMILES IDX 81 13 32 14 86 15 80 16 82 17 33 18 85 19 79 20 78 21 34 23
REMARK SMILES IDX 66 24 46 25 65 26 47 27 50 28 64 29 83 30 48 31 49 32 63 34
REMARK SMILES IDX 84 35 51 36 35 37 36 38 44 39 37 40 38 41 42 42 45 43 39 44
REMARK SMILES IDX 40 45 43 46 41 47 67 48 68 49 76 50 69 51 70 52 74 53 77 54
REMARK SMILES IDX 71 55 72 56 75 57 73 58 52 59 53 60 61 61 54 62 55 63 59 64
REMARK SMILES IDX 62 65 56 66 57 67 60 68 58 69 5 70 6 71 7 72 8 73 9 74 10 75
REMARK SMILES IDX 25 76 11 77 13 78 12 79 14 80 15 81 16 82 17 83 24 84 18 85
REMARK SMILES IDX 19 86 23 87 20 89 22 90 21 91
REMARK H PARENT 82 22 50 33 18 88
REMARK Flexibility Score: inf
ROOT
ATOM      1  C   UNL A   1      31.978  32.694  27.268  1.00  0.00     0.275 C 
ENDROOT
BRANCH   1   2
ATOM      2  O   UNL A   1      32.333  34.055  27.576  1.00  0.00    -0.458 OA
BRANCH   2   3
ATOM      3  C   UNL A   1      32.966  34.577  28.653  1.00  0.00     0.338 C 
ATOM      4  O   UNL A   1      32.541  35.628  29.131  1.00  0.00    -0.246 OA
BRANCH   3   5
ATOM      5  C   UNL A   1      34.231  34.021  29.239  1.00  0.00     0.060 A 
ATOM      6  C   UNL A   1      35.527  34.220  28.751  1.00  0.00     0.016 A 
ATOM      7  C   UNL A   1      34.081  33.233  30.395  1.00  0.00     0.016 A 
ATOM      8  C   UNL A   1      36.648  33.751  29.448  1.00  0.00     0.010 A 
ATOM      9  C   UNL A   1      35.196  32.749  31.087  1.00  0.00     0.010 A 
ATOM     10  C   UNL A   1      36.493  33.031  30.631  1.00  0.00    -0.014 A 
BRANCH  10  11
ATOM     11  C   UNL A   1      37.659  32.437  31.321  1.00  0.00     0.031 A 
ATOM     12  C   UNL A   1      38.229  31.181  30.744  1.00  0.00     0.074 A 
ATOM     13  C   UNL A   1      38.187  32.979  32.435  1.00  0.00     0.049 A 
ATOM     14  N   UNL A   1      39.227  30.457  31.174  1.00  0.00    -0.248 NA
ATOM     15  C   UNL A   1      37.627  30.703  29.487  1.00  0.00     0.031 C 
ATOM     16  C   UNL A   1      37.827  34.267  33.017  1.00  0.00     0.029 A 
ATOM     17  N   UNL A   1      39.107  32.475  33.322  1.00  0.00    -0.354 N 
ATOM     18  C   UNL A   1      39.424  29.494  30.200  1.00  0.00     0.074 A 
ATOM     19  C   UNL A   1      38.377  29.648  29.215  1.00  0.00     0.031 C 
ATOM     20  C   UNL A   1      38.370  34.375  34.242  1.00  0.00     0.029 A 
ATOM     21  C   UNL A   1      39.182  33.194  34.495  1.00  0.00     0.049 A 
ATOM     22  H   UNL A   1      39.657  31.680  33.139  1.00  0.00     0.167 HD
ATOM     23  C   UNL A   1      40.434  28.601  30.110  1.00  0.00     0.037 A 
ATOM     24  C   UNL A   1      39.834  32.919  35.640  1.00  0.00     0.037 A 
ATOM     25  C   UNL A   1      41.430  28.430  31.129  1.00  0.00     0.049 A 
ATOM     26  C   UNL A   1      40.798  31.766  35.634  1.00  0.00     0.074 A 
ATOM     27  C   UNL A   1      42.501  27.559  31.157  1.00  0.00     0.029 A 
ATOM     28  N   UNL A   1      41.448  29.132  32.329  1.00  0.00    -0.354 N 
ATOM     29  N   UNL A   1      41.053  30.916  34.667  1.00  0.00    -0.248 NA
ATOM     30  C   UNL A   1      41.624  31.579  36.832  1.00  0.00     0.031 C 
ATOM     31  C   UNL A   1      43.124  27.684  32.403  1.00  0.00     0.029 A 
ATOM     32  C   UNL A   1      42.482  28.679  33.126  1.00  0.00     0.049 A 
ATOM     33  H   UNL A   1      40.817  29.847  32.574  1.00  0.00     0.167 HD
ATOM     34  C   UNL A   1      42.120  30.148  35.105  1.00  0.00     0.074 A 
ATOM     35  C   UNL A   1      42.448  30.617  36.438  1.00  0.00     0.031 C 
ATOM     36  C   UNL A   1      42.790  29.169  34.448  1.00  0.00     0.037 A 
BRANCH  23  37
ATOM     37  C   UNL A   1      40.476  27.759  28.873  1.00  0.00     0.064 A 
ATOM     38  C   UNL A   1      41.223  28.150  27.748  1.00  0.00     0.173 A 
ATOM     39  C   UNL A   1      39.732  26.575  28.789  1.00  0.00     0.173 A 
ATOM     40  F   UNL A   1      41.931  29.289  27.771  1.00  0.00    -0.203 F 
ATOM     41  C   UNL A   1      41.190  27.406  26.573  1.00  0.00     0.198 A 
ATOM     42  C   UNL A   1      39.726  25.818  27.620  1.00  0.00     0.198 A 
ATOM     43  F   UNL A   1      38.996  26.163  29.832  1.00  0.00    -0.203 F 
ATOM     44  F   UNL A   1      41.856  27.835  25.491  1.00  0.00    -0.200 F 
ATOM     45  C   UNL A   1      40.444  26.239  26.511  1.00  0.00     0.200 A 
ATOM     46  F   UNL A   1      39.005  24.689  27.561  1.00  0.00    -0.200 F 
ATOM     47  F   UNL A   1      40.404  25.529  25.376  1.00  0.00    -0.200 F 
ENDBRANCH  23  37
BRANCH  24  48
ATOM     48  C   UNL A   1      39.649  33.768  36.849  1.00  0.00     0.064 A 
ATOM     49  C   UNL A   1      38.796  33.381  37.890  1.00  0.00     0.173 A 
ATOM     50  C   UNL A   1      40.296  35.008  36.967  1.00  0.00     0.173 A 
ATOM     51  F   UNL A   1      38.145  32.211  37.820  1.00  0.00    -0.203 F 
ATOM     52  C   UNL A   1      38.570  34.213  38.986  1.00  0.00     0.198 A 
ATOM     53  C   UNL A   1      40.083  35.833  38.071  1.00  0.00     0.198 A 
ATOM     54  F   UNL A   1      41.130  35.426  36.003  1.00  0.00    -0.203 F 
ATOM     55  F   UNL A   1      37.712  33.836  39.944  1.00  0.00    -0.200 F 
ATOM     56  C   UNL A   1      39.212  35.439  39.077  1.00  0.00     0.200 A 
ATOM     57  F   UNL A   1      40.710  37.015  38.160  1.00  0.00    -0.200 F 
ATOM     58  F   UNL A   1      38.984  36.242  40.125  1.00  0.00    -0.200 F 
ENDBRANCH  24  48
BRANCH  36  59
ATOM     59  C   UNL A   1      43.977  28.570  35.140  1.00  0.00     0.064 A 
ATOM     60  C   UNL A   1      43.853  27.464  35.992  1.00  0.00     0.173 A 
ATOM     61  C   UNL A   1      45.263  29.073  34.892  1.00  0.00     0.173 A 
ATOM     62  F   UNL A   1      42.641  26.961  36.275  1.00  0.00    -0.203 F 
ATOM     63  C   UNL A   1      44.974  26.894  36.585  1.00  0.00     0.198 A 
ATOM     64  C   UNL A   1      46.384  28.477  35.457  1.00  0.00     0.198 A 
ATOM     65  F   UNL A   1      45.432  30.129  34.081  1.00  0.00    -0.203 F 
ATOM     66  F   UNL A   1      44.830  25.865  37.433  1.00  0.00    -0.200 F 
ATOM     67  C   UNL A   1      46.239  27.392  36.308  1.00  0.00     0.200 A 
ATOM     68  F   UNL A   1      47.606  28.948  35.172  1.00  0.00    -0.200 F 
ATOM     69  F   UNL A   1      47.319  26.828  36.863  1.00  0.00    -0.200 F 
ENDBRANCH  36  59
ENDBRANCH  10  11
ENDBRANCH   3   5
ENDBRANCH   2   3
ENDBRANCH   1   2
BRANCH   1  70
ATOM     70  C   UNL A   1      33.156  31.718  27.248  1.00  0.00     0.274 C 
BRANCH  70  71
ATOM     71  O   UNL A   1      32.720  30.353  27.202  1.00  0.00    -0.462 OA
BRANCH  71  72
ATOM     72  C   UNL A   1      33.655  29.400  26.907  1.00  0.00     0.310 C 
ATOM     73  O   UNL A   1      34.728  29.279  27.481  1.00  0.00    -0.252 OA
BRANCH  72  74
ATOM     74  C   UNL A   1      33.140  28.468  25.823  1.00  0.00     0.119 C 
ATOM     75  C   UNL A   1      31.688  28.057  26.094  1.00  0.00     0.019 C 
ATOM     76  C   UNL A   1      33.253  29.094  24.426  1.00  0.00     0.135 C 
ATOM     77  C   UNL A   1      31.158  27.158  24.986  1.00  0.00     0.022 C 
ATOM     78  N   UNL A   1      32.611  28.246  23.407  1.00  0.00    -0.338 N 
ATOM     79  C   UNL A   1      31.218  27.902  23.672  1.00  0.00     0.120 C 
BRANCH  78  80
ATOM     80  C   UNL A   1      33.385  27.588  22.449  1.00  0.00     0.256 C 
ATOM     81  O   UNL A   1      34.154  28.191  21.699  1.00  0.00    -0.269 OA
BRANCH  80  82
ATOM     82  C   UNL A   1      33.278  26.131  22.398  1.00  0.00     0.065 A 
ATOM     83  C   UNL A   1      32.695  25.416  21.367  1.00  0.00     0.097 A 
ATOM     84  C   UNL A   1      33.748  25.165  23.352  1.00  0.00     0.012 A 
ATOM     85  N   UNL A   1      32.846  24.080  21.626  1.00  0.00    -0.360 N 
ATOM     86  C   UNL A   1      33.504  23.898  22.822  1.00  0.00     0.046 A 
ATOM     87  C   UNL A   1      34.403  25.256  24.601  1.00  0.00     0.011 A 
ATOM     88  H   UNL A   1      32.529  23.355  21.043  1.00  0.00     0.166 HD
ATOM     89  C   UNL A   1      33.900  22.720  23.468  1.00  0.00     0.027 A 
ATOM     90  C   UNL A   1      34.816  24.091  25.253  1.00  0.00     0.001 A 
ATOM     91  C   UNL A   1      34.568  22.842  24.690  1.00  0.00     0.002 A 
ENDBRANCH  80  82
ENDBRANCH  78  80
ENDBRANCH  72  74
ENDBRANCH  71  72
ENDBRANCH  70  71
ENDBRANCH   1  70
TORSDOF 13
ENDMDL
MODEL 3
REMARK VINA RESULT:     -12.4      5.619     10.733
REMARK SMILES O=C(OCCOC(=O)[C@H]1CCCN(C(=O)c2c[nH]c3ccccc23)C1)c1ccc(-c2c3nc(c(-c4c(F)c(F)c(F)c(F)c4F)c4ccc([nH]4)c(-c4c(F)c(F)c(F)c(F)c4F)c4nc(c(-c5c(F)c(F)c(F)c(F)c5F)c5ccc2[nH]5)C=C4)C=C3)cc1
REMARK SMILES IDX 4 1 3 2 2 3 1 4 26 5 27 6 88 7 28 8 87 9 29 10 30 11 31 12
REMARK SMILES IDX 81 13 32 14 86 15 80 16 82 17 33 18 85 19 79 20 78 21 34 23
REMARK SMILES IDX 66 24 46 25 65 26 47 27 50 28 64 29 83 30 48 31 49 32 63 34
REMARK SMILES IDX 84 35 51 36 35 37 36 38 44 39 37 40 38 41 42 42 45 43 39 44
REMARK SMILES IDX 40 45 43 46 41 47 67 48 68 49 76 50 69 51 70 52 74 53 77 54
REMARK SMILES IDX 71 55 72 56 75 57 73 58 52 59 53 60 61 61 54 62 55 63 59 64
REMARK SMILES IDX 62 65 56 66 57 67 60 68 58 69 5 70 6 71 7 72 8 73 9 74 10 75
REMARK SMILES IDX 25 76 11 77 13 78 12 79 14 80 15 81 16 82 17 83 24 84 18 85
REMARK SMILES IDX 19 86 23 87 20 89 22 90 21 91
REMARK H PARENT 82 22 50 33 18 88
REMARK Flexibility Score: inf
ROOT
ATOM      1  C   UNL A   1      39.040  19.788  25.155  1.00  0.00     0.275 C 
ENDROOT
BRANCH   1   2
ATOM      2  O   UNL A   1      40.130  19.125  25.823  1.00  0.00    -0.458 OA
BRANCH   2   3
ATOM      3  C   UNL A   1      41.433  19.476  25.941  1.00  0.00     0.338 C 
ATOM      4  O   UNL A   1      42.291  18.613  25.761  1.00  0.00    -0.246 OA
BRANCH   3   5
ATOM      5  C   UNL A   1      41.905  20.826  26.394  1.00  0.00     0.060 A 
ATOM      6  C   UNL A   1      42.056  21.249  27.719  1.00  0.00     0.016 A 
ATOM      7  C   UNL A   1      42.230  21.740  25.376  1.00  0.00     0.016 A 
ATOM      8  C   UNL A   1      42.619  22.495  28.027  1.00  0.00     0.010 A 
ATOM      9  C   UNL A   1      42.779  22.991  25.676  1.00  0.00     0.010 A 
ATOM     10  C   UNL A   1      43.004  23.365  27.010  1.00  0.00    -0.014 A 
BRANCH  10  11
ATOM     11  C   UNL A   1      43.499  24.726  27.316  1.00  0.00     0.031 A 
ATOM     12  C   UNL A   1      42.482  25.758  27.683  1.00  0.00     0.074 A 
ATOM     13  C   UNL A   1      44.807  25.045  27.255  1.00  0.00     0.049 A 
ATOM     14  N   UNL A   1      42.658  27.020  27.969  1.00  0.00    -0.248 NA
ATOM     15  C   UNL A   1      41.087  25.298  27.791  1.00  0.00     0.031 C 
ATOM     16  C   UNL A   1      45.910  24.111  27.054  1.00  0.00     0.029 A 
ATOM     17  N   UNL A   1      45.429  26.269  27.290  1.00  0.00    -0.354 N 
ATOM     18  C   UNL A   1      41.414  27.478  28.370  1.00  0.00     0.074 A 
ATOM     19  C   UNL A   1      40.471  26.400  28.183  1.00  0.00     0.031 C 
ATOM     20  C   UNL A   1      47.039  24.796  26.804  1.00  0.00     0.029 A 
ATOM     21  C   UNL A   1      46.751  26.219  26.907  1.00  0.00     0.049 A 
ATOM     22  H   UNL A   1      44.976  27.099  27.563  1.00  0.00     0.167 HD
ATOM     23  C   UNL A   1      41.109  28.679  28.907  1.00  0.00     0.037 A 
ATOM     24  C   UNL A   1      47.621  27.217  26.664  1.00  0.00     0.037 A 
ATOM     25  C   UNL A   1      42.053  29.753  29.031  1.00  0.00     0.049 A 
ATOM     26  C   UNL A   1      47.204  28.612  27.037  1.00  0.00     0.074 A 
ATOM     27  C   UNL A   1      41.864  31.017  29.555  1.00  0.00     0.029 A 
ATOM     28  N   UNL A   1      43.367  29.692  28.583  1.00  0.00    -0.354 N 
ATOM     29  N   UNL A   1      46.053  29.023  27.514  1.00  0.00    -0.248 NA
ATOM     30  C   UNL A   1      48.219  29.666  26.924  1.00  0.00     0.031 C 
ATOM     31  C   UNL A   1      43.044  31.743  29.359  1.00  0.00     0.029 A 
ATOM     32  C   UNL A   1      43.988  30.913  28.773  1.00  0.00     0.049 A 
ATOM     33  H   UNL A   1      43.793  28.897  28.189  1.00  0.00     0.167 HD
ATOM     34  C   UNL A   1      46.228  30.359  27.834  1.00  0.00     0.074 A 
ATOM     35  C   UNL A   1      47.591  30.697  27.472  1.00  0.00     0.031 C 
ATOM     36  C   UNL A   1      45.350  31.219  28.409  1.00  0.00     0.037 A 
BRANCH  23  37
ATOM     37  C   UNL A   1      39.699  28.863  29.379  1.00  0.00     0.064 A 
ATOM     38  C   UNL A   1      38.706  29.379  28.528  1.00  0.00     0.173 A 
ATOM     39  C   UNL A   1      39.344  28.566  30.701  1.00  0.00     0.173 A 
ATOM     40  F   UNL A   1      39.004  29.703  27.261  1.00  0.00    -0.203 F 
ATOM     41  C   UNL A   1      37.420  29.626  28.998  1.00  0.00     0.198 A 
ATOM     42  C   UNL A   1      38.048  28.788  31.158  1.00  0.00     0.198 A 
ATOM     43  F   UNL A   1      40.257  28.080  31.554  1.00  0.00    -0.203 F 
ATOM     44  F   UNL A   1      36.508  30.182  28.187  1.00  0.00    -0.200 F 
ATOM     45  C   UNL A   1      37.091  29.328  30.311  1.00  0.00     0.200 A 
ATOM     46  F   UNL A   1      37.729  28.498  32.427  1.00  0.00    -0.200 F 
ATOM     47  F   UNL A   1      35.855  29.576  30.765  1.00  0.00    -0.200 F 
ENDBRANCH  23  37
BRANCH  24  48
ATOM     48  C   UNL A   1      48.971  26.935  26.103  1.00  0.00     0.064 A 
ATOM     49  C   UNL A   1      49.228  27.037  24.729  1.00  0.00     0.173 A 
ATOM     50  C   UNL A   1      50.025  26.518  26.931  1.00  0.00     0.173 A 
ATOM     51  F   UNL A   1      48.250  27.421  23.895  1.00  0.00    -0.203 F 
ATOM     52  C   UNL A   1      50.473  26.702  24.200  1.00  0.00     0.198 A 
ATOM     53  C   UNL A   1      51.276  26.199  26.403  1.00  0.00     0.198 A 
ATOM     54  F   UNL A   1      49.838  26.410  28.254  1.00  0.00    -0.203 F 
ATOM     55  F   UNL A   1      50.674  26.765  22.876  1.00  0.00    -0.200 F 
ATOM     56  C   UNL A   1      51.497  26.282  25.035  1.00  0.00     0.200 A 
ATOM     57  F   UNL A   1      52.267  25.799  27.213  1.00  0.00    -0.200 F 
ATOM     58  F   UNL A   1      52.690  25.949  24.524  1.00  0.00    -0.200 F 
ENDBRANCH  24  48
BRANCH  36  59
ATOM     59  C   UNL A   1      45.851  32.595  28.729  1.00  0.00     0.064 A 
ATOM     60  C   UNL A   1      45.678  33.667  27.842  1.00  0.00     0.173 A 
ATOM     61  C   UNL A   1      46.453  32.853  29.970  1.00  0.00     0.173 A 
ATOM     62  F   UNL A   1      45.126  33.464  26.636  1.00  0.00    -0.203 F 
ATOM     63  C   UNL A   1      46.107  34.946  28.181  1.00  0.00     0.198 A 
ATOM     64  C   UNL A   1      46.846  34.140  30.319  1.00  0.00     0.198 A 
ATOM     65  F   UNL A   1      46.637  31.860  30.853  1.00  0.00    -0.203 F 
ATOM     66  F   UNL A   1      45.973  35.949  27.301  1.00  0.00    -0.200 F 
ATOM     67  C   UNL A   1      46.678  35.184  29.422  1.00  0.00     0.200 A 
ATOM     68  F   UNL A   1      47.380  34.370  31.526  1.00  0.00    -0.200 F 
ATOM     69  F   UNL A   1      47.070  36.421  29.754  1.00  0.00    -0.200 F 
ENDBRANCH  36  59
ENDBRANCH  10  11
ENDBRANCH   3   5
ENDBRANCH   2   3
ENDBRANCH   1   2
BRANCH   1  70
ATOM     70  C   UNL A   1      38.619  21.116  25.788  1.00  0.00     0.274 C 
BRANCH  70  71
ATOM     71  O   UNL A   1      37.767  21.876  24.919  1.00  0.00    -0.462 OA
BRANCH  71  72
ATOM     72  C   UNL A   1      37.273  23.059  25.395  1.00  0.00     0.310 C 
ATOM     73  O   UNL A   1      37.960  24.006  25.750  1.00  0.00    -0.252 OA
BRANCH  72  74
ATOM     74  C   UNL A   1      35.754  23.057  25.348  1.00  0.00     0.119 C 
ATOM     75  C   UNL A   1      35.248  22.695  23.946  1.00  0.00     0.019 C 
ATOM     76  C   UNL A   1      35.148  22.100  26.383  1.00  0.00     0.135 C 
ATOM     77  C   UNL A   1      33.726  22.652  23.909  1.00  0.00     0.022 C 
ATOM     78  N   UNL A   1      33.688  21.993  26.222  1.00  0.00    -0.338 N 
ATOM     79  C   UNL A   1      33.236  21.611  24.889  1.00  0.00     0.120 C 
BRANCH  78  80
ATOM     80  C   UNL A   1      32.832  22.524  27.189  1.00  0.00     0.256 C 
ATOM     81  O   UNL A   1      32.903  22.203  28.376  1.00  0.00    -0.269 OA
BRANCH  80  82
ATOM     82  C   UNL A   1      31.862  23.520  26.739  1.00  0.00     0.065 A 
ATOM     83  C   UNL A   1      30.493  23.323  26.681  1.00  0.00     0.097 A 
ATOM     84  C   UNL A   1      32.100  24.867  26.299  1.00  0.00     0.012 A 
ATOM     85  N   UNL A   1      29.903  24.494  26.288  1.00  0.00    -0.360 N 
ATOM     86  C   UNL A   1      30.860  25.460  26.067  1.00  0.00     0.046 A 
ATOM     87  C   UNL A   1      33.263  25.650  26.119  1.00  0.00     0.011 A 
ATOM     88  H   UNL A   1      28.935  24.627  26.177  1.00  0.00     0.166 HD
ATOM     89  C   UNL A   1      30.722  26.800  25.686  1.00  0.00     0.027 A 
ATOM     90  C   UNL A   1      33.143  26.993  25.752  1.00  0.00     0.001 A 
ATOM     91  C   UNL A   1      31.888  27.558  25.542  1.00  0.00     0.002 A 
ENDBRANCH  80  82
ENDBRANCH  78  80
ENDBRANCH  72  74
ENDBRANCH  71  72
ENDBRANCH  70  71
ENDBRANCH   1  70
TORSDOF 13
ENDMDL
