MODEL 1
REMARK VINA RESULT:     -10.1      0.000      0.000
REMARK SMILES O=C(NCCC(=O)OCCOC(=O)c1ccc(-c2c3nc(c(-c4c(F)c(F)c(F)c(F)c4F)c4ccc([nH]4)c(-c4c(F)c(F)c(F)c(F)c4F)c4nc(c(-c5c(F)c(F)c(F)c(F)c5F)c5ccc2[nH]5)C=C4)C=C3)cc1)N[C@@H]1CCOC1
REMARK SMILES IDX 9 1 8 2 6 3 7 4 5 5 4 6 3 7 1 8 2 9 77 10 78 13 79 14 82 15
REMARK SMILES IDX 80 16 81 17 10 18 11 19 12 20 13 21 14 22 15 23 76 24 16 25
REMARK SMILES IDX 75 26 17 27 18 28 19 29 69 30 20 31 74 32 68 33 70 34 21 35
REMARK SMILES IDX 73 36 67 37 66 38 22 40 54 41 34 42 53 43 35 44 38 45 52 46
REMARK SMILES IDX 71 47 36 48 37 49 51 51 72 52 39 53 23 54 24 55 32 56 25 57
REMARK SMILES IDX 26 58 30 59 33 60 27 61 28 62 31 63 29 64 55 65 56 66 64 67
REMARK SMILES IDX 57 68 58 69 62 70 65 71 59 72 60 73 63 74 61 75 40 76 41 77
REMARK SMILES IDX 49 78 42 79 43 80 47 81 50 82 44 83 45 84 48 85 46 86
REMARK H PARENT 3 11 77 12 70 39 38 50
REMARK Flexibility Score: inf
ROOT
ATOM      1  C   UNL A   1      34.387  34.381  28.454  1.00  0.00     0.274 C 
ENDROOT
BRANCH   1   2
ATOM      2  O   UNL A   1      33.925  34.768  29.764  1.00  0.00    -0.462 OA
BRANCH   2   3
ATOM      3  C   UNL A   1      32.909  35.671  29.807  1.00  0.00     0.307 C 
ATOM      4  O   UNL A   1      32.347  36.144  28.826  1.00  0.00    -0.252 OA
BRANCH   3   5
ATOM      5  C   UNL A   1      32.562  36.080  31.218  1.00  0.00     0.144 C 
BRANCH   5   6
ATOM      6  C   UNL A   1      33.650  36.905  31.892  1.00  0.00     0.129 C 
BRANCH   6   7
ATOM      7  N   UNL A   1      34.138  36.262  33.097  1.00  0.00    -0.338 N 
ATOM      8  O   UNL A   1      35.260  34.843  34.397  1.00  0.00    -0.249 OA
ATOM      9  C   UNL A   1      35.107  35.338  33.286  1.00  0.00     0.315 C 
ATOM     10  N   UNL A   1      35.866  35.012  32.209  1.00  0.00    -0.333 N 
ATOM     11  H   UNL A   1      33.685  36.550  33.923  1.00  0.00     0.165 HD
ATOM     12  H   UNL A   1      35.726  35.489  31.359  1.00  0.00     0.165 HD
BRANCH  10  13
ATOM     13  C   UNL A   1      36.886  33.971  32.279  1.00  0.00     0.112 C 
ATOM     14  C   UNL A   1      38.206  34.448  31.718  1.00  0.00     0.056 C 
ATOM     15  C   UNL A   1      36.551  32.816  31.345  1.00  0.00     0.185 C 
ATOM     16  C   UNL A   1      38.058  34.202  30.230  1.00  0.00     0.162 C 
ATOM     17  O   UNL A   1      37.084  33.164  30.054  1.00  0.00    -0.379 OA
ENDBRANCH  10  13
ENDBRANCH   6   7
ENDBRANCH   5   6
ENDBRANCH   3   5
ENDBRANCH   2   3
ENDBRANCH   1   2
BRANCH   1  18
ATOM     18  C   UNL A   1      33.762  33.060  27.999  1.00  0.00     0.275 C 
BRANCH  18  19
ATOM     19  O   UNL A   1      34.309  31.943  28.724  1.00  0.00    -0.458 OA
BRANCH  19  20
ATOM     20  C   UNL A   1      34.518  30.829  27.989  1.00  0.00     0.338 C 
ATOM     21  O   UNL A   1      33.809  30.375  27.108  1.00  0.00    -0.246 OA
BRANCH  20  22
ATOM     22  C   UNL A   1      35.834  30.262  28.315  1.00  0.00     0.060 A 
ATOM     23  C   UNL A   1      36.003  29.653  29.563  1.00  0.00     0.016 A 
ATOM     24  C   UNL A   1      36.912  30.408  27.442  1.00  0.00     0.016 A 
ATOM     25  C   UNL A   1      37.259  29.193  29.948  1.00  0.00     0.010 A 
ATOM     26  C   UNL A   1      38.172  29.942  27.828  1.00  0.00     0.010 A 
ATOM     27  C   UNL A   1      38.355  29.345  29.088  1.00  0.00    -0.014 A 
BRANCH  27  28
ATOM     28  C   UNL A   1      39.702  28.913  29.527  1.00  0.00     0.031 A 
ATOM     29  C   UNL A   1      40.494  29.774  30.468  1.00  0.00     0.074 A 
ATOM     30  C   UNL A   1      40.206  27.746  29.091  1.00  0.00     0.049 A 
ATOM     31  N   UNL A   1      41.714  29.611  30.913  1.00  0.00    -0.248 NA
ATOM     32  C   UNL A   1      39.823  30.981  30.975  1.00  0.00     0.031 C 
ATOM     33  C   UNL A   1      39.517  26.811  28.203  1.00  0.00     0.029 A 
ATOM     34  N   UNL A   1      41.420  27.152  29.330  1.00  0.00    -0.354 N 
ATOM     35  C   UNL A   1      41.963  30.697  31.740  1.00  0.00     0.074 A 
ATOM     36  C   UNL A   1      40.775  31.524  31.722  1.00  0.00     0.031 C 
ATOM     37  C   UNL A   1      40.321  25.763  27.965  1.00  0.00     0.029 A 
ATOM     38  C   UNL A   1      41.594  25.971  28.652  1.00  0.00     0.049 A 
ATOM     39  H   UNL A   1      42.100  27.537  29.929  1.00  0.00     0.167 HD
ATOM     40  C   UNL A   1      43.081  30.974  32.452  1.00  0.00     0.037 A 
ATOM     41  C   UNL A   1      42.668  25.165  28.575  1.00  0.00     0.037 A 
ATOM     42  C   UNL A   1      44.259  30.146  32.473  1.00  0.00     0.049 A 
ATOM     43  C   UNL A   1      43.916  25.522  29.335  1.00  0.00     0.074 A 
ATOM     44  C   UNL A   1      45.438  30.339  33.172  1.00  0.00     0.029 A 
ATOM     45  N   UNL A   1      44.406  28.967  31.759  1.00  0.00    -0.354 N 
ATOM     46  N   UNL A   1      44.143  26.550  30.117  1.00  0.00    -0.248 NA
ATOM     47  C   UNL A   1      45.059  24.607  29.200  1.00  0.00     0.031 C 
ATOM     48  C   UNL A   1      46.313  29.293  32.853  1.00  0.00     0.029 A 
ATOM     49  C   UNL A   1      45.663  28.429  31.986  1.00  0.00     0.049 A 
ATOM     50  H   UNL A   1      43.719  28.571  31.175  1.00  0.00     0.167 HD
ATOM     51  C   UNL A   1      45.443  26.399  30.578  1.00  0.00     0.074 A 
ATOM     52  C   UNL A   1      45.952  25.171  30.002  1.00  0.00     0.031 C 
ATOM     53  C   UNL A   1      46.152  27.206  31.404  1.00  0.00     0.037 A 
BRANCH  40  54
ATOM     54  C   UNL A   1      43.092  32.242  33.253  1.00  0.00     0.064 A 
ATOM     55  C   UNL A   1      42.641  32.276  34.581  1.00  0.00     0.173 A 
ATOM     56  C   UNL A   1      43.589  33.429  32.695  1.00  0.00     0.173 A 
ATOM     57  F   UNL A   1      42.143  31.170  35.152  1.00  0.00    -0.203 F 
ATOM     58  C   UNL A   1      42.667  33.459  35.314  1.00  0.00     0.198 A 
ATOM     59  C   UNL A   1      43.635  34.604  33.439  1.00  0.00     0.198 A 
ATOM     60  F   UNL A   1      44.035  33.447  31.430  1.00  0.00    -0.203 F 
ATOM     61  F   UNL A   1      42.195  33.479  36.568  1.00  0.00    -0.200 F 
ATOM     62  C   UNL A   1      43.170  34.620  34.746  1.00  0.00     0.200 A 
ATOM     63  F   UNL A   1      44.130  35.724  32.891  1.00  0.00    -0.200 F 
ATOM     64  F   UNL A   1      43.199  35.757  35.454  1.00  0.00    -0.200 F 
ENDBRANCH  40  54
BRANCH  41  65
ATOM     65  C   UNL A   1      42.613  23.946  27.728  1.00  0.00     0.064 A 
ATOM     66  C   UNL A   1      42.900  24.005  26.359  1.00  0.00     0.173 A 
ATOM     67  C   UNL A   1      42.274  22.699  28.275  1.00  0.00     0.173 A 
ATOM     68  F   UNL A   1      43.204  25.180  25.788  1.00  0.00    -0.203 F 
ATOM     69  C   UNL A   1      42.842  22.862  25.563  1.00  0.00     0.198 A 
ATOM     70  C   UNL A   1      42.241  21.553  27.484  1.00  0.00     0.198 A 
ATOM     71  F   UNL A   1      41.988  22.594  29.580  1.00  0.00    -0.203 F 
ATOM     72  F   UNL A   1      43.086  22.950  24.250  1.00  0.00    -0.200 F 
ATOM     73  C   UNL A   1      42.520  21.636  26.128  1.00  0.00     0.200 A 
ATOM     74  F   UNL A   1      41.937  20.371  28.035  1.00  0.00    -0.200 F 
ATOM     75  F   UNL A   1      42.469  20.537  25.364  1.00  0.00    -0.200 F 
ENDBRANCH  41  65
BRANCH  53  76
ATOM     76  C   UNL A   1      47.545  26.775  31.751  1.00  0.00     0.064 A 
ATOM     77  C   UNL A   1      48.658  27.250  31.042  1.00  0.00     0.173 A 
ATOM     78  C   UNL A   1      47.773  25.906  32.829  1.00  0.00     0.173 A 
ATOM     79  F   UNL A   1      48.488  28.070  29.993  1.00  0.00    -0.203 F 
ATOM     80  C   UNL A   1      49.947  26.855  31.386  1.00  0.00     0.198 A 
ATOM     81  C   UNL A   1      49.065  25.531  33.186  1.00  0.00     0.198 A 
ATOM     82  F   UNL A   1      46.741  25.428  33.542  1.00  0.00    -0.203 F 
ATOM     83  F   UNL A   1      50.993  27.290  30.669  1.00  0.00    -0.200 F 
ATOM     84  C   UNL A   1      50.151  26.001  32.461  1.00  0.00     0.200 A 
ATOM     85  F   UNL A   1      49.261  24.714  34.229  1.00  0.00    -0.200 F 
ATOM     86  F   UNL A   1      51.393  25.626  32.794  1.00  0.00    -0.200 F 
ENDBRANCH  53  76
ENDBRANCH  27  28
ENDBRANCH  20  22
ENDBRANCH  19  20
ENDBRANCH  18  19
ENDBRANCH   1  18
TORSDOF 14
ENDMDL
MODEL 2
REMARK VINA RESULT:     -10.0      4.608     11.396
REMARK SMILES O=C(NCCC(=O)OCCOC(=O)c1ccc(-c2c3nc(c(-c4c(F)c(F)c(F)c(F)c4F)c4ccc([nH]4)c(-c4c(F)c(F)c(F)c(F)c4F)c4nc(c(-c5c(F)c(F)c(F)c(F)c5F)c5ccc2[nH]5)C=C4)C=C3)cc1)N[C@@H]1CCOC1
REMARK SMILES IDX 9 1 8 2 6 3 7 4 5 5 4 6 3 7 1 8 2 9 77 10 78 13 79 14 82 15
REMARK SMILES IDX 80 16 81 17 10 18 11 19 12 20 13 21 14 22 15 23 76 24 16 25
REMARK SMILES IDX 75 26 17 27 18 28 19 29 69 30 20 31 74 32 68 33 70 34 21 35
REMARK SMILES IDX 73 36 67 37 66 38 22 40 54 41 34 42 53 43 35 44 38 45 52 46
REMARK SMILES IDX 71 47 36 48 37 49 51 51 72 52 39 53 23 54 24 55 32 56 25 57
REMARK SMILES IDX 26 58 30 59 33 60 27 61 28 62 31 63 29 64 55 65 56 66 64 67
REMARK SMILES IDX 57 68 58 69 62 70 65 71 59 72 60 73 63 74 61 75 40 76 41 77
REMARK SMILES IDX 49 78 42 79 43 80 47 81 50 82 44 83 45 84 48 85 46 86
REMARK H PARENT 3 11 77 12 70 39 38 50
REMARK Flexibility Score: inf
ROOT
ATOM      1  C   UNL A   1      41.958  20.449  26.586  1.00  0.00     0.274 C 
ENDROOT
BRANCH   1   2
ATOM      2  O   UNL A   1      43.152  20.236  25.807  1.00  0.00    -0.462 OA
BRANCH   2   3
ATOM      3  C   UNL A   1      43.392  18.962  25.398  1.00  0.00     0.307 C 
ATOM      4  O   UNL A   1      42.745  17.980  25.741  1.00  0.00    -0.252 OA
BRANCH   3   5
ATOM      5  C   UNL A   1      44.596  18.866  24.493  1.00  0.00     0.144 C 
BRANCH   5   6
ATOM      6  C   UNL A   1      45.786  19.681  24.981  1.00  0.00     0.129 C 
BRANCH   6   7
ATOM      7  N   UNL A   1      45.897  20.942  24.272  1.00  0.00    -0.338 N 
ATOM      8  O   UNL A   1      45.771  23.130  23.874  1.00  0.00    -0.249 OA
ATOM      9  C   UNL A   1      45.755  22.218  24.693  1.00  0.00     0.315 C 
ATOM     10  N   UNL A   1      45.602  22.413  26.028  1.00  0.00    -0.333 N 
ATOM     11  H   UNL A   1      46.114  20.852  23.315  1.00  0.00     0.165 HD
ATOM     12  H   UNL A   1      45.654  21.640  26.636  1.00  0.00     0.165 HD
BRANCH  10  13
ATOM     13  C   UNL A   1      45.362  23.739  26.585  1.00  0.00     0.112 C 
ATOM     14  C   UNL A   1      45.443  23.732  28.095  1.00  0.00     0.056 C 
ATOM     15  C   UNL A   1      43.921  24.175  26.354  1.00  0.00     0.185 C 
ATOM     16  C   UNL A   1      44.051  23.304  28.513  1.00  0.00     0.162 C 
ATOM     17  O   UNL A   1      43.151  23.645  27.449  1.00  0.00    -0.379 OA
ENDBRANCH  10  13
ENDBRANCH   6   7
ENDBRANCH   5   6
ENDBRANCH   3   5
ENDBRANCH   2   3
ENDBRANCH   1   2
BRANCH   1  18
ATOM     18  C   UNL A   1      41.053  21.513  25.961  1.00  0.00     0.275 C 
BRANCH  18  19
ATOM     19  O   UNL A   1      40.049  21.960  26.890  1.00  0.00    -0.458 OA
BRANCH  19  20
ATOM     20  C   UNL A   1      39.175  22.866  26.399  1.00  0.00     0.338 C 
ATOM     21  O   UNL A   1      38.222  22.660  25.669  1.00  0.00    -0.246 OA
BRANCH  20  22
ATOM     22  C   UNL A   1      39.458  24.187  26.977  1.00  0.00     0.060 A 
ATOM     23  C   UNL A   1      40.094  25.140  26.174  1.00  0.00     0.016 A 
ATOM     24  C   UNL A   1      39.183  24.455  28.318  1.00  0.00     0.016 A 
ATOM     25  C   UNL A   1      40.467  26.367  26.715  1.00  0.00     0.010 A 
ATOM     26  C   UNL A   1      39.554  25.689  28.859  1.00  0.00     0.010 A 
ATOM     27  C   UNL A   1      40.211  26.645  28.064  1.00  0.00    -0.014 A 
BRANCH  27  28
ATOM     28  C   UNL A   1      40.667  27.926  28.652  1.00  0.00     0.031 A 
ATOM     29  C   UNL A   1      42.114  28.115  29.004  1.00  0.00     0.074 A 
ATOM     30  C   UNL A   1      39.785  28.920  28.858  1.00  0.00     0.049 A 
ATOM     31  N   UNL A   1      42.699  29.128  29.591  1.00  0.00    -0.248 NA
ATOM     32  C   UNL A   1      43.024  27.015  28.648  1.00  0.00     0.031 C 
ATOM     33  C   UNL A   1      38.362  28.865  28.526  1.00  0.00     0.029 A 
ATOM     34  N   UNL A   1      39.957  30.167  29.405  1.00  0.00    -0.354 N 
ATOM     35  C   UNL A   1      44.041  28.785  29.687  1.00  0.00     0.074 A 
ATOM     36  C   UNL A   1      44.182  27.462  29.115  1.00  0.00     0.031 C 
ATOM     37  C   UNL A   1      37.787  30.025  28.882  1.00  0.00     0.029 A 
ATOM     38  C   UNL A   1      38.792  30.886  29.501  1.00  0.00     0.049 A 
ATOM     39  H   UNL A   1      40.830  30.511  29.701  1.00  0.00     0.167 HD
ATOM     40  C   UNL A   1      45.061  29.512  30.203  1.00  0.00     0.037 A 
ATOM     41  C   UNL A   1      38.559  32.093  30.051  1.00  0.00     0.037 A 
ATOM     42  C   UNL A   1      44.918  30.830  30.765  1.00  0.00     0.049 A 
ATOM     43  C   UNL A   1      39.700  32.858  30.663  1.00  0.00     0.074 A 
ATOM     44  C   UNL A   1      45.896  31.650  31.302  1.00  0.00     0.029 A 
ATOM     45  N   UNL A   1      43.719  31.519  30.862  1.00  0.00    -0.354 N 
ATOM     46  N   UNL A   1      40.966  32.528  30.748  1.00  0.00    -0.248 NA
ATOM     47  C   UNL A   1      39.379  34.164  31.257  1.00  0.00     0.031 C 
ATOM     48  C   UNL A   1      45.281  32.823  31.757  1.00  0.00     0.029 A 
ATOM     49  C   UNL A   1      43.928  32.749  31.467  1.00  0.00     0.049 A 
ATOM     50  H   UNL A   1      42.848  31.185  30.548  1.00  0.00     0.167 HD
ATOM     51  C   UNL A   1      41.594  33.587  31.389  1.00  0.00     0.074 A 
ATOM     52  C   UNL A   1      40.573  34.578  31.657  1.00  0.00     0.031 C 
ATOM     53  C   UNL A   1      42.900  33.723  31.725  1.00  0.00     0.037 A 
BRANCH  40  54
ATOM     54  C   UNL A   1      46.422  28.885  30.203  1.00  0.00     0.064 A 
ATOM     55  C   UNL A   1      46.878  28.118  31.285  1.00  0.00     0.173 A 
ATOM     56  C   UNL A   1      47.269  29.027  29.093  1.00  0.00     0.173 A 
ATOM     57  F   UNL A   1      46.111  27.966  32.374  1.00  0.00    -0.203 F 
ATOM     58  C   UNL A   1      48.142  27.533  31.264  1.00  0.00     0.198 A 
ATOM     59  C   UNL A   1      48.522  28.421  29.066  1.00  0.00     0.198 A 
ATOM     60  F   UNL A   1      46.878  29.748  28.032  1.00  0.00    -0.203 F 
ATOM     61  F   UNL A   1      48.573  26.837  32.325  1.00  0.00    -0.200 F 
ATOM     62  C   UNL A   1      48.959  27.679  30.153  1.00  0.00     0.200 A 
ATOM     63  F   UNL A   1      49.308  28.557  27.988  1.00  0.00    -0.200 F 
ATOM     64  F   UNL A   1      50.173  27.113  30.134  1.00  0.00    -0.200 F 
ENDBRANCH  40  54
BRANCH  41  65
ATOM     65  C   UNL A   1      37.180  32.642  30.061  1.00  0.00     0.064 A 
ATOM     66  C   UNL A   1      36.295  32.352  31.107  1.00  0.00     0.173 A 
ATOM     67  C   UNL A   1      36.722  33.469  29.025  1.00  0.00     0.173 A 
ATOM     68  F   UNL A   1      36.681  31.544  32.107  1.00  0.00    -0.203 F 
ATOM     69  C   UNL A   1      34.999  32.863  31.114  1.00  0.00     0.198 A 
ATOM     70  C   UNL A   1      35.434  33.999  29.044  1.00  0.00     0.198 A 
ATOM     71  F   UNL A   1      37.531  33.772  28.000  1.00  0.00    -0.203 F 
ATOM     72  F   UNL A   1      34.160  32.541  32.107  1.00  0.00    -0.200 F 
ATOM     73  C   UNL A   1      34.571  33.691  30.086  1.00  0.00     0.200 A 
ATOM     74  F   UNL A   1      35.029  34.806  28.055  1.00  0.00    -0.200 F 
ATOM     75  F   UNL A   1      33.326  34.186  30.095  1.00  0.00    -0.200 F 
ENDBRANCH  41  65
BRANCH  53  76
ATOM     76  C   UNL A   1      43.302  35.000  32.401  1.00  0.00     0.064 A 
ATOM     77  C   UNL A   1      43.354  35.105  33.799  1.00  0.00     0.173 A 
ATOM     78  C   UNL A   1      43.673  36.120  31.641  1.00  0.00     0.173 A 
ATOM     79  F   UNL A   1      42.992  34.067  34.567  1.00  0.00    -0.203 F 
ATOM     80  C   UNL A   1      43.745  36.292  34.412  1.00  0.00     0.198 A 
ATOM     81  C   UNL A   1      44.087  37.297  32.257  1.00  0.00     0.198 A 
ATOM     82  F   UNL A   1      43.645  36.067  30.301  1.00  0.00    -0.203 F 
ATOM     83  F   UNL A   1      43.750  36.383  35.749  1.00  0.00    -0.200 F 
ATOM     84  C   UNL A   1      44.117  37.385  33.642  1.00  0.00     0.200 A 
ATOM     85  F   UNL A   1      44.454  38.349  31.513  1.00  0.00    -0.200 F 
ATOM     86  F   UNL A   1      44.498  38.525  34.234  1.00  0.00    -0.200 F 
ENDBRANCH  53  76
ENDBRANCH  27  28
ENDBRANCH  20  22
ENDBRANCH  19  20
ENDBRANCH  18  19
ENDBRANCH   1  18
TORSDOF 14
ENDMDL
MODEL 3
REMARK VINA RESULT:      -9.9      3.657      6.514
REMARK SMILES O=C(NCCC(=O)OCCOC(=O)c1ccc(-c2c3nc(c(-c4c(F)c(F)c(F)c(F)c4F)c4ccc([nH]4)c(-c4c(F)c(F)c(F)c(F)c4F)c4nc(c(-c5c(F)c(F)c(F)c(F)c5F)c5ccc2[nH]5)C=C4)C=C3)cc1)N[C@@H]1CCOC1
REMARK SMILES IDX 9 1 8 2 6 3 7 4 5 5 4 6 3 7 1 8 2 9 77 10 78 13 79 14 82 15
REMARK SMILES IDX 80 16 81 17 10 18 11 19 12 20 13 21 14 22 15 23 76 24 16 25
REMARK SMILES IDX 75 26 17 27 18 28 19 29 69 30 20 31 74 32 68 33 70 34 21 35
REMARK SMILES IDX 73 36 67 37 66 38 22 40 54 41 34 42 53 43 35 44 38 45 52 46
REMARK SMILES IDX 71 47 36 48 37 49 51 51 72 52 39 53 23 54 24 55 32 56 25 57
REMARK SMILES IDX 26 58 30 59 33 60 27 61 28 62 31 63 29 64 55 65 56 66 64 67
REMARK SMILES IDX 57 68 58 69 62 70 65 71 59 72 60 73 63 74 61 75 40 76 41 77
REMARK SMILES IDX 49 78 42 79 43 80 47 81 50 82 44 83 45 84 48 85 46 86
REMARK H PARENT 3 11 77 12 70 39 38 50
REMARK Flexibility Score: inf
ROOT
ATOM      1  C   UNL A   1      33.939  35.309  28.938  1.00  0.00     0.274 C 
ENDROOT
BRANCH   1   2
ATOM      2  O   UNL A   1      33.542  33.943  28.702  1.00  0.00    -0.462 OA
BRANCH   2   3
ATOM      3  C   UNL A   1      34.350  32.978  29.215  1.00  0.00     0.307 C 
ATOM      4  O   UNL A   1      34.266  32.518  30.347  1.00  0.00    -0.252 OA
BRANCH   3   5
ATOM      5  C   UNL A   1      35.421  32.548  28.242  1.00  0.00     0.144 C 
BRANCH   5   6
ATOM      6  C   UNL A   1      35.184  31.163  27.655  1.00  0.00     0.129 C 
BRANCH   6   7
ATOM      7  N   UNL A   1      33.795  30.763  27.777  1.00  0.00    -0.338 N 
ATOM      8  O   UNL A   1      31.774  30.034  27.188  1.00  0.00    -0.249 OA
ATOM      9  C   UNL A   1      32.959  30.162  26.901  1.00  0.00     0.315 C 
ATOM     10  N   UNL A   1      33.498  29.728  25.733  1.00  0.00    -0.333 N 
ATOM     11  H   UNL A   1      33.390  30.963  28.652  1.00  0.00     0.165 HD
ATOM     12  H   UNL A   1      34.468  29.813  25.590  1.00  0.00     0.165 HD
BRANCH  10  13
ATOM     13  C   UNL A   1      32.675  29.139  24.683  1.00  0.00     0.112 C 
ATOM     14  C   UNL A   1      32.455  27.660  24.914  1.00  0.00     0.056 C 
ATOM     15  C   UNL A   1      33.410  29.138  23.350  1.00  0.00     0.185 C 
ATOM     16  C   UNL A   1      33.688  27.028  24.302  1.00  0.00     0.162 C 
ATOM     17  O   UNL A   1      34.202  27.936  23.317  1.00  0.00    -0.379 OA
ENDBRANCH  10  13
ENDBRANCH   6   7
ENDBRANCH   5   6
ENDBRANCH   3   5
ENDBRANCH   2   3
ENDBRANCH   1   2
BRANCH   1  18
ATOM     18  C   UNL A   1      32.898  36.070  29.762  1.00  0.00     0.275 C 
BRANCH  18  19
ATOM     19  O   UNL A   1      32.480  35.309  30.909  1.00  0.00    -0.458 OA
BRANCH  19  20
ATOM     20  C   UNL A   1      32.847  35.824  32.104  1.00  0.00     0.338 C 
ATOM     21  O   UNL A   1      32.273  36.679  32.754  1.00  0.00    -0.246 OA
BRANCH  20  22
ATOM     22  C   UNL A   1      34.024  35.104  32.610  1.00  0.00     0.060 A 
ATOM     23  C   UNL A   1      35.291  35.621  32.325  1.00  0.00     0.016 A 
ATOM     24  C   UNL A   1      33.885  33.887  33.279  1.00  0.00     0.016 A 
ATOM     25  C   UNL A   1      36.431  34.916  32.701  1.00  0.00     0.010 A 
ATOM     26  C   UNL A   1      35.030  33.183  33.661  1.00  0.00     0.010 A 
ATOM     27  C   UNL A   1      36.309  33.687  33.361  1.00  0.00    -0.014 A 
BRANCH  27  28
ATOM     28  C   UNL A   1      37.522  32.909  33.702  1.00  0.00     0.031 A 
ATOM     29  C   UNL A   1      38.233  33.161  35.000  1.00  0.00     0.074 A 
ATOM     30  C   UNL A   1      37.977  31.970  32.853  1.00  0.00     0.049 A 
ATOM     31  N   UNL A   1      39.346  32.641  35.451  1.00  0.00    -0.248 NA
ATOM     32  C   UNL A   1      37.607  34.131  35.912  1.00  0.00     0.031 C 
ATOM     33  C   UNL A   1      37.352  31.613  31.580  1.00  0.00     0.029 A 
ATOM     34  N   UNL A   1      39.076  31.152  32.932  1.00  0.00    -0.354 N 
ATOM     35  C   UNL A   1      39.562  33.226  36.690  1.00  0.00     0.074 A 
ATOM     36  C   UNL A   1      38.475  34.157  36.914  1.00  0.00     0.031 C 
ATOM     37  C   UNL A   1      38.081  30.651  30.992  1.00  0.00     0.029 A 
ATOM     38  C   UNL A   1      39.243  30.354  31.827  1.00  0.00     0.049 A 
ATOM     39  H   UNL A   1      39.685  31.140  33.704  1.00  0.00     0.167 HD
ATOM     40  C   UNL A   1      40.574  33.003  37.563  1.00  0.00     0.037 A 
ATOM     41  C   UNL A   1      40.234  29.500  31.516  1.00  0.00     0.037 A 
ATOM     42  C   UNL A   1      41.650  32.073  37.340  1.00  0.00     0.049 A 
ATOM     43  C   UNL A   1      41.374  29.308  32.479  1.00  0.00     0.074 A 
ATOM     44  C   UNL A   1      42.716  31.770  38.170  1.00  0.00     0.029 A 
ATOM     45  N   UNL A   1      41.796  31.296  36.201  1.00  0.00    -0.354 N 
ATOM     46  N   UNL A   1      41.570  29.864  33.650  1.00  0.00    -0.248 NA
ATOM     47  C   UNL A   1      42.432  28.370  32.075  1.00  0.00     0.031 C 
ATOM     48  C   UNL A   1      43.527  30.834  37.516  1.00  0.00     0.029 A 
ATOM     49  C   UNL A   1      42.945  30.526  36.297  1.00  0.00     0.049 A 
ATOM     50  H   UNL A   1      41.176  31.292  35.436  1.00  0.00     0.167 HD
ATOM     51  C   UNL A   1      42.760  29.335  34.129  1.00  0.00     0.074 A 
ATOM     52  C   UNL A   1      43.235  28.401  33.130  1.00  0.00     0.031 C 
ATOM     53  C   UNL A   1      43.402  29.601  35.293  1.00  0.00     0.037 A 
BRANCH  40  54
ATOM     54  C   UNL A   1      40.577  33.799  38.833  1.00  0.00     0.064 A 
ATOM     55  C   UNL A   1      39.868  33.375  39.967  1.00  0.00     0.173 A 
ATOM     56  C   UNL A   1      41.323  34.983  38.927  1.00  0.00     0.173 A 
ATOM     57  F   UNL A   1      39.128  32.258  39.921  1.00  0.00    -0.203 F 
ATOM     58  C   UNL A   1      39.890  34.121  41.143  1.00  0.00     0.198 A 
ATOM     59  C   UNL A   1      41.361  35.713  40.111  1.00  0.00     0.198 A 
ATOM     60  F   UNL A   1      42.020  35.429  37.871  1.00  0.00    -0.203 F 
ATOM     61  F   UNL A   1      39.175  33.719  42.203  1.00  0.00    -0.200 F 
ATOM     62  C   UNL A   1      40.642  35.284  41.217  1.00  0.00     0.200 A 
ATOM     63  F   UNL A   1      42.095  36.833  40.183  1.00  0.00    -0.200 F 
ATOM     64  F   UNL A   1      40.664  35.998  42.350  1.00  0.00    -0.200 F 
ENDBRANCH  40  54
BRANCH  41  65
ATOM     65  C   UNL A   1      40.199  28.773  30.221  1.00  0.00     0.064 A 
ATOM     66  C   UNL A   1      40.801  29.310  29.076  1.00  0.00     0.173 A 
ATOM     67  C   UNL A   1      39.565  27.528  30.106  1.00  0.00     0.173 A 
ATOM     68  F   UNL A   1      41.398  30.511  29.133  1.00  0.00    -0.203 F 
ATOM     69  C   UNL A   1      40.763  28.632  27.860  1.00  0.00     0.198 A 
ATOM     70  C   UNL A   1      39.548  26.839  28.896  1.00  0.00     0.198 A 
ATOM     71  F   UNL A   1      38.972  26.975  31.174  1.00  0.00    -0.203 F 
ATOM     72  F   UNL A   1      41.314  29.182  26.771  1.00  0.00    -0.200 F 
ATOM     73  C   UNL A   1      40.143  27.394  27.772  1.00  0.00     0.200 A 
ATOM     74  F   UNL A   1      38.956  25.640  28.818  1.00  0.00    -0.200 F 
ATOM     75  F   UNL A   1      40.110  26.739  26.604  1.00  0.00    -0.200 F 
ENDBRANCH  41  65
BRANCH  53  76
ATOM     76  C   UNL A   1      44.675  28.856  35.557  1.00  0.00     0.064 A 
ATOM     77  C   UNL A   1      44.676  27.610  36.201  1.00  0.00     0.173 A 
ATOM     78  C   UNL A   1      45.906  29.377  35.130  1.00  0.00     0.173 A 
ATOM     79  F   UNL A   1      43.526  27.079  36.643  1.00  0.00    -0.203 F 
ATOM     80  C   UNL A   1      45.865  26.921  36.424  1.00  0.00     0.198 A 
ATOM     81  C   UNL A   1      47.090  28.675  35.333  1.00  0.00     0.198 A 
ATOM     82  F   UNL A   1      45.957  30.564  34.505  1.00  0.00    -0.203 F 
ATOM     83  F   UNL A   1      45.846  25.750  37.076  1.00  0.00    -0.200 F 
ATOM     84  C   UNL A   1      47.070  27.451  35.985  1.00  0.00     0.200 A 
ATOM     85  F   UNL A   1      48.252  29.183  34.901  1.00  0.00    -0.200 F 
ATOM     86  F   UNL A   1      48.212  26.784  36.197  1.00  0.00    -0.200 F 
ENDBRANCH  53  76
ENDBRANCH  27  28
ENDBRANCH  20  22
ENDBRANCH  19  20
ENDBRANCH  18  19
ENDBRANCH   1  18
TORSDOF 14
ENDMDL
