MODEL 1
REMARK VINA RESULT:     -12.2      0.000      0.000
REMARK SMILES CSc1nc(N)cc(Nc2cccc(C(=O)OCCOC(=O)c3ccc(-c4c5nc(c(-c6c(F)c(F)c(F)c(F)c6F)c6ccc([nH]6)c(-c6c(F)c(F)c(F)c(F)c6F)c6nc(c(-c7c(F)c(F)c(F)c(F)c7F)c7ccc4[nH]7)C=C6)C=C5)cc3)c2)n1
REMARK SMILES IDX 18 1 17 2 15 3 16 4 14 5 10 6 11 7 86 8 12 9 13 10 9 11 8 13
REMARK SMILES IDX 3 14 4 15 87 16 5 17 7 18 2 19 1 20 6 21 19 24 20 25 21 26
REMARK SMILES IDX 22 27 23 28 24 29 85 30 25 31 84 32 26 33 27 34 28 35 78 36
REMARK SMILES IDX 29 37 83 38 77 39 79 40 30 41 82 42 76 43 75 44 31 46 63 47
REMARK SMILES IDX 43 48 62 49 44 50 47 51 61 52 80 53 45 54 46 55 60 57 81 58
REMARK SMILES IDX 48 59 32 60 33 61 41 62 34 63 35 64 39 65 42 66 36 67 37 68
REMARK SMILES IDX 40 69 38 70 64 71 65 72 73 73 66 74 67 75 71 76 74 77 68 78
REMARK SMILES IDX 69 79 72 80 70 81 49 82 50 83 58 84 51 85 52 86 56 87 59 88
REMARK SMILES IDX 53 89 54 90 57 91 55 92
REMARK H PARENT 9 12 6 22 6 23 79 45 47 56
REMARK Flexibility Score: inf
ROOT
ATOM      1  C   UNL A   1      31.664  28.519  26.705  1.00  0.00     0.275 C 
ENDROOT
BRANCH   1   2
ATOM      2  O   UNL A   1      32.002  27.389  25.876  1.00  0.00    -0.458 OA
BRANCH   2   3
ATOM      3  C   UNL A   1      31.480  26.189  26.237  1.00  0.00     0.338 C 
ATOM      4  O   UNL A   1      30.325  25.950  26.529  1.00  0.00    -0.246 OA
BRANCH   3   5
ATOM      5  C   UNL A   1      32.519  25.138  26.109  1.00  0.00     0.062 A 
ATOM      6  C   UNL A   1      33.187  22.815  26.245  1.00  0.00     0.040 A 
ATOM      7  C   UNL A   1      34.478  23.168  25.836  1.00  0.00     0.026 A 
ATOM      8  C   UNL A   1      32.230  23.819  26.438  1.00  0.00     0.041 A 
ATOM      9  C   UNL A   1      34.775  24.488  25.506  1.00  0.00     0.003 A 
ATOM     10  C   UNL A   1      33.779  25.458  25.588  1.00  0.00     0.016 A 
BRANCH   6  11
ATOM     11  N   UNL A   1      32.803  21.460  26.248  1.00  0.00    -0.340 N 
ATOM     12  H   UNL A   1      32.620  21.032  27.116  1.00  0.00     0.168 HD
BRANCH  11  13
ATOM     13  C   UNL A   1      32.665  20.678  25.079  1.00  0.00     0.137 A 
ATOM     14  C   UNL A   1      32.874  18.670  23.984  1.00  0.00     0.191 A 
ATOM     15  N   UNL A   1      32.428  19.171  22.825  1.00  0.00    -0.206 NA
ATOM     16  N   UNL A   1      32.999  19.375  25.110  1.00  0.00    -0.205 NA
ATOM     17  C   UNL A   1      32.096  20.464  22.818  1.00  0.00     0.130 A 
ATOM     18  C   UNL A   1      32.221  21.274  23.922  1.00  0.00     0.093 A 
BRANCH  14  19
ATOM     19  S   UNL A   1      33.304  16.944  23.992  1.00  0.00    -0.090 SA
ATOM     20  C   UNL A   1      32.661  16.441  25.609  1.00  0.00     0.094 C 
ENDBRANCH  14  19
BRANCH  17  21
ATOM     21  N   UNL A   1      31.665  20.981  21.610  1.00  0.00    -0.383 N 
ATOM     22  H   UNL A   1      30.796  21.439  21.553  1.00  0.00     0.158 HD
ATOM     23  H   UNL A   1      32.228  20.889  20.807  1.00  0.00     0.158 HD
ENDBRANCH  17  21
ENDBRANCH  11  13
ENDBRANCH   6  11
ENDBRANCH   3   5
ENDBRANCH   2   3
ENDBRANCH   1   2
BRANCH   1  24
ATOM     24  C   UNL A   1      31.797  29.818  25.911  1.00  0.00     0.275 C 
BRANCH  24  25
ATOM     25  O   UNL A   1      33.145  30.311  26.014  1.00  0.00    -0.458 OA
BRANCH  25  26
ATOM     26  C   UNL A   1      33.347  31.303  26.909  1.00  0.00     0.338 C 
ATOM     27  O   UNL A   1      32.595  32.215  27.207  1.00  0.00    -0.246 OA
BRANCH  26  28
ATOM     28  C   UNL A   1      34.643  31.092  27.570  1.00  0.00     0.060 A 
ATOM     29  C   UNL A   1      34.973  29.802  27.969  1.00  0.00     0.016 A 
ATOM     30  C   UNL A   1      35.479  32.155  27.892  1.00  0.00     0.016 A 
ATOM     31  C   UNL A   1      36.087  29.567  28.765  1.00  0.00     0.010 A 
ATOM     32  C   UNL A   1      36.667  31.902  28.589  1.00  0.00     0.010 A 
ATOM     33  C   UNL A   1      36.979  30.606  29.048  1.00  0.00    -0.014 A 
BRANCH  33  34
ATOM     34  C   UNL A   1      38.236  30.332  29.797  1.00  0.00     0.031 A 
ATOM     35  C   UNL A   1      39.298  29.450  29.200  1.00  0.00     0.074 A 
ATOM     36  C   UNL A   1      38.428  30.871  31.020  1.00  0.00     0.049 A 
ATOM     37  N   UNL A   1      40.342  28.904  29.771  1.00  0.00    -0.248 NA
ATOM     38  C   UNL A   1      39.167  29.133  27.769  1.00  0.00     0.031 C 
ATOM     39  C   UNL A   1      37.515  31.799  31.693  1.00  0.00     0.029 A 
ATOM     40  N   UNL A   1      39.452  30.710  31.922  1.00  0.00    -0.354 N 
ATOM     41  C   UNL A   1      40.964  28.146  28.787  1.00  0.00     0.074 A 
ATOM     42  C   UNL A   1      40.178  28.297  27.581  1.00  0.00     0.031 C 
ATOM     43  C   UNL A   1      38.029  32.142  32.883  1.00  0.00     0.029 A 
ATOM     44  C   UNL A   1      39.246  31.375  33.108  1.00  0.00     0.049 A 
ATOM     45  H   UNL A   1      40.255  30.171  31.738  1.00  0.00     0.167 HD
ATOM     46  C   UNL A   1      42.086  27.396  28.889  1.00  0.00     0.037 A 
ATOM     47  C   UNL A   1      39.917  31.322  34.275  1.00  0.00     0.037 A 
ATOM     48  C   UNL A   1      42.878  27.283  30.087  1.00  0.00     0.049 A 
ATOM     49  C   UNL A   1      41.100  30.401  34.389  1.00  0.00     0.074 A 
ATOM     50  C   UNL A   1      44.033  26.548  30.293  1.00  0.00     0.029 A 
ATOM     51  N   UNL A   1      42.601  27.932  31.281  1.00  0.00    -0.354 N 
ATOM     52  N   UNL A   1      41.651  29.645  33.472  1.00  0.00    -0.248 NA
ATOM     53  C   UNL A   1      41.735  30.304  35.710  1.00  0.00     0.031 C 
ATOM     54  C   UNL A   1      44.429  26.717  31.623  1.00  0.00     0.029 A 
ATOM     55  C   UNL A   1      43.549  27.595  32.234  1.00  0.00     0.049 A 
ATOM     56  H   UNL A   1      41.843  28.542  31.429  1.00  0.00     0.167 HD
ATOM     57  C   UNL A   1      42.704  28.995  34.098  1.00  0.00     0.074 A 
ATOM     58  C   UNL A   1      42.732  29.465  35.467  1.00  0.00     0.031 C 
ATOM     59  C   UNL A   1      43.564  28.080  33.589  1.00  0.00     0.037 A 
BRANCH  46  60
ATOM     60  C   UNL A   1      42.519  26.609  27.686  1.00  0.00     0.064 A 
ATOM     61  C   UNL A   1      43.492  27.089  26.798  1.00  0.00     0.173 A 
ATOM     62  C   UNL A   1      42.000  25.324  27.458  1.00  0.00     0.173 A 
ATOM     63  F   UNL A   1      44.012  28.314  26.964  1.00  0.00    -0.203 F 
ATOM     64  C   UNL A   1      43.919  26.317  25.718  1.00  0.00     0.198 A 
ATOM     65  C   UNL A   1      42.448  24.546  26.394  1.00  0.00     0.198 A 
ATOM     66  F   UNL A   1      41.071  24.815  28.281  1.00  0.00    -0.203 F 
ATOM     67  F   UNL A   1      44.827  26.809  24.863  1.00  0.00    -0.200 F 
ATOM     68  C   UNL A   1      43.405  25.045  25.524  1.00  0.00     0.200 A 
ATOM     69  F   UNL A   1      41.960  23.310  26.217  1.00  0.00    -0.200 F 
ATOM     70  F   UNL A   1      43.829  24.298  24.494  1.00  0.00    -0.200 F 
ENDBRANCH  46  60
BRANCH  47  71
ATOM     71  C   UNL A   1      39.443  32.102  35.450  1.00  0.00     0.064 A 
ATOM     72  C   UNL A   1      38.593  31.525  36.405  1.00  0.00     0.173 A 
ATOM     73  C   UNL A   1      39.803  33.447  35.629  1.00  0.00     0.173 A 
ATOM     74  F   UNL A   1      38.195  30.252  36.265  1.00  0.00    -0.203 F 
ATOM     75  C   UNL A   1      38.107  32.270  37.479  1.00  0.00     0.198 A 
ATOM     76  C   UNL A   1      39.348  34.178  36.724  1.00  0.00     0.198 A 
ATOM     77  F   UNL A   1      40.609  34.052  34.743  1.00  0.00    -0.203 F 
ATOM     78  F   UNL A   1      37.250  31.710  38.343  1.00  0.00    -0.200 F 
ATOM     79  C   UNL A   1      38.490  33.592  37.641  1.00  0.00     0.200 A 
ATOM     80  F   UNL A   1      39.733  35.451  36.883  1.00  0.00    -0.200 F 
ATOM     81  F   UNL A   1      38.023  34.305  38.675  1.00  0.00    -0.200 F 
ENDBRANCH  47  71
BRANCH  59  82
ATOM     82  C   UNL A   1      44.625  27.554  34.511  1.00  0.00     0.064 A 
ATOM     83  C   UNL A   1      45.845  28.224  34.679  1.00  0.00     0.173 A 
ATOM     84  C   UNL A   1      44.404  26.387  35.256  1.00  0.00     0.173 A 
ATOM     85  F   UNL A   1      46.110  29.334  33.974  1.00  0.00    -0.203 F 
ATOM     86  C   UNL A   1      46.816  27.731  35.547  1.00  0.00     0.198 A 
ATOM     87  C   UNL A   1      45.364  25.914  36.145  1.00  0.00     0.198 A 
ATOM     88  F   UNL A   1      43.251  25.712  35.132  1.00  0.00    -0.203 F 
ATOM     89  F   UNL A   1      47.994  28.360  35.658  1.00  0.00    -0.200 F 
ATOM     90  C   UNL A   1      46.572  26.581  36.284  1.00  0.00     0.200 A 
ATOM     91  F   UNL A   1      45.123  24.810  36.865  1.00  0.00    -0.200 F 
ATOM     92  F   UNL A   1      47.505  26.114  37.125  1.00  0.00    -0.200 F 
ENDBRANCH  59  82
ENDBRANCH  33  34
ENDBRANCH  26  28
ENDBRANCH  25  26
ENDBRANCH  24  25
ENDBRANCH   1  24
TORSDOF 15
ENDMDL
MODEL 2
REMARK VINA RESULT:     -12.0      3.125      4.212
REMARK SMILES CSc1nc(N)cc(Nc2cccc(C(=O)OCCOC(=O)c3ccc(-c4c5nc(c(-c6c(F)c(F)c(F)c(F)c6F)c6ccc([nH]6)c(-c6c(F)c(F)c(F)c(F)c6F)c6nc(c(-c7c(F)c(F)c(F)c(F)c7F)c7ccc4[nH]7)C=C6)C=C5)cc3)c2)n1
REMARK SMILES IDX 18 1 17 2 15 3 16 4 14 5 10 6 11 7 86 8 12 9 13 10 9 11 8 13
REMARK SMILES IDX 3 14 4 15 87 16 5 17 7 18 2 19 1 20 6 21 19 24 20 25 21 26
REMARK SMILES IDX 22 27 23 28 24 29 85 30 25 31 84 32 26 33 27 34 28 35 78 36
REMARK SMILES IDX 29 37 83 38 77 39 79 40 30 41 82 42 76 43 75 44 31 46 63 47
REMARK SMILES IDX 43 48 62 49 44 50 47 51 61 52 80 53 45 54 46 55 60 57 81 58
REMARK SMILES IDX 48 59 32 60 33 61 41 62 34 63 35 64 39 65 42 66 36 67 37 68
REMARK SMILES IDX 40 69 38 70 64 71 65 72 73 73 66 74 67 75 71 76 74 77 68 78
REMARK SMILES IDX 69 79 72 80 70 81 49 82 50 83 58 84 51 85 52 86 56 87 59 88
REMARK SMILES IDX 53 89 54 90 57 91 55 92
REMARK H PARENT 9 12 6 22 6 23 79 45 47 56
REMARK Flexibility Score: inf
ROOT
ATOM      1  C   UNL A   1      31.743  28.887  27.328  1.00  0.00     0.275 C 
ENDROOT
BRANCH   1   2
ATOM      2  O   UNL A   1      32.602  27.808  26.909  1.00  0.00    -0.458 OA
BRANCH   2   3
ATOM      3  C   UNL A   1      31.991  26.685  26.451  1.00  0.00     0.338 C 
ATOM      4  O   UNL A   1      31.319  25.903  27.093  1.00  0.00    -0.246 OA
BRANCH   3   5
ATOM      5  C   UNL A   1      32.160  26.594  24.980  1.00  0.00     0.062 A 
ATOM      6  C   UNL A   1      31.610  27.361  22.751  1.00  0.00     0.040 A 
ATOM      7  C   UNL A   1      32.511  26.433  22.215  1.00  0.00     0.026 A 
ATOM      8  C   UNL A   1      31.396  27.390  24.134  1.00  0.00     0.041 A 
ATOM      9  C   UNL A   1      33.278  25.631  23.057  1.00  0.00     0.003 A 
ATOM     10  C   UNL A   1      33.142  25.756  24.438  1.00  0.00     0.016 A 
BRANCH   6  11
ATOM     11  N   UNL A   1      31.097  28.386  21.933  1.00  0.00    -0.340 N 
ATOM     12  H   UNL A   1      31.646  28.694  21.175  1.00  0.00     0.168 HD
BRANCH  11  13
ATOM     13  C   UNL A   1      29.841  29.000  22.135  1.00  0.00     0.137 A 
ATOM     14  C   UNL A   1      28.478  30.846  22.020  1.00  0.00     0.191 A 
ATOM     15  N   UNL A   1      27.431  30.199  22.545  1.00  0.00    -0.206 NA
ATOM     16  N   UNL A   1      29.672  30.292  21.799  1.00  0.00    -0.205 NA
ATOM     17  C   UNL A   1      27.617  28.916  22.866  1.00  0.00     0.130 A 
ATOM     18  C   UNL A   1      28.821  28.272  22.702  1.00  0.00     0.093 A 
BRANCH  14  19
ATOM     19  S   UNL A   1      28.222  32.552  21.583  1.00  0.00    -0.090 SA
ATOM     20  C   UNL A   1      28.895  33.382  23.046  1.00  0.00     0.094 C 
ENDBRANCH  14  19
BRANCH  17  21
ATOM     21  N   UNL A   1      26.541  28.263  23.436  1.00  0.00    -0.383 N 
ATOM     22  H   UNL A   1      26.557  28.030  24.392  1.00  0.00     0.158 HD
ATOM     23  H   UNL A   1      25.758  28.030  22.885  1.00  0.00     0.158 HD
ENDBRANCH  17  21
ENDBRANCH  11  13
ENDBRANCH   6  11
ENDBRANCH   3   5
ENDBRANCH   2   3
ENDBRANCH   1   2
BRANCH   1  24
ATOM     24  C   UNL A   1      31.883  30.076  26.379  1.00  0.00     0.275 C 
BRANCH  24  25
ATOM     25  O   UNL A   1      33.255  30.514  26.350  1.00  0.00    -0.458 OA
BRANCH  25  26
ATOM     26  C   UNL A   1      33.567  31.540  27.172  1.00  0.00     0.338 C 
ATOM     27  O   UNL A   1      32.903  32.530  27.427  1.00  0.00    -0.246 OA
BRANCH  26  28
ATOM     28  C   UNL A   1      34.862  31.262  27.810  1.00  0.00     0.060 A 
ATOM     29  C   UNL A   1      35.077  29.991  28.331  1.00  0.00     0.016 A 
ATOM     30  C   UNL A   1      35.812  32.259  27.996  1.00  0.00     0.016 A 
ATOM     31  C   UNL A   1      36.193  29.721  29.112  1.00  0.00     0.010 A 
ATOM     32  C   UNL A   1      36.997  31.954  28.679  1.00  0.00     0.010 A 
ATOM     33  C   UNL A   1      37.195  30.685  29.258  1.00  0.00    -0.014 A 
BRANCH  33  34
ATOM     34  C   UNL A   1      38.449  30.357  29.993  1.00  0.00     0.031 A 
ATOM     35  C   UNL A   1      39.480  29.457  29.370  1.00  0.00     0.074 A 
ATOM     36  C   UNL A   1      38.664  30.864  31.226  1.00  0.00     0.049 A 
ATOM     37  N   UNL A   1      40.510  28.868  29.923  1.00  0.00    -0.248 NA
ATOM     38  C   UNL A   1      39.330  29.174  27.933  1.00  0.00     0.031 C 
ATOM     39  C   UNL A   1      37.784  31.805  31.924  1.00  0.00     0.029 A 
ATOM     40  N   UNL A   1      39.689  30.653  32.117  1.00  0.00    -0.354 N 
ATOM     41  C   UNL A   1      41.102  28.113  28.918  1.00  0.00     0.074 A 
ATOM     42  C   UNL A   1      40.314  28.312  27.721  1.00  0.00     0.031 C 
ATOM     43  C   UNL A   1      38.316  32.107  33.118  1.00  0.00     0.029 A 
ATOM     44  C   UNL A   1      39.511  31.299  33.318  1.00  0.00     0.049 A 
ATOM     45  H   UNL A   1      40.474  30.094  31.916  1.00  0.00     0.167 HD
ATOM     46  C   UNL A   1      42.202  27.326  28.997  1.00  0.00     0.037 A 
ATOM     47  C   UNL A   1      40.187  31.201  34.478  1.00  0.00     0.037 A 
ATOM     48  C   UNL A   1      42.998  27.164  30.186  1.00  0.00     0.049 A 
ATOM     49  C   UNL A   1      41.342  30.243  34.565  1.00  0.00     0.074 A 
ATOM     50  C   UNL A   1      44.132  26.391  30.368  1.00  0.00     0.029 A 
ATOM     51  N   UNL A   1      42.748  27.796  31.396  1.00  0.00    -0.354 N 
ATOM     52  N   UNL A   1      41.865  29.490  33.629  1.00  0.00    -0.248 NA
ATOM     53  C   UNL A   1      41.983  30.099  35.879  1.00  0.00     0.031 C 
ATOM     54  C   UNL A   1      44.541  26.519  31.700  1.00  0.00     0.029 A 
ATOM     55  C   UNL A   1      43.692  27.411  32.334  1.00  0.00     0.049 A 
ATOM     56  H   UNL A   1      42.010  28.425  31.562  1.00  0.00     0.167 HD
ATOM     57  C   UNL A   1      42.902  28.795  34.233  1.00  0.00     0.074 A 
ATOM     58  C   UNL A   1      42.952  29.236  35.612  1.00  0.00     0.031 C 
ATOM     59  C   UNL A   1      43.730  27.867  33.699  1.00  0.00     0.037 A 
BRANCH  46  60
ATOM     60  C   UNL A   1      42.603  26.553  27.774  1.00  0.00     0.064 A 
ATOM     61  C   UNL A   1      43.568  27.032  26.877  1.00  0.00     0.173 A 
ATOM     62  C   UNL A   1      42.062  25.279  27.535  1.00  0.00     0.173 A 
ATOM     63  F   UNL A   1      44.108  28.248  27.053  1.00  0.00    -0.203 F 
ATOM     64  C   UNL A   1      43.966  26.272  25.779  1.00  0.00     0.198 A 
ATOM     65  C   UNL A   1      42.482  24.511  26.452  1.00  0.00     0.198 A 
ATOM     66  F   UNL A   1      41.140  24.770  28.366  1.00  0.00    -0.203 F 
ATOM     67  F   UNL A   1      44.866  26.765  24.916  1.00  0.00    -0.200 F 
ATOM     68  C   UNL A   1      43.430  25.010  25.573  1.00  0.00     0.200 A 
ATOM     69  F   UNL A   1      41.973  23.286  26.264  1.00  0.00    -0.200 F 
ATOM     70  F   UNL A   1      43.826  24.274  24.525  1.00  0.00    -0.200 F 
ENDBRANCH  46  60
BRANCH  47  71
ATOM     71  C   UNL A   1      39.744  31.970  35.674  1.00  0.00     0.064 A 
ATOM     72  C   UNL A   1      38.699  31.506  36.485  1.00  0.00     0.173 A 
ATOM     73  C   UNL A   1      40.334  33.198  36.013  1.00  0.00     0.173 A 
ATOM     74  F   UNL A   1      38.083  30.353  36.187  1.00  0.00    -0.203 F 
ATOM     75  C   UNL A   1      38.249  32.250  37.575  1.00  0.00     0.198 A 
ATOM     76  C   UNL A   1      39.909  33.921  37.125  1.00  0.00     0.198 A 
ATOM     77  F   UNL A   1      41.334  33.693  35.268  1.00  0.00    -0.203 F 
ATOM     78  F   UNL A   1      37.210  31.810  38.297  1.00  0.00    -0.200 F 
ATOM     79  C   UNL A   1      38.859  33.452  37.898  1.00  0.00     0.200 A 
ATOM     80  F   UNL A   1      40.512  35.075  37.441  1.00  0.00    -0.200 F 
ATOM     81  F   UNL A   1      38.426  34.165  38.946  1.00  0.00    -0.200 F 
ENDBRANCH  47  71
BRANCH  59  82
ATOM     82  C   UNL A   1      44.780  27.289  34.602  1.00  0.00     0.064 A 
ATOM     83  C   UNL A   1      46.028  27.909  34.763  1.00  0.00     0.173 A 
ATOM     84  C   UNL A   1      44.523  26.123  35.337  1.00  0.00     0.173 A 
ATOM     85  F   UNL A   1      46.327  29.015  34.066  1.00  0.00    -0.203 F 
ATOM     86  C   UNL A   1      46.989  27.369  35.613  1.00  0.00     0.198 A 
ATOM     87  C   UNL A   1      45.475  25.603  36.210  1.00  0.00     0.198 A 
ATOM     88  F   UNL A   1      43.343  25.495  35.220  1.00  0.00    -0.203 F 
ATOM     89  F   UNL A   1      48.191  27.950  35.717  1.00  0.00    -0.200 F 
ATOM     90  C   UNL A   1      46.709  26.222  36.341  1.00  0.00     0.200 A 
ATOM     91  F   UNL A   1      45.198  24.502  36.921  1.00  0.00    -0.200 F 
ATOM     92  F   UNL A   1      47.633  25.709  37.165  1.00  0.00    -0.200 F 
ENDBRANCH  59  82
ENDBRANCH  33  34
ENDBRANCH  26  28
ENDBRANCH  25  26
ENDBRANCH  24  25
ENDBRANCH   1  24
TORSDOF 15
ENDMDL
MODEL 3
REMARK VINA RESULT:     -12.0      1.293      2.722
REMARK SMILES CSc1nc(N)cc(Nc2cccc(C(=O)OCCOC(=O)c3ccc(-c4c5nc(c(-c6c(F)c(F)c(F)c(F)c6F)c6ccc([nH]6)c(-c6c(F)c(F)c(F)c(F)c6F)c6nc(c(-c7c(F)c(F)c(F)c(F)c7F)c7ccc4[nH]7)C=C6)C=C5)cc3)c2)n1
REMARK SMILES IDX 18 1 17 2 15 3 16 4 14 5 10 6 11 7 86 8 12 9 13 10 9 11 8 13
REMARK SMILES IDX 3 14 4 15 87 16 5 17 7 18 2 19 1 20 6 21 19 24 20 25 21 26
REMARK SMILES IDX 22 27 23 28 24 29 85 30 25 31 84 32 26 33 27 34 28 35 78 36
REMARK SMILES IDX 29 37 83 38 77 39 79 40 30 41 82 42 76 43 75 44 31 46 63 47
REMARK SMILES IDX 43 48 62 49 44 50 47 51 61 52 80 53 45 54 46 55 60 57 81 58
REMARK SMILES IDX 48 59 32 60 33 61 41 62 34 63 35 64 39 65 42 66 36 67 37 68
REMARK SMILES IDX 40 69 38 70 64 71 65 72 73 73 66 74 67 75 71 76 74 77 68 78
REMARK SMILES IDX 69 79 72 80 70 81 49 82 50 83 58 84 51 85 52 86 56 87 59 88
REMARK SMILES IDX 53 89 54 90 57 91 55 92
REMARK H PARENT 9 12 6 22 6 23 79 45 47 56
REMARK Flexibility Score: inf
ROOT
ATOM      1  C   UNL A   1      31.906  28.981  24.333  1.00  0.00     0.275 C 
ENDROOT
BRANCH   1   2
ATOM      2  O   UNL A   1      30.598  28.417  24.114  1.00  0.00    -0.458 OA
BRANCH   2   3
ATOM      3  C   UNL A   1      30.516  27.386  23.235  1.00  0.00     0.338 C 
ATOM      4  O   UNL A   1      30.501  27.456  22.022  1.00  0.00    -0.246 OA
BRANCH   3   5
ATOM      5  C   UNL A   1      30.570  26.100  23.973  1.00  0.00     0.062 A 
ATOM      6  C   UNL A   1      31.023  23.723  24.022  1.00  0.00     0.040 A 
ATOM      7  C   UNL A   1      30.694  23.693  25.383  1.00  0.00     0.026 A 
ATOM      8  C   UNL A   1      30.898  24.922  23.311  1.00  0.00     0.041 A 
ATOM      9  C   UNL A   1      30.363  24.870  26.051  1.00  0.00     0.003 A 
ATOM     10  C   UNL A   1      30.359  26.077  25.357  1.00  0.00     0.016 A 
BRANCH   6  11
ATOM     11  N   UNL A   1      31.675  22.618  23.439  1.00  0.00    -0.340 N 
ATOM     12  H   UNL A   1      31.450  22.385  22.509  1.00  0.00     0.168 HD
BRANCH  11  13
ATOM     13  C   UNL A   1      32.632  21.825  24.111  1.00  0.00     0.137 A 
ATOM     14  C   UNL A   1      34.811  21.388  24.692  1.00  0.00     0.191 A 
ATOM     15  N   UNL A   1      34.485  20.288  25.380  1.00  0.00    -0.206 NA
ATOM     16  N   UNL A   1      33.931  22.170  24.061  1.00  0.00    -0.205 NA
ATOM     17  C   UNL A   1      33.190  19.967  25.422  1.00  0.00     0.130 A 
ATOM     18  C   UNL A   1      32.218  20.696  24.778  1.00  0.00     0.093 A 
BRANCH  14  19
ATOM     19  S   UNL A   1      36.537  21.818  24.649  1.00  0.00    -0.090 SA
ATOM     20  C   UNL A   1      36.593  22.852  23.162  1.00  0.00     0.094 C 
ENDBRANCH  14  19
BRANCH  17  21
ATOM     21  N   UNL A   1      32.865  18.812  26.110  1.00  0.00    -0.383 N 
ATOM     22  H   UNL A   1      31.932  18.644  26.377  1.00  0.00     0.158 HD
ATOM     23  H   UNL A   1      33.567  18.159  26.333  1.00  0.00     0.158 HD
ENDBRANCH  17  21
ENDBRANCH  11  13
ENDBRANCH   6  11
ENDBRANCH   3   5
ENDBRANCH   2   3
ENDBRANCH   1   2
BRANCH   1  24
ATOM     24  C   UNL A   1      31.907  29.847  25.591  1.00  0.00     0.275 C 
BRANCH  24  25
ATOM     25  O   UNL A   1      33.261  30.192  25.940  1.00  0.00    -0.458 OA
BRANCH  25  26
ATOM     26  C   UNL A   1      33.405  31.149  26.883  1.00  0.00     0.338 C 
ATOM     27  O   UNL A   1      32.614  32.020  27.200  1.00  0.00    -0.246 OA
BRANCH  26  28
ATOM     28  C   UNL A   1      34.691  30.952  27.568  1.00  0.00     0.060 A 
ATOM     29  C   UNL A   1      35.008  29.674  28.013  1.00  0.00     0.016 A 
ATOM     30  C   UNL A   1      35.528  32.020  27.867  1.00  0.00     0.016 A 
ATOM     31  C   UNL A   1      36.109  29.459  28.831  1.00  0.00     0.010 A 
ATOM     32  C   UNL A   1      36.706  31.783  28.589  1.00  0.00     0.010 A 
ATOM     33  C   UNL A   1      37.003  30.501  29.093  1.00  0.00    -0.014 A 
BRANCH  33  34
ATOM     34  C   UNL A   1      38.249  30.245  29.868  1.00  0.00     0.031 A 
ATOM     35  C   UNL A   1      39.328  29.366  29.299  1.00  0.00     0.074 A 
ATOM     36  C   UNL A   1      38.413  30.798  31.089  1.00  0.00     0.049 A 
ATOM     37  N   UNL A   1      40.366  28.834  29.895  1.00  0.00    -0.248 NA
ATOM     38  C   UNL A   1      39.226  29.033  27.869  1.00  0.00     0.031 C 
ATOM     39  C   UNL A   1      37.481  31.726  31.735  1.00  0.00     0.029 A 
ATOM     40  N   UNL A   1      39.422  30.654  32.011  1.00  0.00    -0.354 N 
ATOM     41  C   UNL A   1      41.011  28.071  28.931  1.00  0.00     0.074 A 
ATOM     42  C   UNL A   1      40.247  28.203  27.709  1.00  0.00     0.031 C 
ATOM     43  C   UNL A   1      37.970  32.085  32.931  1.00  0.00     0.029 A 
ATOM     44  C   UNL A   1      39.190  31.329  33.186  1.00  0.00     0.049 A 
ATOM     45  H   UNL A   1      40.233  30.120  31.847  1.00  0.00     0.167 HD
ATOM     46  C   UNL A   1      42.137  27.331  29.061  1.00  0.00     0.037 A 
ATOM     47  C   UNL A   1      39.839  31.294  34.365  1.00  0.00     0.037 A 
ATOM     48  C   UNL A   1      42.908  27.236  30.274  1.00  0.00     0.049 A 
ATOM     49  C   UNL A   1      41.026  30.383  34.511  1.00  0.00     0.074 A 
ATOM     50  C   UNL A   1      44.065  26.512  30.509  1.00  0.00     0.029 A 
ATOM     51  N   UNL A   1      42.604  27.895  31.456  1.00  0.00    -0.354 N 
ATOM     52  N   UNL A   1      41.601  29.622  33.612  1.00  0.00    -0.248 NA
ATOM     53  C   UNL A   1      41.638  30.305  35.844  1.00  0.00     0.031 C 
ATOM     54  C   UNL A   1      44.435  26.698  31.845  1.00  0.00     0.029 A 
ATOM     55  C   UNL A   1      43.537  27.576  32.429  1.00  0.00     0.049 A 
ATOM     56  H   UNL A   1      41.838  28.500  31.584  1.00  0.00     0.167 HD
ATOM     57  C   UNL A   1      42.647  28.987  34.263  1.00  0.00     0.074 A 
ATOM     58  C   UNL A   1      42.645  29.472  35.628  1.00  0.00     0.031 C 
ATOM     59  C   UNL A   1      43.523  28.074  33.780  1.00  0.00     0.037 A 
BRANCH  46  60
ATOM     60  C   UNL A   1      42.598  26.536  27.874  1.00  0.00     0.064 A 
ATOM     61  C   UNL A   1      42.108  25.250  27.606  1.00  0.00     0.173 A 
ATOM     62  C   UNL A   1      43.494  27.100  26.951  1.00  0.00     0.173 A 
ATOM     63  F   UNL A   1      41.258  24.661  28.461  1.00  0.00    -0.203 F 
ATOM     64  C   UNL A   1      42.507  24.553  26.468  1.00  0.00     0.198 A 
ATOM     65  C   UNL A   1      43.870  26.412  25.800  1.00  0.00     0.198 A 
ATOM     66  F   UNL A   1      43.990  28.331  27.155  1.00  0.00    -0.203 F 
ATOM     67  F   UNL A   1      42.051  23.312  26.250  1.00  0.00    -0.200 F 
ATOM     68  C   UNL A   1      43.380  25.138  25.562  1.00  0.00     0.200 A 
ATOM     69  F   UNL A   1      44.702  26.985  24.919  1.00  0.00    -0.200 F 
ATOM     70  F   UNL A   1      43.750  24.471  24.459  1.00  0.00    -0.200 F 
ENDBRANCH  46  60
BRANCH  47  71
ATOM     71  C   UNL A   1      39.337  32.081  35.524  1.00  0.00     0.064 A 
ATOM     72  C   UNL A   1      39.756  33.402  35.737  1.00  0.00     0.173 A 
ATOM     73  C   UNL A   1      38.453  31.522  36.460  1.00  0.00     0.173 A 
ATOM     74  F   UNL A   1      40.624  33.974  34.888  1.00  0.00    -0.203 F 
ATOM     75  C   UNL A   1      39.327  34.124  36.850  1.00  0.00     0.198 A 
ATOM     76  C   UNL A   1      37.994  32.257  37.550  1.00  0.00     0.198 A 
ATOM     77  F   UNL A   1      38.024  30.259  36.310  1.00  0.00    -0.203 F 
ATOM     78  F   UNL A   1      39.790  35.363  37.059  1.00  0.00    -0.200 F 
ATOM     79  C   UNL A   1      38.441  33.553  37.751  1.00  0.00     0.200 A 
ATOM     80  F   UNL A   1      37.127  31.706  38.410  1.00  0.00    -0.200 F 
ATOM     81  F   UNL A   1      38.028  34.249  38.819  1.00  0.00    -0.200 F 
ENDBRANCH  47  71
BRANCH  59  82
ATOM     82  C   UNL A   1      44.571  27.566  34.726  1.00  0.00     0.064 A 
ATOM     83  C   UNL A   1      44.368  26.404  35.485  1.00  0.00     0.173 A 
ATOM     84  C   UNL A   1      45.800  28.229  34.850  1.00  0.00     0.173 A 
ATOM     85  F   UNL A   1      43.201  25.747  35.416  1.00  0.00    -0.203 F 
ATOM     86  C   UNL A   1      45.353  25.937  36.351  1.00  0.00     0.198 A 
ATOM     87  C   UNL A   1      46.794  27.741  35.693  1.00  0.00     0.198 A 
ATOM     88  F   UNL A   1      46.043  29.342  34.141  1.00  0.00    -0.203 F 
ATOM     89  F   UNL A   1      45.121  24.852  37.102  1.00  0.00    -0.200 F 
ATOM     90  C   UNL A   1      46.567  26.601  36.448  1.00  0.00     0.200 A 
ATOM     91  F   UNL A   1      47.971  28.377  35.776  1.00  0.00    -0.200 F 
ATOM     92  F   UNL A   1      47.517  26.144  37.276  1.00  0.00    -0.200 F 
ENDBRANCH  59  82
ENDBRANCH  33  34
ENDBRANCH  26  28
ENDBRANCH  25  26
ENDBRANCH  24  25
ENDBRANCH   1  24
TORSDOF 15
ENDMDL
