MODEL 1
REMARK VINA RESULT:     -13.0      0.000      0.000
REMARK SMILES Cc1cccc(O[C@H](C)C(=O)N2CCC[C@@H](C(=O)OCCOC(=O)c3ccc(-c4c5nc(c(-c6c(F)c(F)c(F)c(F)c6F)c6ccc([nH]6)c(-c6c(F)c(F)c(F)c(F)c6F)c6nc(c(-c7c(F)c(F)c(F)c(F)c7F)c7ccc4[nH]7)C=C6)C=C5)cc3)C2)c1
REMARK SMILES IDX 20 1 19 2 17 3 18 4 16 5 12 6 13 7 88 8 14 9 15 10 10 11
REMARK SMILES IDX 11 12 8 13 9 14 7 15 6 16 1 17 2 18 3 19 89 20 4 21 5 22
REMARK SMILES IDX 21 23 22 24 23 25 24 26 25 27 26 28 87 29 27 30 86 31 28 32
REMARK SMILES IDX 29 33 30 34 80 35 31 36 85 37 79 38 81 39 32 40 84 41 78 42
REMARK SMILES IDX 77 43 33 45 65 46 45 47 64 48 46 49 49 50 63 51 82 52 47 53
REMARK SMILES IDX 48 54 62 56 83 57 50 58 34 59 35 60 43 61 36 62 37 63 41 64
REMARK SMILES IDX 44 65 38 66 39 67 42 68 40 69 66 70 67 71 75 72 68 73 69 74
REMARK SMILES IDX 73 75 76 76 70 77 71 78 74 79 72 80 51 81 52 82 60 83 53 84
REMARK SMILES IDX 54 85 58 86 61 87 55 88 56 89 59 90 57 91
REMARK H PARENT 81 44 49 55
REMARK Flexibility Score: inf
ROOT
ATOM      1  C   UNL A   1      32.555  29.399  26.978  1.00  0.00     0.274 C 
ENDROOT
BRANCH   1   2
ATOM      2  O   UNL A   1      33.031  28.299  26.212  1.00  0.00    -0.462 OA
BRANCH   2   3
ATOM      3  C   UNL A   1      32.776  28.274  24.870  1.00  0.00     0.310 C 
ATOM      4  O   UNL A   1      32.745  29.245  24.130  1.00  0.00    -0.252 OA
BRANCH   3   5
ATOM      5  C   UNL A   1      32.476  26.845  24.497  1.00  0.00     0.119 C 
ATOM      6  N   UNL A   1      31.282  24.987  25.486  1.00  0.00    -0.339 N 
ATOM      7  C   UNL A   1      30.763  24.518  24.198  1.00  0.00     0.119 C 
ATOM      8  C   UNL A   1      31.495  26.402  25.553  1.00  0.00     0.134 C 
ATOM      9  C   UNL A   1      31.606  25.035  23.019  1.00  0.00     0.022 C 
ATOM     10  C   UNL A   1      31.910  26.543  23.115  1.00  0.00     0.019 C 
BRANCH   6  11
ATOM     11  C   UNL A   1      31.539  24.127  26.540  1.00  0.00     0.263 C 
ATOM     12  O   UNL A   1      30.602  23.670  27.207  1.00  0.00    -0.271 OA
BRANCH  11  13
ATOM     13  C   UNL A   1      33.017  23.657  26.872  1.00  0.00     0.259 C 
ATOM     14  C   UNL A   1      33.136  22.134  27.030  1.00  0.00     0.064 C 
BRANCH  13  15
ATOM     15  O   UNL A   1      34.193  24.314  26.379  1.00  0.00    -0.481 OA
BRANCH  15  16
ATOM     16  C   UNL A   1      35.018  23.787  25.432  1.00  0.00     0.120 A 
ATOM     17  C   UNL A   1      38.218  21.690  25.451  1.00  0.00     0.044 C 
ATOM     18  C   UNL A   1      37.038  22.488  24.982  1.00  0.00    -0.047 A 
ATOM     19  C   UNL A   1      36.768  22.542  23.614  1.00  0.00     0.003 A 
ATOM     20  C   UNL A   1      36.167  23.128  25.882  1.00  0.00     0.049 A 
ATOM     21  C   UNL A   1      35.590  23.129  23.171  1.00  0.00     0.004 A 
ATOM     22  C   UNL A   1      34.701  23.722  24.076  1.00  0.00     0.046 A 
ENDBRANCH  15  16
ENDBRANCH  13  15
ENDBRANCH  11  13
ENDBRANCH   6  11
ENDBRANCH   3   5
ENDBRANCH   2   3
ENDBRANCH   1   2
BRANCH   1  23
ATOM     23  C   UNL A   1      33.691  30.411  27.187  1.00  0.00     0.275 C 
BRANCH  23  24
ATOM     24  O   UNL A   1      34.984  29.940  27.693  1.00  0.00    -0.458 OA
BRANCH  24  25
ATOM     25  C   UNL A   1      36.059  30.656  28.110  1.00  0.00     0.338 C 
ATOM     26  O   UNL A   1      36.011  31.859  28.321  1.00  0.00    -0.246 OA
BRANCH  25  27
ATOM     27  C   UNL A   1      37.296  29.903  28.352  1.00  0.00     0.060 A 
ATOM     28  C   UNL A   1      37.369  29.028  29.451  1.00  0.00     0.016 A 
ATOM     29  C   UNL A   1      38.290  29.940  27.384  1.00  0.00     0.016 A 
ATOM     30  C   UNL A   1      38.385  28.080  29.501  1.00  0.00     0.010 A 
ATOM     31  C   UNL A   1      39.182  28.901  27.341  1.00  0.00     0.010 A 
ATOM     32  C   UNL A   1      39.256  28.001  28.416  1.00  0.00    -0.014 A 
BRANCH  32  33
ATOM     33  C   UNL A   1      40.516  27.280  28.464  1.00  0.00     0.031 A 
ATOM     34  C   UNL A   1      40.621  25.839  28.191  1.00  0.00     0.074 A 
ATOM     35  C   UNL A   1      41.532  28.130  28.721  1.00  0.00     0.049 A 
ATOM     36  N   UNL A   1      41.428  25.046  28.807  1.00  0.00    -0.248 NA
ATOM     37  C   UNL A   1      39.780  25.146  27.217  1.00  0.00     0.031 C 
ATOM     38  C   UNL A   1      42.969  27.981  28.663  1.00  0.00     0.029 A 
ATOM     39  N   UNL A   1      41.349  29.422  29.263  1.00  0.00    -0.354 N 
ATOM     40  C   UNL A   1      41.467  23.873  28.074  1.00  0.00     0.074 A 
ATOM     41  C   UNL A   1      40.301  23.912  27.227  1.00  0.00     0.031 C 
ATOM     42  C   UNL A   1      43.517  28.951  29.427  1.00  0.00     0.029 A 
ATOM     43  C   UNL A   1      42.427  29.653  30.106  1.00  0.00     0.049 A 
ATOM     44  H   UNL A   1      40.603  30.037  29.078  1.00  0.00     0.167 HD
ATOM     45  C   UNL A   1      42.619  23.137  28.057  1.00  0.00     0.037 A 
ATOM     46  C   UNL A   1      42.185  29.672  31.449  1.00  0.00     0.037 A 
ATOM     47  C   UNL A   1      43.638  23.824  28.843  1.00  0.00     0.049 A 
ATOM     48  C   UNL A   1      42.917  28.542  32.111  1.00  0.00     0.074 A 
ATOM     49  C   UNL A   1      44.592  24.747  28.443  1.00  0.00     0.029 A 
ATOM     50  N   UNL A   1      43.502  23.958  30.219  1.00  0.00    -0.354 N 
ATOM     51  N   UNL A   1      43.054  27.355  31.587  1.00  0.00    -0.248 NA
ATOM     52  C   UNL A   1      43.594  28.703  33.389  1.00  0.00     0.031 C 
ATOM     53  C   UNL A   1      44.983  25.488  29.579  1.00  0.00     0.029 A 
ATOM     54  C   UNL A   1      44.271  25.016  30.668  1.00  0.00     0.049 A 
ATOM     55  H   UNL A   1      42.941  23.385  30.790  1.00  0.00     0.167 HD
ATOM     56  C   UNL A   1      43.886  26.625  32.392  1.00  0.00     0.074 A 
ATOM     57  C   UNL A   1      44.178  27.501  33.514  1.00  0.00     0.031 C 
ATOM     58  C   UNL A   1      44.320  25.373  32.072  1.00  0.00     0.037 A 
BRANCH  45  59
ATOM     59  C   UNL A   1      42.950  22.084  27.016  1.00  0.00     0.064 A 
ATOM     60  C   UNL A   1      42.326  20.815  27.050  1.00  0.00     0.173 A 
ATOM     61  C   UNL A   1      43.890  22.250  25.983  1.00  0.00     0.173 A 
ATOM     62  F   UNL A   1      41.336  20.539  27.906  1.00  0.00    -0.203 F 
ATOM     63  C   UNL A   1      42.694  19.767  26.202  1.00  0.00     0.198 A 
ATOM     64  C   UNL A   1      44.279  21.191  25.148  1.00  0.00     0.198 A 
ATOM     65  F   UNL A   1      44.434  23.449  25.730  1.00  0.00    -0.203 F 
ATOM     66  F   UNL A   1      42.081  18.580  26.309  1.00  0.00    -0.200 F 
ATOM     67  C   UNL A   1      43.691  19.946  25.268  1.00  0.00     0.200 A 
ATOM     68  F   UNL A   1      45.231  21.384  24.225  1.00  0.00    -0.200 F 
ATOM     69  F   UNL A   1      44.066  18.933  24.477  1.00  0.00    -0.200 F 
ENDBRANCH  45  59
BRANCH  46  70
ATOM     70  C   UNL A   1      40.818  30.143  31.869  1.00  0.00     0.064 A 
ATOM     71  C   UNL A   1      39.849  29.199  32.280  1.00  0.00     0.173 A 
ATOM     72  C   UNL A   1      40.504  31.492  32.083  1.00  0.00     0.173 A 
ATOM     73  F   UNL A   1      40.074  27.885  32.109  1.00  0.00    -0.203 F 
ATOM     74  C   UNL A   1      38.675  29.579  32.936  1.00  0.00     0.198 A 
ATOM     75  C   UNL A   1      39.318  31.871  32.727  1.00  0.00     0.198 A 
ATOM     76  F   UNL A   1      41.363  32.457  31.729  1.00  0.00    -0.203 F 
ATOM     77  F   UNL A   1      37.829  28.642  33.389  1.00  0.00    -0.200 F 
ATOM     78  C   UNL A   1      38.415  30.917  33.167  1.00  0.00     0.200 A 
ATOM     79  F   UNL A   1      39.084  33.167  32.984  1.00  0.00    -0.200 F 
ATOM     80  F   UNL A   1      37.320  31.285  33.847  1.00  0.00    -0.200 F 
ENDBRANCH  46  70
BRANCH  58  81
ATOM     81  C   UNL A   1      44.981  24.430  33.033  1.00  0.00     0.064 A 
ATOM     82  C   UNL A   1      44.383  23.233  33.458  1.00  0.00     0.173 A 
ATOM     83  C   UNL A   1      46.319  24.632  33.440  1.00  0.00     0.173 A 
ATOM     84  F   UNL A   1      43.171  22.864  33.021  1.00  0.00    -0.203 F 
ATOM     85  C   UNL A   1      45.043  22.348  34.307  1.00  0.00     0.198 A 
ATOM     86  C   UNL A   1      46.999  23.710  34.230  1.00  0.00     0.198 A 
ATOM     87  F   UNL A   1      47.019  25.713  33.061  1.00  0.00    -0.203 F 
ATOM     88  F   UNL A   1      44.406  21.250  34.737  1.00  0.00    -0.200 F 
ATOM     89  C   UNL A   1      46.352  22.580  34.683  1.00  0.00     0.200 A 
ATOM     90  F   UNL A   1      48.289  23.916  34.530  1.00  0.00    -0.200 F 
ATOM     91  F   UNL A   1      46.996  21.705  35.465  1.00  0.00    -0.200 F 
ENDBRANCH  58  81
ENDBRANCH  32  33
ENDBRANCH  25  27
ENDBRANCH  24  25
ENDBRANCH  23  24
ENDBRANCH   1  23
TORSDOF 15
ENDMDL
MODEL 2
REMARK VINA RESULT:     -12.8      1.795      2.231
REMARK SMILES Cc1cccc(O[C@H](C)C(=O)N2CCC[C@@H](C(=O)OCCOC(=O)c3ccc(-c4c5nc(c(-c6c(F)c(F)c(F)c(F)c6F)c6ccc([nH]6)c(-c6c(F)c(F)c(F)c(F)c6F)c6nc(c(-c7c(F)c(F)c(F)c(F)c7F)c7ccc4[nH]7)C=C6)C=C5)cc3)C2)c1
REMARK SMILES IDX 20 1 19 2 17 3 18 4 16 5 12 6 13 7 88 8 14 9 15 10 10 11
REMARK SMILES IDX 11 12 8 13 9 14 7 15 6 16 1 17 2 18 3 19 89 20 4 21 5 22
REMARK SMILES IDX 21 23 22 24 23 25 24 26 25 27 26 28 87 29 27 30 86 31 28 32
REMARK SMILES IDX 29 33 30 34 80 35 31 36 85 37 79 38 81 39 32 40 84 41 78 42
REMARK SMILES IDX 77 43 33 45 65 46 45 47 64 48 46 49 49 50 63 51 82 52 47 53
REMARK SMILES IDX 48 54 62 56 83 57 50 58 34 59 35 60 43 61 36 62 37 63 41 64
REMARK SMILES IDX 44 65 38 66 39 67 42 68 40 69 66 70 67 71 75 72 68 73 69 74
REMARK SMILES IDX 73 75 76 76 70 77 71 78 74 79 72 80 51 81 52 82 60 83 53 84
REMARK SMILES IDX 54 85 58 86 61 87 55 88 56 89 59 90 57 91
REMARK H PARENT 81 44 49 55
REMARK Flexibility Score: inf
ROOT
ATOM      1  C   UNL A   1      32.439  28.941  27.004  1.00  0.00     0.274 C 
ENDROOT
BRANCH   1   2
ATOM      2  O   UNL A   1      32.718  27.843  26.143  1.00  0.00    -0.462 OA
BRANCH   2   3
ATOM      3  C   UNL A   1      32.040  26.672  26.332  1.00  0.00     0.310 C 
ATOM      4  O   UNL A   1      30.901  26.566  26.757  1.00  0.00    -0.252 OA
BRANCH   3   5
ATOM      5  C   UNL A   1      32.982  25.548  25.984  1.00  0.00     0.119 C 
ATOM      6  N   UNL A   1      32.984  23.667  24.461  1.00  0.00    -0.339 N 
ATOM      7  C   UNL A   1      34.413  23.796  24.162  1.00  0.00     0.119 C 
ATOM      8  C   UNL A   1      32.338  24.905  24.781  1.00  0.00     0.134 C 
ATOM      9  C   UNL A   1      35.160  24.574  25.260  1.00  0.00     0.022 C 
ATOM     10  C   UNL A   1      34.438  25.871  25.673  1.00  0.00     0.019 C 
BRANCH   6  11
ATOM     11  C   UNL A   1      32.326  22.449  24.432  1.00  0.00     0.263 C 
ATOM     12  O   UNL A   1      31.439  22.247  23.593  1.00  0.00    -0.271 OA
BRANCH  11  13
ATOM     13  C   UNL A   1      32.736  21.273  25.413  1.00  0.00     0.259 C 
ATOM     14  C   UNL A   1      33.050  21.765  26.833  1.00  0.00     0.064 C 
BRANCH  13  15
ATOM     15  O   UNL A   1      32.206  19.943  25.330  1.00  0.00    -0.481 OA
BRANCH  15  16
ATOM     16  C   UNL A   1      32.970  18.830  25.147  1.00  0.00     0.120 A 
ATOM     17  C   UNL A   1      32.520  15.076  25.733  1.00  0.00     0.044 C 
ATOM     18  C   UNL A   1      33.120  16.401  25.367  1.00  0.00    -0.047 A 
ATOM     19  C   UNL A   1      34.366  16.422  24.740  1.00  0.00     0.003 A 
ATOM     20  C   UNL A   1      32.438  17.611  25.581  1.00  0.00     0.049 A 
ATOM     21  C   UNL A   1      34.863  17.617  24.239  1.00  0.00     0.004 A 
ATOM     22  C   UNL A   1      34.156  18.815  24.412  1.00  0.00     0.046 A 
ENDBRANCH  15  16
ENDBRANCH  13  15
ENDBRANCH  11  13
ENDBRANCH   6  11
ENDBRANCH   3   5
ENDBRANCH   2   3
ENDBRANCH   1   2
BRANCH   1  23
ATOM     23  C   UNL A   1      33.603  29.942  26.955  1.00  0.00     0.275 C 
BRANCH  23  24
ATOM     24  O   UNL A   1      34.766  29.728  27.821  1.00  0.00    -0.458 OA
BRANCH  24  25
ATOM     25  C   UNL A   1      35.882  30.487  27.969  1.00  0.00     0.338 C 
ATOM     26  O   UNL A   1      35.859  31.709  27.940  1.00  0.00    -0.246 OA
BRANCH  25  27
ATOM     27  C   UNL A   1      37.137  29.769  28.221  1.00  0.00     0.060 A 
ATOM     28  C   UNL A   1      37.252  28.957  29.363  1.00  0.00     0.016 A 
ATOM     29  C   UNL A   1      38.106  29.768  27.227  1.00  0.00     0.016 A 
ATOM     30  C   UNL A   1      38.285  28.029  29.440  1.00  0.00     0.010 A 
ATOM     31  C   UNL A   1      39.015  28.742  27.218  1.00  0.00     0.010 A 
ATOM     32  C   UNL A   1      39.130  27.904  28.339  1.00  0.00    -0.014 A 
BRANCH  32  33
ATOM     33  C   UNL A   1      40.403  27.206  28.394  1.00  0.00     0.031 A 
ATOM     34  C   UNL A   1      40.535  25.766  28.131  1.00  0.00     0.074 A 
ATOM     35  C   UNL A   1      41.403  28.077  28.649  1.00  0.00     0.049 A 
ATOM     36  N   UNL A   1      41.355  24.992  28.754  1.00  0.00    -0.248 NA
ATOM     37  C   UNL A   1      39.710  25.052  27.159  1.00  0.00     0.031 C 
ATOM     38  C   UNL A   1      42.842  27.953  28.595  1.00  0.00     0.029 A 
ATOM     39  N   UNL A   1      41.195  29.369  29.181  1.00  0.00    -0.354 N 
ATOM     40  C   UNL A   1      41.418  23.816  28.028  1.00  0.00     0.074 A 
ATOM     41  C   UNL A   1      40.253  23.827  27.179  1.00  0.00     0.031 C 
ATOM     42  C   UNL A   1      43.371  28.938  29.354  1.00  0.00     0.029 A 
ATOM     43  C   UNL A   1      42.266  29.624  30.025  1.00  0.00     0.049 A 
ATOM     44  H   UNL A   1      40.438  29.969  28.991  1.00  0.00     0.167 HD
ATOM     45  C   UNL A   1      42.583  23.100  28.019  1.00  0.00     0.037 A 
ATOM     46  C   UNL A   1      42.021  29.648  31.368  1.00  0.00     0.037 A 
ATOM     47  C   UNL A   1      43.587  23.811  28.803  1.00  0.00     0.049 A 
ATOM     48  C   UNL A   1      42.772  28.536  32.039  1.00  0.00     0.074 A 
ATOM     49  C   UNL A   1      44.525  24.749  28.399  1.00  0.00     0.029 A 
ATOM     50  N   UNL A   1      43.445  23.951  30.177  1.00  0.00    -0.354 N 
ATOM     51  N   UNL A   1      42.932  27.348  31.523  1.00  0.00    -0.248 NA
ATOM     52  C   UNL A   1      43.443  28.717  33.317  1.00  0.00     0.031 C 
ATOM     53  C   UNL A   1      44.899  25.504  29.531  1.00  0.00     0.029 A 
ATOM     54  C   UNL A   1      44.194  25.026  30.622  1.00  0.00     0.049 A 
ATOM     55  H   UNL A   1      42.893  23.372  30.750  1.00  0.00     0.167 HD
ATOM     56  C   UNL A   1      43.775  26.639  32.334  1.00  0.00     0.074 A 
ATOM     57  C   UNL A   1      44.048  27.527  33.452  1.00  0.00     0.031 C 
ATOM     58  C   UNL A   1      44.232  25.393  32.023  1.00  0.00     0.037 A 
BRANCH  45  59
ATOM     59  C   UNL A   1      42.936  22.048  26.986  1.00  0.00     0.064 A 
ATOM     60  C   UNL A   1      42.380  20.748  27.060  1.00  0.00     0.173 A 
ATOM     61  C   UNL A   1      43.833  22.243  25.920  1.00  0.00     0.173 A 
ATOM     62  F   UNL A   1      41.433  20.437  27.952  1.00  0.00    -0.203 F 
ATOM     63  C   UNL A   1      42.776  19.706  26.218  1.00  0.00     0.198 A 
ATOM     64  C   UNL A   1      44.251  21.190  25.091  1.00  0.00     0.198 A 
ATOM     65  F   UNL A   1      44.306  23.464  25.630  1.00  0.00    -0.203 F 
ATOM     66  F   UNL A   1      42.229  18.491  26.364  1.00  0.00    -0.200 F 
ATOM     67  C   UNL A   1      43.732  19.919  25.250  1.00  0.00     0.200 A 
ATOM     68  F   UNL A   1      45.163  21.415  24.134  1.00  0.00    -0.200 F 
ATOM     69  F   UNL A   1      44.135  18.912  24.464  1.00  0.00    -0.200 F 
ENDBRANCH  45  59
BRANCH  46  70
ATOM     70  C   UNL A   1      40.645  30.096  31.782  1.00  0.00     0.064 A 
ATOM     71  C   UNL A   1      39.696  29.138  32.209  1.00  0.00     0.173 A 
ATOM     72  C   UNL A   1      40.302  31.442  31.974  1.00  0.00     0.173 A 
ATOM     73  F   UNL A   1      39.949  27.827  32.059  1.00  0.00    -0.203 F 
ATOM     74  C   UNL A   1      38.515  29.503  32.860  1.00  0.00     0.198 A 
ATOM     75  C   UNL A   1      39.109  31.806  32.613  1.00  0.00     0.198 A 
ATOM     76  F   UNL A   1      41.139  32.419  31.604  1.00  0.00    -0.203 F 
ATOM     77  F   UNL A   1      37.689  28.556  33.330  1.00  0.00    -0.200 F 
ATOM     78  C   UNL A   1      38.226  30.839  33.070  1.00  0.00     0.200 A 
ATOM     79  F   UNL A   1      38.846  33.100  32.849  1.00  0.00    -0.200 F 
ATOM     80  F   UNL A   1      37.124  31.195  33.745  1.00  0.00    -0.200 F 
ENDBRANCH  46  70
BRANCH  58  81
ATOM     81  C   UNL A   1      44.908  24.468  32.992  1.00  0.00     0.064 A 
ATOM     82  C   UNL A   1      44.299  23.304  33.485  1.00  0.00     0.173 A 
ATOM     83  C   UNL A   1      46.267  24.649  33.337  1.00  0.00     0.173 A 
ATOM     84  F   UNL A   1      43.061  22.952  33.112  1.00  0.00    -0.203 F 
ATOM     85  C   UNL A   1      44.970  22.433  34.340  1.00  0.00     0.198 A 
ATOM     86  C   UNL A   1      46.955  23.739  34.132  1.00  0.00     0.198 A 
ATOM     87  F   UNL A   1      46.978  25.696  32.889  1.00  0.00    -0.203 F 
ATOM     88  F   UNL A   1      44.324  21.369  34.837  1.00  0.00    -0.200 F 
ATOM     89  C   UNL A   1      46.299  22.644  34.654  1.00  0.00     0.200 A 
ATOM     90  F   UNL A   1      48.262  23.920  34.372  1.00  0.00    -0.200 F 
ATOM     91  F   UNL A   1      46.953  21.781  35.442  1.00  0.00    -0.200 F 
ENDBRANCH  58  81
ENDBRANCH  32  33
ENDBRANCH  25  27
ENDBRANCH  24  25
ENDBRANCH  23  24
ENDBRANCH   1  23
TORSDOF 15
ENDMDL
MODEL 3
REMARK VINA RESULT:     -12.7      3.813     10.236
REMARK SMILES Cc1cccc(O[C@H](C)C(=O)N2CCC[C@@H](C(=O)OCCOC(=O)c3ccc(-c4c5nc(c(-c6c(F)c(F)c(F)c(F)c6F)c6ccc([nH]6)c(-c6c(F)c(F)c(F)c(F)c6F)c6nc(c(-c7c(F)c(F)c(F)c(F)c7F)c7ccc4[nH]7)C=C6)C=C5)cc3)C2)c1
REMARK SMILES IDX 20 1 19 2 17 3 18 4 16 5 12 6 13 7 88 8 14 9 15 10 10 11
REMARK SMILES IDX 11 12 8 13 9 14 7 15 6 16 1 17 2 18 3 19 89 20 4 21 5 22
REMARK SMILES IDX 21 23 22 24 23 25 24 26 25 27 26 28 87 29 27 30 86 31 28 32
REMARK SMILES IDX 29 33 30 34 80 35 31 36 85 37 79 38 81 39 32 40 84 41 78 42
REMARK SMILES IDX 77 43 33 45 65 46 45 47 64 48 46 49 49 50 63 51 82 52 47 53
REMARK SMILES IDX 48 54 62 56 83 57 50 58 34 59 35 60 43 61 36 62 37 63 41 64
REMARK SMILES IDX 44 65 38 66 39 67 42 68 40 69 66 70 67 71 75 72 68 73 69 74
REMARK SMILES IDX 73 75 76 76 70 77 71 78 74 79 72 80 51 81 52 82 60 83 53 84
REMARK SMILES IDX 54 85 58 86 61 87 55 88 56 89 59 90 57 91
REMARK H PARENT 81 44 49 55
REMARK Flexibility Score: inf
ROOT
ATOM      1  C   UNL A   1      36.464  22.188  25.908  1.00  0.00     0.274 C 
ENDROOT
BRANCH   1   2
ATOM      2  O   UNL A   1      36.008  21.731  24.640  1.00  0.00    -0.462 OA
BRANCH   2   3
ATOM      3  C   UNL A   1      35.895  22.632  23.619  1.00  0.00     0.310 C 
ATOM      4  O   UNL A   1      36.738  22.852  22.764  1.00  0.00    -0.252 OA
BRANCH   3   5
ATOM      5  C   UNL A   1      34.576  23.341  23.791  1.00  0.00     0.119 C 
ATOM      6  N   UNL A   1      33.051  24.579  22.378  1.00  0.00    -0.339 N 
ATOM      7  C   UNL A   1      31.859  24.043  23.040  1.00  0.00     0.119 C 
ATOM      8  C   UNL A   1      34.175  23.690  22.380  1.00  0.00     0.134 C 
ATOM      9  C   UNL A   1      32.177  23.512  24.449  1.00  0.00     0.022 C 
ATOM     10  C   UNL A   1      33.429  22.615  24.484  1.00  0.00     0.019 C 
BRANCH   6  11
ATOM     11  C   UNL A   1      33.078  25.838  21.801  1.00  0.00     0.263 C 
ATOM     12  O   UNL A   1      33.044  25.954  20.570  1.00  0.00    -0.271 OA
BRANCH  11  13
ATOM     13  C   UNL A   1      33.080  27.148  22.695  1.00  0.00     0.259 C 
ATOM     14  C   UNL A   1      34.049  28.220  22.177  1.00  0.00     0.064 C 
BRANCH  13  15
ATOM     15  O   UNL A   1      31.924  27.648  23.381  1.00  0.00    -0.481 OA
BRANCH  15  16
ATOM     16  C   UNL A   1      31.912  27.996  24.698  1.00  0.00     0.120 A 
ATOM     17  C   UNL A   1      31.701  31.274  26.659  1.00  0.00     0.044 C 
ATOM     18  C   UNL A   1      31.815  29.817  26.325  1.00  0.00    -0.047 A 
ATOM     19  C   UNL A   1      31.769  28.886  27.363  1.00  0.00     0.003 A 
ATOM     20  C   UNL A   1      31.903  29.363  24.997  1.00  0.00     0.049 A 
ATOM     21  C   UNL A   1      31.700  27.531  27.067  1.00  0.00     0.004 A 
ATOM     22  C   UNL A   1      31.739  27.085  25.739  1.00  0.00     0.046 A 
ENDBRANCH  15  16
ENDBRANCH  13  15
ENDBRANCH  11  13
ENDBRANCH   6  11
ENDBRANCH   3   5
ENDBRANCH   2   3
ENDBRANCH   1   2
BRANCH   1  23
ATOM     23  C   UNL A   1      37.984  22.410  25.859  1.00  0.00     0.275 C 
BRANCH  23  24
ATOM     24  O   UNL A   1      38.530  23.705  26.274  1.00  0.00    -0.458 OA
BRANCH  24  25
ATOM     25  C   UNL A   1      39.660  23.979  26.974  1.00  0.00     0.338 C 
ATOM     26  O   UNL A   1      40.584  23.185  27.075  1.00  0.00    -0.246 OA
BRANCH  25  27
ATOM     27  C   UNL A   1      39.754  25.315  27.575  1.00  0.00     0.060 A 
ATOM     28  C   UNL A   1      40.167  26.402  26.784  1.00  0.00     0.016 A 
ATOM     29  C   UNL A   1      39.255  25.497  28.857  1.00  0.00     0.016 A 
ATOM     30  C   UNL A   1      39.944  27.698  27.236  1.00  0.00     0.010 A 
ATOM     31  C   UNL A   1      38.876  26.761  29.226  1.00  0.00     0.010 A 
ATOM     32  C   UNL A   1      39.258  27.860  28.438  1.00  0.00    -0.014 A 
BRANCH  32  33
ATOM     33  C   UNL A   1      39.219  29.116  29.164  1.00  0.00     0.031 A 
ATOM     34  C   UNL A   1      38.213  30.156  28.906  1.00  0.00     0.074 A 
ATOM     35  C   UNL A   1      40.176  29.136  30.116  1.00  0.00     0.049 A 
ATOM     36  N   UNL A   1      38.453  31.421  28.958  1.00  0.00    -0.248 NA
ATOM     37  C   UNL A   1      36.836  29.857  28.517  1.00  0.00     0.031 C 
ATOM     38  C   UNL A   1      40.430  30.025  31.227  1.00  0.00     0.029 A 
ATOM     39  N   UNL A   1      41.286  28.262  30.124  1.00  0.00    -0.354 N 
ATOM     40  C   UNL A   1      37.224  32.057  28.977  1.00  0.00     0.074 A 
ATOM     41  C   UNL A   1      36.277  31.075  28.509  1.00  0.00     0.031 C 
ATOM     42  C   UNL A   1      41.723  29.878  31.589  1.00  0.00     0.029 A 
ATOM     43  C   UNL A   1      42.359  28.991  30.613  1.00  0.00     0.049 A 
ATOM     44  H   UNL A   1      41.295  27.320  29.837  1.00  0.00     0.167 HD
ATOM     45  C   UNL A   1      37.098  33.242  29.646  1.00  0.00     0.037 A 
ATOM     46  C   UNL A   1      43.348  29.327  29.734  1.00  0.00     0.037 A 
ATOM     47  C   UNL A   1      38.372  33.576  30.272  1.00  0.00     0.049 A 
ATOM     48  C   UNL A   1      43.412  30.819  29.590  1.00  0.00     0.074 A 
ATOM     49  C   UNL A   1      38.845  33.270  31.538  1.00  0.00     0.029 A 
ATOM     50  N   UNL A   1      39.480  33.897  29.497  1.00  0.00    -0.354 N 
ATOM     51  N   UNL A   1      42.364  31.596  29.573  1.00  0.00    -0.248 NA
ATOM     52  C   UNL A   1      44.676  31.536  29.516  1.00  0.00     0.031 C 
ATOM     53  C   UNL A   1      40.254  33.341  31.506  1.00  0.00     0.029 A 
ATOM     54  C   UNL A   1      40.639  33.693  30.224  1.00  0.00     0.049 A 
ATOM     55  H   UNL A   1      39.446  34.221  28.568  1.00  0.00     0.167 HD
ATOM     56  C   UNL A   1      42.793  32.895  29.568  1.00  0.00     0.074 A 
ATOM     57  C   UNL A   1      44.243  32.805  29.509  1.00  0.00     0.031 C 
ATOM     58  C   UNL A   1      41.945  33.959  29.656  1.00  0.00     0.037 A 
BRANCH  45  59
ATOM     59  C   UNL A   1      35.778  33.839  30.094  1.00  0.00     0.064 A 
ATOM     60  C   UNL A   1      34.909  34.453  29.160  1.00  0.00     0.173 A 
ATOM     61  C   UNL A   1      35.323  33.867  31.424  1.00  0.00     0.173 A 
ATOM     62  F   UNL A   1      35.150  34.416  27.844  1.00  0.00    -0.203 F 
ATOM     63  C   UNL A   1      33.751  35.137  29.537  1.00  0.00     0.198 A 
ATOM     64  C   UNL A   1      34.174  34.576  31.808  1.00  0.00     0.198 A 
ATOM     65  F   UNL A   1      35.959  33.182  32.386  1.00  0.00    -0.203 F 
ATOM     66  F   UNL A   1      32.990  35.721  28.601  1.00  0.00    -0.200 F 
ATOM     67  C   UNL A   1      33.397  35.222  30.866  1.00  0.00     0.200 A 
ATOM     68  F   UNL A   1      33.823  34.630  33.101  1.00  0.00    -0.200 F 
ATOM     69  F   UNL A   1      32.303  35.905  31.231  1.00  0.00    -0.200 F 
ENDBRANCH  45  59
BRANCH  46  70
ATOM     70  C   UNL A   1      43.578  28.367  28.598  1.00  0.00     0.064 A 
ATOM     71  C   UNL A   1      43.073  28.671  27.312  1.00  0.00     0.173 A 
ATOM     72  C   UNL A   1      44.453  27.275  28.681  1.00  0.00     0.173 A 
ATOM     73  F   UNL A   1      42.228  29.703  27.148  1.00  0.00    -0.203 F 
ATOM     74  C   UNL A   1      43.481  27.975  26.171  1.00  0.00     0.198 A 
ATOM     75  C   UNL A   1      44.848  26.568  27.538  1.00  0.00     0.198 A 
ATOM     76  F   UNL A   1      44.984  26.914  29.857  1.00  0.00    -0.203 F 
ATOM     77  F   UNL A   1      43.045  28.358  24.962  1.00  0.00    -0.200 F 
ATOM     78  C   UNL A   1      44.376  26.927  26.285  1.00  0.00     0.200 A 
ATOM     79  F   UNL A   1      45.744  25.576  27.643  1.00  0.00    -0.200 F 
ATOM     80  F   UNL A   1      44.817  26.293  25.189  1.00  0.00    -0.200 F 
ENDBRANCH  46  70
BRANCH  58  81
ATOM     81  C   UNL A   1      42.329  35.379  29.364  1.00  0.00     0.064 A 
ATOM     82  C   UNL A   1      43.206  36.114  30.178  1.00  0.00     0.173 A 
ATOM     83  C   UNL A   1      41.940  36.000  28.155  1.00  0.00     0.173 A 
ATOM     84  F   UNL A   1      43.754  35.577  31.276  1.00  0.00    -0.203 F 
ATOM     85  C   UNL A   1      43.589  37.413  29.853  1.00  0.00     0.198 A 
ATOM     86  C   UNL A   1      42.383  37.270  27.800  1.00  0.00     0.198 A 
ATOM     87  F   UNL A   1      41.143  35.384  27.268  1.00  0.00    -0.203 F 
ATOM     88  F   UNL A   1      44.376  38.097  30.695  1.00  0.00    -0.200 F 
ATOM     89  C   UNL A   1      43.188  37.986  28.661  1.00  0.00     0.200 A 
ATOM     90  F   UNL A   1      42.041  37.785  26.611  1.00  0.00    -0.200 F 
ATOM     91  F   UNL A   1      43.595  39.218  28.333  1.00  0.00    -0.200 F 
ENDBRANCH  58  81
ENDBRANCH  32  33
ENDBRANCH  25  27
ENDBRANCH  24  25
ENDBRANCH  23  24
ENDBRANCH   1  23
TORSDOF 15
ENDMDL
