MODEL 1
REMARK VINA RESULT:     -12.2      0.000      0.000
REMARK SMILES O=C(OCCOC(=O)c1cc(-c2ccc[nH]c2=O)ccc1Cl)c1ccc(-c2c3nc(c(-c4c(F)c(F)c(F)c(F)c4F)c4ccc([nH]4)c(-c4c(F)c(F)c(F)c(F)c4F)c4nc(c(-c5c(F)c(F)c(F)c(F)c5F)c5ccc2[nH]5)C=C4)C=C3)cc1
REMARK SMILES IDX 4 1 3 2 2 3 1 4 23 5 24 6 85 7 25 8 84 9 26 10 27 11 28 12
REMARK SMILES IDX 78 13 29 14 83 15 77 16 79 17 30 18 82 19 76 20 75 21 31 23
REMARK SMILES IDX 63 24 43 25 62 26 44 27 47 28 61 29 80 30 45 31 46 32 60 34
REMARK SMILES IDX 81 35 48 36 32 37 33 38 41 39 34 40 35 41 39 42 42 43 36 44
REMARK SMILES IDX 37 45 40 46 38 47 64 48 65 49 73 50 66 51 67 52 71 53 74 54
REMARK SMILES IDX 68 55 69 56 72 57 70 58 49 59 50 60 58 61 51 62 52 63 56 64
REMARK SMILES IDX 59 65 53 66 54 67 57 68 55 69 5 70 6 71 7 72 8 73 9 74 10 75
REMARK SMILES IDX 21 76 11 77 20 78 22 79 19 80 12 81 13 82 17 83 14 84 16 85
REMARK SMILES IDX 18 86 15 87
REMARK H PARENT 79 22 47 33 16 88
REMARK Flexibility Score: inf
ROOT
ATOM      1  C   UNL A   1      31.638  32.121  26.989  1.00  0.00     0.275 C 
ENDROOT
BRANCH   1   2
ATOM      2  O   UNL A   1      32.433  33.315  27.092  1.00  0.00    -0.458 OA
BRANCH   2   3
ATOM      3  C   UNL A   1      33.109  33.833  28.141  1.00  0.00     0.338 C 
ATOM      4  O   UNL A   1      32.676  34.861  28.667  1.00  0.00    -0.246 OA
BRANCH   3   5
ATOM      5  C   UNL A   1      34.415  33.306  28.657  1.00  0.00     0.060 A 
ATOM      6  C   UNL A   1      35.690  33.693  28.250  1.00  0.00     0.016 A 
ATOM      7  C   UNL A   1      34.329  32.332  29.670  1.00  0.00     0.016 A 
ATOM      8  C   UNL A   1      36.832  33.189  28.873  1.00  0.00     0.010 A 
ATOM      9  C   UNL A   1      35.465  31.840  30.322  1.00  0.00     0.010 A 
ATOM     10  C   UNL A   1      36.729  32.271  29.919  1.00  0.00    -0.014 A 
BRANCH  10  11
ATOM     11  C   UNL A   1      37.970  31.695  30.478  1.00  0.00     0.031 A 
ATOM     12  C   UNL A   1      38.412  32.132  31.839  1.00  0.00     0.074 A 
ATOM     13  C   UNL A   1      38.608  30.706  29.826  1.00  0.00     0.049 A 
ATOM     14  N   UNL A   1      39.372  31.654  32.584  1.00  0.00    -0.248 NA
ATOM     15  C   UNL A   1      37.649  33.226  32.461  1.00  0.00     0.031 C 
ATOM     16  C   UNL A   1      38.195  30.163  28.535  1.00  0.00     0.029 A 
ATOM     17  N   UNL A   1      39.713  29.966  30.154  1.00  0.00    -0.354 N 
ATOM     18  C   UNL A   1      39.290  32.348  33.781  1.00  0.00     0.074 A 
ATOM     19  C   UNL A   1      38.244  33.336  33.638  1.00  0.00     0.031 C 
ATOM     20  C   UNL A   1      39.052  29.201  28.158  1.00  0.00     0.029 A 
ATOM     21  C   UNL A   1      40.067  29.051  29.191  1.00  0.00     0.049 A 
ATOM     22  H   UNL A   1      40.206  30.081  30.998  1.00  0.00     0.167 HD
ATOM     23  C   UNL A   1      39.999  32.143  34.914  1.00  0.00     0.037 A 
ATOM     24  C   UNL A   1      41.095  28.181  29.160  1.00  0.00     0.037 A 
ATOM     25  C   UNL A   1      41.062  31.182  35.023  1.00  0.00     0.049 A 
ATOM     26  C   UNL A   1      41.959  28.071  30.388  1.00  0.00     0.074 A 
ATOM     27  C   UNL A   1      41.895  30.930  36.096  1.00  0.00     0.029 A 
ATOM     28  N   UNL A   1      41.448  30.321  34.003  1.00  0.00    -0.354 N 
ATOM     29  N   UNL A   1      41.859  28.716  31.526  1.00  0.00    -0.248 NA
ATOM     30  C   UNL A   1      43.051  27.093  30.344  1.00  0.00     0.031 C 
ATOM     31  C   UNL A   1      42.817  29.951  35.709  1.00  0.00     0.029 A 
ATOM     32  C   UNL A   1      42.524  29.551  34.414  1.00  0.00     0.049 A 
ATOM     33  H   UNL A   1      41.021  30.267  33.117  1.00  0.00     0.167 HD
ATOM     34  C   UNL A   1      42.850  28.200  32.347  1.00  0.00     0.074 A 
ATOM     35  C   UNL A   1      43.525  27.172  31.579  1.00  0.00     0.031 C 
ATOM     36  C   UNL A   1      43.174  28.538  33.619  1.00  0.00     0.037 A 
BRANCH  23  37
ATOM     37  C   UNL A   1      39.644  32.992  36.097  1.00  0.00     0.064 A 
ATOM     38  C   UNL A   1      38.685  32.575  37.035  1.00  0.00     0.173 A 
ATOM     39  C   UNL A   1      40.241  34.246  36.283  1.00  0.00     0.173 A 
ATOM     40  F   UNL A   1      38.062  31.396  36.886  1.00  0.00    -0.203 F 
ATOM     41  C   UNL A   1      38.318  33.396  38.098  1.00  0.00     0.198 A 
ATOM     42  C   UNL A   1      39.891  35.052  37.363  1.00  0.00     0.198 A 
ATOM     43  F   UNL A   1      41.155  34.696  35.409  1.00  0.00    -0.203 F 
ATOM     44  F   UNL A   1      37.357  33.002  38.947  1.00  0.00    -0.200 F 
ATOM     45  C   UNL A   1      38.926  34.631  38.264  1.00  0.00     0.200 A 
ATOM     46  F   UNL A   1      40.480  36.246  37.522  1.00  0.00    -0.200 F 
ATOM     47  F   UNL A   1      38.568  35.423  39.284  1.00  0.00    -0.200 F 
ENDBRANCH  23  37
BRANCH  24  48
ATOM     48  C   UNL A   1      41.354  27.358  27.947  1.00  0.00     0.064 A 
ATOM     49  C   UNL A   1      40.867  26.049  27.821  1.00  0.00     0.173 A 
ATOM     50  C   UNL A   1      42.138  27.860  26.895  1.00  0.00     0.173 A 
ATOM     51  F   UNL A   1      40.124  25.515  28.800  1.00  0.00    -0.203 F 
ATOM     52  C   UNL A   1      41.187  25.262  26.714  1.00  0.00     0.198 A 
ATOM     53  C   UNL A   1      42.431  27.083  25.775  1.00  0.00     0.198 A 
ATOM     54  F   UNL A   1      42.624  29.108  26.956  1.00  0.00    -0.203 F 
ATOM     55  F   UNL A   1      40.760  23.994  26.651  1.00  0.00    -0.200 F 
ATOM     56  C   UNL A   1      41.967  25.781  25.692  1.00  0.00     0.200 A 
ATOM     57  F   UNL A   1      43.175  27.595  24.785  1.00  0.00    -0.200 F 
ATOM     58  F   UNL A   1      42.283  25.021  24.633  1.00  0.00    -0.200 F 
ENDBRANCH  24  48
BRANCH  36  59
ATOM     59  C   UNL A   1      44.293  27.769  34.257  1.00  0.00     0.064 A 
ATOM     60  C   UNL A   1      45.619  28.225  34.210  1.00  0.00     0.173 A 
ATOM     61  C   UNL A   1      44.031  26.573  34.941  1.00  0.00     0.173 A 
ATOM     62  F   UNL A   1      45.921  29.356  33.554  1.00  0.00    -0.203 F 
ATOM     63  C   UNL A   1      46.647  27.491  34.791  1.00  0.00     0.198 A 
ATOM     64  C   UNL A   1      45.056  25.861  35.554  1.00  0.00     0.198 A 
ATOM     65  F   UNL A   1      42.778  26.100  35.022  1.00  0.00    -0.203 F 
ATOM     66  F   UNL A   1      47.914  27.911  34.678  1.00  0.00    -0.200 F 
ATOM     67  C   UNL A   1      46.364  26.314  35.469  1.00  0.00     0.200 A 
ATOM     68  F   UNL A   1      44.780  24.734  36.223  1.00  0.00    -0.200 F 
ATOM     69  F   UNL A   1      47.356  25.609  36.032  1.00  0.00    -0.200 F 
ENDBRANCH  36  59
ENDBRANCH  10  11
ENDBRANCH   3   5
ENDBRANCH   2   3
ENDBRANCH   1   2
BRANCH   1  70
ATOM     70  C   UNL A   1      32.443  30.831  26.814  1.00  0.00     0.275 C 
BRANCH  70  71
ATOM     71  O   UNL A   1      31.681  29.750  26.257  1.00  0.00    -0.458 OA
BRANCH  71  72
ATOM     72  C   UNL A   1      32.196  29.179  25.136  1.00  0.00     0.339 C 
ATOM     73  O   UNL A   1      33.279  29.417  24.630  1.00  0.00    -0.246 OA
BRANCH  72  74
ATOM     74  C   UNL A   1      31.306  28.097  24.675  1.00  0.00     0.079 A 
ATOM     75  C   UNL A   1      31.648  26.776  25.020  1.00  0.00     0.026 A 
ATOM     76  C   UNL A   1      30.170  28.346  23.900  1.00  0.00     0.055 A 
ATOM     77  C   UNL A   1      30.823  25.706  24.639  1.00  0.00    -0.012 A 
ATOM     78  C   UNL A   1      29.341  27.282  23.533  1.00  0.00     0.022 A 
ATOM     79  Cl  UNL A   1      29.751  29.920  23.325  1.00  0.00    -0.083 Cl
ATOM     80  C   UNL A   1      29.654  25.977  23.918  1.00  0.00     0.010 A 
BRANCH  77  81
ATOM     81  C   UNL A   1      31.182  24.304  24.918  1.00  0.00     0.047 A 
ATOM     82  C   UNL A   1      32.015  23.602  24.125  1.00  0.00     0.016 A 
ATOM     83  C   UNL A   1      30.663  23.629  26.161  1.00  0.00     0.255 A 
ATOM     84  C   UNL A   1      32.387  22.238  24.426  1.00  0.00     0.019 A 
ATOM     85  N   UNL A   1      31.073  22.332  26.365  1.00  0.00    -0.329 N 
ATOM     86  O   UNL A   1      29.924  24.198  26.958  1.00  0.00    -0.269 OA
ATOM     87  C   UNL A   1      31.910  21.647  25.526  1.00  0.00     0.086 A 
ATOM     88  H   UNL A   1      30.743  21.865  27.166  1.00  0.00     0.169 HD
ENDBRANCH  77  81
ENDBRANCH  72  74
ENDBRANCH  71  72
ENDBRANCH  70  71
ENDBRANCH   1  70
TORSDOF 12
ENDMDL
MODEL 2
REMARK VINA RESULT:     -12.2      0.751      1.487
REMARK SMILES O=C(OCCOC(=O)c1cc(-c2ccc[nH]c2=O)ccc1Cl)c1ccc(-c2c3nc(c(-c4c(F)c(F)c(F)c(F)c4F)c4ccc([nH]4)c(-c4c(F)c(F)c(F)c(F)c4F)c4nc(c(-c5c(F)c(F)c(F)c(F)c5F)c5ccc2[nH]5)C=C4)C=C3)cc1
REMARK SMILES IDX 4 1 3 2 2 3 1 4 23 5 24 6 85 7 25 8 84 9 26 10 27 11 28 12
REMARK SMILES IDX 78 13 29 14 83 15 77 16 79 17 30 18 82 19 76 20 75 21 31 23
REMARK SMILES IDX 63 24 43 25 62 26 44 27 47 28 61 29 80 30 45 31 46 32 60 34
REMARK SMILES IDX 81 35 48 36 32 37 33 38 41 39 34 40 35 41 39 42 42 43 36 44
REMARK SMILES IDX 37 45 40 46 38 47 64 48 65 49 73 50 66 51 67 52 71 53 74 54
REMARK SMILES IDX 68 55 69 56 72 57 70 58 49 59 50 60 58 61 51 62 52 63 56 64
REMARK SMILES IDX 59 65 53 66 54 67 57 68 55 69 5 70 6 71 7 72 8 73 9 74 10 75
REMARK SMILES IDX 21 76 11 77 20 78 22 79 19 80 12 81 13 82 17 83 14 84 16 85
REMARK SMILES IDX 18 86 15 87
REMARK H PARENT 79 22 47 33 16 88
REMARK Flexibility Score: inf
ROOT
ATOM      1  C   UNL A   1      31.706  32.189  26.936  1.00  0.00     0.275 C 
ENDROOT
BRANCH   1   2
ATOM      2  O   UNL A   1      32.590  33.318  27.039  1.00  0.00    -0.458 OA
BRANCH   2   3
ATOM      3  C   UNL A   1      33.229  33.839  28.110  1.00  0.00     0.338 C 
ATOM      4  O   UNL A   1      32.867  34.939  28.529  1.00  0.00    -0.246 OA
BRANCH   3   5
ATOM      5  C   UNL A   1      34.425  33.221  28.772  1.00  0.00     0.060 A 
ATOM      6  C   UNL A   1      34.417  32.304  29.821  1.00  0.00     0.016 A 
ATOM      7  C   UNL A   1      35.680  33.603  28.258  1.00  0.00     0.016 A 
ATOM      8  C   UNL A   1      35.600  31.733  30.291  1.00  0.00     0.010 A 
ATOM      9  C   UNL A   1      36.870  33.018  28.702  1.00  0.00     0.010 A 
ATOM     10  C   UNL A   1      36.832  32.075  29.729  1.00  0.00    -0.014 A 
BRANCH  10  11
ATOM     11  C   UNL A   1      38.061  31.516  30.330  1.00  0.00     0.031 A 
ATOM     12  C   UNL A   1      38.444  31.950  31.709  1.00  0.00     0.074 A 
ATOM     13  C   UNL A   1      38.739  30.543  29.695  1.00  0.00     0.049 A 
ATOM     14  N   UNL A   1      39.384  31.483  32.486  1.00  0.00    -0.248 NA
ATOM     15  C   UNL A   1      37.640  33.027  32.310  1.00  0.00     0.031 C 
ATOM     16  C   UNL A   1      38.383  30.002  28.386  1.00  0.00     0.029 A 
ATOM     17  N   UNL A   1      39.843  29.819  30.059  1.00  0.00    -0.354 N 
ATOM     18  C   UNL A   1      39.245  32.166  33.684  1.00  0.00     0.074 A 
ATOM     19  C   UNL A   1      38.190  33.138  33.509  1.00  0.00     0.031 C 
ATOM     20  C   UNL A   1      39.269  29.057  28.035  1.00  0.00     0.029 A 
ATOM     21  C   UNL A   1      40.248  28.916  29.104  1.00  0.00     0.049 A 
ATOM     22  H   UNL A   1      40.303  29.935  30.922  1.00  0.00     0.167 HD
ATOM     23  C   UNL A   1      39.915  31.964  34.841  1.00  0.00     0.037 A 
ATOM     24  C   UNL A   1      41.290  28.064  29.106  1.00  0.00     0.037 A 
ATOM     25  C   UNL A   1      40.990  31.020  34.983  1.00  0.00     0.049 A 
ATOM     26  C   UNL A   1      42.110  27.959  30.363  1.00  0.00     0.074 A 
ATOM     27  C   UNL A   1      41.786  30.774  36.085  1.00  0.00     0.029 A 
ATOM     28  N   UNL A   1      41.428  30.174  33.972  1.00  0.00    -0.354 N 
ATOM     29  N   UNL A   1      41.957  28.594  31.501  1.00  0.00    -0.248 NA
ATOM     30  C   UNL A   1      43.219  27.000  30.354  1.00  0.00     0.031 C 
ATOM     31  C   UNL A   1      42.739  29.813  35.726  1.00  0.00     0.029 A 
ATOM     32  C   UNL A   1      42.500  29.418  34.418  1.00  0.00     0.049 A 
ATOM     33  H   UNL A   1      41.035  30.119  33.071  1.00  0.00     0.167 HD
ATOM     34  C   UNL A   1      42.925  28.088  32.355  1.00  0.00     0.074 A 
ATOM     35  C   UNL A   1      43.646  27.077  31.606  1.00  0.00     0.031 C 
ATOM     36  C   UNL A   1      43.196  28.422  33.641  1.00  0.00     0.037 A 
BRANCH  23  37
ATOM     37  C   UNL A   1      39.502  32.799  36.016  1.00  0.00     0.064 A 
ATOM     38  C   UNL A   1      40.128  34.025  36.299  1.00  0.00     0.173 A 
ATOM     39  C   UNL A   1      38.495  32.360  36.886  1.00  0.00     0.173 A 
ATOM     40  F   UNL A   1      41.118  34.474  35.512  1.00  0.00    -0.203 F 
ATOM     41  C   UNL A   1      39.778  34.765  37.424  1.00  0.00     0.198 A 
ATOM     42  C   UNL A   1      38.130  33.117  37.996  1.00  0.00     0.198 A 
ATOM     43  F   UNL A   1      37.874  31.191  36.667  1.00  0.00    -0.203 F 
ATOM     44  F   UNL A   1      40.430  35.902  37.706  1.00  0.00    -0.200 F 
ATOM     45  C   UNL A   1      38.776  34.313  38.269  1.00  0.00     0.200 A 
ATOM     46  F   UNL A   1      37.160  32.679  38.812  1.00  0.00    -0.200 F 
ATOM     47  F   UNL A   1      38.444  35.022  39.357  1.00  0.00    -0.200 F 
ENDBRANCH  23  37
BRANCH  24  48
ATOM     48  C   UNL A   1      41.608  27.254  27.897  1.00  0.00     0.064 A 
ATOM     49  C   UNL A   1      41.104  25.958  27.720  1.00  0.00     0.173 A 
ATOM     50  C   UNL A   1      42.466  27.756  26.904  1.00  0.00     0.173 A 
ATOM     51  F   UNL A   1      40.291  25.424  28.642  1.00  0.00    -0.203 F 
ATOM     52  C   UNL A   1      41.477  25.182  26.622  1.00  0.00     0.198 A 
ATOM     53  C   UNL A   1      42.813  26.990  25.792  1.00  0.00     0.198 A 
ATOM     54  F   UNL A   1      42.971  28.993  27.016  1.00  0.00    -0.203 F 
ATOM     55  F   UNL A   1      41.030  23.924  26.511  1.00  0.00    -0.200 F 
ATOM     56  C   UNL A   1      42.329  25.700  25.658  1.00  0.00     0.200 A 
ATOM     57  F   UNL A   1      43.627  27.501  24.858  1.00  0.00    -0.200 F 
ATOM     58  F   UNL A   1      42.695  24.949  24.609  1.00  0.00    -0.200 F 
ENDBRANCH  24  48
BRANCH  36  59
ATOM     59  C   UNL A   1      44.304  27.667  34.315  1.00  0.00     0.064 A 
ATOM     60  C   UNL A   1      45.622  28.148  34.325  1.00  0.00     0.173 A 
ATOM     61  C   UNL A   1      44.037  26.459  34.976  1.00  0.00     0.173 A 
ATOM     62  F   UNL A   1      45.928  29.292  33.693  1.00  0.00    -0.203 F 
ATOM     63  C   UNL A   1      46.640  27.426  34.938  1.00  0.00     0.198 A 
ATOM     64  C   UNL A   1      45.051  25.760  35.621  1.00  0.00     0.198 A 
ATOM     65  F   UNL A   1      42.791  25.962  35.003  1.00  0.00    -0.203 F 
ATOM     66  F   UNL A   1      47.902  27.871  34.880  1.00  0.00    -0.200 F 
ATOM     67  C   UNL A   1      46.352  26.237  35.593  1.00  0.00     0.200 A 
ATOM     68  F   UNL A   1      44.770  24.620  36.268  1.00  0.00    -0.200 F 
ATOM     69  F   UNL A   1      47.335  25.545  36.188  1.00  0.00    -0.200 F 
ENDBRANCH  36  59
ENDBRANCH  10  11
ENDBRANCH   3   5
ENDBRANCH   2   3
ENDBRANCH   1   2
BRANCH   1  70
ATOM     70  C   UNL A   1      32.409  30.834  26.824  1.00  0.00     0.275 C 
BRANCH  70  71
ATOM     71  O   UNL A   1      31.640  29.843  26.126  1.00  0.00    -0.458 OA
BRANCH  71  72
ATOM     72  C   UNL A   1      32.305  29.148  25.166  1.00  0.00     0.339 C 
ATOM     73  O   UNL A   1      33.302  29.509  24.564  1.00  0.00    -0.246 OA
BRANCH  72  74
ATOM     74  C   UNL A   1      31.727  27.797  25.040  1.00  0.00     0.079 A 
ATOM     75  C   UNL A   1      32.382  26.740  25.700  1.00  0.00     0.026 A 
ATOM     76  C   UNL A   1      30.583  27.543  24.279  1.00  0.00     0.055 A 
ATOM     77  C   UNL A   1      31.863  25.438  25.647  1.00  0.00    -0.012 A 
ATOM     78  C   UNL A   1      30.058  26.248  24.237  1.00  0.00     0.022 A 
ATOM     79  Cl  UNL A   1      29.794  28.756  23.335  1.00  0.00    -0.083 Cl
ATOM     80  C   UNL A   1      30.680  25.210  24.932  1.00  0.00     0.010 A 
BRANCH  77  81
ATOM     81  C   UNL A   1      32.557  24.293  26.263  1.00  0.00     0.047 A 
ATOM     82  C   UNL A   1      33.877  24.077  26.099  1.00  0.00     0.016 A 
ATOM     83  C   UNL A   1      31.800  23.351  27.162  1.00  0.00     0.255 A 
ATOM     84  C   UNL A   1      34.554  22.970  26.735  1.00  0.00     0.019 A 
ATOM     85  N   UNL A   1      32.528  22.329  27.725  1.00  0.00    -0.329 N 
ATOM     86  O   UNL A   1      30.602  23.485  27.395  1.00  0.00    -0.269 OA
ATOM     87  C   UNL A   1      33.868  22.135  27.522  1.00  0.00     0.086 A 
ATOM     88  H   UNL A   1      32.056  21.695  28.311  1.00  0.00     0.169 HD
ENDBRANCH  77  81
ENDBRANCH  72  74
ENDBRANCH  71  72
ENDBRANCH  70  71
ENDBRANCH   1  70
TORSDOF 12
ENDMDL
MODEL 3
REMARK VINA RESULT:     -12.2      5.486     10.713
REMARK SMILES O=C(OCCOC(=O)c1cc(-c2ccc[nH]c2=O)ccc1Cl)c1ccc(-c2c3nc(c(-c4c(F)c(F)c(F)c(F)c4F)c4ccc([nH]4)c(-c4c(F)c(F)c(F)c(F)c4F)c4nc(c(-c5c(F)c(F)c(F)c(F)c5F)c5ccc2[nH]5)C=C4)C=C3)cc1
REMARK SMILES IDX 4 1 3 2 2 3 1 4 23 5 24 6 85 7 25 8 84 9 26 10 27 11 28 12
REMARK SMILES IDX 78 13 29 14 83 15 77 16 79 17 30 18 82 19 76 20 75 21 31 23
REMARK SMILES IDX 63 24 43 25 62 26 44 27 47 28 61 29 80 30 45 31 46 32 60 34
REMARK SMILES IDX 81 35 48 36 32 37 33 38 41 39 34 40 35 41 39 42 42 43 36 44
REMARK SMILES IDX 37 45 40 46 38 47 64 48 65 49 73 50 66 51 67 52 71 53 74 54
REMARK SMILES IDX 68 55 69 56 72 57 70 58 49 59 50 60 58 61 51 62 52 63 56 64
REMARK SMILES IDX 59 65 53 66 54 67 57 68 55 69 5 70 6 71 7 72 8 73 9 74 10 75
REMARK SMILES IDX 21 76 11 77 20 78 22 79 19 80 12 81 13 82 17 83 14 84 16 85
REMARK SMILES IDX 18 86 15 87
REMARK H PARENT 79 22 47 33 16 88
REMARK Flexibility Score: inf
ROOT
ATOM      1  C   UNL A   1      38.915  19.732  25.243  1.00  0.00     0.275 C 
ENDROOT
BRANCH   1   2
ATOM      2  O   UNL A   1      40.046  19.140  25.903  1.00  0.00    -0.458 OA
BRANCH   2   3
ATOM      3  C   UNL A   1      41.324  19.567  26.010  1.00  0.00     0.338 C 
ATOM      4  O   UNL A   1      42.230  18.777  25.739  1.00  0.00    -0.246 OA
BRANCH   3   5
ATOM      5  C   UNL A   1      41.731  20.911  26.538  1.00  0.00     0.060 A 
ATOM      6  C   UNL A   1      41.881  21.272  27.875  1.00  0.00     0.016 A 
ATOM      7  C   UNL A   1      42.002  21.896  25.569  1.00  0.00     0.016 A 
ATOM      8  C   UNL A   1      42.353  22.535  28.234  1.00  0.00     0.010 A 
ATOM      9  C   UNL A   1      42.502  23.156  25.915  1.00  0.00     0.010 A 
ATOM     10  C   UNL A   1      42.678  23.480  27.260  1.00  0.00    -0.014 A 
BRANCH  10  11
ATOM     11  C   UNL A   1      43.079  24.834  27.696  1.00  0.00     0.031 A 
ATOM     12  C   UNL A   1      44.496  25.263  27.483  1.00  0.00     0.074 A 
ATOM     13  C   UNL A   1      42.154  25.697  28.152  1.00  0.00     0.049 A 
ATOM     14  N   UNL A   1      45.030  26.445  27.643  1.00  0.00    -0.248 NA
ATOM     15  C   UNL A   1      45.429  24.239  26.986  1.00  0.00     0.031 C 
ATOM     16  C   UNL A   1      40.736  25.386  28.311  1.00  0.00     0.029 A 
ATOM     17  N   UNL A   1      42.247  27.006  28.544  1.00  0.00    -0.354 N 
ATOM     18  C   UNL A   1      46.342  26.318  27.213  1.00  0.00     0.074 A 
ATOM     19  C   UNL A   1      46.550  24.931  26.864  1.00  0.00     0.031 C 
ATOM     20  C   UNL A   1      40.093  26.458  28.800  1.00  0.00     0.029 A 
ATOM     21  C   UNL A   1      41.055  27.538  28.975  1.00  0.00     0.049 A 
ATOM     22  H   UNL A   1      43.089  27.517  28.520  1.00  0.00     0.167 HD
ATOM     23  C   UNL A   1      47.273  27.289  27.081  1.00  0.00     0.037 A 
ATOM     24  C   UNL A   1      40.775  28.768  29.447  1.00  0.00     0.037 A 
ATOM     25  C   UNL A   1      47.058  28.655  27.473  1.00  0.00     0.049 A 
ATOM     26  C   UNL A   1      41.873  29.797  29.420  1.00  0.00     0.074 A 
ATOM     27  C   UNL A   1      47.946  29.713  27.449  1.00  0.00     0.029 A 
ATOM     28  N   UNL A   1      45.860  29.146  27.979  1.00  0.00    -0.354 N 
ATOM     29  N   UNL A   1      43.106  29.674  28.989  1.00  0.00    -0.248 NA
ATOM     30  C   UNL A   1      41.537  31.138  29.907  1.00  0.00     0.031 C 
ATOM     31  C   UNL A   1      47.301  30.833  27.987  1.00  0.00     0.029 A 
ATOM     32  C   UNL A   1      45.993  30.489  28.293  1.00  0.00     0.049 A 
ATOM     33  H   UNL A   1      45.038  28.617  28.098  1.00  0.00     0.167 HD
ATOM     34  C   UNL A   1      43.684  30.928  29.118  1.00  0.00     0.074 A 
ATOM     35  C   UNL A   1      42.655  31.801  29.649  1.00  0.00     0.031 C 
ATOM     36  C   UNL A   1      44.946  31.326  28.825  1.00  0.00     0.037 A 
BRANCH  23  37
ATOM     37  C   UNL A   1      48.598  26.883  26.509  1.00  0.00     0.064 A 
ATOM     38  C   UNL A   1      48.873  27.014  25.138  1.00  0.00     0.173 A 
ATOM     39  C   UNL A   1      49.591  26.329  27.328  1.00  0.00     0.173 A 
ATOM     40  F   UNL A   1      47.943  27.511  24.307  1.00  0.00    -0.203 F 
ATOM     41  C   UNL A   1      50.083  26.580  24.605  1.00  0.00     0.198 A 
ATOM     42  C   UNL A   1      50.811  25.920  26.795  1.00  0.00     0.198 A 
ATOM     43  F   UNL A   1      49.373  26.171  28.642  1.00  0.00    -0.203 F 
ATOM     44  F   UNL A   1      50.301  26.660  23.284  1.00  0.00    -0.200 F 
ATOM     45  C   UNL A   1      51.053  26.038  25.435  1.00  0.00     0.200 A 
ATOM     46  F   UNL A   1      51.748  25.398  27.599  1.00  0.00    -0.200 F 
ATOM     47  F   UNL A   1      52.216  25.614  24.921  1.00  0.00    -0.200 F 
ENDBRANCH  23  37
BRANCH  24  48
ATOM     48  C   UNL A   1      39.419  29.087  29.972  1.00  0.00     0.064 A 
ATOM     49  C   UNL A   1      38.441  29.699  29.175  1.00  0.00     0.173 A 
ATOM     50  C   UNL A   1      39.087  28.819  31.310  1.00  0.00     0.173 A 
ATOM     51  F   UNL A   1      38.707  29.989  27.894  1.00  0.00    -0.203 F 
ATOM     52  C   UNL A   1      37.203  30.066  29.705  1.00  0.00     0.198 A 
ATOM     53  C   UNL A   1      37.839  29.159  31.830  1.00  0.00     0.198 A 
ATOM     54  F   UNL A   1      39.980  28.227  32.117  1.00  0.00    -0.203 F 
ATOM     55  F   UNL A   1      36.312  30.706  28.936  1.00  0.00    -0.200 F 
ATOM     56  C   UNL A   1      36.903  29.794  31.031  1.00  0.00     0.200 A 
ATOM     57  F   UNL A   1      37.551  28.881  33.109  1.00  0.00    -0.200 F 
ATOM     58  F   UNL A   1      35.718  30.156  31.541  1.00  0.00    -0.200 F 
ENDBRANCH  24  48
BRANCH  36  59
ATOM     59  C   UNL A   1      45.266  32.774  29.053  1.00  0.00     0.064 A 
ATOM     60  C   UNL A   1      45.844  33.220  30.252  1.00  0.00     0.173 A 
ATOM     61  C   UNL A   1      45.011  33.723  28.052  1.00  0.00     0.173 A 
ATOM     62  F   UNL A   1      46.093  32.351  31.245  1.00  0.00    -0.203 F 
ATOM     63  C   UNL A   1      46.117  34.568  30.454  1.00  0.00     0.198 A 
ATOM     64  C   UNL A   1      45.321  35.065  28.244  1.00  0.00     0.198 A 
ATOM     65  F   UNL A   1      44.467  33.346  26.884  1.00  0.00    -0.203 F 
ATOM     66  F   UNL A   1      46.608  34.981  31.630  1.00  0.00    -0.200 F 
ATOM     67  C   UNL A   1      45.863  35.488  29.447  1.00  0.00     0.200 A 
ATOM     68  F   UNL A   1      45.091  35.950  27.265  1.00  0.00    -0.200 F 
ATOM     69  F   UNL A   1      46.131  36.787  29.643  1.00  0.00    -0.200 F 
ENDBRANCH  36  59
ENDBRANCH  10  11
ENDBRANCH   3   5
ENDBRANCH   2   3
ENDBRANCH   1   2
BRANCH   1  70
ATOM     70  C   UNL A   1      38.567  21.146  25.718  1.00  0.00     0.275 C 
BRANCH  70  71
ATOM     71  O   UNL A   1      37.697  21.855  24.822  1.00  0.00    -0.458 OA
BRANCH  71  72
ATOM     72  C   UNL A   1      36.628  22.466  25.397  1.00  0.00     0.339 C 
ATOM     73  O   UNL A   1      36.658  23.401  26.179  1.00  0.00    -0.246 OA
BRANCH  72  74
ATOM     74  C   UNL A   1      35.380  21.925  24.827  1.00  0.00     0.079 A 
ATOM     75  C   UNL A   1      35.128  20.550  24.991  1.00  0.00     0.026 A 
ATOM     76  C   UNL A   1      34.475  22.723  24.122  1.00  0.00     0.055 A 
ATOM     77  C   UNL A   1      33.943  19.982  24.500  1.00  0.00    -0.012 A 
ATOM     78  C   UNL A   1      33.288  22.160  23.645  1.00  0.00     0.022 A 
ATOM     79  Cl  UNL A   1      34.770  24.388  23.765  1.00  0.00    -0.083 Cl
ATOM     80  C   UNL A   1      33.015  20.806  23.851  1.00  0.00     0.010 A 
BRANCH  77  81
ATOM     81  C   UNL A   1      33.674  18.535  24.587  1.00  0.00     0.047 A 
ATOM     82  C   UNL A   1      34.139  17.660  23.675  1.00  0.00     0.016 A 
ATOM     83  C   UNL A   1      32.909  17.983  25.761  1.00  0.00     0.255 A 
ATOM     84  C   UNL A   1      33.898  16.239  23.788  1.00  0.00     0.019 A 
ATOM     85  N   UNL A   1      32.731  16.619  25.785  1.00  0.00    -0.329 N 
ATOM     86  O   UNL A   1      32.473  18.699  26.657  1.00  0.00    -0.269 OA
ATOM     87  C   UNL A   1      33.207  15.763  24.829  1.00  0.00     0.086 A 
ATOM     88  H   UNL A   1      32.228  16.233  26.538  1.00  0.00     0.169 HD
ENDBRANCH  77  81
ENDBRANCH  72  74
ENDBRANCH  71  72
ENDBRANCH  70  71
ENDBRANCH   1  70
TORSDOF 12
ENDMDL
