MODEL 1
REMARK VINA RESULT:     -11.8      0.000      0.000
REMARK SMILES C/C=C/C[C@H](Cc1cccc(F)c1)C(=O)OCCOC(=O)c1ccc(-c2c3nc(c(-c4c(F)c(F)c(F)c(F)c4F)c4ccc([nH]4)c(-c4c(F)c(F)c(F)c(F)c4F)c4nc(c(-c5c(F)c(F)c(F)c(F)c5F)c5ccc2[nH]5)C=C4)C=C3)cc1
REMARK SMILES IDX 17 1 16 2 14 3 15 4 5 5 4 6 3 7 1 8 2 9 6 10 7 11 8 12 13 13
REMARK SMILES IDX 9 14 11 15 10 16 12 17 18 18 19 19 20 20 21 21 22 22 23 23
REMARK SMILES IDX 84 24 24 25 83 26 25 27 26 28 27 29 77 30 28 31 82 32 76 33
REMARK SMILES IDX 78 34 29 35 81 36 75 37 74 38 30 40 62 41 42 42 61 43 43 44
REMARK SMILES IDX 46 45 60 46 79 47 44 48 45 49 59 51 80 52 47 53 31 54 32 55
REMARK SMILES IDX 40 56 33 57 34 58 38 59 41 60 35 61 36 62 39 63 37 64 63 65
REMARK SMILES IDX 64 66 72 67 65 68 66 69 70 70 73 71 67 72 68 73 71 74 69 75
REMARK SMILES IDX 48 76 49 77 57 78 50 79 51 80 55 81 58 82 52 83 53 84 56 85
REMARK SMILES IDX 54 86
REMARK H PARENT 78 39 46 50
REMARK Flexibility Score: inf
ROOT
ATOM      1  C   UNL A   1      31.074  29.592  24.498  1.00  0.00     0.274 C 
ENDROOT
BRANCH   1   2
ATOM      2  O   UNL A   1      31.510  28.598  23.548  1.00  0.00    -0.462 OA
BRANCH   2   3
ATOM      3  C   UNL A   1      30.518  28.028  22.818  1.00  0.00     0.309 C 
ATOM      4  O   UNL A   1      30.648  27.627  21.664  1.00  0.00    -0.252 OA
BRANCH   3   5
ATOM      5  C   UNL A   1      29.169  27.998  23.512  1.00  0.00     0.107 C 
BRANCH   5   6
ATOM      6  C   UNL A   1      28.892  26.514  23.876  1.00  0.00     0.042 C 
BRANCH   6   7
ATOM      7  C   UNL A   1      30.049  25.834  24.562  1.00  0.00    -0.031 C 
ATOM      8  C   UNL A   1      31.592  25.480  26.492  1.00  0.00     0.035 C 
ATOM      9  C   UNL A   1      30.312  25.937  25.874  1.00  0.00    -0.035 C 
ENDBRANCH   6   7
ENDBRANCH   5   6
BRANCH   5  10
ATOM     10  C   UNL A   1      27.985  28.634  22.757  1.00  0.00     0.051 C 
BRANCH  10  11
ATOM     11  C   UNL A   1      27.997  30.100  22.393  1.00  0.00    -0.044 A 
ATOM     12  C   UNL A   1      28.039  31.036  23.445  1.00  0.00     0.004 A 
ATOM     13  C   UNL A   1      28.090  30.574  21.085  1.00  0.00     0.043 A 
ATOM     14  C   UNL A   1      28.125  32.408  23.197  1.00  0.00     0.003 A 
ATOM     15  C   UNL A   1      28.158  31.946  20.847  1.00  0.00     0.123 A 
ATOM     16  C   UNL A   1      28.172  32.867  21.887  1.00  0.00     0.039 A 
ATOM     17  F   UNL A   1      28.231  32.389  19.587  1.00  0.00    -0.207 F 
ENDBRANCH  10  11
ENDBRANCH   5  10
ENDBRANCH   3   5
ENDBRANCH   2   3
ENDBRANCH   1   2
BRANCH   1  18
ATOM     18  C   UNL A   1      31.827  29.465  25.819  1.00  0.00     0.275 C 
BRANCH  18  19
ATOM     19  O   UNL A   1      33.023  30.261  25.775  1.00  0.00    -0.458 OA
BRANCH  19  20
ATOM     20  C   UNL A   1      33.220  31.073  26.839  1.00  0.00     0.338 C 
ATOM     21  O   UNL A   1      32.476  31.955  27.234  1.00  0.00    -0.246 OA
BRANCH  20  22
ATOM     22  C   UNL A   1      34.517  30.771  27.482  1.00  0.00     0.060 A 
ATOM     23  C   UNL A   1      34.843  29.485  27.920  1.00  0.00     0.016 A 
ATOM     24  C   UNL A   1      35.386  31.833  27.738  1.00  0.00     0.016 A 
ATOM     25  C   UNL A   1      35.994  29.276  28.681  1.00  0.00     0.010 A 
ATOM     26  C   UNL A   1      36.579  31.608  28.427  1.00  0.00     0.010 A 
ATOM     27  C   UNL A   1      36.882  30.333  28.932  1.00  0.00    -0.014 A 
BRANCH  27  28
ATOM     28  C   UNL A   1      38.132  30.126  29.707  1.00  0.00     0.031 A 
ATOM     29  C   UNL A   1      39.227  29.245  29.171  1.00  0.00     0.074 A 
ATOM     30  C   UNL A   1      38.271  30.698  30.919  1.00  0.00     0.049 A 
ATOM     31  N   UNL A   1      40.294  28.784  29.775  1.00  0.00    -0.248 NA
ATOM     32  C   UNL A   1      39.106  28.822  27.769  1.00  0.00     0.031 C 
ATOM     33  C   UNL A   1      37.309  31.606  31.540  1.00  0.00     0.029 A 
ATOM     34  N   UNL A   1      39.273  30.584  31.851  1.00  0.00    -0.354 N 
ATOM     35  C   UNL A   1      40.951  27.998  28.837  1.00  0.00     0.074 A 
ATOM     36  C   UNL A   1      40.167  28.039  27.622  1.00  0.00     0.031 C 
ATOM     37  C   UNL A   1      37.770  31.979  32.743  1.00  0.00     0.029 A 
ATOM     38  C   UNL A   1      39.019  31.272  33.010  1.00  0.00     0.049 A 
ATOM     39  H   UNL A   1      40.093  30.059  31.702  1.00  0.00     0.167 HD
ATOM     40  C   UNL A   1      42.103  27.301  28.981  1.00  0.00     0.037 A 
ATOM     41  C   UNL A   1      39.686  31.295  34.179  1.00  0.00     0.037 A 
ATOM     42  C   UNL A   1      42.892  27.275  30.183  1.00  0.00     0.049 A 
ATOM     43  C   UNL A   1      40.917  30.453  34.343  1.00  0.00     0.074 A 
ATOM     44  C   UNL A   1      44.083  26.611  30.420  1.00  0.00     0.029 A 
ATOM     45  N   UNL A   1      42.569  27.947  31.352  1.00  0.00    -0.354 N 
ATOM     46  N   UNL A   1      41.505  29.674  33.469  1.00  0.00    -0.248 NA
ATOM     47  C   UNL A   1      41.562  30.472  35.663  1.00  0.00     0.031 C 
ATOM     48  C   UNL A   1      44.462  26.852  31.745  1.00  0.00     0.029 A 
ATOM     49  C   UNL A   1      43.526  27.698  32.320  1.00  0.00     0.049 A 
ATOM     50  H   UNL A   1      41.776  28.519  31.474  1.00  0.00     0.167 HD
ATOM     51  C   UNL A   1      42.590  29.115  34.126  1.00  0.00     0.074 A 
ATOM     52  C   UNL A   1      42.588  29.653  35.471  1.00  0.00     0.031 C 
ATOM     53  C   UNL A   1      43.503  28.232  33.656  1.00  0.00     0.037 A 
BRANCH  40  54
ATOM     54  C   UNL A   1      42.577  26.481  27.818  1.00  0.00     0.064 A 
ATOM     55  C   UNL A   1      43.483  27.023  26.894  1.00  0.00     0.173 A 
ATOM     56  C   UNL A   1      42.077  25.196  27.573  1.00  0.00     0.173 A 
ATOM     57  F   UNL A   1      43.986  28.253  27.082  1.00  0.00    -0.203 F 
ATOM     58  C   UNL A   1      43.862  26.312  25.759  1.00  0.00     0.198 A 
ATOM     59  C   UNL A   1      42.472  24.478  26.446  1.00  0.00     0.198 A 
ATOM     60  F   UNL A   1      41.216  24.630  28.432  1.00  0.00    -0.203 F 
ATOM     61  F   UNL A   1      44.706  26.861  24.874  1.00  0.00    -0.200 F 
ATOM     62  C   UNL A   1      43.356  25.040  25.535  1.00  0.00     0.200 A 
ATOM     63  F   UNL A   1      41.996  23.243  26.238  1.00  0.00    -0.200 F 
ATOM     64  F   UNL A   1      43.721  24.356  24.442  1.00  0.00    -0.200 F 
ENDBRANCH  40  54
BRANCH  41  65
ATOM     65  C   UNL A   1      39.165  32.126  35.291  1.00  0.00     0.064 A 
ATOM     66  C   UNL A   1      39.466  33.494  35.381  1.00  0.00     0.173 A 
ATOM     67  C   UNL A   1      38.410  31.552  36.321  1.00  0.00     0.173 A 
ATOM     68  F   UNL A   1      40.188  34.087  34.418  1.00  0.00    -0.203 F 
ATOM     69  C   UNL A   1      39.058  34.248  36.478  1.00  0.00     0.198 A 
ATOM     70  C   UNL A   1      37.982  32.313  37.406  1.00  0.00     0.198 A 
ATOM     71  F   UNL A   1      38.079  30.253  36.264  1.00  0.00    -0.203 F 
ATOM     72  F   UNL A   1      39.397  35.542  36.561  1.00  0.00    -0.200 F 
ATOM     73  C   UNL A   1      38.317  33.656  37.490  1.00  0.00     0.200 A 
ATOM     74  F   UNL A   1      37.250  31.744  38.373  1.00  0.00    -0.200 F 
ATOM     75  F   UNL A   1      37.926  34.383  38.546  1.00  0.00    -0.200 F 
ENDBRANCH  41  65
BRANCH  53  76
ATOM     76  C   UNL A   1      44.584  27.796  34.596  1.00  0.00     0.064 A 
ATOM     77  C   UNL A   1      45.789  28.511  34.675  1.00  0.00     0.173 A 
ATOM     78  C   UNL A   1      44.450  26.638  35.373  1.00  0.00     0.173 A 
ATOM     79  F   UNL A   1      45.966  29.622  33.945  1.00  0.00    -0.203 F 
ATOM     80  C   UNL A   1      46.825  28.072  35.493  1.00  0.00     0.198 A 
ATOM     81  C   UNL A   1      45.481  26.215  36.207  1.00  0.00     0.198 A 
ATOM     82  F   UNL A   1      43.309  25.932  35.339  1.00  0.00    -0.203 F 
ATOM     83  F   UNL A   1      47.977  28.757  35.538  1.00  0.00    -0.200 F 
ATOM     84  C   UNL A   1      46.669  26.928  36.260  1.00  0.00     0.200 A 
ATOM     85  F   UNL A   1      45.322  25.120  36.963  1.00  0.00    -0.200 F 
ATOM     86  F   UNL A   1      47.665  26.513  37.056  1.00  0.00    -0.200 F 
ENDBRANCH  53  76
ENDBRANCH  27  28
ENDBRANCH  20  22
ENDBRANCH  19  20
ENDBRANCH  18  19
ENDBRANCH   1  18
TORSDOF 15
ENDMDL
MODEL 2
REMARK VINA RESULT:     -11.5      0.409      2.047
REMARK SMILES C/C=C/C[C@H](Cc1cccc(F)c1)C(=O)OCCOC(=O)c1ccc(-c2c3nc(c(-c4c(F)c(F)c(F)c(F)c4F)c4ccc([nH]4)c(-c4c(F)c(F)c(F)c(F)c4F)c4nc(c(-c5c(F)c(F)c(F)c(F)c5F)c5ccc2[nH]5)C=C4)C=C3)cc1
REMARK SMILES IDX 17 1 16 2 14 3 15 4 5 5 4 6 3 7 1 8 2 9 6 10 7 11 8 12 13 13
REMARK SMILES IDX 9 14 11 15 10 16 12 17 18 18 19 19 20 20 21 21 22 22 23 23
REMARK SMILES IDX 84 24 24 25 83 26 25 27 26 28 27 29 77 30 28 31 82 32 76 33
REMARK SMILES IDX 78 34 29 35 81 36 75 37 74 38 30 40 62 41 42 42 61 43 43 44
REMARK SMILES IDX 46 45 60 46 79 47 44 48 45 49 59 51 80 52 47 53 31 54 32 55
REMARK SMILES IDX 40 56 33 57 34 58 38 59 41 60 35 61 36 62 39 63 37 64 63 65
REMARK SMILES IDX 64 66 72 67 65 68 66 69 70 70 73 71 67 72 68 73 71 74 69 75
REMARK SMILES IDX 48 76 49 77 57 78 50 79 51 80 55 81 58 82 52 83 53 84 56 85
REMARK SMILES IDX 54 86
REMARK H PARENT 78 39 46 50
REMARK Flexibility Score: inf
ROOT
ATOM      1  C   UNL A   1      31.102  29.512  24.685  1.00  0.00     0.274 C 
ENDROOT
BRANCH   1   2
ATOM      2  O   UNL A   1      31.571  28.796  23.524  1.00  0.00    -0.462 OA
BRANCH   2   3
ATOM      3  C   UNL A   1      30.610  28.133  22.832  1.00  0.00     0.309 C 
ATOM      4  O   UNL A   1      30.720  27.772  21.663  1.00  0.00    -0.252 OA
BRANCH   3   5
ATOM      5  C   UNL A   1      29.313  27.938  23.594  1.00  0.00     0.107 C 
BRANCH   5   6
ATOM      6  C   UNL A   1      29.178  26.413  23.853  1.00  0.00     0.042 C 
BRANCH   6   7
ATOM      7  C   UNL A   1      29.821  25.958  25.138  1.00  0.00    -0.031 C 
ATOM      8  C   UNL A   1      31.622  24.826  26.443  1.00  0.00     0.035 C 
ATOM      9  C   UNL A   1      31.082  25.512  25.231  1.00  0.00    -0.035 C 
ENDBRANCH   6   7
ENDBRANCH   5   6
BRANCH   5  10
ATOM     10  C   UNL A   1      28.038  28.528  22.959  1.00  0.00     0.051 C 
BRANCH  10  11
ATOM     11  C   UNL A   1      27.994  29.969  22.509  1.00  0.00    -0.044 A 
ATOM     12  C   UNL A   1      28.044  30.968  23.501  1.00  0.00     0.004 A 
ATOM     13  C   UNL A   1      28.028  30.365  21.172  1.00  0.00     0.043 A 
ATOM     14  C   UNL A   1      28.080  32.323  23.168  1.00  0.00     0.003 A 
ATOM     15  C   UNL A   1      28.047  31.721  20.851  1.00  0.00     0.123 A 
ATOM     16  C   UNL A   1      28.068  32.703  21.832  1.00  0.00     0.039 A 
ATOM     17  F   UNL A   1      28.063  32.089  19.564  1.00  0.00    -0.207 F 
ENDBRANCH  10  11
ENDBRANCH   5  10
ENDBRANCH   3   5
ENDBRANCH   2   3
ENDBRANCH   1   2
BRANCH   1  18
ATOM     18  C   UNL A   1      32.015  29.281  25.885  1.00  0.00     0.275 C 
BRANCH  18  19
ATOM     19  O   UNL A   1      33.178  30.117  25.781  1.00  0.00    -0.458 OA
BRANCH  19  20
ATOM     20  C   UNL A   1      33.405  30.933  26.836  1.00  0.00     0.338 C 
ATOM     21  O   UNL A   1      32.672  31.815  27.250  1.00  0.00    -0.246 OA
BRANCH  20  22
ATOM     22  C   UNL A   1      34.720  30.635  27.442  1.00  0.00     0.060 A 
ATOM     23  C   UNL A   1      35.144  29.325  27.681  1.00  0.00     0.016 A 
ATOM     24  C   UNL A   1      35.505  31.707  27.870  1.00  0.00     0.016 A 
ATOM     25  C   UNL A   1      36.308  29.089  28.416  1.00  0.00     0.010 A 
ATOM     26  C   UNL A   1      36.711  31.470  28.531  1.00  0.00     0.010 A 
ATOM     27  C   UNL A   1      37.111  30.159  28.838  1.00  0.00    -0.014 A 
BRANCH  27  28
ATOM     28  C   UNL A   1      38.372  29.931  29.589  1.00  0.00     0.031 A 
ATOM     29  C   UNL A   1      39.447  29.041  29.025  1.00  0.00     0.074 A 
ATOM     30  C   UNL A   1      38.540  30.490  30.802  1.00  0.00     0.049 A 
ATOM     31  N   UNL A   1      40.519  28.562  29.606  1.00  0.00    -0.248 NA
ATOM     32  C   UNL A   1      39.295  28.631  27.622  1.00  0.00     0.031 C 
ATOM     33  C   UNL A   1      37.601  31.405  31.449  1.00  0.00     0.029 A 
ATOM     34  N   UNL A   1      39.557  30.356  31.714  1.00  0.00    -0.354 N 
ATOM     35  C   UNL A   1      41.149  27.776  28.649  1.00  0.00     0.074 A 
ATOM     36  C   UNL A   1      40.343  27.837  27.450  1.00  0.00     0.031 C 
ATOM     37  C   UNL A   1      38.088  31.762  32.646  1.00  0.00     0.029 A 
ATOM     38  C   UNL A   1      39.333  31.038  32.884  1.00  0.00     0.049 A 
ATOM     39  H   UNL A   1      40.368  29.823  31.546  1.00  0.00     0.167 HD
ATOM     40  C   UNL A   1      42.295  27.064  28.766  1.00  0.00     0.037 A 
ATOM     41  C   UNL A   1      40.022  31.043  34.040  1.00  0.00     0.037 A 
ATOM     42  C   UNL A   1      43.106  27.019  29.954  1.00  0.00     0.049 A 
ATOM     43  C   UNL A   1      41.244  30.185  34.175  1.00  0.00     0.074 A 
ATOM     44  C   UNL A   1      44.292  26.338  30.164  1.00  0.00     0.029 A 
ATOM     45  N   UNL A   1      42.811  27.685  31.133  1.00  0.00    -0.354 N 
ATOM     46  N   UNL A   1      41.807  29.407  33.284  1.00  0.00    -0.248 NA
ATOM     47  C   UNL A   1      41.913  30.185  35.483  1.00  0.00     0.031 C 
ATOM     48  C   UNL A   1      44.698  26.564  31.483  1.00  0.00     0.029 A 
ATOM     49  C   UNL A   1      43.783  27.416  32.082  1.00  0.00     0.049 A 
ATOM     50  H   UNL A   1      42.028  28.265  31.275  1.00  0.00     0.167 HD
ATOM     51  C   UNL A   1      42.897  28.829  33.917  1.00  0.00     0.074 A 
ATOM     52  C   UNL A   1      42.926  29.355  35.266  1.00  0.00     0.031 C 
ATOM     53  C   UNL A   1      43.791  27.939  33.423  1.00  0.00     0.037 A 
BRANCH  40  54
ATOM     54  C   UNL A   1      42.738  26.249  27.588  1.00  0.00     0.064 A 
ATOM     55  C   UNL A   1      42.263  24.939  27.417  1.00  0.00     0.173 A 
ATOM     56  C   UNL A   1      43.687  26.729  26.677  1.00  0.00     0.173 A 
ATOM     57  F   UNL A   1      41.358  24.432  28.267  1.00  0.00    -0.203 F 
ATOM     58  C   UNL A   1      42.734  24.136  26.383  1.00  0.00     0.198 A 
ATOM     59  C   UNL A   1      44.143  25.929  25.632  1.00  0.00     0.198 A 
ATOM     60  F   UNL A   1      44.163  27.978  26.793  1.00  0.00    -0.203 F 
ATOM     61  F   UNL A   1      42.290  22.877  26.257  1.00  0.00    -0.200 F 
ATOM     62  C   UNL A   1      43.674  24.631  25.491  1.00  0.00     0.200 A 
ATOM     63  F   UNL A   1      45.038  26.413  24.760  1.00  0.00    -0.200 F 
ATOM     64  F   UNL A   1      44.127  23.856  24.496  1.00  0.00    -0.200 F 
ENDBRANCH  40  54
BRANCH  41  65
ATOM     65  C   UNL A   1      39.530  31.871  35.169  1.00  0.00     0.064 A 
ATOM     66  C   UNL A   1      38.625  31.356  36.110  1.00  0.00     0.173 A 
ATOM     67  C   UNL A   1      39.907  33.214  35.288  1.00  0.00     0.173 A 
ATOM     68  F   UNL A   1      38.235  30.075  36.034  1.00  0.00    -0.203 F 
ATOM     69  C   UNL A   1      38.090  32.165  37.108  1.00  0.00     0.198 A 
ATOM     70  C   UNL A   1      39.388  34.016  36.302  1.00  0.00     0.198 A 
ATOM     71  F   UNL A   1      40.787  33.742  34.424  1.00  0.00    -0.203 F 
ATOM     72  F   UNL A   1      37.194  31.660  37.967  1.00  0.00    -0.200 F 
ATOM     73  C   UNL A   1      38.472  33.495  37.203  1.00  0.00     0.200 A 
ATOM     74  F   UNL A   1      39.773  35.295  36.403  1.00  0.00    -0.200 F 
ATOM     75  F   UNL A   1      37.955  34.273  38.163  1.00  0.00    -0.200 F 
ENDBRANCH  41  65
BRANCH  53  76
ATOM     76  C   UNL A   1      44.884  27.482  34.339  1.00  0.00     0.064 A 
ATOM     77  C   UNL A   1      44.715  26.336  35.131  1.00  0.00     0.173 A 
ATOM     78  C   UNL A   1      46.072  28.212  34.475  1.00  0.00     0.173 A 
ATOM     79  F   UNL A   1      43.591  25.610  35.040  1.00  0.00    -0.203 F 
ATOM     80  C   UNL A   1      45.697  25.945  36.036  1.00  0.00     0.198 A 
ATOM     81  C   UNL A   1      47.061  27.804  35.366  1.00  0.00     0.198 A 
ATOM     82  F   UNL A   1      46.281  29.305  33.726  1.00  0.00    -0.203 F 
ATOM     83  F   UNL A   1      45.506  24.860  36.800  1.00  0.00    -0.200 F 
ATOM     84  C   UNL A   1      46.869  26.676  36.150  1.00  0.00     0.200 A 
ATOM     85  F   UNL A   1      48.202  28.499  35.461  1.00  0.00    -0.200 F 
ATOM     86  F   UNL A   1      47.819  26.291  37.015  1.00  0.00    -0.200 F 
ENDBRANCH  53  76
ENDBRANCH  27  28
ENDBRANCH  20  22
ENDBRANCH  19  20
ENDBRANCH  18  19
ENDBRANCH   1  18
TORSDOF 15
ENDMDL
MODEL 3
REMARK VINA RESULT:     -11.3      2.150      3.611
REMARK SMILES C/C=C/C[C@H](Cc1cccc(F)c1)C(=O)OCCOC(=O)c1ccc(-c2c3nc(c(-c4c(F)c(F)c(F)c(F)c4F)c4ccc([nH]4)c(-c4c(F)c(F)c(F)c(F)c4F)c4nc(c(-c5c(F)c(F)c(F)c(F)c5F)c5ccc2[nH]5)C=C4)C=C3)cc1
REMARK SMILES IDX 17 1 16 2 14 3 15 4 5 5 4 6 3 7 1 8 2 9 6 10 7 11 8 12 13 13
REMARK SMILES IDX 9 14 11 15 10 16 12 17 18 18 19 19 20 20 21 21 22 22 23 23
REMARK SMILES IDX 84 24 24 25 83 26 25 27 26 28 27 29 77 30 28 31 82 32 76 33
REMARK SMILES IDX 78 34 29 35 81 36 75 37 74 38 30 40 62 41 42 42 61 43 43 44
REMARK SMILES IDX 46 45 60 46 79 47 44 48 45 49 59 51 80 52 47 53 31 54 32 55
REMARK SMILES IDX 40 56 33 57 34 58 38 59 41 60 35 61 36 62 39 63 37 64 63 65
REMARK SMILES IDX 64 66 72 67 65 68 66 69 70 70 73 71 67 72 68 73 71 74 69 75
REMARK SMILES IDX 48 76 49 77 57 78 50 79 51 80 55 81 58 82 52 83 53 84 56 85
REMARK SMILES IDX 54 86
REMARK H PARENT 78 39 46 50
REMARK Flexibility Score: inf
ROOT
ATOM      1  C   UNL A   1      32.189  29.164  23.503  1.00  0.00     0.274 C 
ENDROOT
BRANCH   1   2
ATOM      2  O   UNL A   1      33.510  28.588  23.449  1.00  0.00    -0.462 OA
BRANCH   2   3
ATOM      3  C   UNL A   1      33.585  27.379  22.837  1.00  0.00     0.309 C 
ATOM      4  O   UNL A   1      34.027  27.200  21.705  1.00  0.00    -0.252 OA
BRANCH   3   5
ATOM      5  C   UNL A   1      32.985  26.236  23.635  1.00  0.00     0.107 C 
BRANCH   5   6
ATOM      6  C   UNL A   1      33.889  26.047  24.883  1.00  0.00     0.042 C 
BRANCH   6   7
ATOM      7  C   UNL A   1      33.305  26.625  26.146  1.00  0.00    -0.031 C 
ATOM      8  C   UNL A   1      31.416  27.496  27.526  1.00  0.00     0.035 C 
ATOM      9  C   UNL A   1      31.990  26.695  26.404  1.00  0.00    -0.035 C 
ENDBRANCH   6   7
ENDBRANCH   5   6
BRANCH   5  10
ATOM     10  C   UNL A   1      32.757  24.909  22.885  1.00  0.00     0.051 C 
BRANCH  10  11
ATOM     11  C   UNL A   1      32.466  23.634  23.640  1.00  0.00    -0.044 A 
ATOM     12  C   UNL A   1      33.372  22.564  23.496  1.00  0.00     0.004 A 
ATOM     13  C   UNL A   1      31.426  23.497  24.560  1.00  0.00     0.043 A 
ATOM     14  C   UNL A   1      33.217  21.377  24.214  1.00  0.00     0.003 A 
ATOM     15  C   UNL A   1      31.271  22.301  25.259  1.00  0.00     0.123 A 
ATOM     16  C   UNL A   1      32.150  21.239  25.092  1.00  0.00     0.039 A 
ATOM     17  F   UNL A   1      30.260  22.177  26.126  1.00  0.00    -0.207 F 
ENDBRANCH  10  11
ENDBRANCH   5  10
ENDBRANCH   3   5
ENDBRANCH   2   3
ENDBRANCH   1   2
BRANCH   1  18
ATOM     18  C   UNL A   1      31.902  29.769  24.873  1.00  0.00     0.275 C 
BRANCH  18  19
ATOM     19  O   UNL A   1      33.139  30.062  25.544  1.00  0.00    -0.458 OA
BRANCH  19  20
ATOM     20  C   UNL A   1      33.043  30.902  26.600  1.00  0.00     0.338 C 
ATOM     21  O   UNL A   1      32.141  31.689  26.829  1.00  0.00    -0.246 OA
BRANCH  20  22
ATOM     22  C   UNL A   1      34.230  30.768  27.472  1.00  0.00     0.060 A 
ATOM     23  C   UNL A   1      35.107  31.832  27.695  1.00  0.00     0.016 A 
ATOM     24  C   UNL A   1      34.519  29.508  28.000  1.00  0.00     0.016 A 
ATOM     25  C   UNL A   1      36.308  31.618  28.375  1.00  0.00     0.010 A 
ATOM     26  C   UNL A   1      35.679  29.315  28.751  1.00  0.00     0.010 A 
ATOM     27  C   UNL A   1      36.601  30.360  28.922  1.00  0.00    -0.014 A 
BRANCH  27  28
ATOM     28  C   UNL A   1      37.855  30.118  29.681  1.00  0.00     0.031 A 
ATOM     29  C   UNL A   1      38.930  29.230  29.116  1.00  0.00     0.074 A 
ATOM     30  C   UNL A   1      38.015  30.663  30.902  1.00  0.00     0.049 A 
ATOM     31  N   UNL A   1      39.995  28.740  29.701  1.00  0.00    -0.248 NA
ATOM     32  C   UNL A   1      38.789  28.837  27.708  1.00  0.00     0.031 C 
ATOM     33  C   UNL A   1      37.074  31.575  31.550  1.00  0.00     0.029 A 
ATOM     34  N   UNL A   1      39.023  30.515  31.821  1.00  0.00    -0.354 N 
ATOM     35  C   UNL A   1      40.630  27.962  28.741  1.00  0.00     0.074 A 
ATOM     36  C   UNL A   1      39.835  28.040  27.535  1.00  0.00     0.031 C 
ATOM     37  C   UNL A   1      37.552  31.916  32.755  1.00  0.00     0.029 A 
ATOM     38  C   UNL A   1      38.792  31.185  32.996  1.00  0.00     0.049 A 
ATOM     39  H   UNL A   1      39.833  29.980  31.654  1.00  0.00     0.167 HD
ATOM     40  C   UNL A   1      41.772  27.244  28.860  1.00  0.00     0.037 A 
ATOM     41  C   UNL A   1      39.471  31.174  34.158  1.00  0.00     0.037 A 
ATOM     42  C   UNL A   1      42.573  27.182  30.054  1.00  0.00     0.049 A 
ATOM     43  C   UNL A   1      40.689  30.309  34.294  1.00  0.00     0.074 A 
ATOM     44  C   UNL A   1      43.755  26.494  30.266  1.00  0.00     0.029 A 
ATOM     45  N   UNL A   1      42.271  27.837  31.238  1.00  0.00    -0.354 N 
ATOM     46  N   UNL A   1      41.256  29.539  33.399  1.00  0.00    -0.248 NA
ATOM     47  C   UNL A   1      41.347  30.292  35.608  1.00  0.00     0.031 C 
ATOM     48  C   UNL A   1      44.151  26.704  31.591  1.00  0.00     0.029 A 
ATOM     49  C   UNL A   1      43.234  27.553  32.191  1.00  0.00     0.049 A 
ATOM     50  H   UNL A   1      41.489  28.418  31.379  1.00  0.00     0.167 HD
ATOM     51  C   UNL A   1      42.338  28.949  34.035  1.00  0.00     0.074 A 
ATOM     52  C   UNL A   1      42.358  29.461  35.390  1.00  0.00     0.031 C 
ATOM     53  C   UNL A   1      43.233  28.061  33.538  1.00  0.00     0.037 A 
BRANCH  40  54
ATOM     54  C   UNL A   1      42.221  26.440  27.677  1.00  0.00     0.064 A 
ATOM     55  C   UNL A   1      41.749  25.132  27.492  1.00  0.00     0.173 A 
ATOM     56  C   UNL A   1      43.175  26.929  26.774  1.00  0.00     0.173 A 
ATOM     57  F   UNL A   1      40.840  24.616  28.332  1.00  0.00    -0.203 F 
ATOM     58  C   UNL A   1      42.226  24.338  26.453  1.00  0.00     0.198 A 
ATOM     59  C   UNL A   1      43.637  26.139  25.724  1.00  0.00     0.198 A 
ATOM     60  F   UNL A   1      43.649  28.177  26.904  1.00  0.00    -0.203 F 
ATOM     61  F   UNL A   1      41.784  23.080  26.312  1.00  0.00    -0.200 F 
ATOM     62  C   UNL A   1      43.170  24.842  25.569  1.00  0.00     0.200 A 
ATOM     63  F   UNL A   1      44.536  26.632  24.861  1.00  0.00    -0.200 F 
ATOM     64  F   UNL A   1      43.628  24.077  24.570  1.00  0.00    -0.200 F 
ENDBRANCH  40  54
BRANCH  41  65
ATOM     65  C   UNL A   1      38.974  31.992  35.292  1.00  0.00     0.064 A 
ATOM     66  C   UNL A   1      39.301  33.351  35.408  1.00  0.00     0.173 A 
ATOM     67  C   UNL A   1      38.216  31.410  36.315  1.00  0.00     0.173 A 
ATOM     68  F   UNL A   1      40.027  33.950  34.452  1.00  0.00    -0.203 F 
ATOM     69  C   UNL A   1      38.917  34.090  36.523  1.00  0.00     0.198 A 
ATOM     70  C   UNL A   1      37.811  32.157  37.420  1.00  0.00     0.198 A 
ATOM     71  F   UNL A   1      37.860  30.119  36.234  1.00  0.00    -0.203 F 
ATOM     72  F   UNL A   1      39.280  35.375  36.630  1.00  0.00    -0.200 F 
ATOM     73  C   UNL A   1      38.172  33.491  37.528  1.00  0.00     0.200 A 
ATOM     74  F   UNL A   1      37.076  31.582  38.380  1.00  0.00    -0.200 F 
ATOM     75  F   UNL A   1      37.803  34.203  38.602  1.00  0.00    -0.200 F 
ENDBRANCH  41  65
BRANCH  53  76
ATOM     76  C   UNL A   1      44.315  27.589  34.458  1.00  0.00     0.064 A 
ATOM     77  C   UNL A   1      45.520  28.302  34.564  1.00  0.00     0.173 A 
ATOM     78  C   UNL A   1      44.183  26.401  35.189  1.00  0.00     0.173 A 
ATOM     79  F   UNL A   1      45.694  29.441  33.878  1.00  0.00    -0.203 F 
ATOM     80  C   UNL A   1      46.557  27.832  35.363  1.00  0.00     0.198 A 
ATOM     81  C   UNL A   1      45.216  25.946  36.004  1.00  0.00     0.198 A 
ATOM     82  F   UNL A   1      43.043  25.696  35.129  1.00  0.00    -0.203 F 
ATOM     83  F   UNL A   1      47.708  28.516  35.433  1.00  0.00    -0.200 F 
ATOM     84  C   UNL A   1      46.404  26.658  36.084  1.00  0.00     0.200 A 
ATOM     85  F   UNL A   1      45.059  24.823  36.717  1.00  0.00    -0.200 F 
ATOM     86  F   UNL A   1      47.401  26.213  36.862  1.00  0.00    -0.200 F 
ENDBRANCH  53  76
ENDBRANCH  27  28
ENDBRANCH  20  22
ENDBRANCH  19  20
ENDBRANCH  18  19
ENDBRANCH   1  18
TORSDOF 15
ENDMDL
