MODEL 1
REMARK VINA RESULT:     -12.1      0.000      0.000
REMARK SMILES C[C@@H](Nc1ccc(C(=O)OCCOC(=O)c2ccc(-c3c4nc(c(-c5c(F)c(F)c(F)c(F)c5F)c5ccc([nH]5)c(-c5c(F)c(F)c(F)c(F)c5F)c5nc(c(-c6c(F)c(F)c(F)c(F)c6F)c6ccc3[nH]6)C=C5)C=C4)cc2)cc1)C1CC[NH+](C)CC1
REMARK SMILES IDX 11 1 10 2 8 3 9 4 7 5 4 6 5 7 80 8 6 9 79 10 3 11 2 13 1 14
REMARK SMILES IDX 81 15 82 16 87 17 83 18 86 19 84 20 85 21 12 23 13 24 14 25
REMARK SMILES IDX 15 26 16 27 17 28 78 29 18 30 77 31 19 32 20 33 21 34 71 35
REMARK SMILES IDX 22 36 76 37 70 38 72 39 23 40 75 41 69 42 68 43 24 45 56 46
REMARK SMILES IDX 36 47 55 48 37 49 40 50 54 51 73 52 38 53 39 54 53 56 74 57
REMARK SMILES IDX 41 58 25 59 26 60 34 61 27 62 28 63 32 64 35 65 29 66 30 67
REMARK SMILES IDX 33 68 31 69 57 70 58 71 66 72 59 73 60 74 64 75 67 76 61 77
REMARK SMILES IDX 62 78 65 79 63 80 42 81 43 82 51 83 44 84 45 85 49 86 52 87
REMARK SMILES IDX 46 88 47 89 50 90 48 91
REMARK H PARENT 3 12 84 22 72 44 40 55
REMARK Flexibility Score: inf
ROOT
ATOM      1  C   UNL A   1      31.224  29.417  24.753  1.00  0.00     0.275 C 
ENDROOT
BRANCH   1   2
ATOM      2  O   UNL A   1      31.976  28.418  24.038  1.00  0.00    -0.458 OA
BRANCH   2   3
ATOM      3  C   UNL A   1      31.663  27.129  24.323  1.00  0.00     0.338 C 
ATOM      4  O   UNL A   1      30.556  26.685  24.555  1.00  0.00    -0.246 OA
BRANCH   3   5
ATOM      5  C   UNL A   1      32.884  26.279  24.310  1.00  0.00     0.060 A 
ATOM      6  C   UNL A   1      34.710  24.180  24.375  1.00  0.00     0.034 A 
ATOM      7  C   UNL A   1      34.095  24.533  23.173  1.00  0.00     0.026 A 
ATOM      8  C   UNL A   1      34.625  25.061  25.452  1.00  0.00     0.026 A 
ATOM      9  C   UNL A   1      33.162  25.567  23.140  1.00  0.00     0.018 A 
ATOM     10  C   UNL A   1      33.708  26.117  25.429  1.00  0.00     0.018 A 
BRANCH   6  11
ATOM     11  N   UNL A   1      35.446  23.034  24.448  1.00  0.00    -0.382 N 
ATOM     12  H   UNL A   1      36.017  22.849  23.668  1.00  0.00     0.160 HD
BRANCH  11  13
ATOM     13  C   UNL A   1      35.511  22.039  25.524  1.00  0.00     0.079 C 
ATOM     14  C   UNL A   1      36.679  21.099  25.159  1.00  0.00     0.031 C 
BRANCH  13  15
ATOM     15  C   UNL A   1      34.287  21.163  25.977  1.00  0.00     0.022 C 
ATOM     16  C   UNL A   1      33.059  20.902  25.097  1.00  0.00     0.067 C 
ATOM     17  C   UNL A   1      33.819  21.517  27.398  1.00  0.00     0.067 C 
ATOM     18  C   UNL A   1      31.830  21.791  25.343  1.00  0.00     0.262 C 
ATOM     19  C   UNL A   1      32.836  22.673  27.397  1.00  0.00     0.262 C 
ATOM     20  N   UNL A   1      31.606  22.298  26.701  1.00  0.00    -0.337 N 
ATOM     21  C   UNL A   1      30.686  23.441  26.680  1.00  0.00     0.332 C 
ATOM     22  H   UNL A   1      31.194  21.522  27.221  1.00  0.00     0.347 HD
ENDBRANCH  13  15
ENDBRANCH  11  13
ENDBRANCH   6  11
ENDBRANCH   3   5
ENDBRANCH   2   3
ENDBRANCH   1   2
BRANCH   1  23
ATOM     23  C   UNL A   1      31.772  29.537  26.172  1.00  0.00     0.275 C 
BRANCH  23  24
ATOM     24  O   UNL A   1      33.108  30.073  26.107  1.00  0.00    -0.458 OA
BRANCH  24  25
ATOM     25  C   UNL A   1      33.378  31.101  26.942  1.00  0.00     0.338 C 
ATOM     26  O   UNL A   1      32.647  32.026  27.256  1.00  0.00    -0.246 OA
BRANCH  25  27
ATOM     27  C   UNL A   1      34.712  30.901  27.530  1.00  0.00     0.060 A 
ATOM     28  C   UNL A   1      35.113  29.606  27.844  1.00  0.00     0.016 A 
ATOM     29  C   UNL A   1      35.508  31.980  27.899  1.00  0.00     0.016 A 
ATOM     30  C   UNL A   1      36.254  29.371  28.593  1.00  0.00     0.010 A 
ATOM     31  C   UNL A   1      36.721  31.739  28.559  1.00  0.00     0.010 A 
ATOM     32  C   UNL A   1      37.092  30.432  28.938  1.00  0.00    -0.014 A 
BRANCH  32  33
ATOM     33  C   UNL A   1      38.307  30.175  29.755  1.00  0.00     0.031 A 
ATOM     34  C   UNL A   1      39.424  29.359  29.173  1.00  0.00     0.074 A 
ATOM     35  C   UNL A   1      38.440  30.703  30.989  1.00  0.00     0.049 A 
ATOM     36  N   UNL A   1      40.440  28.795  29.773  1.00  0.00    -0.248 NA
ATOM     37  C   UNL A   1      39.382  29.132  27.720  1.00  0.00     0.031 C 
ATOM     38  C   UNL A   1      37.482  31.600  31.640  1.00  0.00     0.029 A 
ATOM     39  N   UNL A   1      39.446  30.572  31.914  1.00  0.00    -0.354 N 
ATOM     40  C   UNL A   1      41.105  28.077  28.789  1.00  0.00     0.074 A 
ATOM     41  C   UNL A   1      40.393  28.293  27.548  1.00  0.00     0.031 C 
ATOM     42  C   UNL A   1      37.968  31.974  32.833  1.00  0.00     0.029 A 
ATOM     43  C   UNL A   1      39.210  31.254  33.083  1.00  0.00     0.049 A 
ATOM     44  H   UNL A   1      40.259  30.040  31.754  1.00  0.00     0.167 HD
ATOM     45  C   UNL A   1      42.201  27.294  28.925  1.00  0.00     0.037 A 
ATOM     46  C   UNL A   1      39.884  31.251  34.248  1.00  0.00     0.037 A 
ATOM     47  C   UNL A   1      42.939  27.154  30.151  1.00  0.00     0.049 A 
ATOM     48  C   UNL A   1      41.086  30.358  34.384  1.00  0.00     0.074 A 
ATOM     49  C   UNL A   1      44.055  26.378  30.409  1.00  0.00     0.029 A 
ATOM     50  N   UNL A   1      42.647  27.837  31.324  1.00  0.00    -0.354 N 
ATOM     51  N   UNL A   1      41.640  29.577  33.490  1.00  0.00    -0.248 NA
ATOM     52  C   UNL A   1      41.734  30.318  35.702  1.00  0.00     0.031 C 
ATOM     53  C   UNL A   1      44.422  26.572  31.745  1.00  0.00     0.029 A 
ATOM     54  C   UNL A   1      43.561  27.499  32.308  1.00  0.00     0.049 A 
ATOM     55  H   UNL A   1      41.899  28.468  31.440  1.00  0.00     0.167 HD
ATOM     56  C   UNL A   1      42.702  28.956  34.130  1.00  0.00     0.074 A 
ATOM     57  C   UNL A   1      42.729  29.469  35.485  1.00  0.00     0.031 C 
ATOM     58  C   UNL A   1      43.570  28.036  33.645  1.00  0.00     0.037 A 
BRANCH  45  59
ATOM     59  C   UNL A   1      42.628  26.488  27.734  1.00  0.00     0.064 A 
ATOM     60  C   UNL A   1      42.102  25.218  27.459  1.00  0.00     0.173 A 
ATOM     61  C   UNL A   1      43.580  27.010  26.843  1.00  0.00     0.173 A 
ATOM     62  F   UNL A   1      41.204  24.666  28.289  1.00  0.00    -0.203 F 
ATOM     63  C   UNL A   1      42.531  24.490  26.352  1.00  0.00     0.198 A 
ATOM     64  C   UNL A   1      43.986  26.291  25.723  1.00  0.00     0.198 A 
ATOM     65  F   UNL A   1      44.115  28.222  27.059  1.00  0.00    -0.203 F 
ATOM     66  F   UNL A   1      42.053  23.258  26.137  1.00  0.00    -0.200 F 
ATOM     67  C   UNL A   1      43.469  25.028  25.482  1.00  0.00     0.200 A 
ATOM     68  F   UNL A   1      44.885  26.820  24.880  1.00  0.00    -0.200 F 
ATOM     69  F   UNL A   1      43.879  24.327  24.417  1.00  0.00    -0.200 F 
ENDBRANCH  45  59
BRANCH  46  70
ATOM     70  C   UNL A   1      39.396  32.067  35.392  1.00  0.00     0.064 A 
ATOM     71  C   UNL A   1      38.542  31.519  36.359  1.00  0.00     0.173 A 
ATOM     72  C   UNL A   1      39.782  33.408  35.549  1.00  0.00     0.173 A 
ATOM     73  F   UNL A   1      38.120  30.252  36.238  1.00  0.00    -0.203 F 
ATOM     74  C   UNL A   1      38.091  32.282  37.435  1.00  0.00     0.198 A 
ATOM     75  C   UNL A   1      39.358  34.158  36.643  1.00  0.00     0.198 A 
ATOM     76  F   UNL A   1      40.593  33.984  34.649  1.00  0.00    -0.203 F 
ATOM     77  F   UNL A   1      37.245  31.746  38.326  1.00  0.00    -0.200 F 
ATOM     78  C   UNL A   1      38.508  33.597  37.583  1.00  0.00     0.200 A 
ATOM     79  F   UNL A   1      39.776  35.423  36.788  1.00  0.00    -0.200 F 
ATOM     80  F   UNL A   1      38.084  34.324  38.625  1.00  0.00    -0.200 F 
ENDBRANCH  46  70
BRANCH  58  81
ATOM     81  C   UNL A   1      44.643  27.556  34.575  1.00  0.00     0.064 A 
ATOM     82  C   UNL A   1      44.467  26.412  35.366  1.00  0.00     0.173 A 
ATOM     83  C   UNL A   1      45.874  28.224  34.640  1.00  0.00     0.173 A 
ATOM     84  F   UNL A   1      43.300  25.751  35.349  1.00  0.00    -0.203 F 
ATOM     85  C   UNL A   1      45.483  25.963  36.205  1.00  0.00     0.198 A 
ATOM     86  C   UNL A   1      46.896  27.759  35.461  1.00  0.00     0.198 A 
ATOM     87  F   UNL A   1      46.087  29.320  33.897  1.00  0.00    -0.203 F 
ATOM     88  F   UNL A   1      45.284  24.891  36.981  1.00  0.00    -0.200 F 
ATOM     89  C   UNL A   1      46.698  26.633  36.246  1.00  0.00     0.200 A 
ATOM     90  F   UNL A   1      48.071  28.401  35.492  1.00  0.00    -0.200 F 
ATOM     91  F   UNL A   1      47.678  26.195  37.049  1.00  0.00    -0.200 F 
ENDBRANCH  58  81
ENDBRANCH  32  33
ENDBRANCH  25  27
ENDBRANCH  24  25
ENDBRANCH  23  24
ENDBRANCH   1  23
TORSDOF 14
ENDMDL
MODEL 2
REMARK VINA RESULT:     -11.9      0.507      1.761
REMARK SMILES C[C@@H](Nc1ccc(C(=O)OCCOC(=O)c2ccc(-c3c4nc(c(-c5c(F)c(F)c(F)c(F)c5F)c5ccc([nH]5)c(-c5c(F)c(F)c(F)c(F)c5F)c5nc(c(-c6c(F)c(F)c(F)c(F)c6F)c6ccc3[nH]6)C=C5)C=C4)cc2)cc1)C1CC[NH+](C)CC1
REMARK SMILES IDX 11 1 10 2 8 3 9 4 7 5 4 6 5 7 80 8 6 9 79 10 3 11 2 13 1 14
REMARK SMILES IDX 81 15 82 16 87 17 83 18 86 19 84 20 85 21 12 23 13 24 14 25
REMARK SMILES IDX 15 26 16 27 17 28 78 29 18 30 77 31 19 32 20 33 21 34 71 35
REMARK SMILES IDX 22 36 76 37 70 38 72 39 23 40 75 41 69 42 68 43 24 45 56 46
REMARK SMILES IDX 36 47 55 48 37 49 40 50 54 51 73 52 38 53 39 54 53 56 74 57
REMARK SMILES IDX 41 58 25 59 26 60 34 61 27 62 28 63 32 64 35 65 29 66 30 67
REMARK SMILES IDX 33 68 31 69 57 70 58 71 66 72 59 73 60 74 64 75 67 76 61 77
REMARK SMILES IDX 62 78 65 79 63 80 42 81 43 82 51 83 44 84 45 85 49 86 52 87
REMARK SMILES IDX 46 88 47 89 50 90 48 91
REMARK H PARENT 3 12 84 22 72 44 40 55
REMARK Flexibility Score: inf
ROOT
ATOM      1  C   UNL A   1      31.403  29.389  24.965  1.00  0.00     0.275 C 
ENDROOT
BRANCH   1   2
ATOM      2  O   UNL A   1      32.562  28.790  24.356  1.00  0.00    -0.458 OA
BRANCH   2   3
ATOM      3  C   UNL A   1      32.313  27.803  23.459  1.00  0.00     0.338 C 
ATOM      4  O   UNL A   1      31.668  27.900  22.434  1.00  0.00    -0.246 OA
BRANCH   3   5
ATOM      5  C   UNL A   1      32.959  26.533  23.887  1.00  0.00     0.060 A 
ATOM      6  C   UNL A   1      34.744  24.486  24.494  1.00  0.00     0.034 A 
ATOM      7  C   UNL A   1      34.478  25.482  25.435  1.00  0.00     0.026 A 
ATOM      8  C   UNL A   1      33.902  24.368  23.390  1.00  0.00     0.026 A 
ATOM      9  C   UNL A   1      33.605  26.522  25.126  1.00  0.00     0.018 A 
ATOM     10  C   UNL A   1      33.003  25.393  23.076  1.00  0.00     0.018 A 
BRANCH   6  11
ATOM     11  N   UNL A   1      35.761  23.603  24.712  1.00  0.00    -0.382 N 
ATOM     12  H   UNL A   1      36.466  23.593  24.025  1.00  0.00     0.160 HD
BRANCH  11  13
ATOM     13  C   UNL A   1      35.955  22.668  25.825  1.00  0.00     0.079 C 
ATOM     14  C   UNL A   1      37.380  22.101  25.655  1.00  0.00     0.031 C 
BRANCH  13  15
ATOM     15  C   UNL A   1      34.979  21.478  26.147  1.00  0.00     0.022 C 
ATOM     16  C   UNL A   1      34.090  20.804  25.095  1.00  0.00     0.067 C 
ATOM     17  C   UNL A   1      34.148  21.741  27.412  1.00  0.00     0.067 C 
ATOM     18  C   UNL A   1      32.630  21.278  25.018  1.00  0.00     0.262 C 
ATOM     19  C   UNL A   1      32.889  22.532  27.107  1.00  0.00     0.262 C 
ATOM     20  N   UNL A   1      31.994  21.758  26.249  1.00  0.00    -0.337 N 
ATOM     21  C   UNL A   1      30.802  22.556  25.937  1.00  0.00     0.332 C 
ATOM     22  H   UNL A   1      31.732  20.920  26.770  1.00  0.00     0.347 HD
ENDBRANCH  13  15
ENDBRANCH  11  13
ENDBRANCH   6  11
ENDBRANCH   3   5
ENDBRANCH   2   3
ENDBRANCH   1   2
BRANCH   1  23
ATOM     23  C   UNL A   1      31.768  29.883  26.362  1.00  0.00     0.275 C 
BRANCH  23  24
ATOM     24  O   UNL A   1      33.179  30.170  26.395  1.00  0.00    -0.458 OA
BRANCH  24  25
ATOM     25  C   UNL A   1      33.552  31.244  27.127  1.00  0.00     0.338 C 
ATOM     26  O   UNL A   1      32.902  32.246  27.376  1.00  0.00    -0.246 OA
BRANCH  25  27
ATOM     27  C   UNL A   1      34.887  30.995  27.695  1.00  0.00     0.060 A 
ATOM     28  C   UNL A   1      35.223  29.694  28.058  1.00  0.00     0.016 A 
ATOM     29  C   UNL A   1      35.749  32.043  27.999  1.00  0.00     0.016 A 
ATOM     30  C   UNL A   1      36.367  29.429  28.793  1.00  0.00     0.010 A 
ATOM     31  C   UNL A   1      36.961  31.764  28.644  1.00  0.00     0.010 A 
ATOM     32  C   UNL A   1      37.269  30.456  29.072  1.00  0.00    -0.014 A 
BRANCH  32  33
ATOM     33  C   UNL A   1      38.487  30.167  29.874  1.00  0.00     0.031 A 
ATOM     34  C   UNL A   1      39.579  29.329  29.276  1.00  0.00     0.074 A 
ATOM     35  C   UNL A   1      38.646  30.686  31.109  1.00  0.00     0.049 A 
ATOM     36  N   UNL A   1      40.588  28.738  29.861  1.00  0.00    -0.248 NA
ATOM     37  C   UNL A   1      39.515  29.110  27.822  1.00  0.00     0.031 C 
ATOM     38  C   UNL A   1      37.716  31.600  31.776  1.00  0.00     0.029 A 
ATOM     39  N   UNL A   1      39.660  30.527  32.021  1.00  0.00    -0.354 N 
ATOM     40  C   UNL A   1      41.226  28.011  28.866  1.00  0.00     0.074 A 
ATOM     41  C   UNL A   1      40.506  28.249  27.634  1.00  0.00     0.031 C 
ATOM     42  C   UNL A   1      38.224  31.957  32.965  1.00  0.00     0.029 A 
ATOM     43  C   UNL A   1      39.452  31.208  33.196  1.00  0.00     0.049 A 
ATOM     44  H   UNL A   1      40.458  29.978  31.850  1.00  0.00     0.167 HD
ATOM     45  C   UNL A   1      42.305  27.203  28.985  1.00  0.00     0.037 A 
ATOM     46  C   UNL A   1      40.140  31.183  34.354  1.00  0.00     0.037 A 
ATOM     47  C   UNL A   1      43.054  27.040  30.203  1.00  0.00     0.049 A 
ATOM     48  C   UNL A   1      41.322  30.263  34.472  1.00  0.00     0.074 A 
ATOM     49  C   UNL A   1      44.155  26.237  30.443  1.00  0.00     0.029 A 
ATOM     50  N   UNL A   1      42.791  27.723  31.382  1.00  0.00    -0.354 N 
ATOM     51  N   UNL A   1      41.848  29.475  33.568  1.00  0.00    -0.248 NA
ATOM     52  C   UNL A   1      41.984  30.201  35.782  1.00  0.00     0.031 C 
ATOM     53  C   UNL A   1      44.542  26.416  31.777  1.00  0.00     0.029 A 
ATOM     54  C   UNL A   1      43.708  27.359  32.354  1.00  0.00     0.049 A 
ATOM     55  H   UNL A   1      42.059  28.370  31.510  1.00  0.00     0.167 HD
ATOM     56  C   UNL A   1      42.903  28.826  34.192  1.00  0.00     0.074 A 
ATOM     57  C   UNL A   1      42.957  29.332  35.550  1.00  0.00     0.031 C 
ATOM     58  C   UNL A   1      43.745  27.889  33.693  1.00  0.00     0.037 A 
BRANCH  45  59
ATOM     59  C   UNL A   1      42.700  26.393  27.786  1.00  0.00     0.064 A 
ATOM     60  C   UNL A   1      42.145  25.135  27.513  1.00  0.00     0.173 A 
ATOM     61  C   UNL A   1      43.651  26.900  26.884  1.00  0.00     0.173 A 
ATOM     62  F   UNL A   1      41.248  24.597  28.353  1.00  0.00    -0.203 F 
ATOM     63  C   UNL A   1      42.546  24.403  26.398  1.00  0.00     0.198 A 
ATOM     64  C   UNL A   1      44.028  26.178  25.756  1.00  0.00     0.198 A 
ATOM     65  F   UNL A   1      44.213  28.100  27.097  1.00  0.00    -0.203 F 
ATOM     66  F   UNL A   1      42.040  23.182  26.184  1.00  0.00    -0.200 F 
ATOM     67  C   UNL A   1      43.482  24.927  25.518  1.00  0.00     0.200 A 
ATOM     68  F   UNL A   1      44.925  26.692  24.903  1.00  0.00    -0.200 F 
ATOM     69  F   UNL A   1      43.864  24.221  24.444  1.00  0.00    -0.200 F 
ENDBRANCH  45  59
BRANCH  46  70
ATOM     70  C   UNL A   1      39.683  32.005  35.508  1.00  0.00     0.064 A 
ATOM     71  C   UNL A   1      40.222  33.276  35.748  1.00  0.00     0.173 A 
ATOM     72  C   UNL A   1      38.691  31.541  36.387  1.00  0.00     0.173 A 
ATOM     73  F   UNL A   1      41.194  33.752  34.956  1.00  0.00    -0.203 F 
ATOM     74  C   UNL A   1      39.789  34.048  36.824  1.00  0.00     0.198 A 
ATOM     75  C   UNL A   1      38.235  32.328  37.441  1.00  0.00     0.198 A 
ATOM     76  F   UNL A   1      38.146  30.329  36.206  1.00  0.00    -0.203 F 
ATOM     77  F   UNL A   1      40.347  35.245  37.055  1.00  0.00    -0.200 F 
ATOM     78  C   UNL A   1      38.789  33.580  37.663  1.00  0.00     0.200 A 
ATOM     79  F   UNL A   1      37.258  31.876  38.238  1.00  0.00    -0.200 F 
ATOM     80  F   UNL A   1      38.364  34.329  38.689  1.00  0.00    -0.200 F 
ENDBRANCH  46  70
BRANCH  58  81
ATOM     81  C   UNL A   1      44.816  27.380  34.609  1.00  0.00     0.064 A 
ATOM     82  C   UNL A   1      46.054  28.028  34.720  1.00  0.00     0.173 A 
ATOM     83  C   UNL A   1      44.581  26.256  35.414  1.00  0.00     0.173 A 
ATOM     84  F   UNL A   1      46.327  29.097  33.957  1.00  0.00    -0.203 F 
ATOM     85  C   UNL A   1      47.028  27.557  35.596  1.00  0.00     0.198 A 
ATOM     86  C   UNL A   1      45.549  25.803  36.306  1.00  0.00     0.198 A 
ATOM     87  F   UNL A   1      43.410  25.607  35.344  1.00  0.00    -0.203 F 
ATOM     88  F   UNL A   1      48.218  28.168  35.661  1.00  0.00    -0.200 F 
ATOM     89  C   UNL A   1      46.771  26.451  36.392  1.00  0.00     0.200 A 
ATOM     90  F   UNL A   1      45.296  24.740  37.081  1.00  0.00    -0.200 F 
ATOM     91  F   UNL A   1      47.708  26.004  37.240  1.00  0.00    -0.200 F 
ENDBRANCH  58  81
ENDBRANCH  32  33
ENDBRANCH  25  27
ENDBRANCH  24  25
ENDBRANCH  23  24
ENDBRANCH   1  23
TORSDOF 14
ENDMDL
MODEL 3
REMARK VINA RESULT:     -11.9      0.894      2.098
REMARK SMILES C[C@@H](Nc1ccc(C(=O)OCCOC(=O)c2ccc(-c3c4nc(c(-c5c(F)c(F)c(F)c(F)c5F)c5ccc([nH]5)c(-c5c(F)c(F)c(F)c(F)c5F)c5nc(c(-c6c(F)c(F)c(F)c(F)c6F)c6ccc3[nH]6)C=C5)C=C4)cc2)cc1)C1CC[NH+](C)CC1
REMARK SMILES IDX 11 1 10 2 8 3 9 4 7 5 4 6 5 7 80 8 6 9 79 10 3 11 2 13 1 14
REMARK SMILES IDX 81 15 82 16 87 17 83 18 86 19 84 20 85 21 12 23 13 24 14 25
REMARK SMILES IDX 15 26 16 27 17 28 78 29 18 30 77 31 19 32 20 33 21 34 71 35
REMARK SMILES IDX 22 36 76 37 70 38 72 39 23 40 75 41 69 42 68 43 24 45 56 46
REMARK SMILES IDX 36 47 55 48 37 49 40 50 54 51 73 52 38 53 39 54 53 56 74 57
REMARK SMILES IDX 41 58 25 59 26 60 34 61 27 62 28 63 32 64 35 65 29 66 30 67
REMARK SMILES IDX 33 68 31 69 57 70 58 71 66 72 59 73 60 74 64 75 67 76 61 77
REMARK SMILES IDX 62 78 65 79 63 80 42 81 43 82 51 83 44 84 45 85 49 86 52 87
REMARK SMILES IDX 46 88 47 89 50 90 48 91
REMARK H PARENT 3 12 84 22 72 44 40 55
REMARK Flexibility Score: inf
ROOT
ATOM      1  C   UNL A   1      31.097  29.499  24.656  1.00  0.00     0.275 C 
ENDROOT
BRANCH   1   2
ATOM      2  O   UNL A   1      31.770  28.725  23.645  1.00  0.00    -0.458 OA
BRANCH   2   3
ATOM      3  C   UNL A   1      30.979  28.218  22.666  1.00  0.00     0.338 C 
ATOM      4  O   UNL A   1      30.223  28.842  21.947  1.00  0.00    -0.246 OA
BRANCH   3   5
ATOM      5  C   UNL A   1      31.158  26.745  22.560  1.00  0.00     0.060 A 
ATOM      6  C   UNL A   1      31.810  24.071  22.971  1.00  0.00     0.034 A 
ATOM      7  C   UNL A   1      30.630  24.592  23.504  1.00  0.00     0.026 A 
ATOM      8  C   UNL A   1      32.490  24.811  22.006  1.00  0.00     0.026 A 
ATOM      9  C   UNL A   1      30.312  25.935  23.322  1.00  0.00     0.018 A 
ATOM     10  C   UNL A   1      32.171  26.157  21.794  1.00  0.00     0.018 A 
BRANCH   6  11
ATOM     11  N   UNL A   1      32.227  22.825  23.338  1.00  0.00    -0.382 N 
ATOM     12  H   UNL A   1      31.996  22.102  22.712  1.00  0.00     0.160 HD
BRANCH  11  13
ATOM     13  C   UNL A   1      32.971  22.409  24.531  1.00  0.00     0.079 C 
ATOM     14  C   UNL A   1      31.937  21.742  25.462  1.00  0.00     0.031 C 
BRANCH  13  15
ATOM     15  C   UNL A   1      33.862  23.379  25.388  1.00  0.00     0.022 C 
ATOM     16  C   UNL A   1      34.963  24.265  24.793  1.00  0.00     0.067 C 
ATOM     17  C   UNL A   1      34.397  22.700  26.659  1.00  0.00     0.067 C 
ATOM     18  C   UNL A   1      36.402  23.731  24.878  1.00  0.00     0.262 C 
ATOM     19  C   UNL A   1      35.687  21.944  26.395  1.00  0.00     0.262 C 
ATOM     20  N   UNL A   1      36.752  22.869  26.011  1.00  0.00    -0.337 N 
ATOM     21  C   UNL A   1      37.978  22.113  25.726  1.00  0.00     0.332 C 
ATOM     22  H   UNL A   1      36.900  23.497  26.801  1.00  0.00     0.347 HD
ENDBRANCH  13  15
ENDBRANCH  11  13
ENDBRANCH   6  11
ENDBRANCH   3   5
ENDBRANCH   2   3
ENDBRANCH   1   2
BRANCH   1  23
ATOM     23  C   UNL A   1      31.803  29.298  25.994  1.00  0.00     0.275 C 
BRANCH  23  24
ATOM     24  O   UNL A   1      33.090  29.942  25.938  1.00  0.00    -0.458 OA
BRANCH  24  25
ATOM     25  C   UNL A   1      33.303  30.927  26.838  1.00  0.00     0.338 C 
ATOM     26  O   UNL A   1      32.523  31.792  27.204  1.00  0.00    -0.246 OA
BRANCH  25  27
ATOM     27  C   UNL A   1      34.642  30.758  27.424  1.00  0.00     0.060 A 
ATOM     28  C   UNL A   1      35.092  29.469  27.696  1.00  0.00     0.016 A 
ATOM     29  C   UNL A   1      35.396  31.854  27.831  1.00  0.00     0.016 A 
ATOM     30  C   UNL A   1      36.239  29.254  28.440  1.00  0.00     0.010 A 
ATOM     31  C   UNL A   1      36.615  31.637  28.487  1.00  0.00     0.010 A 
ATOM     32  C   UNL A   1      37.035  30.334  28.823  1.00  0.00    -0.014 A 
BRANCH  32  33
ATOM     33  C   UNL A   1      38.258  30.096  29.635  1.00  0.00     0.031 A 
ATOM     34  C   UNL A   1      39.373  29.273  29.059  1.00  0.00     0.074 A 
ATOM     35  C   UNL A   1      38.399  30.648  30.857  1.00  0.00     0.049 A 
ATOM     36  N   UNL A   1      40.396  28.724  29.661  1.00  0.00    -0.248 NA
ATOM     37  C   UNL A   1      39.320  29.019  27.611  1.00  0.00     0.031 C 
ATOM     38  C   UNL A   1      37.443  31.552  31.500  1.00  0.00     0.029 A 
ATOM     39  N   UNL A   1      39.413  30.537  31.776  1.00  0.00    -0.354 N 
ATOM     40  C   UNL A   1      41.056  27.990  28.685  1.00  0.00     0.074 A 
ATOM     41  C   UNL A   1      40.334  28.180  27.446  1.00  0.00     0.031 C 
ATOM     42  C   UNL A   1      37.937  31.950  32.682  1.00  0.00     0.029 A 
ATOM     43  C   UNL A   1      39.183  31.240  32.935  1.00  0.00     0.049 A 
ATOM     44  H   UNL A   1      40.226  30.005  31.620  1.00  0.00     0.167 HD
ATOM     45  C   UNL A   1      42.156  27.214  28.827  1.00  0.00     0.037 A 
ATOM     46  C   UNL A   1      39.867  31.260  34.095  1.00  0.00     0.037 A 
ATOM     47  C   UNL A   1      42.904  27.100  30.049  1.00  0.00     0.049 A 
ATOM     48  C   UNL A   1      41.073  30.375  34.237  1.00  0.00     0.074 A 
ATOM     49  C   UNL A   1      44.025  26.331  30.312  1.00  0.00     0.029 A 
ATOM     50  N   UNL A   1      42.619  27.803  31.212  1.00  0.00    -0.354 N 
ATOM     51  N   UNL A   1      41.623  29.579  33.353  1.00  0.00    -0.248 NA
ATOM     52  C   UNL A   1      41.732  30.361  35.550  1.00  0.00     0.031 C 
ATOM     53  C   UNL A   1      44.402  26.552  31.642  1.00  0.00     0.029 A 
ATOM     54  C   UNL A   1      43.542  27.486  32.194  1.00  0.00     0.049 A 
ATOM     55  H   UNL A   1      41.870  28.433  31.322  1.00  0.00     0.167 HD
ATOM     56  C   UNL A   1      42.692  28.974  33.996  1.00  0.00     0.074 A 
ATOM     57  C   UNL A   1      42.728  29.512  35.341  1.00  0.00     0.031 C 
ATOM     58  C   UNL A   1      43.560  28.048  33.521  1.00  0.00     0.037 A 
BRANCH  45  59
ATOM     59  C   UNL A   1      42.576  26.388  27.647  1.00  0.00     0.064 A 
ATOM     60  C   UNL A   1      41.997  25.144  27.358  1.00  0.00     0.173 A 
ATOM     61  C   UNL A   1      43.576  26.863  26.783  1.00  0.00     0.173 A 
ATOM     62  F   UNL A   1      41.052  24.636  28.163  1.00  0.00    -0.203 F 
ATOM     63  C   UNL A   1      42.422  24.395  26.262  1.00  0.00     0.198 A 
ATOM     64  C   UNL A   1      43.978  26.124  25.674  1.00  0.00     0.198 A 
ATOM     65  F   UNL A   1      44.163  28.047  27.014  1.00  0.00    -0.203 F 
ATOM     66  F   UNL A   1      41.891  23.187  26.033  1.00  0.00    -0.200 F 
ATOM     67  C   UNL A   1      43.408  24.887  25.419  1.00  0.00     0.200 A 
ATOM     68  F   UNL A   1      44.924  26.609  24.856  1.00  0.00    -0.200 F 
ATOM     69  F   UNL A   1      43.813  24.166  24.365  1.00  0.00    -0.200 F 
ENDBRANCH  45  59
BRANCH  46  70
ATOM     70  C   UNL A   1      39.385  32.096  35.227  1.00  0.00     0.064 A 
ATOM     71  C   UNL A   1      39.753  33.444  35.339  1.00  0.00     0.173 A 
ATOM     72  C   UNL A   1      38.539  31.568  36.215  1.00  0.00     0.173 A 
ATOM     73  F   UNL A   1      40.585  33.987  34.438  1.00  0.00    -0.203 F 
ATOM     74  C   UNL A   1      39.295  34.229  36.396  1.00  0.00     0.198 A 
ATOM     75  C   UNL A   1      38.055  32.363  37.251  1.00  0.00     0.198 A 
ATOM     76  F   UNL A   1      38.161  30.282  36.159  1.00  0.00    -0.203 F 
ATOM     77  F   UNL A   1      39.692  35.505  36.501  1.00  0.00    -0.200 F 
ATOM     78  C   UNL A   1      38.438  33.692  37.345  1.00  0.00     0.200 A 
ATOM     79  F   UNL A   1      37.215  31.842  38.156  1.00  0.00    -0.200 F 
ATOM     80  F   UNL A   1      37.988  34.451  38.352  1.00  0.00    -0.200 F 
ENDBRANCH  46  70
BRANCH  58  81
ATOM     81  C   UNL A   1      44.641  27.589  34.451  1.00  0.00     0.064 A 
ATOM     82  C   UNL A   1      44.476  26.459  35.266  1.00  0.00     0.173 A 
ATOM     83  C   UNL A   1      45.871  28.262  34.493  1.00  0.00     0.173 A 
ATOM     84  F   UNL A   1      43.311  25.795  35.270  1.00  0.00    -0.203 F 
ATOM     85  C   UNL A   1      45.501  26.030  36.104  1.00  0.00     0.198 A 
ATOM     86  C   UNL A   1      46.901  27.815  35.315  1.00  0.00     0.198 A 
ATOM     87  F   UNL A   1      46.075  29.345  33.728  1.00  0.00    -0.203 F 
ATOM     88  F   UNL A   1      45.311  24.971  36.902  1.00  0.00    -0.200 F 
ATOM     89  C   UNL A   1      46.713  26.704  36.122  1.00  0.00     0.200 A 
ATOM     90  F   UNL A   1      48.074  28.462  35.324  1.00  0.00    -0.200 F 
ATOM     91  F   UNL A   1      47.701  26.284  36.925  1.00  0.00    -0.200 F 
ENDBRANCH  58  81
ENDBRANCH  32  33
ENDBRANCH  25  27
ENDBRANCH  24  25
ENDBRANCH  23  24
ENDBRANCH   1  23
TORSDOF 14
ENDMDL
