MODEL 1
REMARK VINA RESULT:     -14.2      0.000      0.000
REMARK SMILES CN1C(=O)/C(=C(\SC2=[NH+][C@@H]3N=c4ccccc4=C3N=N2)C(=O)OCCOC(=O)c2ccc(-c3c4nc(c(-c5c(F)c(F)c(F)c(F)c5F)c5ccc([nH]5)c(-c5c(F)c(F)c(F)c(F)c5F)c5nc(c(-c6c(F)c(F)c(F)c(F)c6F)c6ccc3[nH]6)C=C5)C=C4)cc2)c2ccccc21
REMARK SMILES IDX 24 1 23 2 21 3 22 4 6 5 1 6 2 7 3 8 97 9 4 10 5 11 92 12
REMARK SMILES IDX 96 13 93 14 95 15 94 16 7 17 8 18 9 19 20 20 10 21 19 23
REMARK SMILES IDX 11 24 18 25 12 26 17 27 13 28 16 29 14 30 15 31 25 32 26 33
REMARK SMILES IDX 27 34 28 35 29 36 30 37 91 38 31 39 90 40 32 41 33 42 34 43
REMARK SMILES IDX 84 44 35 45 89 46 83 47 85 48 36 49 88 50 82 51 81 52 37 54
REMARK SMILES IDX 69 55 49 56 68 57 50 58 53 59 67 60 86 61 51 62 52 63 66 65
REMARK SMILES IDX 87 66 54 67 38 68 39 69 47 70 40 71 41 72 45 73 48 74 42 75
REMARK SMILES IDX 43 76 46 77 44 78 70 79 71 80 79 81 72 82 73 83 77 84 80 85
REMARK SMILES IDX 74 86 75 87 78 88 76 89 55 90 56 91 64 92 57 93 58 94 62 95
REMARK SMILES IDX 65 96 59 97 60 98 63 99 61 100
REMARK H PARENT 9 22 85 53 53 64
REMARK Flexibility Score: inf
ROOT
ATOM      1  C   UNL A   1      33.625  27.444  24.925  1.00  0.00     0.275 C 
ENDROOT
BRANCH   1   2
ATOM      2  O   UNL A   1      32.999  26.144  24.857  1.00  0.00    -0.458 OA
BRANCH   2   3
ATOM      3  C   UNL A   1      33.190  25.465  23.694  1.00  0.00     0.346 C 
ATOM      4  O   UNL A   1      33.730  25.923  22.694  1.00  0.00    -0.246 OA
BRANCH   3   5
ATOM      5  C   UNL A   1      32.573  24.102  23.719  1.00  0.00     0.118 C 
ATOM      6  C   UNL A   1      33.526  19.538  24.931  1.00  0.00     0.153 C 
ATOM      7  N   UNL A   1      33.785  20.892  24.519  1.00  0.00    -0.311 N 
ATOM      8  C   UNL A   1      33.005  21.608  23.614  1.00  0.00     0.260 C 
ATOM      9  C   UNL A   1      34.897  21.655  24.891  1.00  0.00     0.052 A 
ATOM     10  O   UNL A   1      32.211  21.195  22.791  1.00  0.00    -0.269 OA
ATOM     11  C   UNL A   1      33.406  23.041  23.810  1.00  0.00     0.071 C 
ATOM     12  C   UNL A   1      34.777  22.954  24.359  1.00  0.00     0.012 A 
ATOM     13  C   UNL A   1      36.039  21.205  25.529  1.00  0.00     0.027 A 
ATOM     14  C   UNL A   1      35.874  23.788  24.360  1.00  0.00     0.011 A 
ATOM     15  C   UNL A   1      37.149  22.038  25.500  1.00  0.00     0.002 A 
ATOM     16  C   UNL A   1      37.069  23.300  24.891  1.00  0.00     0.001 A 
BRANCH   5  17
ATOM     17  S   UNL A   1      30.846  24.184  23.431  1.00  0.00     0.013 SA
BRANCH  17  18
ATOM     18  C   UNL A   1      30.289  25.858  23.477  1.00  0.00     0.386 C 
ATOM     19  N   UNL A   1      30.961  26.687  22.749  1.00  0.00    -0.235 N 
ATOM     20  N   UNL A   1      29.197  26.178  24.255  1.00  0.00     0.088 NA
ATOM     21  C   UNL A   1      30.236  27.883  22.374  1.00  0.00     0.348 C 
ATOM     22  H   UNL A   1      31.891  26.520  22.473  1.00  0.00     0.308 HD
ATOM     23  N   UNL A   1      28.422  27.081  23.861  1.00  0.00    -0.033 NA
ATOM     24  N   UNL A   1      30.846  29.182  22.727  1.00  0.00    -0.232 NA
ATOM     25  C   UNL A   1      28.867  27.968  22.932  1.00  0.00     0.165 C 
ATOM     26  C   UNL A   1      29.772  29.895  22.949  1.00  0.00     0.072 A 
ATOM     27  C   UNL A   1      28.450  29.226  22.889  1.00  0.00     0.032 A 
ATOM     28  C   UNL A   1      29.734  31.300  23.423  1.00  0.00     0.029 A 
ATOM     29  C   UNL A   1      27.235  29.873  23.264  1.00  0.00     0.012 A 
ATOM     30  C   UNL A   1      28.552  31.859  23.745  1.00  0.00     0.002 A 
ATOM     31  C   UNL A   1      27.282  31.161  23.627  1.00  0.00     0.001 A 
ENDBRANCH  17  18
ENDBRANCH   5  17
ENDBRANCH   3   5
ENDBRANCH   2   3
ENDBRANCH   1   2
BRANCH   1  32
ATOM     32  C   UNL A   1      32.702  28.470  25.580  1.00  0.00     0.275 C 
BRANCH  32  33
ATOM     33  O   UNL A   1      33.285  29.782  25.491  1.00  0.00    -0.458 OA
BRANCH  33  34
ATOM     34  C   UNL A   1      33.147  30.541  26.605  1.00  0.00     0.338 C 
ATOM     35  O   UNL A   1      32.129  31.072  27.012  1.00  0.00    -0.246 OA
BRANCH  34  36
ATOM     36  C   UNL A   1      34.407  30.512  27.377  1.00  0.00     0.060 A 
ATOM     37  C   UNL A   1      35.171  31.659  27.626  1.00  0.00     0.016 A 
ATOM     38  C   UNL A   1      34.833  29.272  27.857  1.00  0.00     0.016 A 
ATOM     39  C   UNL A   1      36.373  31.559  28.342  1.00  0.00     0.010 A 
ATOM     40  C   UNL A   1      36.042  29.173  28.541  1.00  0.00     0.010 A 
ATOM     41  C   UNL A   1      36.836  30.310  28.779  1.00  0.00    -0.014 A 
BRANCH  41  42
ATOM     42  C   UNL A   1      38.118  30.150  29.518  1.00  0.00     0.031 A 
ATOM     43  C   UNL A   1      39.252  29.330  28.966  1.00  0.00     0.074 A 
ATOM     44  C   UNL A   1      38.212  30.648  30.764  1.00  0.00     0.049 A 
ATOM     45  N   UNL A   1      40.287  28.819  29.588  1.00  0.00    -0.248 NA
ATOM     46  C   UNL A   1      39.181  28.973  27.546  1.00  0.00     0.031 C 
ATOM     47  C   UNL A   1      37.193  31.463  31.424  1.00  0.00     0.029 A 
ATOM     48  N   UNL A   1      39.208  30.529  31.697  1.00  0.00    -0.354 N 
ATOM     49  C   UNL A   1      40.914  27.984  28.668  1.00  0.00     0.074 A 
ATOM     50  C   UNL A   1      40.155  28.076  27.442  1.00  0.00     0.031 C 
ATOM     51  C   UNL A   1      37.617  31.774  32.659  1.00  0.00     0.029 A 
ATOM     52  C   UNL A   1      38.933  31.180  32.873  1.00  0.00     0.049 A 
ATOM     53  H   UNL A   1      40.040  30.025  31.540  1.00  0.00     0.167 HD
ATOM     54  C   UNL A   1      42.015  27.210  28.845  1.00  0.00     0.037 A 
ATOM     55  C   UNL A   1      39.674  31.302  33.990  1.00  0.00     0.037 A 
ATOM     56  C   UNL A   1      42.876  27.298  30.000  1.00  0.00     0.049 A 
ATOM     57  C   UNL A   1      41.029  30.658  34.055  1.00  0.00     0.074 A 
ATOM     58  C   UNL A   1      44.106  26.692  30.206  1.00  0.00     0.029 A 
ATOM     59  N   UNL A   1      42.631  28.087  31.113  1.00  0.00    -0.354 N 
ATOM     60  N   UNL A   1      41.599  29.850  33.196  1.00  0.00    -0.248 NA
ATOM     61  C   UNL A   1      41.853  30.964  35.232  1.00  0.00     0.031 C 
ATOM     62  C   UNL A   1      44.604  27.114  31.442  1.00  0.00     0.029 A 
ATOM     63  C   UNL A   1      43.701  28.010  31.990  1.00  0.00     0.049 A 
ATOM     64  H   UNL A   1      41.819  28.624  31.258  1.00  0.00     0.167 HD
ATOM     65  C   UNL A   1      42.853  29.566  33.717  1.00  0.00     0.074 A 
ATOM     66  C   UNL A   1      42.970  30.305  34.957  1.00  0.00     0.031 C 
ATOM     67  C   UNL A   1      43.816  28.759  33.213  1.00  0.00     0.037 A 
BRANCH  54  68
ATOM     68  C   UNL A   1      42.402  26.217  27.779  1.00  0.00     0.064 A 
ATOM     69  C   UNL A   1      41.745  24.990  27.616  1.00  0.00     0.173 A 
ATOM     70  C   UNL A   1      43.369  26.566  26.818  1.00  0.00     0.173 A 
ATOM     71  F   UNL A   1      40.807  24.604  28.493  1.00  0.00    -0.203 F 
ATOM     72  C   UNL A   1      42.052  24.144  26.551  1.00  0.00     0.198 A 
ATOM     73  C   UNL A   1      43.643  25.739  25.731  1.00  0.00     0.198 A 
ATOM     74  F   UNL A   1      44.022  27.736  26.908  1.00  0.00    -0.203 F 
ATOM     75  F   UNL A   1      41.434  22.960  26.441  1.00  0.00    -0.200 F 
ATOM     76  C   UNL A   1      42.987  24.525  25.601  1.00  0.00     0.200 A 
ATOM     77  F   UNL A   1      44.523  26.127  24.797  1.00  0.00    -0.200 F 
ATOM     78  F   UNL A   1      43.251  23.727  24.557  1.00  0.00    -0.200 F 
ENDBRANCH  54  68
BRANCH  55  79
ATOM     79  C   UNL A   1      39.186  32.181  35.076  1.00  0.00     0.064 A 
ATOM     80  C   UNL A   1      38.503  31.626  36.167  1.00  0.00     0.173 A 
ATOM     81  C   UNL A   1      39.444  33.558  35.090  1.00  0.00     0.173 A 
ATOM     82  F   UNL A   1      38.230  30.313  36.186  1.00  0.00    -0.203 F 
ATOM     83  C   UNL A   1      38.086  32.419  37.231  1.00  0.00     0.198 A 
ATOM     84  C   UNL A   1      39.045  34.347  36.165  1.00  0.00     0.198 A 
ATOM     85  F   UNL A   1      40.111  34.126  34.076  1.00  0.00    -0.203 F 
ATOM     86  F   UNL A   1      37.417  31.867  38.252  1.00  0.00    -0.200 F 
ATOM     87  C   UNL A   1      38.364  33.777  37.233  1.00  0.00     0.200 A 
ATOM     88  F   UNL A   1      39.329  35.656  36.177  1.00  0.00    -0.200 F 
ATOM     89  F   UNL A   1      37.977  34.538  38.267  1.00  0.00    -0.200 F 
ENDBRANCH  55  79
BRANCH  67  90
ATOM     90  C   UNL A   1      45.098  28.640  33.982  1.00  0.00     0.064 A 
ATOM     91  C   UNL A   1      46.167  29.518  33.759  1.00  0.00     0.173 A 
ATOM     92  C   UNL A   1      45.232  27.682  34.998  1.00  0.00     0.173 A 
ATOM     93  F   UNL A   1      46.088  30.446  32.794  1.00  0.00    -0.203 F 
ATOM     94  C   UNL A   1      47.334  29.430  34.514  1.00  0.00     0.198 A 
ATOM     95  C   UNL A   1      46.391  27.611  35.766  1.00  0.00     0.198 A 
ATOM     96  F   UNL A   1      44.233  26.825  35.256  1.00  0.00    -0.203 F 
ATOM     97  F   UNL A   1      48.356  30.259  34.262  1.00  0.00    -0.200 F 
ATOM     98  C   UNL A   1      47.442  28.482  35.521  1.00  0.00     0.200 A 
ATOM     99  F   UNL A   1      46.489  26.703  36.746  1.00  0.00    -0.200 F 
ATOM    100  F   UNL A   1      48.562  28.405  36.252  1.00  0.00    -0.200 F 
ENDBRANCH  67  90
ENDBRANCH  41  42
ENDBRANCH  34  36
ENDBRANCH  33  34
ENDBRANCH  32  33
ENDBRANCH   1  32
TORSDOF 13
ENDMDL
MODEL 2
REMARK VINA RESULT:     -13.9      1.482      5.067
REMARK SMILES CN1C(=O)/C(=C(\SC2=[NH+][C@@H]3N=c4ccccc4=C3N=N2)C(=O)OCCOC(=O)c2ccc(-c3c4nc(c(-c5c(F)c(F)c(F)c(F)c5F)c5ccc([nH]5)c(-c5c(F)c(F)c(F)c(F)c5F)c5nc(c(-c6c(F)c(F)c(F)c(F)c6F)c6ccc3[nH]6)C=C5)C=C4)cc2)c2ccccc21
REMARK SMILES IDX 24 1 23 2 21 3 22 4 6 5 1 6 2 7 3 8 97 9 4 10 5 11 92 12
REMARK SMILES IDX 96 13 93 14 95 15 94 16 7 17 8 18 9 19 20 20 10 21 19 23
REMARK SMILES IDX 11 24 18 25 12 26 17 27 13 28 16 29 14 30 15 31 25 32 26 33
REMARK SMILES IDX 27 34 28 35 29 36 30 37 91 38 31 39 90 40 32 41 33 42 34 43
REMARK SMILES IDX 84 44 35 45 89 46 83 47 85 48 36 49 88 50 82 51 81 52 37 54
REMARK SMILES IDX 69 55 49 56 68 57 50 58 53 59 67 60 86 61 51 62 52 63 66 65
REMARK SMILES IDX 87 66 54 67 38 68 39 69 47 70 40 71 41 72 45 73 48 74 42 75
REMARK SMILES IDX 43 76 46 77 44 78 70 79 71 80 79 81 72 82 73 83 77 84 80 85
REMARK SMILES IDX 74 86 75 87 78 88 76 89 55 90 56 91 64 92 57 93 58 94 62 95
REMARK SMILES IDX 65 96 59 97 60 98 63 99 61 100
REMARK H PARENT 9 22 85 53 53 64
REMARK Flexibility Score: inf
ROOT
ATOM      1  C   UNL A   1      31.936  27.420  27.201  1.00  0.00     0.275 C 
ENDROOT
BRANCH   1   2
ATOM      2  O   UNL A   1      30.853  26.502  26.934  1.00  0.00    -0.458 OA
BRANCH   2   3
ATOM      3  C   UNL A   1      31.207  25.350  26.304  1.00  0.00     0.346 C 
ATOM      4  O   UNL A   1      30.672  24.262  26.479  1.00  0.00    -0.246 OA
BRANCH   3   5
ATOM      5  C   UNL A   1      32.407  25.522  25.428  1.00  0.00     0.118 C 
ATOM      6  C   UNL A   1      33.983  27.996  21.606  1.00  0.00     0.153 C 
ATOM      7  N   UNL A   1      33.042  27.365  22.493  1.00  0.00    -0.311 N 
ATOM      8  C   UNL A   1      33.239  26.136  23.116  1.00  0.00     0.260 C 
ATOM      9  C   UNL A   1      31.761  27.845  22.793  1.00  0.00     0.052 A 
ATOM     10  O   UNL A   1      34.013  25.244  22.823  1.00  0.00    -0.269 OA
ATOM     11  C   UNL A   1      32.221  26.092  24.216  1.00  0.00     0.071 C 
ATOM     12  C   UNL A   1      31.157  27.009  23.752  1.00  0.00     0.012 A 
ATOM     13  C   UNL A   1      31.084  28.867  22.150  1.00  0.00     0.027 A 
ATOM     14  C   UNL A   1      29.805  27.122  23.990  1.00  0.00     0.011 A 
ATOM     15  C   UNL A   1      29.717  28.956  22.372  1.00  0.00     0.002 A 
ATOM     16  C   UNL A   1      29.086  28.068  23.258  1.00  0.00     0.001 A 
BRANCH   5  17
ATOM     17  S   UNL A   1      33.816  24.747  26.128  1.00  0.00     0.013 SA
BRANCH  17  18
ATOM     18  C   UNL A   1      33.757  23.003  25.870  1.00  0.00     0.386 C 
ATOM     19  N   UNL A   1      32.698  22.565  25.273  1.00  0.00    -0.235 N 
ATOM     20  N   UNL A   1      34.813  22.227  26.300  1.00  0.00     0.088 NA
ATOM     21  C   UNL A   1      32.865  21.288  24.611  1.00  0.00     0.348 C 
ATOM     22  H   UNL A   1      31.846  23.059  25.269  1.00  0.00     0.308 HD
ATOM     23  N   UNL A   1      35.122  21.212  25.634  1.00  0.00    -0.033 NA
ATOM     24  N   UNL A   1      31.936  20.203  24.992  1.00  0.00    -0.232 NA
ATOM     25  C   UNL A   1      34.206  20.685  24.778  1.00  0.00     0.165 C 
ATOM     26  C   UNL A   1      32.718  19.164  24.855  1.00  0.00     0.072 A 
ATOM     27  C   UNL A   1      34.143  19.387  24.510  1.00  0.00     0.032 A 
ATOM     28  C   UNL A   1      32.371  17.756  25.172  1.00  0.00     0.029 A 
ATOM     29  C   UNL A   1      35.111  18.339  24.489  1.00  0.00     0.012 A 
ATOM     30  C   UNL A   1      33.328  16.810  25.116  1.00  0.00     0.002 A 
ATOM     31  C   UNL A   1      34.702  17.087  24.732  1.00  0.00     0.001 A 
ENDBRANCH  17  18
ENDBRANCH   5  17
ENDBRANCH   3   5
ENDBRANCH   2   3
ENDBRANCH   1   2
BRANCH   1  32
ATOM     32  C   UNL A   1      31.550  28.853  26.840  1.00  0.00     0.275 C 
BRANCH  32  33
ATOM     33  O   UNL A   1      32.682  29.539  26.275  1.00  0.00    -0.458 OA
BRANCH  33  34
ATOM     34  C   UNL A   1      32.923  30.765  26.800  1.00  0.00     0.338 C 
ATOM     35  O   UNL A   1      32.169  31.721  26.810  1.00  0.00    -0.246 OA
BRANCH  34  36
ATOM     36  C   UNL A   1      34.210  30.742  27.527  1.00  0.00     0.060 A 
ATOM     37  C   UNL A   1      34.962  31.898  27.772  1.00  0.00     0.016 A 
ATOM     38  C   UNL A   1      34.672  29.502  27.968  1.00  0.00     0.016 A 
ATOM     39  C   UNL A   1      36.190  31.805  28.443  1.00  0.00     0.010 A 
ATOM     40  C   UNL A   1      35.907  29.410  28.607  1.00  0.00     0.010 A 
ATOM     41  C   UNL A   1      36.689  30.556  28.840  1.00  0.00    -0.014 A 
BRANCH  41  42
ATOM     42  C   UNL A   1      37.999  30.404  29.530  1.00  0.00     0.031 A 
ATOM     43  C   UNL A   1      39.132  29.631  28.915  1.00  0.00     0.074 A 
ATOM     44  C   UNL A   1      38.122  30.864  30.789  1.00  0.00     0.049 A 
ATOM     45  N   UNL A   1      40.200  29.127  29.485  1.00  0.00    -0.248 NA
ATOM     46  C   UNL A   1      39.023  29.319  27.487  1.00  0.00     0.031 C 
ATOM     47  C   UNL A   1      37.107  31.632  31.508  1.00  0.00     0.029 A 
ATOM     48  N   UNL A   1      39.152  30.740  31.684  1.00  0.00    -0.354 N 
ATOM     49  C   UNL A   1      40.816  28.337  28.518  1.00  0.00     0.074 A 
ATOM     50  C   UNL A   1      40.013  28.450  27.322  1.00  0.00     0.031 C 
ATOM     51  C   UNL A   1      37.565  31.914  32.738  1.00  0.00     0.029 A 
ATOM     52  C   UNL A   1      38.901  31.345  32.890  1.00  0.00     0.049 A 
ATOM     53  H   UNL A   1      39.990  30.263  31.483  1.00  0.00     0.167 HD
ATOM     54  C   UNL A   1      41.940  27.586  28.633  1.00  0.00     0.037 A 
ATOM     55  C   UNL A   1      39.676  31.450  33.984  1.00  0.00     0.037 A 
ATOM     56  C   UNL A   1      42.837  27.658  29.762  1.00  0.00     0.049 A 
ATOM     57  C   UNL A   1      41.048  30.838  33.984  1.00  0.00     0.074 A 
ATOM     58  C   UNL A   1      44.087  27.077  29.907  1.00  0.00     0.029 A 
ATOM     59  N   UNL A   1      42.611  28.405  30.908  1.00  0.00    -0.354 N 
ATOM     60  N   UNL A   1      41.607  30.073  33.081  1.00  0.00    -0.248 NA
ATOM     61  C   UNL A   1      41.903  31.127  35.143  1.00  0.00     0.031 C 
ATOM     62  C   UNL A   1      44.616  27.471  31.140  1.00  0.00     0.029 A 
ATOM     63  C   UNL A   1      43.712  28.326  31.745  1.00  0.00     0.049 A 
ATOM     64  H   UNL A   1      41.791  28.916  31.097  1.00  0.00     0.167 HD
ATOM     65  C   UNL A   1      42.885  29.804  33.551  1.00  0.00     0.074 A 
ATOM     66  C   UNL A   1      43.026  30.505  34.809  1.00  0.00     0.031 C 
ATOM     67  C   UNL A   1      43.850  29.037  32.989  1.00  0.00     0.037 A 
BRANCH  54  68
ATOM     68  C   UNL A   1      42.314  26.638  27.523  1.00  0.00     0.064 A 
ATOM     69  C   UNL A   1      43.297  26.939  26.571  1.00  0.00     0.173 A 
ATOM     70  C   UNL A   1      41.763  25.342  27.496  1.00  0.00     0.173 A 
ATOM     71  F   UNL A   1      43.867  28.154  26.549  1.00  0.00    -0.203 F 
ATOM     72  C   UNL A   1      43.698  25.996  25.625  1.00  0.00     0.198 A 
ATOM     73  C   UNL A   1      42.198  24.388  26.579  1.00  0.00     0.198 A 
ATOM     74  F   UNL A   1      40.830  24.985  28.393  1.00  0.00    -0.203 F 
ATOM     75  F   UNL A   1      44.614  26.325  24.704  1.00  0.00    -0.200 F 
ATOM     76  C   UNL A   1      43.162  24.718  25.640  1.00  0.00     0.200 A 
ATOM     77  F   UNL A   1      41.700  23.144  26.619  1.00  0.00    -0.200 F 
ATOM     78  F   UNL A   1      43.579  23.802  24.755  1.00  0.00    -0.200 F 
ENDBRANCH  54  68
BRANCH  55  79
ATOM     79  C   UNL A   1      39.204  32.281  35.115  1.00  0.00     0.064 A 
ATOM     80  C   UNL A   1      38.504  31.685  36.172  1.00  0.00     0.173 A 
ATOM     81  C   UNL A   1      39.495  33.648  35.203  1.00  0.00     0.173 A 
ATOM     82  F   UNL A   1      38.199  30.380  36.120  1.00  0.00    -0.203 F 
ATOM     83  C   UNL A   1      38.101  32.429  37.276  1.00  0.00     0.198 A 
ATOM     84  C   UNL A   1      39.109  34.388  36.318  1.00  0.00     0.198 A 
ATOM     85  F   UNL A   1      40.179  34.254  34.223  1.00  0.00    -0.203 F 
ATOM     86  F   UNL A   1      37.414  31.839  38.264  1.00  0.00    -0.200 F 
ATOM     87  C   UNL A   1      38.410  33.779  37.352  1.00  0.00     0.200 A 
ATOM     88  F   UNL A   1      39.423  35.688  36.400  1.00  0.00    -0.200 F 
ATOM     89  F   UNL A   1      38.037  34.492  38.424  1.00  0.00    -0.200 F 
ENDBRANCH  55  79
BRANCH  67  90
ATOM     90  C   UNL A   1      45.159  28.926  33.710  1.00  0.00     0.064 A 
ATOM     91  C   UNL A   1      45.388  27.917  34.656  1.00  0.00     0.173 A 
ATOM     92  C   UNL A   1      46.216  29.796  33.403  1.00  0.00     0.173 A 
ATOM     93  F   UNL A   1      44.405  27.067  34.988  1.00  0.00    -0.203 F 
ATOM     94  C   UNL A   1      46.625  27.794  35.283  1.00  0.00     0.198 A 
ATOM     95  C   UNL A   1      47.459  29.655  34.016  1.00  0.00     0.198 A 
ATOM     96  F   UNL A   1      46.049  30.771  32.498  1.00  0.00    -0.203 F 
ATOM     97  F   UNL A   1      46.812  26.842  36.209  1.00  0.00    -0.200 F 
ATOM     98  C   UNL A   1      47.661  28.657  34.958  1.00  0.00     0.200 A 
ATOM     99  F   UNL A   1      48.461  30.482  33.691  1.00  0.00    -0.200 F 
ATOM    100  F   UNL A   1      48.853  28.530  35.556  1.00  0.00    -0.200 F 
ENDBRANCH  67  90
ENDBRANCH  41  42
ENDBRANCH  34  36
ENDBRANCH  33  34
ENDBRANCH  32  33
ENDBRANCH   1  32
TORSDOF 13
ENDMDL
MODEL 3
REMARK VINA RESULT:     -13.8      1.446      4.799
REMARK SMILES CN1C(=O)/C(=C(\SC2=[NH+][C@@H]3N=c4ccccc4=C3N=N2)C(=O)OCCOC(=O)c2ccc(-c3c4nc(c(-c5c(F)c(F)c(F)c(F)c5F)c5ccc([nH]5)c(-c5c(F)c(F)c(F)c(F)c5F)c5nc(c(-c6c(F)c(F)c(F)c(F)c6F)c6ccc3[nH]6)C=C5)C=C4)cc2)c2ccccc21
REMARK SMILES IDX 24 1 23 2 21 3 22 4 6 5 1 6 2 7 3 8 97 9 4 10 5 11 92 12
REMARK SMILES IDX 96 13 93 14 95 15 94 16 7 17 8 18 9 19 20 20 10 21 19 23
REMARK SMILES IDX 11 24 18 25 12 26 17 27 13 28 16 29 14 30 15 31 25 32 26 33
REMARK SMILES IDX 27 34 28 35 29 36 30 37 91 38 31 39 90 40 32 41 33 42 34 43
REMARK SMILES IDX 84 44 35 45 89 46 83 47 85 48 36 49 88 50 82 51 81 52 37 54
REMARK SMILES IDX 69 55 49 56 68 57 50 58 53 59 67 60 86 61 51 62 52 63 66 65
REMARK SMILES IDX 87 66 54 67 38 68 39 69 47 70 40 71 41 72 45 73 48 74 42 75
REMARK SMILES IDX 43 76 46 77 44 78 70 79 71 80 79 81 72 82 73 83 77 84 80 85
REMARK SMILES IDX 74 86 75 87 78 88 76 89 55 90 56 91 64 92 57 93 58 94 62 95
REMARK SMILES IDX 65 96 59 97 60 98 63 99 61 100
REMARK H PARENT 9 22 85 53 53 64
REMARK Flexibility Score: inf
ROOT
ATOM      1  C   UNL A   1      33.793  28.552  24.770  1.00  0.00     0.275 C 
ENDROOT
BRANCH   1   2
ATOM      2  O   UNL A   1      33.901  28.243  23.363  1.00  0.00    -0.458 OA
BRANCH   2   3
ATOM      3  C   UNL A   1      33.568  26.970  23.018  1.00  0.00     0.346 C 
ATOM      4  O   UNL A   1      33.552  26.535  21.872  1.00  0.00    -0.246 OA
BRANCH   3   5
ATOM      5  C   UNL A   1      33.118  26.158  24.190  1.00  0.00     0.118 C 
ATOM      6  C   UNL A   1      29.140  24.745  26.512  1.00  0.00     0.153 C 
ATOM      7  N   UNL A   1      29.984  25.570  25.690  1.00  0.00    -0.311 N 
ATOM      8  C   UNL A   1      31.324  25.843  25.951  1.00  0.00     0.260 C 
ATOM      9  C   UNL A   1      29.568  26.290  24.564  1.00  0.00     0.052 A 
ATOM     10  O   UNL A   1      31.938  25.741  26.996  1.00  0.00    -0.269 OA
ATOM     11  C   UNL A   1      31.869  26.377  24.659  1.00  0.00     0.071 C 
ATOM     12  C   UNL A   1      30.678  26.923  23.971  1.00  0.00     0.012 A 
ATOM     13  C   UNL A   1      28.265  26.520  24.159  1.00  0.00     0.027 A 
ATOM     14  C   UNL A   1      30.471  27.902  23.025  1.00  0.00     0.011 A 
ATOM     15  C   UNL A   1      28.061  27.528  23.226  1.00  0.00     0.002 A 
ATOM     16  C   UNL A   1      29.155  28.229  22.695  1.00  0.00     0.001 A 
BRANCH   5  17
ATOM     17  S   UNL A   1      34.431  25.191  24.832  1.00  0.00     0.013 SA
BRANCH  17  18
ATOM     18  C   UNL A   1      34.183  23.484  24.462  1.00  0.00     0.386 C 
ATOM     19  N   UNL A   1      34.334  22.672  25.455  1.00  0.00    -0.235 N 
ATOM     20  N   UNL A   1      33.844  23.121  23.175  1.00  0.00     0.088 NA
ATOM     21  C   UNL A   1      33.648  21.405  25.307  1.00  0.00     0.348 C 
ATOM     22  H   UNL A   1      34.872  22.896  26.249  1.00  0.00     0.308 HD
ATOM     23  N   UNL A   1      33.081  22.141  23.009  1.00  0.00    -0.033 NA
ATOM     24  N   UNL A   1      34.465  20.178  25.419  1.00  0.00    -0.232 NA
ATOM     25  C   UNL A   1      32.936  21.244  24.020  1.00  0.00     0.165 C 
ATOM     26  C   UNL A   1      33.832  19.397  24.583  1.00  0.00     0.072 A 
ATOM     27  C   UNL A   1      32.702  19.956  23.803  1.00  0.00     0.032 A 
ATOM     28  C   UNL A   1      34.229  18.019  24.198  1.00  0.00     0.029 A 
ATOM     29  C   UNL A   1      32.048  19.237  22.759  1.00  0.00     0.012 A 
ATOM     30  C   UNL A   1      33.559  17.388  23.215  1.00  0.00     0.002 A 
ATOM     31  C   UNL A   1      32.430  17.977  22.513  1.00  0.00     0.001 A 
ENDBRANCH  17  18
ENDBRANCH   5  17
ENDBRANCH   3   5
ENDBRANCH   2   3
ENDBRANCH   1   2
BRANCH   1  32
ATOM     32  C   UNL A   1      32.865  29.742  25.006  1.00  0.00     0.275 C 
BRANCH  32  33
ATOM     33  O   UNL A   1      32.609  29.892  26.414  1.00  0.00    -0.458 OA
BRANCH  33  34
ATOM     34  C   UNL A   1      32.934  31.106  26.924  1.00  0.00     0.338 C 
ATOM     35  O   UNL A   1      32.247  32.111  26.920  1.00  0.00    -0.246 OA
BRANCH  34  36
ATOM     36  C   UNL A   1      34.216  31.005  27.652  1.00  0.00     0.060 A 
ATOM     37  C   UNL A   1      35.066  32.101  27.845  1.00  0.00     0.016 A 
ATOM     38  C   UNL A   1      34.571  29.750  28.148  1.00  0.00     0.016 A 
ATOM     39  C   UNL A   1      36.283  31.933  28.520  1.00  0.00     0.010 A 
ATOM     40  C   UNL A   1      35.795  29.581  28.792  1.00  0.00     0.010 A 
ATOM     41  C   UNL A   1      36.674  30.665  28.973  1.00  0.00    -0.014 A 
BRANCH  41  42
ATOM     42  C   UNL A   1      37.968  30.432  29.670  1.00  0.00     0.031 A 
ATOM     43  C   UNL A   1      39.064  29.609  29.050  1.00  0.00     0.074 A 
ATOM     44  C   UNL A   1      38.106  30.864  30.937  1.00  0.00     0.049 A 
ATOM     45  N   UNL A   1      40.098  29.039  29.619  1.00  0.00    -0.248 NA
ATOM     46  C   UNL A   1      38.949  29.326  27.616  1.00  0.00     0.031 C 
ATOM     47  C   UNL A   1      37.128  31.673  31.661  1.00  0.00     0.029 A 
ATOM     48  N   UNL A   1      39.121  30.670  31.837  1.00  0.00    -0.354 N 
ATOM     49  C   UNL A   1      40.678  28.233  28.644  1.00  0.00     0.074 A 
ATOM     50  C   UNL A   1      39.893  28.408  27.444  1.00  0.00     0.031 C 
ATOM     51  C   UNL A   1      37.590  31.910  32.899  1.00  0.00     0.029 A 
ATOM     52  C   UNL A   1      38.893  31.268  33.051  1.00  0.00     0.049 A 
ATOM     53  H   UNL A   1      39.933  30.152  31.635  1.00  0.00     0.167 HD
ATOM     54  C   UNL A   1      41.760  27.421  28.755  1.00  0.00     0.037 A 
ATOM     55  C   UNL A   1      39.663  31.314  34.153  1.00  0.00     0.037 A 
ATOM     56  C   UNL A   1      42.651  27.426  29.890  1.00  0.00     0.049 A 
ATOM     57  C   UNL A   1      41.000  30.629  34.152  1.00  0.00     0.074 A 
ATOM     58  C   UNL A   1      43.866  26.776  30.035  1.00  0.00     0.029 A 
ATOM     59  N   UNL A   1      42.456  28.165  31.047  1.00  0.00    -0.354 N 
ATOM     60  N   UNL A   1      41.525  29.850  33.240  1.00  0.00    -0.248 NA
ATOM     61  C   UNL A   1      41.860  30.853  35.322  1.00  0.00     0.031 C 
ATOM     62  C   UNL A   1      44.406  27.122  31.278  1.00  0.00     0.029 A 
ATOM     63  C   UNL A   1      43.543  28.014  31.891  1.00  0.00     0.049 A 
ATOM     64  H   UNL A   1      41.663  28.716  31.239  1.00  0.00     0.167 HD
ATOM     65  C   UNL A   1      42.783  29.505  33.715  1.00  0.00     0.074 A 
ATOM     66  C   UNL A   1      42.951  30.177  34.986  1.00  0.00     0.031 C 
ATOM     67  C   UNL A   1      43.710  28.697  33.147  1.00  0.00     0.037 A 
BRANCH  54  68
ATOM     68  C   UNL A   1      42.092  26.472  27.632  1.00  0.00     0.064 A 
ATOM     69  C   UNL A   1      43.113  26.725  26.705  1.00  0.00     0.173 A 
ATOM     70  C   UNL A   1      41.455  25.218  27.566  1.00  0.00     0.173 A 
ATOM     71  F   UNL A   1      43.764  27.897  26.721  1.00  0.00    -0.203 F 
ATOM     72  C   UNL A   1      43.468  25.776  25.748  1.00  0.00     0.198 A 
ATOM     73  C   UNL A   1      41.842  24.255  26.637  1.00  0.00     0.198 A 
ATOM     74  F   UNL A   1      40.481  24.908  28.437  1.00  0.00    -0.203 F 
ATOM     75  F   UNL A   1      44.423  26.059  24.851  1.00  0.00    -0.200 F 
ATOM     76  C   UNL A   1      42.846  24.537  25.724  1.00  0.00     0.200 A 
ATOM     77  F   UNL A   1      41.261  23.047  26.641  1.00  0.00    -0.200 F 
ATOM     78  F   UNL A   1      43.218  23.613  24.828  1.00  0.00    -0.200 F 
ENDBRANCH  54  68
BRANCH  55  79
ATOM     79  C   UNL A   1      39.228  32.150  35.293  1.00  0.00     0.064 A 
ATOM     80  C   UNL A   1      38.512  31.570  36.349  1.00  0.00     0.173 A 
ATOM     81  C   UNL A   1      39.567  33.506  35.392  1.00  0.00     0.173 A 
ATOM     82  F   UNL A   1      38.161  30.277  36.287  1.00  0.00    -0.203 F 
ATOM     83  C   UNL A   1      38.142  32.318  37.462  1.00  0.00     0.198 A 
ATOM     84  C   UNL A   1      39.214  34.248  36.516  1.00  0.00     0.198 A 
ATOM     85  F   UNL A   1      40.267  34.096  34.414  1.00  0.00    -0.203 F 
ATOM     86  F   UNL A   1      37.440  31.743  38.448  1.00  0.00    -0.200 F 
ATOM     87  C   UNL A   1      38.499  33.655  37.548  1.00  0.00     0.200 A 
ATOM     88  F   UNL A   1      39.575  35.535  36.609  1.00  0.00    -0.200 F 
ATOM     89  F   UNL A   1      38.158  34.370  38.629  1.00  0.00    -0.200 F 
ENDBRANCH  55  79
BRANCH  67  90
ATOM     90  C   UNL A   1      45.005  28.504  33.876  1.00  0.00     0.064 A 
ATOM     91  C   UNL A   1      45.161  27.490  34.832  1.00  0.00     0.173 A 
ATOM     92  C   UNL A   1      46.120  29.297  33.567  1.00  0.00     0.173 A 
ATOM     93  F   UNL A   1      44.122  26.711  35.165  1.00  0.00    -0.203 F 
ATOM     94  C   UNL A   1      46.384  27.289  35.466  1.00  0.00     0.198 A 
ATOM     95  C   UNL A   1      47.347  29.079  34.187  1.00  0.00     0.198 A 
ATOM     96  F   UNL A   1      46.023  30.274  32.653  1.00  0.00    -0.203 F 
ATOM     97  F   UNL A   1      46.503  26.335  36.400  1.00  0.00    -0.200 F 
ATOM     98  C   UNL A   1      47.477  28.077  35.138  1.00  0.00     0.200 A 
ATOM     99  F   UNL A   1      48.405  29.833  33.861  1.00  0.00    -0.200 F 
ATOM    100  F   UNL A   1      48.656  27.876  35.743  1.00  0.00    -0.200 F 
ENDBRANCH  67  90
ENDBRANCH  41  42
ENDBRANCH  34  36
ENDBRANCH  33  34
ENDBRANCH  32  33
ENDBRANCH   1  32
TORSDOF 13
ENDMDL
