MODEL 1
REMARK VINA RESULT:     -12.0      0.000      0.000
REMARK SMILES CCOC(=O)[C@@]1(C)C/C(=N/c2cccc(C(=O)OCCOC(=O)c3ccc(-c4c5nc(c(-c6c(F)c(F)c(F)c(F)c6F)c6ccc([nH]6)c(-c6c(F)c(F)c(F)c(F)c6F)c6nc(c(-c7c(F)c(F)c(F)c(F)c7F)c7ccc4[nH]7)C=C6)C=C5)cc3)c2)C(=O)N1c1ccccc1
REMARK SMILES IDX 19 1 18 2 16 3 17 4 15 5 11 6 12 7 87 8 13 9 14 10 10 11
REMARK SMILES IDX 6 12 7 13 8 14 90 15 9 16 88 17 89 18 4 19 5 20 3 21 2 22
REMARK SMILES IDX 1 23 91 24 92 25 96 26 93 27 95 28 94 29 20 30 21 31 22 32
REMARK SMILES IDX 23 33 24 34 25 35 86 36 26 37 85 38 27 39 28 40 29 41 79 42
REMARK SMILES IDX 30 43 84 44 78 45 80 46 31 47 83 48 77 49 76 50 32 52 64 53
REMARK SMILES IDX 44 54 63 55 45 56 48 57 62 58 81 59 46 60 47 61 61 63 82 64
REMARK SMILES IDX 49 65 33 66 34 67 42 68 35 69 36 70 40 71 43 72 37 73 38 74
REMARK SMILES IDX 41 75 39 76 65 77 66 78 74 79 67 80 68 81 72 82 75 83 69 84
REMARK SMILES IDX 70 85 73 86 71 87 50 88 51 89 59 90 52 91 53 92 57 93 60 94
REMARK SMILES IDX 54 95 55 96 58 97 56 98
REMARK H PARENT 80 51 48 62
REMARK Flexibility Score: inf
ROOT
ATOM      1  C   UNL A   1      32.989  35.038  28.694  1.00  0.00     0.275 C 
ENDROOT
BRANCH   1   2
ATOM      2  O   UNL A   1      33.207  33.718  29.230  1.00  0.00    -0.458 OA
BRANCH   2   3
ATOM      3  C   UNL A   1      34.473  33.234  29.115  1.00  0.00     0.338 C 
ATOM      4  O   UNL A   1      35.478  33.707  29.620  1.00  0.00    -0.246 OA
BRANCH   3   5
ATOM      5  C   UNL A   1      34.476  31.971  28.333  1.00  0.00     0.062 A 
ATOM      6  C   UNL A   1      33.499  30.479  26.685  1.00  0.00     0.064 A 
ATOM      7  C   UNL A   1      34.571  29.601  26.851  1.00  0.00     0.028 A 
ATOM      8  C   UNL A   1      33.433  31.641  27.464  1.00  0.00     0.044 A 
ATOM      9  C   UNL A   1      35.601  29.906  27.744  1.00  0.00     0.003 A 
ATOM     10  C   UNL A   1      35.562  31.098  28.471  1.00  0.00     0.016 A 
BRANCH   6  11
ATOM     11  N   UNL A   1      32.494  30.199  25.749  1.00  0.00    -0.248 NA
ATOM     12  C   UNL A   1      31.653  27.084  24.428  1.00  0.00     0.148 C 
ATOM     13  C   UNL A   1      32.740  27.114  23.337  1.00  0.00     0.048 C 
ATOM     14  C   UNL A   1      31.117  28.528  24.623  1.00  0.00     0.103 C 
ATOM     15  N   UNL A   1      32.211  26.693  25.747  1.00  0.00    -0.290 N 
ATOM     16  C   UNL A   1      32.020  28.991  25.706  1.00  0.00     0.109 C 
ATOM     17  C   UNL A   1      32.370  27.804  26.570  1.00  0.00     0.273 C 
ATOM     18  O   UNL A   1      32.708  27.917  27.727  1.00  0.00    -0.267 OA
BRANCH  12  19
ATOM     19  C   UNL A   1      30.414  26.280  23.983  1.00  0.00     0.332 C 
ATOM     20  O   UNL A   1      29.313  26.380  24.512  1.00  0.00    -0.249 OA
BRANCH  19  21
ATOM     21  O   UNL A   1      30.729  25.368  23.024  1.00  0.00    -0.464 OA
BRANCH  21  22
ATOM     22  C   UNL A   1      30.613  23.985  23.388  1.00  0.00     0.229 C 
ATOM     23  C   UNL A   1      31.906  23.252  23.092  1.00  0.00     0.049 C 
ENDBRANCH  21  22
ENDBRANCH  19  21
ENDBRANCH  12  19
BRANCH  15  24
ATOM     24  C   UNL A   1      32.592  25.359  26.110  1.00  0.00     0.045 A 
ATOM     25  C   UNL A   1      33.875  24.863  25.824  1.00  0.00     0.026 A 
ATOM     26  C   UNL A   1      31.708  24.484  26.762  1.00  0.00     0.026 A 
ATOM     27  C   UNL A   1      34.254  23.557  26.162  1.00  0.00     0.002 A 
ATOM     28  C   UNL A   1      32.080  23.173  27.091  1.00  0.00     0.002 A 
ATOM     29  C   UNL A   1      33.354  22.709  26.791  1.00  0.00     0.000 A 
ENDBRANCH  15  24
ENDBRANCH   6  11
ENDBRANCH   3   5
ENDBRANCH   2   3
ENDBRANCH   1   2
BRANCH   1  30
ATOM     30  C   UNL A   1      32.889  36.046  29.839  1.00  0.00     0.275 C 
BRANCH  30  31
ATOM     31  O   UNL A   1      32.308  35.376  30.966  1.00  0.00    -0.458 OA
BRANCH  31  32
ATOM     32  C   UNL A   1      32.693  35.797  32.186  1.00  0.00     0.338 C 
ATOM     33  O   UNL A   1      32.191  36.683  32.851  1.00  0.00    -0.246 OA
BRANCH  32  34
ATOM     34  C   UNL A   1      33.906  35.033  32.561  1.00  0.00     0.060 A 
ATOM     35  C   UNL A   1      33.823  33.684  32.937  1.00  0.00     0.016 A 
ATOM     36  C   UNL A   1      35.145  35.675  32.517  1.00  0.00     0.016 A 
ATOM     37  C   UNL A   1      34.981  32.975  33.254  1.00  0.00     0.010 A 
ATOM     38  C   UNL A   1      36.306  34.959  32.815  1.00  0.00     0.010 A 
ATOM     39  C   UNL A   1      36.230  33.607  33.188  1.00  0.00    -0.014 A 
BRANCH  39  40
ATOM     40  C   UNL A   1      37.459  32.866  33.545  1.00  0.00     0.031 A 
ATOM     41  C   UNL A   1      38.123  33.118  34.865  1.00  0.00     0.074 A 
ATOM     42  C   UNL A   1      37.978  31.970  32.687  1.00  0.00     0.049 A 
ATOM     43  N   UNL A   1      39.235  32.617  35.341  1.00  0.00    -0.248 NA
ATOM     44  C   UNL A   1      37.446  34.060  35.770  1.00  0.00     0.031 C 
ATOM     45  C   UNL A   1      37.417  31.623  31.382  1.00  0.00     0.029 A 
ATOM     46  N   UNL A   1      39.100  31.186  32.791  1.00  0.00    -0.354 N 
ATOM     47  C   UNL A   1      39.401  33.194  36.590  1.00  0.00     0.074 A 
ATOM     48  C   UNL A   1      38.276  34.083  36.803  1.00  0.00     0.031 C 
ATOM     49  C   UNL A   1      38.195  30.688  30.808  1.00  0.00     0.029 A 
ATOM     50  C   UNL A   1      39.315  30.388  31.696  1.00  0.00     0.049 A 
ATOM     51  H   UNL A   1      39.695  31.197  33.576  1.00  0.00     0.167 HD
ATOM     52  C   UNL A   1      40.402  33.003  37.480  1.00  0.00     0.037 A 
ATOM     53  C   UNL A   1      40.309  29.519  31.440  1.00  0.00     0.037 A 
ATOM     54  C   UNL A   1      41.515  32.115  37.284  1.00  0.00     0.049 A 
ATOM     55  C   UNL A   1      41.409  29.326  32.443  1.00  0.00     0.074 A 
ATOM     56  C   UNL A   1      42.582  31.865  38.130  1.00  0.00     0.029 A 
ATOM     57  N   UNL A   1      41.699  31.326  36.160  1.00  0.00    -0.354 N 
ATOM     58  N   UNL A   1      41.570  29.894  33.612  1.00  0.00    -0.248 NA
ATOM     59  C   UNL A   1      42.475  28.377  32.084  1.00  0.00     0.031 C 
ATOM     60  C   UNL A   1      43.419  30.927  37.512  1.00  0.00     0.029 A 
ATOM     61  C   UNL A   1      42.863  30.588  36.288  1.00  0.00     0.049 A 
ATOM     62  H   UNL A   1      41.092  31.296  35.385  1.00  0.00     0.167 HD
ATOM     63  C   UNL A   1      42.747  29.377  34.129  1.00  0.00     0.074 A 
ATOM     64  C   UNL A   1      43.259  28.437  33.152  1.00  0.00     0.031 C 
ATOM     65  C   UNL A   1      43.355  29.661  35.305  1.00  0.00     0.037 A 
BRANCH  52  66
ATOM     66  C   UNL A   1      40.339  33.790  38.748  1.00  0.00     0.064 A 
ATOM     67  C   UNL A   1      39.599  33.337  39.846  1.00  0.00     0.173 A 
ATOM     68  C   UNL A   1      41.036  35.001  38.868  1.00  0.00     0.173 A 
ATOM     69  F   UNL A   1      38.905  32.192  39.766  1.00  0.00    -0.203 F 
ATOM     70  C   UNL A   1      39.550  34.076  41.025  1.00  0.00     0.198 A 
ATOM     71  C   UNL A   1      40.991  35.734  40.050  1.00  0.00     0.198 A 
ATOM     72  F   UNL A   1      41.750  35.474  37.836  1.00  0.00    -0.203 F 
ATOM     73  F   UNL A   1      38.819  33.638  42.059  1.00  0.00    -0.200 F 
ATOM     74  C   UNL A   1      40.248  35.272  41.127  1.00  0.00     0.200 A 
ATOM     75  F   UNL A   1      41.661  36.890  40.147  1.00  0.00    -0.200 F 
ATOM     76  F   UNL A   1      40.195  35.984  42.260  1.00  0.00    -0.200 F 
ENDBRANCH  52  66
BRANCH  53  77
ATOM     77  C   UNL A   1      40.307  28.757  30.171  1.00  0.00     0.064 A 
ATOM     78  C   UNL A   1      40.961  29.255  29.038  1.00  0.00     0.173 A 
ATOM     79  C   UNL A   1      39.653  27.522  30.068  1.00  0.00     0.173 A 
ATOM     80  F   UNL A   1      41.579  30.444  29.091  1.00  0.00    -0.203 F 
ATOM     81  C   UNL A   1      40.958  28.544  27.841  1.00  0.00     0.198 A 
ATOM     82  C   UNL A   1      39.658  26.809  28.872  1.00  0.00     0.198 A 
ATOM     83  F   UNL A   1      39.005  27.016  31.127  1.00  0.00    -0.203 F 
ATOM     84  F   UNL A   1      41.572  29.051  26.762  1.00  0.00    -0.200 F 
ATOM     85  C   UNL A   1      40.309  27.321  27.760  1.00  0.00     0.200 A 
ATOM     86  F   UNL A   1      39.026  25.629  28.795  1.00  0.00    -0.200 F 
ATOM     87  F   UNL A   1      40.302  26.641  26.605  1.00  0.00    -0.200 F 
ENDBRANCH  53  77
BRANCH  65  88
ATOM     88  C   UNL A   1      44.637  28.950  35.598  1.00  0.00     0.064 A 
ATOM     89  C   UNL A   1      45.869  29.504  35.221  1.00  0.00     0.173 A 
ATOM     90  C   UNL A   1      44.638  27.733  36.292  1.00  0.00     0.173 A 
ATOM     91  F   UNL A   1      45.910  30.660  34.543  1.00  0.00    -0.203 F 
ATOM     92  C   UNL A   1      47.062  28.855  35.525  1.00  0.00     0.198 A 
ATOM     93  C   UNL A   1      45.834  27.092  36.602  1.00  0.00     0.198 A 
ATOM     94  F   UNL A   1      43.481  27.168  36.666  1.00  0.00    -0.203 F 
ATOM     95  F   UNL A   1      48.230  29.390  35.142  1.00  0.00    -0.200 F 
ATOM     96  C   UNL A   1      47.044  27.653  36.218  1.00  0.00     0.200 A 
ATOM     97  F   UNL A   1      45.817  25.930  37.268  1.00  0.00    -0.200 F 
ATOM     98  F   UNL A   1      48.193  27.031  36.510  1.00  0.00    -0.200 F 
ENDBRANCH  65  88
ENDBRANCH  39  40
ENDBRANCH  32  34
ENDBRANCH  31  32
ENDBRANCH  30  31
ENDBRANCH   1  30
TORSDOF 16
ENDMDL
MODEL 2
REMARK VINA RESULT:     -11.9      5.789     10.413
REMARK SMILES CCOC(=O)[C@@]1(C)C/C(=N/c2cccc(C(=O)OCCOC(=O)c3ccc(-c4c5nc(c(-c6c(F)c(F)c(F)c(F)c6F)c6ccc([nH]6)c(-c6c(F)c(F)c(F)c(F)c6F)c6nc(c(-c7c(F)c(F)c(F)c(F)c7F)c7ccc4[nH]7)C=C6)C=C5)cc3)c2)C(=O)N1c1ccccc1
REMARK SMILES IDX 19 1 18 2 16 3 17 4 15 5 11 6 12 7 87 8 13 9 14 10 10 11
REMARK SMILES IDX 6 12 7 13 8 14 90 15 9 16 88 17 89 18 4 19 5 20 3 21 2 22
REMARK SMILES IDX 1 23 91 24 92 25 96 26 93 27 95 28 94 29 20 30 21 31 22 32
REMARK SMILES IDX 23 33 24 34 25 35 86 36 26 37 85 38 27 39 28 40 29 41 79 42
REMARK SMILES IDX 30 43 84 44 78 45 80 46 31 47 83 48 77 49 76 50 32 52 64 53
REMARK SMILES IDX 44 54 63 55 45 56 48 57 62 58 81 59 46 60 47 61 61 63 82 64
REMARK SMILES IDX 49 65 33 66 34 67 42 68 35 69 36 70 40 71 43 72 37 73 38 74
REMARK SMILES IDX 41 75 39 76 65 77 66 78 74 79 67 80 68 81 72 82 75 83 69 84
REMARK SMILES IDX 70 85 73 86 71 87 50 88 51 89 59 90 52 91 53 92 57 93 60 94
REMARK SMILES IDX 54 95 55 96 58 97 56 98
REMARK H PARENT 80 51 48 62
REMARK Flexibility Score: inf
ROOT
ATOM      1  C   UNL A   1      38.572  20.850  25.650  1.00  0.00     0.275 C 
ENDROOT
BRANCH   1   2
ATOM      2  O   UNL A   1      37.217  20.646  25.204  1.00  0.00    -0.458 OA
BRANCH   2   3
ATOM      3  C   UNL A   1      36.696  21.632  24.426  1.00  0.00     0.338 C 
ATOM      4  O   UNL A   1      37.263  22.210  23.512  1.00  0.00    -0.246 OA
BRANCH   3   5
ATOM      5  C   UNL A   1      35.276  21.880  24.784  1.00  0.00     0.062 A 
ATOM      6  C   UNL A   1      33.059  22.722  24.261  1.00  0.00     0.064 A 
ATOM      7  C   UNL A   1      32.600  22.268  25.498  1.00  0.00     0.028 A 
ATOM      8  C   UNL A   1      34.410  22.567  23.928  1.00  0.00     0.044 A 
ATOM      9  C   UNL A   1      33.466  21.613  26.375  1.00  0.00     0.003 A 
ATOM     10  C   UNL A   1      34.799  21.404  26.011  1.00  0.00     0.016 A 
BRANCH   6  11
ATOM     11  N   UNL A   1      32.176  23.331  23.358  1.00  0.00    -0.248 NA
ATOM     12  C   UNL A   1      30.637  26.442  23.690  1.00  0.00     0.148 C 
ATOM     13  C   UNL A   1      29.478  25.914  24.558  1.00  0.00     0.048 C 
ATOM     14  C   UNL A   1      31.003  25.349  22.649  1.00  0.00     0.103 C 
ATOM     15  N   UNL A   1      31.870  26.647  24.491  1.00  0.00    -0.290 N 
ATOM     16  C   UNL A   1      32.056  24.623  23.400  1.00  0.00     0.109 C 
ATOM     17  C   UNL A   1      32.779  25.614  24.280  1.00  0.00     0.273 C 
ATOM     18  O   UNL A   1      33.914  25.439  24.663  1.00  0.00    -0.267 OA
BRANCH  12  19
ATOM     19  C   UNL A   1      30.210  27.651  22.833  1.00  0.00     0.332 C 
ATOM     20  O   UNL A   1      30.564  27.819  21.672  1.00  0.00    -0.249 OA
BRANCH  19  21
ATOM     21  O   UNL A   1      29.503  28.555  23.564  1.00  0.00    -0.464 OA
BRANCH  21  22
ATOM     22  C   UNL A   1      28.510  29.314  22.860  1.00  0.00     0.229 C 
ATOM     23  C   UNL A   1      27.124  28.789  23.178  1.00  0.00     0.049 C 
ENDBRANCH  21  22
ENDBRANCH  19  21
ENDBRANCH  12  19
BRANCH  15  24
ATOM     24  C   UNL A   1      32.080  27.732  25.405  1.00  0.00     0.045 A 
ATOM     25  C   UNL A   1      32.762  28.895  25.013  1.00  0.00     0.026 A 
ATOM     26  C   UNL A   1      31.623  27.685  26.733  1.00  0.00     0.026 A 
ATOM     27  C   UNL A   1      32.985  29.955  25.902  1.00  0.00     0.002 A 
ATOM     28  C   UNL A   1      31.854  28.740  27.627  1.00  0.00     0.002 A 
ATOM     29  C   UNL A   1      32.536  29.875  27.211  1.00  0.00     0.000 A 
ENDBRANCH  15  24
ENDBRANCH   6  11
ENDBRANCH   3   5
ENDBRANCH   2   3
ENDBRANCH   1   2
BRANCH   1  30
ATOM     30  C   UNL A   1      39.395  19.591  25.383  1.00  0.00     0.275 C 
BRANCH  30  31
ATOM     31  O   UNL A   1      40.378  19.478  26.421  1.00  0.00    -0.458 OA
BRANCH  31  32
ATOM     32  C   UNL A   1      41.666  19.626  26.057  1.00  0.00     0.338 C 
ATOM     33  O   UNL A   1      42.380  18.797  25.524  1.00  0.00    -0.246 OA
BRANCH  32  34
ATOM     34  C   UNL A   1      42.102  20.973  26.492  1.00  0.00     0.060 A 
ATOM     35  C   UNL A   1      42.393  21.976  25.556  1.00  0.00     0.016 A 
ATOM     36  C   UNL A   1      42.203  21.238  27.859  1.00  0.00     0.016 A 
ATOM     37  C   UNL A   1      42.770  23.247  25.988  1.00  0.00     0.010 A 
ATOM     38  C   UNL A   1      42.561  22.516  28.291  1.00  0.00     0.010 A 
ATOM     39  C   UNL A   1      42.849  23.526  27.359  1.00  0.00    -0.014 A 
BRANCH  39  40
ATOM     40  C   UNL A   1      43.271  24.866  27.823  1.00  0.00     0.031 A 
ATOM     41  C   UNL A   1      42.236  25.897  28.159  1.00  0.00     0.074 A 
ATOM     42  C   UNL A   1      44.579  25.157  27.940  1.00  0.00     0.049 A 
ATOM     43  N   UNL A   1      42.399  27.143  28.524  1.00  0.00    -0.248 NA
ATOM     44  C   UNL A   1      40.832  25.468  28.071  1.00  0.00     0.031 C 
ATOM     45  C   UNL A   1      45.680  24.236  27.661  1.00  0.00     0.029 A 
ATOM     46  N   UNL A   1      45.200  26.317  28.328  1.00  0.00    -0.354 N 
ATOM     47  C   UNL A   1      41.120  27.653  28.693  1.00  0.00     0.074 A 
ATOM     48  C   UNL A   1      40.191  26.583  28.393  1.00  0.00     0.031 C 
ATOM     49  C   UNL A   1      46.845  24.866  27.895  1.00  0.00     0.029 A 
ATOM     50  C   UNL A   1      46.569  26.236  28.319  1.00  0.00     0.049 A 
ATOM     51  H   UNL A   1      44.709  27.131  28.586  1.00  0.00     0.167 HD
ATOM     52  C   UNL A   1      40.754  28.902  29.063  1.00  0.00     0.037 A 
ATOM     53  C   UNL A   1      47.494  27.167  28.616  1.00  0.00     0.037 A 
ATOM     54  C   UNL A   1      41.668  29.966  29.375  1.00  0.00     0.049 A 
ATOM     55  C   UNL A   1      47.061  28.546  29.022  1.00  0.00     0.074 A 
ATOM     56  C   UNL A   1      41.385  31.267  29.751  1.00  0.00     0.029 A 
ATOM     57  N   UNL A   1      43.048  29.845  29.351  1.00  0.00    -0.354 N 
ATOM     58  N   UNL A   1      45.849  29.025  29.156  1.00  0.00    -0.248 NA
ATOM     59  C   UNL A   1      48.128  29.518  29.307  1.00  0.00     0.031 C 
ATOM     60  C   UNL A   1      42.598  31.939  29.949  1.00  0.00     0.029 A 
ATOM     61  C   UNL A   1      43.632  31.050  29.705  1.00  0.00     0.049 A 
ATOM     62  H   UNL A   1      43.540  29.025  29.118  1.00  0.00     0.167 HD
ATOM     63  C   UNL A   1      46.004  30.348  29.540  1.00  0.00     0.074 A 
ATOM     64  C   UNL A   1      47.428  30.598  29.630  1.00  0.00     0.031 C 
ATOM     65  C   UNL A   1      45.050  31.277  29.788  1.00  0.00     0.037 A 
BRANCH  52  66
ATOM     66  C   UNL A   1      39.289  29.184  29.134  1.00  0.00     0.064 A 
ATOM     67  C   UNL A   1      38.600  29.134  30.352  1.00  0.00     0.173 A 
ATOM     68  C   UNL A   1      38.573  29.518  27.976  1.00  0.00     0.173 A 
ATOM     69  F   UNL A   1      39.246  28.801  31.480  1.00  0.00    -0.203 F 
ATOM     70  C   UNL A   1      37.235  29.402  30.408  1.00  0.00     0.198 A 
ATOM     71  C   UNL A   1      37.210  29.792  28.037  1.00  0.00     0.198 A 
ATOM     72  F   UNL A   1      39.194  29.568  26.789  1.00  0.00    -0.203 F 
ATOM     73  F   UNL A   1      36.587  29.329  31.579  1.00  0.00    -0.200 F 
ATOM     74  C   UNL A   1      36.542  29.733  29.252  1.00  0.00     0.200 A 
ATOM     75  F   UNL A   1      36.540  30.108  26.921  1.00  0.00    -0.200 F 
ATOM     76  F   UNL A   1      35.227  29.986  29.307  1.00  0.00    -0.200 F 
ENDBRANCH  52  66
BRANCH  53  77
ATOM     77  C   UNL A   1      48.931  26.821  28.541  1.00  0.00     0.064 A 
ATOM     78  C   UNL A   1      49.644  26.988  27.348  1.00  0.00     0.173 A 
ATOM     79  C   UNL A   1      49.615  26.320  29.656  1.00  0.00     0.173 A 
ATOM     80  F   UNL A   1      49.019  27.445  26.253  1.00  0.00    -0.203 F 
ATOM     81  C   UNL A   1      50.995  26.661  27.271  1.00  0.00     0.198 A 
ATOM     82  C   UNL A   1      50.968  26.000  29.580  1.00  0.00     0.198 A 
ATOM     83  F   UNL A   1      48.965  26.135  30.814  1.00  0.00    -0.203 F 
ATOM     84  F   UNL A   1      51.653  26.807  26.112  1.00  0.00    -0.200 F 
ATOM     85  C   UNL A   1      51.656  26.170  28.387  1.00  0.00     0.200 A 
ATOM     86  F   UNL A   1      51.604  25.522  30.658  1.00  0.00    -0.200 F 
ATOM     87  F   UNL A   1      52.955  25.849  28.310  1.00  0.00    -0.200 F 
ENDBRANCH  53  77
BRANCH  65  88
ATOM     88  C   UNL A   1      45.515  32.643  30.177  1.00  0.00     0.064 A 
ATOM     89  C   UNL A   1      45.745  32.969  31.521  1.00  0.00     0.173 A 
ATOM     90  C   UNL A   1      45.769  33.617  29.202  1.00  0.00     0.173 A 
ATOM     91  F   UNL A   1      45.501  32.070  32.485  1.00  0.00    -0.203 F 
ATOM     92  C   UNL A   1      46.211  34.232  31.876  1.00  0.00     0.198 A 
ATOM     93  C   UNL A   1      46.243  34.875  29.561  1.00  0.00     0.198 A 
ATOM     94  F   UNL A   1      45.557  33.346  27.906  1.00  0.00    -0.203 F 
ATOM     95  F   UNL A   1      46.410  34.533  33.167  1.00  0.00    -0.200 F 
ATOM     96  C   UNL A   1      46.462  35.182  30.896  1.00  0.00     0.200 A 
ATOM     97  F   UNL A   1      46.483  35.794  28.615  1.00  0.00    -0.200 F 
ATOM     98  F   UNL A   1      46.910  36.397  31.240  1.00  0.00    -0.200 F 
ENDBRANCH  65  88
ENDBRANCH  39  40
ENDBRANCH  32  34
ENDBRANCH  31  32
ENDBRANCH  30  31
ENDBRANCH   1  30
TORSDOF 16
ENDMDL
MODEL 3
REMARK VINA RESULT:     -11.8      5.950     11.412
REMARK SMILES CCOC(=O)[C@@]1(C)C/C(=N/c2cccc(C(=O)OCCOC(=O)c3ccc(-c4c5nc(c(-c6c(F)c(F)c(F)c(F)c6F)c6ccc([nH]6)c(-c6c(F)c(F)c(F)c(F)c6F)c6nc(c(-c7c(F)c(F)c(F)c(F)c7F)c7ccc4[nH]7)C=C6)C=C5)cc3)c2)C(=O)N1c1ccccc1
REMARK SMILES IDX 19 1 18 2 16 3 17 4 15 5 11 6 12 7 87 8 13 9 14 10 10 11
REMARK SMILES IDX 6 12 7 13 8 14 90 15 9 16 88 17 89 18 4 19 5 20 3 21 2 22
REMARK SMILES IDX 1 23 91 24 92 25 96 26 93 27 95 28 94 29 20 30 21 31 22 32
REMARK SMILES IDX 23 33 24 34 25 35 86 36 26 37 85 38 27 39 28 40 29 41 79 42
REMARK SMILES IDX 30 43 84 44 78 45 80 46 31 47 83 48 77 49 76 50 32 52 64 53
REMARK SMILES IDX 44 54 63 55 45 56 48 57 62 58 81 59 46 60 47 61 61 63 82 64
REMARK SMILES IDX 49 65 33 66 34 67 42 68 35 69 36 70 40 71 43 72 37 73 38 74
REMARK SMILES IDX 41 75 39 76 65 77 66 78 74 79 67 80 68 81 72 82 75 83 69 84
REMARK SMILES IDX 70 85 73 86 71 87 50 88 51 89 59 90 52 91 53 92 57 93 60 94
REMARK SMILES IDX 54 95 55 96 58 97 56 98
REMARK H PARENT 80 51 48 62
REMARK Flexibility Score: inf
ROOT
ATOM      1  C   UNL A   1      38.365  19.737  24.968  1.00  0.00     0.275 C 
ENDROOT
BRANCH   1   2
ATOM      2  O   UNL A   1      37.247  20.473  25.503  1.00  0.00    -0.458 OA
BRANCH   2   3
ATOM      3  C   UNL A   1      36.781  21.487  24.727  1.00  0.00     0.338 C 
ATOM      4  O   UNL A   1      37.367  22.015  23.795  1.00  0.00    -0.246 OA
BRANCH   3   5
ATOM      5  C   UNL A   1      35.392  21.842  25.115  1.00  0.00     0.062 A 
ATOM      6  C   UNL A   1      33.180  22.694  24.586  1.00  0.00     0.064 A 
ATOM      7  C   UNL A   1      32.773  22.436  25.895  1.00  0.00     0.028 A 
ATOM      8  C   UNL A   1      34.505  22.439  24.214  1.00  0.00     0.044 A 
ATOM      9  C   UNL A   1      33.662  21.872  26.813  1.00  0.00     0.003 A 
ATOM     10  C   UNL A   1      34.965  21.560  26.418  1.00  0.00     0.016 A 
BRANCH   6  11
ATOM     11  N   UNL A   1      32.271  23.208  23.651  1.00  0.00    -0.248 NA
ATOM     12  C   UNL A   1      30.610  26.270  23.790  1.00  0.00     0.148 C 
ATOM     13  C   UNL A   1      29.475  25.754  24.695  1.00  0.00     0.048 C 
ATOM     14  C   UNL A   1      31.017  25.128  22.819  1.00  0.00     0.103 C 
ATOM     15  N   UNL A   1      31.836  26.575  24.570  1.00  0.00    -0.290 N 
ATOM     16  C   UNL A   1      32.099  24.494  23.610  1.00  0.00     0.109 C 
ATOM     17  C   UNL A   1      32.784  25.567  24.421  1.00  0.00     0.273 C 
ATOM     18  O   UNL A   1      33.926  25.463  24.809  1.00  0.00    -0.267 OA
BRANCH  12  19
ATOM     19  C   UNL A   1      30.134  27.404  22.859  1.00  0.00     0.332 C 
ATOM     20  O   UNL A   1      30.672  27.679  21.794  1.00  0.00    -0.249 OA
BRANCH  19  21
ATOM     21  O   UNL A   1      29.130  28.126  23.427  1.00  0.00    -0.464 OA
BRANCH  21  22
ATOM     22  C   UNL A   1      29.039  29.507  23.048  1.00  0.00     0.229 C 
ATOM     23  C   UNL A   1      27.590  29.902  22.842  1.00  0.00     0.049 C 
ENDBRANCH  21  22
ENDBRANCH  19  21
ENDBRANCH  12  19
BRANCH  15  24
ATOM     24  C   UNL A   1      32.005  27.724  25.411  1.00  0.00     0.045 A 
ATOM     25  C   UNL A   1      31.654  27.690  26.771  1.00  0.00     0.026 A 
ATOM     26  C   UNL A   1      32.521  28.935  24.923  1.00  0.00     0.026 A 
ATOM     27  C   UNL A   1      31.801  28.811  27.599  1.00  0.00     0.002 A 
ATOM     28  C   UNL A   1      32.659  30.061  25.746  1.00  0.00     0.002 A 
ATOM     29  C   UNL A   1      32.299  29.999  27.085  1.00  0.00     0.000 A 
ENDBRANCH  15  24
ENDBRANCH   6  11
ENDBRANCH   3   5
ENDBRANCH   2   3
ENDBRANCH   1   2
BRANCH   1  30
ATOM     30  C   UNL A   1      39.446  19.597  26.039  1.00  0.00     0.275 C 
BRANCH  30  31
ATOM     31  O   UNL A   1      40.669  19.231  25.385  1.00  0.00    -0.458 OA
BRANCH  31  32
ATOM     32  C   UNL A   1      41.783  19.220  26.143  1.00  0.00     0.338 C 
ATOM     33  O   UNL A   1      42.362  18.246  26.584  1.00  0.00    -0.246 OA
BRANCH  32  34
ATOM     34  C   UNL A   1      42.151  20.628  26.418  1.00  0.00     0.060 A 
ATOM     35  C   UNL A   1      42.325  21.548  25.373  1.00  0.00     0.016 A 
ATOM     36  C   UNL A   1      42.304  21.035  27.745  1.00  0.00     0.016 A 
ATOM     37  C   UNL A   1      42.639  22.876  25.657  1.00  0.00     0.010 A 
ATOM     38  C   UNL A   1      42.599  22.371  28.029  1.00  0.00     0.010 A 
ATOM     39  C   UNL A   1      42.771  23.297  26.987  1.00  0.00    -0.014 A 
BRANCH  39  40
ATOM     40  C   UNL A   1      43.127  24.699  27.292  1.00  0.00     0.031 A 
ATOM     41  C   UNL A   1      44.515  25.193  27.015  1.00  0.00     0.074 A 
ATOM     42  C   UNL A   1      42.207  25.528  27.818  1.00  0.00     0.049 A 
ATOM     43  N   UNL A   1      45.041  26.365  27.264  1.00  0.00    -0.248 NA
ATOM     44  C   UNL A   1      45.433  24.239  26.373  1.00  0.00     0.031 C 
ATOM     45  C   UNL A   1      40.820  25.174  28.117  1.00  0.00     0.029 A 
ATOM     46  N   UNL A   1      42.307  26.844  28.193  1.00  0.00    -0.354 N 
ATOM     47  C   UNL A   1      46.354  26.286  26.826  1.00  0.00     0.074 A 
ATOM     48  C   UNL A   1      46.548  24.952  26.294  1.00  0.00     0.031 C 
ATOM     49  C   UNL A   1      40.194  26.251  28.623  1.00  0.00     0.029 A 
ATOM     50  C   UNL A   1      41.142  27.360  28.701  1.00  0.00     0.049 A 
ATOM     51  H   UNL A   1      43.137  27.368  28.106  1.00  0.00     0.167 HD
ATOM     52  C   UNL A   1      47.314  27.239  26.867  1.00  0.00     0.037 A 
ATOM     53  C   UNL A   1      40.875  28.588  29.180  1.00  0.00     0.037 A 
ATOM     54  C   UNL A   1      47.129  28.567  27.381  1.00  0.00     0.049 A 
ATOM     55  C   UNL A   1      41.959  29.627  29.216  1.00  0.00     0.074 A 
ATOM     56  C   UNL A   1      48.050  29.597  27.469  1.00  0.00     0.029 A 
ATOM     57  N   UNL A   1      45.935  29.051  27.890  1.00  0.00    -0.354 N 
ATOM     58  N   UNL A   1      43.204  29.535  28.821  1.00  0.00    -0.248 NA
ATOM     59  C   UNL A   1      41.600  30.940  29.775  1.00  0.00     0.031 C 
ATOM     60  C   UNL A   1      47.413  30.706  28.041  1.00  0.00     0.029 A 
ATOM     61  C   UNL A   1      46.094  30.365  28.296  1.00  0.00     0.049 A 
ATOM     62  H   UNL A   1      45.098  28.537  27.954  1.00  0.00     0.167 HD
ATOM     63  C   UNL A   1      43.778  30.770  29.082  1.00  0.00     0.074 A 
ATOM     64  C   UNL A   1      42.743  31.603  29.659  1.00  0.00     0.031 C 
ATOM     65  C   UNL A   1      45.053  31.175  28.868  1.00  0.00     0.037 A 
BRANCH  52  66
ATOM     66  C   UNL A   1      48.663  26.861  26.348  1.00  0.00     0.064 A 
ATOM     67  C   UNL A   1      49.011  27.078  25.009  1.00  0.00     0.173 A 
ATOM     68  C   UNL A   1      49.618  26.291  27.201  1.00  0.00     0.173 A 
ATOM     69  F   UNL A   1      48.120  27.606  24.157  1.00  0.00    -0.203 F 
ATOM     70  C   UNL A   1      50.272  26.726  24.536  1.00  0.00     0.198 A 
ATOM     71  C   UNL A   1      50.881  25.947  26.727  1.00  0.00     0.198 A 
ATOM     72  F   UNL A   1      49.322  26.059  28.488  1.00  0.00    -0.203 F 
ATOM     73  F   UNL A   1      50.582  26.921  23.247  1.00  0.00    -0.200 F 
ATOM     74  C   UNL A   1      51.207  26.164  25.396  1.00  0.00     0.200 A 
ATOM     75  F   UNL A   1      51.781  25.401  27.555  1.00  0.00    -0.200 F 
ATOM     76  F   UNL A   1      52.419  25.822  24.938  1.00  0.00    -0.200 F 
ENDBRANCH  52  66
BRANCH  53  77
ATOM     77  C   UNL A   1      39.514  28.905  29.666  1.00  0.00     0.064 A 
ATOM     78  C   UNL A   1      38.561  29.463  28.805  1.00  0.00     0.173 A 
ATOM     79  C   UNL A   1      39.142  28.659  30.994  1.00  0.00     0.173 A 
ATOM     80  F   UNL A   1      38.886  29.734  27.532  1.00  0.00    -0.203 F 
ATOM     81  C   UNL A   1      37.280  29.768  29.257  1.00  0.00     0.198 A 
ATOM     82  C   UNL A   1      37.858  28.956  31.443  1.00  0.00     0.198 A 
ATOM     83  F   UNL A   1      40.029  28.136  31.852  1.00  0.00    -0.203 F 
ATOM     84  F   UNL A   1      36.390  30.322  28.422  1.00  0.00    -0.200 F 
ATOM     85  C   UNL A   1      36.929  29.512  30.575  1.00  0.00     0.200 A 
ATOM     86  F   UNL A   1      37.522  28.713  32.717  1.00  0.00    -0.200 F 
ATOM     87  F   UNL A   1      35.697  29.811  31.011  1.00  0.00    -0.200 F 
ENDBRANCH  53  77
BRANCH  65  88
ATOM     88  C   UNL A   1      45.396  32.575  29.262  1.00  0.00     0.064 A 
ATOM     89  C   UNL A   1      45.893  32.862  30.542  1.00  0.00     0.173 A 
ATOM     90  C   UNL A   1      45.267  33.628  28.347  1.00  0.00     0.173 A 
ATOM     91  F   UNL A   1      46.018  31.885  31.452  1.00  0.00    -0.203 F 
ATOM     92  C   UNL A   1      46.244  34.163  30.893  1.00  0.00     0.198 A 
ATOM     93  C   UNL A   1      45.627  34.925  28.699  1.00  0.00     0.198 A 
ATOM     94  F   UNL A   1      44.792  33.397  27.114  1.00  0.00    -0.203 F 
ATOM     95  F   UNL A   1      46.701  34.421  32.126  1.00  0.00    -0.200 F 
ATOM     96  C   UNL A   1      46.114  35.192  29.971  1.00  0.00     0.200 A 
ATOM     97  F   UNL A   1      45.499  35.920  27.810  1.00  0.00    -0.200 F 
ATOM     98  F   UNL A   1      46.452  36.442  30.311  1.00  0.00    -0.200 F 
ENDBRANCH  65  88
ENDBRANCH  39  40
ENDBRANCH  32  34
ENDBRANCH  31  32
ENDBRANCH  30  31
ENDBRANCH   1  30
TORSDOF 16
ENDMDL
