MODEL 1
REMARK VINA RESULT:     -13.7      0.000      0.000
REMARK SMILES C[C@@H]1C(C(=O)OCCOC(=O)c2ccc(-c3c4nc(c(-c5c(F)c(F)c(F)c(F)c5F)c5ccc([nH]5)c(-c5c(F)c(F)c(F)c(F)c5F)c5nc(c(-c6c(F)c(F)c(F)c(F)c6F)c6ccc3[nH]6)C=C5)C=C4)cc2)=NC2=C1C(=O)C[C@H](c1ccccc1)C2
REMARK SMILES IDX 8 1 7 2 6 3 4 4 5 5 3 6 1 7 2 8 77 9 75 10 76 11 78 12 88 13
REMARK SMILES IDX 79 14 80 15 81 16 82 17 83 18 87 19 84 20 86 21 85 22 9 23
REMARK SMILES IDX 10 24 11 25 12 26 13 27 74 28 14 29 73 30 15 31 16 32 17 33
REMARK SMILES IDX 67 34 18 35 72 36 66 37 68 38 19 39 71 40 65 41 64 42 20 44
REMARK SMILES IDX 52 45 32 46 51 47 33 48 36 49 50 50 69 51 34 52 35 53 49 55
REMARK SMILES IDX 70 56 37 57 21 58 22 59 30 60 23 61 24 62 28 63 31 64 25 65
REMARK SMILES IDX 26 66 29 67 27 68 53 69 54 70 62 71 55 72 56 73 60 74 63 75
REMARK SMILES IDX 57 76 58 77 61 78 59 79 38 80 39 81 47 82 40 83 41 84 45 85
REMARK SMILES IDX 48 86 42 87 43 88 46 89 44 90
REMARK H PARENT 68 43 36 54
REMARK Flexibility Score: inf
ROOT
ATOM      1  C   UNL A   1      38.830  21.333  25.740  1.00  0.00     0.275 C 
ENDROOT
BRANCH   1   2
ATOM      2  C   UNL A   1      37.879  22.474  25.433  1.00  0.00     0.275 C 
BRANCH   2   3
ATOM      3  O   UNL A   1      36.630  22.264  26.116  1.00  0.00    -0.458 OA
BRANCH   3   4
ATOM      4  C   UNL A   1      35.654  23.183  25.898  1.00  0.00     0.353 C 
ATOM      5  O   UNL A   1      35.789  24.379  25.727  1.00  0.00    -0.245 OA
BRANCH   4   6
ATOM      6  C   UNL A   1      34.342  22.432  25.693  1.00  0.00     0.133 C 
ATOM      7  C   UNL A   1      34.550  20.149  24.821  1.00  0.00     0.020 C 
ATOM      8  C   UNL A   1      34.163  21.577  24.463  1.00  0.00     0.078 C 
ATOM      9  C   UNL A   1      32.696  21.794  24.434  1.00  0.00     0.026 C 
ATOM     10  N   UNL A   1      33.289  22.552  26.466  1.00  0.00    -0.249 NA
ATOM     11  C   UNL A   1      32.249  22.217  25.621  1.00  0.00     0.049 C 
ATOM     12  C   UNL A   1      31.940  22.156  23.226  1.00  0.00     0.161 C 
ATOM     13  C   UNL A   1      30.892  22.848  25.747  1.00  0.00     0.065 C 
ATOM     14  O   UNL A   1      32.104  21.513  22.192  1.00  0.00    -0.294 OA
ATOM     15  C   UNL A   1      31.013  23.373  23.285  1.00  0.00     0.089 C 
ATOM     16  C   UNL A   1      30.778  23.971  24.698  1.00  0.00     0.033 C 
BRANCH  16  17
ATOM     17  C   UNL A   1      31.674  25.175  25.045  1.00  0.00    -0.044 A 
ATOM     18  C   UNL A   1      33.049  25.656  23.942  1.00  0.00     0.004 A 
ATOM     19  C   UNL A   1      31.305  26.246  26.496  1.00  0.00     0.004 A 
ATOM     20  C   UNL A   1      33.987  27.180  24.217  1.00  0.00     0.000 A 
ATOM     21  C   UNL A   1      32.233  27.786  26.767  1.00  0.00     0.000 A 
ATOM     22  C   UNL A   1      33.575  28.278  25.638  1.00  0.00     0.000 A 
ENDBRANCH  16  17
ENDBRANCH   4   6
ENDBRANCH   3   4
ENDBRANCH   2   3
ENDBRANCH   1   2
BRANCH   1  23
ATOM     23  O   UNL A   1      39.764  21.772  26.752  1.00  0.00    -0.458 OA
BRANCH  23  24
ATOM     24  C   UNL A   1      41.029  22.383  26.236  1.00  0.00     0.338 C 
ATOM     25  O   UNL A   1      41.544  21.342  25.739  1.00  0.00    -0.246 OA
BRANCH  24  26
ATOM     26  C   UNL A   1      41.686  24.424  26.456  1.00  0.00     0.060 A 
ATOM     27  C   UNL A   1      42.685  25.031  27.345  1.00  0.00     0.016 A 
ATOM     28  C   UNL A   1      41.153  25.674  25.894  1.00  0.00     0.016 A 
ATOM     29  C   UNL A   1      42.395  26.102  28.185  1.00  0.00     0.010 A 
ATOM     30  C   UNL A   1      40.641  26.656  26.724  1.00  0.00     0.010 A 
ATOM     31  C   UNL A   1      41.224  26.799  27.956  1.00  0.00    -0.014 A 
BRANCH  31  32
ATOM     32  C   UNL A   1      41.035  28.062  28.625  1.00  0.00     0.031 A 
ATOM     33  C   UNL A   1      42.108  28.991  28.180  1.00  0.00     0.074 A 
ATOM     34  C   UNL A   1      39.989  28.400  29.392  1.00  0.00     0.049 A 
ATOM     35  N   UNL A   1      43.163  29.309  28.852  1.00  0.00    -0.248 NA
ATOM     36  C   UNL A   1      42.198  29.318  26.740  1.00  0.00     0.031 C 
ATOM     37  C   UNL A   1      38.744  27.687  29.665  1.00  0.00     0.029 A 
ATOM     38  N   UNL A   1      39.824  29.569  30.061  1.00  0.00    -0.354 N 
ATOM     39  C   UNL A   1      43.940  30.049  27.973  1.00  0.00     0.074 A 
ATOM     40  C   UNL A   1      43.442  29.783  26.656  1.00  0.00     0.031 C 
ATOM     41  C   UNL A   1      37.867  28.536  30.259  1.00  0.00     0.029 A 
ATOM     42  C   UNL A   1      38.537  29.798  30.526  1.00  0.00     0.049 A 
ATOM     43  H   UNL A   1      40.562  30.205  30.205  1.00  0.00     0.167 HD
ATOM     44  C   UNL A   1      44.695  31.078  28.434  1.00  0.00     0.037 A 
ATOM     45  C   UNL A   1      38.099  30.993  31.002  1.00  0.00     0.037 A 
ATOM     46  C   UNL A   1      44.940  30.928  29.849  1.00  0.00     0.049 A 
ATOM     47  C   UNL A   1      39.310  31.779  31.384  1.00  0.00     0.074 A 
ATOM     48  C   UNL A   1      45.539  29.944  30.615  1.00  0.00     0.029 A 
ATOM     49  N   UNL A   1      44.144  31.642  30.712  1.00  0.00    -0.354 N 
ATOM     50  N   UNL A   1      40.096  31.446  32.373  1.00  0.00    -0.248 NA
ATOM     51  C   UNL A   1      39.920  32.613  30.356  1.00  0.00     0.031 C 
ATOM     52  C   UNL A   1      44.706  29.814  31.767  1.00  0.00     0.029 A 
ATOM     53  C   UNL A   1      43.704  30.782  31.688  1.00  0.00     0.049 A 
ATOM     54  H   UNL A   1      43.928  32.600  30.644  1.00  0.00     0.167 HD
ATOM     55  C   UNL A   1      41.381  31.655  31.890  1.00  0.00     0.074 A 
ATOM     56  C   UNL A   1      41.209  32.421  30.657  1.00  0.00     0.031 C 
ATOM     57  C   UNL A   1      42.437  30.930  32.364  1.00  0.00     0.037 A 
BRANCH  44  58
ATOM     58  C   UNL A   1      44.792  32.398  27.712  1.00  0.00     0.064 A 
ATOM     59  C   UNL A   1      45.921  32.636  26.910  1.00  0.00     0.173 A 
ATOM     60  C   UNL A   1      44.004  33.537  28.004  1.00  0.00     0.173 A 
ATOM     61  F   UNL A   1      46.745  31.630  26.578  1.00  0.00    -0.203 F 
ATOM     62  C   UNL A   1      46.283  33.926  26.516  1.00  0.00     0.198 A 
ATOM     63  C   UNL A   1      44.339  34.814  27.565  1.00  0.00     0.198 A 
ATOM     64  F   UNL A   1      42.943  33.504  28.816  1.00  0.00    -0.203 F 
ATOM     65  F   UNL A   1      47.440  34.120  25.871  1.00  0.00    -0.200 F 
ATOM     66  C   UNL A   1      45.499  35.014  26.853  1.00  0.00     0.200 A 
ATOM     67  F   UNL A   1      43.571  35.852  27.922  1.00  0.00    -0.200 F 
ATOM     68  F   UNL A   1      45.881  36.257  26.539  1.00  0.00    -0.200 F 
ENDBRANCH  44  58
BRANCH  45  69
ATOM     69  C   UNL A   1      36.780  31.641  30.797  1.00  0.00     0.064 A 
ATOM     70  C   UNL A   1      35.948  31.951  31.888  1.00  0.00     0.173 A 
ATOM     71  C   UNL A   1      36.442  32.238  29.567  1.00  0.00     0.173 A 
ATOM     72  F   UNL A   1      36.224  31.463  33.106  1.00  0.00    -0.203 F 
ATOM     73  C   UNL A   1      34.863  32.829  31.761  1.00  0.00     0.198 A 
ATOM     74  C   UNL A   1      35.360  33.112  29.442  1.00  0.00     0.198 A 
ATOM     75  F   UNL A   1      37.216  32.067  28.486  1.00  0.00    -0.203 F 
ATOM     76  F   UNL A   1      34.132  33.150  32.838  1.00  0.00    -0.200 F 
ATOM     77  C   UNL A   1      34.579  33.418  30.541  1.00  0.00     0.200 A 
ATOM     78  F   UNL A   1      35.121  33.706  28.264  1.00  0.00    -0.200 F 
ATOM     79  F   UNL A   1      33.584  34.309  30.432  1.00  0.00    -0.200 F 
ENDBRANCH  45  69
BRANCH  57  80
ATOM     80  C   UNL A   1      42.208  30.068  33.575  1.00  0.00     0.064 A 
ATOM     81  C   UNL A   1      41.781  28.729  33.528  1.00  0.00     0.173 A 
ATOM     82  C   UNL A   1      42.574  30.581  34.826  1.00  0.00     0.173 A 
ATOM     83  F   UNL A   1      41.510  28.131  32.361  1.00  0.00    -0.203 F 
ATOM     84  C   UNL A   1      41.684  27.958  34.688  1.00  0.00     0.198 A 
ATOM     85  C   UNL A   1      42.512  29.800  35.976  1.00  0.00     0.198 A 
ATOM     86  F   UNL A   1      43.042  31.835  34.924  1.00  0.00    -0.203 F 
ATOM     87  F   UNL A   1      41.263  26.687  34.617  1.00  0.00    -0.200 F 
ATOM     88  C   UNL A   1      42.055  28.494  35.909  1.00  0.00     0.200 A 
ATOM     89  F   UNL A   1      42.922  30.308  37.146  1.00  0.00    -0.200 F 
ATOM     90  F   UNL A   1      42.001  27.743  37.018  1.00  0.00    -0.200 F 
ENDBRANCH  57  80
ENDBRANCH  31  32
ENDBRANCH  24  26
ENDBRANCH  23  24
ENDBRANCH   1  23
TORSDOF 12
ENDMDL
MODEL 2
REMARK VINA RESULT:     -13.7      3.239      8.652
REMARK SMILES C[C@@H]1C(C(=O)OCCOC(=O)c2ccc(-c3c4nc(c(-c5c(F)c(F)c(F)c(F)c5F)c5ccc([nH]5)c(-c5c(F)c(F)c(F)c(F)c5F)c5nc(c(-c6c(F)c(F)c(F)c(F)c6F)c6ccc3[nH]6)C=C5)C=C4)cc2)=NC2=C1C(=O)C[C@H](c1ccccc1)C2
REMARK SMILES IDX 8 1 7 2 6 3 4 4 5 5 3 6 1 7 2 8 77 9 75 10 76 11 78 12 88 13
REMARK SMILES IDX 79 14 80 15 81 16 82 17 83 18 87 19 84 20 86 21 85 22 9 23
REMARK SMILES IDX 10 24 11 25 12 26 13 27 74 28 14 29 73 30 15 31 16 32 17 33
REMARK SMILES IDX 67 34 18 35 72 36 66 37 68 38 19 39 71 40 65 41 64 42 20 44
REMARK SMILES IDX 52 45 32 46 51 47 33 48 36 49 50 50 69 51 34 52 35 53 49 55
REMARK SMILES IDX 70 56 37 57 21 58 22 59 30 60 23 61 24 62 28 63 31 64 25 65
REMARK SMILES IDX 26 66 29 67 27 68 53 69 54 70 62 71 55 72 56 73 60 74 63 75
REMARK SMILES IDX 57 76 58 77 61 78 59 79 38 80 39 81 47 82 40 83 41 84 45 85
REMARK SMILES IDX 48 86 42 87 43 88 46 89 44 90
REMARK H PARENT 68 43 36 54
REMARK Flexibility Score: inf
ROOT
ATOM      1  C   UNL A   1      33.657  29.572  27.260  1.00  0.00     0.275 C 
ENDROOT
BRANCH   1   2
ATOM      2  C   UNL A   1      34.665  28.813  26.419  1.00  0.00     0.275 C 
BRANCH   2   3
ATOM      3  O   UNL A   1      34.000  27.763  25.694  1.00  0.00    -0.458 OA
BRANCH   3   4
ATOM      4  C   UNL A   1      33.706  28.013  24.391  1.00  0.00     0.353 C 
ATOM      5  O   UNL A   1      34.410  28.565  23.568  1.00  0.00    -0.245 OA
BRANCH   4   6
ATOM      6  C   UNL A   1      32.402  27.295  24.059  1.00  0.00     0.133 C 
ATOM      7  C   UNL A   1      30.348  28.533  24.568  1.00  0.00     0.020 C 
ATOM      8  C   UNL A   1      31.242  27.386  25.018  1.00  0.00     0.078 C 
ATOM      9  C   UNL A   1      30.719  26.053  24.629  1.00  0.00     0.026 C 
ATOM     10  N   UNL A   1      32.235  26.499  23.030  1.00  0.00    -0.249 NA
ATOM     11  C   UNL A   1      31.213  25.669  23.447  1.00  0.00     0.049 C 
ATOM     12  C   UNL A   1      30.302  25.020  25.588  1.00  0.00     0.161 C 
ATOM     13  C   UNL A   1      31.133  24.233  23.015  1.00  0.00     0.065 C 
ATOM     14  O   UNL A   1      29.537  25.315  26.504  1.00  0.00    -0.294 OA
ATOM     15  C   UNL A   1      30.889  23.614  25.446  1.00  0.00     0.089 C 
ATOM     16  C   UNL A   1      31.696  23.351  24.146  1.00  0.00     0.033 C 
BRANCH  16  17
ATOM     17  C   UNL A   1      33.222  23.508  24.292  1.00  0.00    -0.044 A 
ATOM     18  C   UNL A   1      33.946  24.114  25.856  1.00  0.00     0.004 A 
ATOM     19  C   UNL A   1      34.365  22.963  22.956  1.00  0.00     0.004 A 
ATOM     20  C   UNL A   1      35.737  24.118  26.126  1.00  0.00     0.000 A 
ATOM     21  C   UNL A   1      36.162  22.947  23.228  1.00  0.00     0.000 A 
ATOM     22  C   UNL A   1      36.873  23.515  24.807  1.00  0.00     0.000 A 
ENDBRANCH  16  17
ENDBRANCH   4   6
ENDBRANCH   3   4
ENDBRANCH   2   3
ENDBRANCH   1   2
BRANCH   1  23
ATOM     23  O   UNL A   1      33.828  30.987  27.018  1.00  0.00    -0.458 OA
BRANCH  23  24
ATOM     24  C   UNL A   1      34.631  31.722  28.045  1.00  0.00     0.338 C 
ATOM     25  O   UNL A   1      34.129  32.870  27.880  1.00  0.00    -0.246 OA
BRANCH  24  26
ATOM     26  C   UNL A   1      36.217  30.940  29.279  1.00  0.00     0.060 A 
ATOM     27  C   UNL A   1      37.458  31.554  29.767  1.00  0.00     0.016 A 
ATOM     28  C   UNL A   1      36.486  29.574  29.749  1.00  0.00     0.016 A 
ATOM     29  C   UNL A   1      38.711  30.984  29.563  1.00  0.00     0.010 A 
ATOM     30  C   UNL A   1      37.633  28.907  29.355  1.00  0.00     0.010 A 
ATOM     31  C   UNL A   1      38.758  29.664  29.155  1.00  0.00    -0.014 A 
BRANCH  31  32
ATOM     32  C   UNL A   1      40.024  28.977  29.201  1.00  0.00     0.031 A 
ATOM     33  C   UNL A   1      40.388  28.763  30.627  1.00  0.00     0.074 A 
ATOM     34  C   UNL A   1      40.686  28.472  28.150  1.00  0.00     0.049 A 
ATOM     35  N   UNL A   1      41.250  29.448  31.300  1.00  0.00    -0.248 NA
ATOM     36  C   UNL A   1      39.475  27.962  31.470  1.00  0.00     0.031 C 
ATOM     37  C   UNL A   1      40.295  28.362  26.748  1.00  0.00     0.029 A 
ATOM     38  N   UNL A   1      41.899  27.864  28.178  1.00  0.00    -0.354 N 
ATOM     39  C   UNL A   1      41.120  29.003  32.608  1.00  0.00     0.074 A 
ATOM     40  C   UNL A   1      39.862  28.326  32.691  1.00  0.00     0.031 C 
ATOM     41  C   UNL A   1      41.157  27.529  26.110  1.00  0.00     0.029 A 
ATOM     42  C   UNL A   1      42.226  27.163  27.025  1.00  0.00     0.049 A 
ATOM     43  H   UNL A   1      42.499  27.915  28.957  1.00  0.00     0.167 HD
ATOM     44  C   UNL A   1      42.210  28.933  33.413  1.00  0.00     0.037 A 
ATOM     45  C   UNL A   1      43.266  26.295  26.930  1.00  0.00     0.037 A 
ATOM     46  C   UNL A   1      43.258  29.796  32.920  1.00  0.00     0.049 A 
ATOM     47  C   UNL A   1      44.209  26.620  28.042  1.00  0.00     0.074 A 
ATOM     48  C   UNL A   1      43.339  31.154  32.673  1.00  0.00     0.029 A 
ATOM     49  N   UNL A   1      44.259  29.220  32.175  1.00  0.00    -0.354 N 
ATOM     50  N   UNL A   1      44.885  27.736  28.102  1.00  0.00    -0.248 NA
ATOM     51  C   UNL A   1      43.996  25.950  29.320  1.00  0.00     0.031 C 
ATOM     52  C   UNL A   1      44.046  31.264  31.438  1.00  0.00     0.029 A 
ATOM     53  C   UNL A   1      44.437  29.983  31.048  1.00  0.00     0.049 A 
ATOM     54  H   UNL A   1      44.760  28.404  32.408  1.00  0.00     0.167 HD
ATOM     55  C   UNL A   1      44.810  28.125  29.433  1.00  0.00     0.074 A 
ATOM     56  C   UNL A   1      44.290  26.960  30.145  1.00  0.00     0.031 C 
ATOM     57  C   UNL A   1      44.883  29.442  29.786  1.00  0.00     0.037 A 
BRANCH  44  58
ATOM     58  C   UNL A   1      42.463  27.765  34.332  1.00  0.00     0.064 A 
ATOM     59  C   UNL A   1      43.033  26.602  33.788  1.00  0.00     0.173 A 
ATOM     60  C   UNL A   1      41.903  27.619  35.625  1.00  0.00     0.173 A 
ATOM     61  F   UNL A   1      43.585  26.622  32.565  1.00  0.00    -0.203 F 
ATOM     62  C   UNL A   1      42.959  25.371  34.445  1.00  0.00     0.198 A 
ATOM     63  C   UNL A   1      41.878  26.402  36.298  1.00  0.00     0.198 A 
ATOM     64  F   UNL A   1      41.251  28.601  36.254  1.00  0.00    -0.203 F 
ATOM     65  F   UNL A   1      43.393  24.265  33.827  1.00  0.00    -0.200 F 
ATOM     66  C   UNL A   1      42.373  25.271  35.693  1.00  0.00     0.200 A 
ATOM     67  F   UNL A   1      41.287  26.330  37.498  1.00  0.00    -0.200 F 
ATOM     68  F   UNL A   1      42.238  24.082  36.292  1.00  0.00    -0.200 F 
ENDBRANCH  44  58
BRANCH  45  69
ATOM     69  C   UNL A   1      43.321  24.995  26.216  1.00  0.00     0.064 A 
ATOM     70  C   UNL A   1      44.294  24.750  25.230  1.00  0.00     0.173 A 
ATOM     71  C   UNL A   1      42.620  23.869  26.691  1.00  0.00     0.173 A 
ATOM     72  F   UNL A   1      45.041  25.758  24.757  1.00  0.00    -0.203 F 
ATOM     73  C   UNL A   1      44.569  23.456  24.771  1.00  0.00     0.198 A 
ATOM     74  C   UNL A   1      42.894  22.580  26.231  1.00  0.00     0.198 A 
ATOM     75  F   UNL A   1      41.727  23.986  27.683  1.00  0.00    -0.203 F 
ATOM     76  F   UNL A   1      45.549  23.255  23.878  1.00  0.00    -0.200 F 
ATOM     77  C   UNL A   1      43.877  22.371  25.282  1.00  0.00     0.200 A 
ATOM     78  F   UNL A   1      42.244  21.534  26.763  1.00  0.00    -0.200 F 
ATOM     79  F   UNL A   1      44.184  21.125  24.895  1.00  0.00    -0.200 F 
ENDBRANCH  45  69
BRANCH  57  80
ATOM     80  C   UNL A   1      45.273  30.432  28.722  1.00  0.00     0.064 A 
ATOM     81  C   UNL A   1      44.372  31.029  27.823  1.00  0.00     0.173 A 
ATOM     82  C   UNL A   1      46.594  30.898  28.711  1.00  0.00     0.173 A 
ATOM     83  F   UNL A   1      43.070  30.715  27.840  1.00  0.00    -0.203 F 
ATOM     84  C   UNL A   1      44.788  32.014  26.926  1.00  0.00     0.198 A 
ATOM     85  C   UNL A   1      46.999  31.905  27.841  1.00  0.00     0.198 A 
ATOM     86  F   UNL A   1      47.486  30.405  29.584  1.00  0.00    -0.203 F 
ATOM     87  F   UNL A   1      43.911  32.560  26.072  1.00  0.00    -0.200 F 
ATOM     88  C   UNL A   1      46.101  32.455  26.941  1.00  0.00     0.200 A 
ATOM     89  F   UNL A   1      48.257  32.364  27.896  1.00  0.00    -0.200 F 
ATOM     90  F   UNL A   1      46.493  33.428  26.108  1.00  0.00    -0.200 F 
ENDBRANCH  57  80
ENDBRANCH  31  32
ENDBRANCH  24  26
ENDBRANCH  23  24
ENDBRANCH   1  23
TORSDOF 12
ENDMDL
MODEL 3
REMARK VINA RESULT:     -13.6      3.314      8.719
REMARK SMILES C[C@@H]1C(C(=O)OCCOC(=O)c2ccc(-c3c4nc(c(-c5c(F)c(F)c(F)c(F)c5F)c5ccc([nH]5)c(-c5c(F)c(F)c(F)c(F)c5F)c5nc(c(-c6c(F)c(F)c(F)c(F)c6F)c6ccc3[nH]6)C=C5)C=C4)cc2)=NC2=C1C(=O)C[C@H](c1ccccc1)C2
REMARK SMILES IDX 8 1 7 2 6 3 4 4 5 5 3 6 1 7 2 8 77 9 75 10 76 11 78 12 88 13
REMARK SMILES IDX 79 14 80 15 81 16 82 17 83 18 87 19 84 20 86 21 85 22 9 23
REMARK SMILES IDX 10 24 11 25 12 26 13 27 74 28 14 29 73 30 15 31 16 32 17 33
REMARK SMILES IDX 67 34 18 35 72 36 66 37 68 38 19 39 71 40 65 41 64 42 20 44
REMARK SMILES IDX 52 45 32 46 51 47 33 48 36 49 50 50 69 51 34 52 35 53 49 55
REMARK SMILES IDX 70 56 37 57 21 58 22 59 30 60 23 61 24 62 28 63 31 64 25 65
REMARK SMILES IDX 26 66 29 67 27 68 53 69 54 70 62 71 55 72 56 73 60 74 63 75
REMARK SMILES IDX 57 76 58 77 61 78 59 79 38 80 39 81 47 82 40 83 41 84 45 85
REMARK SMILES IDX 48 86 42 87 43 88 46 89 44 90
REMARK H PARENT 68 43 36 54
REMARK Flexibility Score: inf
ROOT
ATOM      1  C   UNL A   1      34.445  30.715  27.760  1.00  0.00     0.275 C 
ENDROOT
BRANCH   1   2
ATOM      2  C   UNL A   1      33.264  30.377  26.871  1.00  0.00     0.275 C 
BRANCH   2   3
ATOM      3  O   UNL A   1      33.720  29.669  25.705  1.00  0.00    -0.458 OA
BRANCH   3   4
ATOM      4  C   UNL A   1      33.459  28.336  25.660  1.00  0.00     0.353 C 
ATOM      5  O   UNL A   1      33.750  27.497  26.490  1.00  0.00    -0.245 OA
BRANCH   4   6
ATOM      6  C   UNL A   1      32.541  28.078  24.469  1.00  0.00     0.133 C 
ATOM      7  C   UNL A   1      30.649  29.621  24.234  1.00  0.00     0.020 C 
ATOM      8  C   UNL A   1      31.048  28.211  24.644  1.00  0.00     0.078 C 
ATOM      9  C   UNL A   1      30.761  27.196  23.599  1.00  0.00     0.026 C 
ATOM     10  N   UNL A   1      32.945  27.640  23.301  1.00  0.00    -0.249 NA
ATOM     11  C   UNL A   1      31.819  27.016  22.801  1.00  0.00     0.049 C 
ATOM     12  C   UNL A   1      29.805  26.092  23.763  1.00  0.00     0.161 C 
ATOM     13  C   UNL A   1      31.912  25.806  21.917  1.00  0.00     0.065 C 
ATOM     14  O   UNL A   1      28.673  26.327  24.181  1.00  0.00    -0.294 OA
ATOM     15  C   UNL A   1      30.278  24.668  23.462  1.00  0.00     0.089 C 
ATOM     16  C   UNL A   1      31.667  24.552  22.778  1.00  0.00     0.033 C 
BRANCH  16  17
ATOM     17  C   UNL A   1      32.838  24.278  23.740  1.00  0.00    -0.044 A 
ATOM     18  C   UNL A   1      32.573  24.285  25.548  1.00  0.00     0.004 A 
ATOM     19  C   UNL A   1      34.498  23.800  23.105  1.00  0.00     0.004 A 
ATOM     20  C   UNL A   1      33.878  23.769  26.693  1.00  0.00     0.000 A 
ATOM     21  C   UNL A   1      35.806  23.265  24.248  1.00  0.00     0.000 A 
ATOM     22  C   UNL A   1      35.519  23.235  26.047  1.00  0.00     0.000 A 
ENDBRANCH  16  17
ENDBRANCH   4   6
ENDBRANCH   3   4
ENDBRANCH   2   3
ENDBRANCH   1   2
BRANCH   1  23
ATOM     23  O   UNL A   1      34.299  32.076  28.224  1.00  0.00    -0.458 OA
BRANCH  23  24
ATOM     24  C   UNL A   1      34.804  32.342  29.607  1.00  0.00     0.338 C 
ATOM     25  O   UNL A   1      34.028  33.293  29.903  1.00  0.00    -0.246 OA
BRANCH  24  26
ATOM     26  C   UNL A   1      36.451  31.379  30.611  1.00  0.00     0.060 A 
ATOM     27  C   UNL A   1      37.791  31.866  30.962  1.00  0.00     0.016 A 
ATOM     28  C   UNL A   1      36.654  29.976  31.002  1.00  0.00     0.016 A 
ATOM     29  C   UNL A   1      38.956  31.202  30.587  1.00  0.00     0.010 A 
ATOM     30  C   UNL A   1      37.681  29.233  30.448  1.00  0.00     0.010 A 
ATOM     31  C   UNL A   1      38.837  29.901  30.136  1.00  0.00    -0.014 A 
BRANCH  31  32
ATOM     32  C   UNL A   1      40.033  29.108  30.004  1.00  0.00     0.031 A 
ATOM     33  C   UNL A   1      40.606  28.897  31.361  1.00  0.00     0.074 A 
ATOM     34  C   UNL A   1      40.473  28.525  28.880  1.00  0.00     0.049 A 
ATOM     35  N   UNL A   1      41.619  29.521  31.861  1.00  0.00    -0.248 NA
ATOM     36  C   UNL A   1      39.780  28.198  32.368  1.00  0.00     0.031 C 
ATOM     37  C   UNL A   1      39.853  28.416  27.563  1.00  0.00     0.029 A 
ATOM     38  N   UNL A   1      41.621  27.815  28.737  1.00  0.00    -0.354 N 
ATOM     39  C   UNL A   1      41.667  29.120  33.189  1.00  0.00     0.074 A 
ATOM     40  C   UNL A   1      40.388  28.555  33.497  1.00  0.00     0.031 C 
ATOM     41  C   UNL A   1      40.529  27.498  26.827  1.00  0.00     0.029 A 
ATOM     42  C   UNL A   1      41.699  27.063  27.573  1.00  0.00     0.049 A 
ATOM     43  H   UNL A   1      42.342  27.833  29.407  1.00  0.00     0.167 HD
ATOM     44  C   UNL A   1      42.864  28.976  33.811  1.00  0.00     0.037 A 
ATOM     45  C   UNL A   1      42.636  26.106  27.344  1.00  0.00     0.037 A 
ATOM     46  C   UNL A   1      43.884  29.734  33.125  1.00  0.00     0.049 A 
ATOM     47  C   UNL A   1      43.770  26.375  28.279  1.00  0.00     0.074 A 
ATOM     48  C   UNL A   1      44.034  31.073  32.818  1.00  0.00     0.029 A 
ATOM     49  N   UNL A   1      44.701  29.056  32.252  1.00  0.00    -0.354 N 
ATOM     50  N   UNL A   1      44.535  27.429  28.189  1.00  0.00    -0.248 NA
ATOM     51  C   UNL A   1      43.714  25.755  29.597  1.00  0.00     0.031 C 
ATOM     52  C   UNL A   1      44.537  31.093  31.483  1.00  0.00     0.029 A 
ATOM     53  C   UNL A   1      44.755  29.775  31.083  1.00  0.00     0.049 A 
ATOM     54  H   UNL A   1      45.165  28.206  32.432  1.00  0.00     0.167 HD
ATOM     55  C   UNL A   1      44.709  27.855  29.499  1.00  0.00     0.074 A 
ATOM     56  C   UNL A   1      44.219  26.755  30.328  1.00  0.00     0.031 C 
ATOM     57  C   UNL A   1      44.945  29.169  29.787  1.00  0.00     0.037 A 
BRANCH  44  58
ATOM     58  C   UNL A   1      43.167  27.811  34.720  1.00  0.00     0.064 A 
ATOM     59  C   UNL A   1      43.490  28.081  36.061  1.00  0.00     0.173 A 
ATOM     60  C   UNL A   1      43.454  26.497  34.279  1.00  0.00     0.173 A 
ATOM     61  F   UNL A   1      43.269  29.298  36.583  1.00  0.00    -0.203 F 
ATOM     62  C   UNL A   1      44.137  27.139  36.864  1.00  0.00     0.198 A 
ATOM     63  C   UNL A   1      44.051  25.545  35.099  1.00  0.00     0.198 A 
ATOM     64  F   UNL A   1      43.285  26.096  33.016  1.00  0.00    -0.203 F 
ATOM     65  F   UNL A   1      44.549  27.487  38.090  1.00  0.00    -0.200 F 
ATOM     66  C   UNL A   1      44.426  25.877  36.380  1.00  0.00     0.200 A 
ATOM     67  F   UNL A   1      44.337  24.335  34.598  1.00  0.00    -0.200 F 
ATOM     68  F   UNL A   1      45.109  24.999  37.122  1.00  0.00    -0.200 F 
ENDBRANCH  44  58
BRANCH  45  69
ATOM     69  C   UNL A   1      42.469  24.790  26.679  1.00  0.00     0.064 A 
ATOM     70  C   UNL A   1      43.238  24.444  25.553  1.00  0.00     0.173 A 
ATOM     71  C   UNL A   1      41.776  23.736  27.306  1.00  0.00     0.173 A 
ATOM     72  F   UNL A   1      43.968  25.377  24.924  1.00  0.00    -0.203 F 
ATOM     73  C   UNL A   1      43.331  23.122  25.102  1.00  0.00     0.198 A 
ATOM     74  C   UNL A   1      41.868  22.418  26.854  1.00  0.00     0.198 A 
ATOM     75  F   UNL A   1      41.077  23.948  28.430  1.00  0.00    -0.203 F 
ATOM     76  F   UNL A   1      44.125  22.822  24.064  1.00  0.00    -0.200 F 
ATOM     77  C   UNL A   1      42.656  22.109  25.761  1.00  0.00     0.200 A 
ATOM     78  F   UNL A   1      41.241  21.442  27.526  1.00  0.00    -0.200 F 
ATOM     79  F   UNL A   1      42.797  20.834  25.373  1.00  0.00    -0.200 F 
ENDBRANCH  45  69
BRANCH  57  80
ATOM     80  C   UNL A   1      45.236  30.096  28.639  1.00  0.00     0.064 A 
ATOM     81  C   UNL A   1      44.252  30.767  27.889  1.00  0.00     0.173 A 
ATOM     82  C   UNL A   1      46.573  30.426  28.384  1.00  0.00     0.173 A 
ATOM     83  F   UNL A   1      42.949  30.585  28.142  1.00  0.00    -0.203 F 
ATOM     84  C   UNL A   1      44.598  31.689  26.901  1.00  0.00     0.198 A 
ATOM     85  C   UNL A   1      46.914  31.373  27.423  1.00  0.00     0.198 A 
ATOM     86  F   UNL A   1      47.552  29.860  29.106  1.00  0.00    -0.203 F 
ATOM     87  F   UNL A   1      43.641  32.307  26.193  1.00  0.00    -0.200 F 
ATOM     88  C   UNL A   1      45.929  31.995  26.674  1.00  0.00     0.200 A 
ATOM     89  F   UNL A   1      48.201  31.703  27.244  1.00  0.00    -0.200 F 
ATOM     90  F   UNL A   1      46.262  32.910  25.753  1.00  0.00    -0.200 F 
ENDBRANCH  57  80
ENDBRANCH  31  32
ENDBRANCH  24  26
ENDBRANCH  23  24
ENDBRANCH   1  23
TORSDOF 12
ENDMDL
