MODEL 1
REMARK VINA RESULT:     -12.7      0.000      0.000
REMARK SMILES CC1(C)CCC[C@H]1NC(=O)N[C@@H]1COC[C@@]1(C)C(=O)OCCOC(=O)c1ccc(-c2c3nc(c(-c4c(F)c(F)c(F)c(F)c4F)c4ccc([nH]4)c(-c4c(F)c(F)c(F)c(F)c4F)c4nc(c(-c5c(F)c(F)c(F)c(F)c5F)c5ccc2[nH]5)C=C4)C=C3)cc1
REMARK SMILES IDX 21 1 20 2 18 3 19 4 16 5 12 6 13 7 14 8 15 9 17 10 11 11
REMARK SMILES IDX 8 12 9 13 10 15 7 17 1 18 2 19 3 20 4 21 5 22 6 23 22 24
REMARK SMILES IDX 23 25 24 26 25 27 26 28 27 29 88 30 28 31 87 32 29 33 30 34
REMARK SMILES IDX 31 35 81 36 32 37 86 38 80 39 82 40 33 41 85 42 79 43 78 44
REMARK SMILES IDX 34 46 66 47 46 48 65 49 47 50 50 51 64 52 83 53 48 54 49 55
REMARK SMILES IDX 63 57 84 58 51 59 35 60 36 61 44 62 37 63 38 64 42 65 45 66
REMARK SMILES IDX 39 67 40 68 43 69 41 70 67 71 68 72 76 73 69 74 70 75 74 76
REMARK SMILES IDX 77 77 71 78 72 79 75 80 73 81 52 82 53 83 61 84 54 85 55 86
REMARK SMILES IDX 59 87 62 88 56 89 57 90 60 91 58 92
REMARK H PARENT 8 14 11 16 82 45 50 56
REMARK Flexibility Score: inf
ROOT
ATOM      1  C   UNL A   1      31.152  29.580  24.394  1.00  0.00     0.274 C 
ENDROOT
BRANCH   1   2
ATOM      2  O   UNL A   1      31.214  28.312  23.702  1.00  0.00    -0.462 OA
BRANCH   2   3
ATOM      3  C   UNL A   1      32.428  27.913  23.219  1.00  0.00     0.316 C 
ATOM      4  O   UNL A   1      33.202  28.656  22.633  1.00  0.00    -0.251 OA
BRANCH   3   5
ATOM      5  C   UNL A   1      32.732  26.462  23.631  1.00  0.00     0.111 C 
ATOM      6  C   UNL A   1      31.497  25.636  24.001  1.00  0.00     0.129 C 
ATOM      7  C   UNL A   1      31.352  24.571  22.917  1.00  0.00     0.186 C 
ATOM      8  O   UNL A   1      32.624  24.440  22.294  1.00  0.00    -0.378 OA
ATOM      9  C   UNL A   1      33.275  25.709  22.405  1.00  0.00     0.181 C 
ATOM     10  C   UNL A   1      33.772  26.557  24.744  1.00  0.00     0.028 C 
BRANCH   6  11
ATOM     11  N   UNL A   1      31.404  25.080  25.367  1.00  0.00    -0.332 N 
ATOM     12  N   UNL A   1      32.712  23.131  25.865  1.00  0.00    -0.335 N 
ATOM     13  C   UNL A   1      31.835  24.090  26.144  1.00  0.00     0.315 C 
ATOM     14  H   UNL A   1      32.895  22.586  26.665  1.00  0.00     0.165 HD
ATOM     15  O   UNL A   1      31.362  24.077  27.287  1.00  0.00    -0.249 OA
ATOM     16  H   UNL A   1      30.803  25.653  25.895  1.00  0.00     0.165 HD
BRANCH  12  17
ATOM     17  C   UNL A   1      33.489  22.644  24.724  1.00  0.00     0.089 C 
ATOM     18  C   UNL A   1      35.611  23.706  25.949  1.00  0.00     0.013 C 
ATOM     19  C   UNL A   1      35.050  22.695  24.930  1.00  0.00    -0.015 C 
ATOM     20  C   UNL A   1      35.748  22.953  23.573  1.00  0.00     0.013 C 
ATOM     21  C   UNL A   1      35.368  21.279  25.433  1.00  0.00     0.008 C 
ATOM     22  C   UNL A   1      34.460  20.376  24.626  1.00  0.00     0.003 C 
ATOM     23  C   UNL A   1      33.162  21.159  24.465  1.00  0.00     0.025 C 
ENDBRANCH  12  17
ENDBRANCH   6  11
ENDBRANCH   3   5
ENDBRANCH   2   3
ENDBRANCH   1   2
BRANCH   1  24
ATOM     24  C   UNL A   1      31.754  29.436  25.802  1.00  0.00     0.275 C 
BRANCH  24  25
ATOM     25  O   UNL A   1      32.974  30.200  25.853  1.00  0.00    -0.458 OA
BRANCH  25  26
ATOM     26  C   UNL A   1      33.114  31.063  26.888  1.00  0.00     0.338 C 
ATOM     27  O   UNL A   1      32.311  31.916  27.241  1.00  0.00    -0.246 OA
BRANCH  26  28
ATOM     28  C   UNL A   1      34.419  30.816  27.551  1.00  0.00     0.060 A 
ATOM     29  C   UNL A   1      35.280  31.879  27.823  1.00  0.00     0.016 A 
ATOM     30  C   UNL A   1      34.813  29.524  27.899  1.00  0.00     0.016 A 
ATOM     31  C   UNL A   1      36.545  31.666  28.365  1.00  0.00     0.010 A 
ATOM     32  C   UNL A   1      36.028  29.326  28.574  1.00  0.00     0.010 A 
ATOM     33  C   UNL A   1      36.912  30.395  28.818  1.00  0.00    -0.014 A 
BRANCH  33  34
ATOM     34  C   UNL A   1      38.178  30.187  29.585  1.00  0.00     0.031 A 
ATOM     35  C   UNL A   1      39.268  29.319  29.021  1.00  0.00     0.074 A 
ATOM     36  C   UNL A   1      38.341  30.730  30.811  1.00  0.00     0.049 A 
ATOM     37  N   UNL A   1      40.282  28.756  29.629  1.00  0.00    -0.248 NA
ATOM     38  C   UNL A   1      39.198  29.032  27.580  1.00  0.00     0.031 C 
ATOM     39  C   UNL A   1      37.408  31.644  31.473  1.00  0.00     0.029 A 
ATOM     40  N   UNL A   1      39.351  30.577  31.732  1.00  0.00    -0.354 N 
ATOM     41  C   UNL A   1      40.924  27.988  28.665  1.00  0.00     0.074 A 
ATOM     42  C   UNL A   1      40.195  28.170  27.427  1.00  0.00     0.031 C 
ATOM     43  C   UNL A   1      37.895  31.988  32.673  1.00  0.00     0.029 A 
ATOM     44  C   UNL A   1      39.114  31.230  32.919  1.00  0.00     0.049 A 
ATOM     45  H   UNL A   1      40.165  30.051  31.560  1.00  0.00     0.167 HD
ATOM     46  C   UNL A   1      42.015  27.198  28.810  1.00  0.00     0.037 A 
ATOM     47  C   UNL A   1      39.757  31.178  34.103  1.00  0.00     0.037 A 
ATOM     48  C   UNL A   1      42.772  27.075  30.030  1.00  0.00     0.049 A 
ATOM     49  C   UNL A   1      40.939  30.263  34.254  1.00  0.00     0.074 A 
ATOM     50  C   UNL A   1      43.900  26.312  30.274  1.00  0.00     0.029 A 
ATOM     51  N   UNL A   1      42.484  27.751  31.207  1.00  0.00    -0.354 N 
ATOM     52  N   UNL A   1      41.493  29.479  33.363  1.00  0.00    -0.248 NA
ATOM     53  C   UNL A   1      41.568  30.206  35.580  1.00  0.00     0.031 C 
ATOM     54  C   UNL A   1      44.276  26.499  31.609  1.00  0.00     0.029 A 
ATOM     55  C   UNL A   1      43.408  27.414  32.183  1.00  0.00     0.049 A 
ATOM     56  H   UNL A   1      41.734  28.377  31.331  1.00  0.00     0.167 HD
ATOM     57  C   UNL A   1      42.546  28.851  34.012  1.00  0.00     0.074 A 
ATOM     58  C   UNL A   1      42.560  29.352  35.371  1.00  0.00     0.031 C 
ATOM     59  C   UNL A   1      43.420  27.938  33.525  1.00  0.00     0.037 A 
BRANCH  46  60
ATOM     60  C   UNL A   1      42.437  26.365  27.633  1.00  0.00     0.064 A 
ATOM     61  C   UNL A   1      43.438  26.779  26.745  1.00  0.00     0.173 A 
ATOM     62  C   UNL A   1      41.851  25.107  27.421  1.00  0.00     0.173 A 
ATOM     63  F   UNL A   1      44.020  27.979  26.895  1.00  0.00    -0.203 F 
ATOM     64  C   UNL A   1      43.819  25.977  25.672  1.00  0.00     0.198 A 
ATOM     65  C   UNL A   1      42.256  24.294  26.366  1.00  0.00     0.198 A 
ATOM     66  F   UNL A   1      40.893  24.658  28.246  1.00  0.00    -0.203 F 
ATOM     67  F   UNL A   1      44.746  26.412  24.808  1.00  0.00    -0.200 F 
ATOM     68  C   UNL A   1      43.233  24.732  25.487  1.00  0.00     0.200 A 
ATOM     69  F   UNL A   1      41.697  23.087  26.199  1.00  0.00    -0.200 F 
ATOM     70  F   UNL A   1      43.608  23.958  24.459  1.00  0.00    -0.200 F 
ENDBRANCH  46  60
BRANCH  47  71
ATOM     71  C   UNL A   1      39.250  31.970  35.255  1.00  0.00     0.064 A 
ATOM     72  C   UNL A   1      39.538  33.336  35.374  1.00  0.00     0.173 A 
ATOM     73  C   UNL A   1      38.457  31.381  36.254  1.00  0.00     0.173 A 
ATOM     74  F   UNL A   1      40.315  33.937  34.461  1.00  0.00    -0.203 F 
ATOM     75  C   UNL A   1      39.057  34.082  36.448  1.00  0.00     0.198 A 
ATOM     76  C   UNL A   1      37.950  32.136  37.310  1.00  0.00     0.198 A 
ATOM     77  F   UNL A   1      38.153  30.077  36.189  1.00  0.00    -0.203 F 
ATOM     78  F   UNL A   1      39.379  35.378  36.558  1.00  0.00    -0.200 F 
ATOM     79  C   UNL A   1      38.255  33.484  37.409  1.00  0.00     0.200 A 
ATOM     80  F   UNL A   1      37.162  31.556  38.225  1.00  0.00    -0.200 F 
ATOM     81  F   UNL A   1      37.781  34.206  38.434  1.00  0.00    -0.200 F 
ENDBRANCH  47  71
BRANCH  59  82
ATOM     82  C   UNL A   1      44.500  27.460  34.446  1.00  0.00     0.064 A 
ATOM     83  C   UNL A   1      45.700  28.167  34.605  1.00  0.00     0.173 A 
ATOM     84  C   UNL A   1      44.306  26.306  35.221  1.00  0.00     0.173 A 
ATOM     85  F   UNL A   1      45.937  29.266  33.873  1.00  0.00    -0.203 F 
ATOM     86  C   UNL A   1      46.673  27.728  35.499  1.00  0.00     0.198 A 
ATOM     87  C   UNL A   1      45.270  25.884  36.130  1.00  0.00     0.198 A 
ATOM     88  F   UNL A   1      43.173  25.597  35.105  1.00  0.00    -0.203 F 
ATOM     89  F   UNL A   1      47.828  28.399  35.612  1.00  0.00    -0.200 F 
ATOM     90  C   UNL A   1      46.455  26.593  36.266  1.00  0.00     0.200 A 
ATOM     91  F   UNL A   1      45.054  24.793  36.878  1.00  0.00    -0.200 F 
ATOM     92  F   UNL A   1      47.388  26.179  37.134  1.00  0.00    -0.200 F 
ENDBRANCH  59  82
ENDBRANCH  33  34
ENDBRANCH  26  28
ENDBRANCH  25  26
ENDBRANCH  24  25
ENDBRANCH   1  24
TORSDOF 13
ENDMDL
MODEL 2
REMARK VINA RESULT:     -12.6      0.216      1.971
REMARK SMILES CC1(C)CCC[C@H]1NC(=O)N[C@@H]1COC[C@@]1(C)C(=O)OCCOC(=O)c1ccc(-c2c3nc(c(-c4c(F)c(F)c(F)c(F)c4F)c4ccc([nH]4)c(-c4c(F)c(F)c(F)c(F)c4F)c4nc(c(-c5c(F)c(F)c(F)c(F)c5F)c5ccc2[nH]5)C=C4)C=C3)cc1
REMARK SMILES IDX 21 1 20 2 18 3 19 4 16 5 12 6 13 7 14 8 15 9 17 10 11 11
REMARK SMILES IDX 8 12 9 13 10 15 7 17 1 18 2 19 3 20 4 21 5 22 6 23 22 24
REMARK SMILES IDX 23 25 24 26 25 27 26 28 27 29 88 30 28 31 87 32 29 33 30 34
REMARK SMILES IDX 31 35 81 36 32 37 86 38 80 39 82 40 33 41 85 42 79 43 78 44
REMARK SMILES IDX 34 46 66 47 46 48 65 49 47 50 50 51 64 52 83 53 48 54 49 55
REMARK SMILES IDX 63 57 84 58 51 59 35 60 36 61 44 62 37 63 38 64 42 65 45 66
REMARK SMILES IDX 39 67 40 68 43 69 41 70 67 71 68 72 76 73 69 74 70 75 74 76
REMARK SMILES IDX 77 77 71 78 72 79 75 80 73 81 52 82 53 83 61 84 54 85 55 86
REMARK SMILES IDX 59 87 62 88 56 89 57 90 60 91 58 92
REMARK H PARENT 8 14 11 16 82 45 50 56
REMARK Flexibility Score: inf
ROOT
ATOM      1  C   UNL A   1      31.227  29.680  24.554  1.00  0.00     0.274 C 
ENDROOT
BRANCH   1   2
ATOM      2  O   UNL A   1      31.243  28.384  23.913  1.00  0.00    -0.462 OA
BRANCH   2   3
ATOM      3  C   UNL A   1      32.416  27.973  23.347  1.00  0.00     0.316 C 
ATOM      4  O   UNL A   1      33.153  28.708  22.704  1.00  0.00    -0.251 OA
BRANCH   3   5
ATOM      5  C   UNL A   1      32.737  26.521  23.742  1.00  0.00     0.111 C 
ATOM      6  C   UNL A   1      31.512  25.678  24.105  1.00  0.00     0.129 C 
ATOM      7  C   UNL A   1      31.375  24.623  23.010  1.00  0.00     0.186 C 
ATOM      8  O   UNL A   1      32.647  24.513  22.382  1.00  0.00    -0.378 OA
ATOM      9  C   UNL A   1      33.284  25.787  22.506  1.00  0.00     0.181 C 
ATOM     10  C   UNL A   1      33.779  26.615  24.853  1.00  0.00     0.028 C 
BRANCH   6  11
ATOM     11  N   UNL A   1      31.429  25.105  25.465  1.00  0.00    -0.332 N 
ATOM     12  N   UNL A   1      32.714  23.130  25.921  1.00  0.00    -0.335 N 
ATOM     13  C   UNL A   1      31.855  24.099  26.224  1.00  0.00     0.315 C 
ATOM     14  H   UNL A   1      32.899  22.573  26.711  1.00  0.00     0.165 HD
ATOM     15  O   UNL A   1      31.397  24.078  27.373  1.00  0.00    -0.249 OA
ATOM     16  H   UNL A   1      30.843  25.680  26.009  1.00  0.00     0.165 HD
BRANCH  12  17
ATOM     17  C   UNL A   1      33.468  22.647  24.764  1.00  0.00     0.089 C 
ATOM     18  C   UNL A   1      35.617  23.687  25.960  1.00  0.00     0.013 C 
ATOM     19  C   UNL A   1      35.033  22.687  24.943  1.00  0.00    -0.015 C 
ATOM     20  C   UNL A   1      35.709  22.950  23.577  1.00  0.00     0.013 C 
ATOM     21  C   UNL A   1      35.351  21.265  25.431  1.00  0.00     0.008 C 
ATOM     22  C   UNL A   1      34.423  20.373  24.633  1.00  0.00     0.003 C 
ATOM     23  C   UNL A   1      33.127  21.166  24.499  1.00  0.00     0.025 C 
ENDBRANCH  12  17
ENDBRANCH   6  11
ENDBRANCH   3   5
ENDBRANCH   2   3
ENDBRANCH   1   2
BRANCH   1  24
ATOM     24  C   UNL A   1      31.760  29.558  25.992  1.00  0.00     0.275 C 
BRANCH  24  25
ATOM     25  O   UNL A   1      33.075  30.143  26.037  1.00  0.00    -0.458 OA
BRANCH  25  26
ATOM     26  C   UNL A   1      33.289  31.100  26.972  1.00  0.00     0.338 C 
ATOM     27  O   UNL A   1      32.545  32.030  27.248  1.00  0.00    -0.246 OA
BRANCH  26  28
ATOM     28  C   UNL A   1      34.594  30.846  27.635  1.00  0.00     0.060 A 
ATOM     29  C   UNL A   1      35.437  31.910  27.952  1.00  0.00     0.016 A 
ATOM     30  C   UNL A   1      35.003  29.548  27.937  1.00  0.00     0.016 A 
ATOM     31  C   UNL A   1      36.701  31.695  28.495  1.00  0.00     0.010 A 
ATOM     32  C   UNL A   1      36.217  29.342  28.613  1.00  0.00     0.010 A 
ATOM     33  C   UNL A   1      37.083  30.414  28.903  1.00  0.00    -0.014 A 
BRANCH  33  34
ATOM     34  C   UNL A   1      38.348  30.195  29.670  1.00  0.00     0.031 A 
ATOM     35  C   UNL A   1      39.417  29.291  29.123  1.00  0.00     0.074 A 
ATOM     36  C   UNL A   1      38.527  30.761  30.883  1.00  0.00     0.049 A 
ATOM     37  N   UNL A   1      40.420  28.719  29.740  1.00  0.00    -0.248 NA
ATOM     38  C   UNL A   1      39.335  28.973  27.689  1.00  0.00     0.031 C 
ATOM     39  C   UNL A   1      37.616  31.710  31.528  1.00  0.00     0.029 A 
ATOM     40  N   UNL A   1      39.536  30.607  31.805  1.00  0.00    -0.354 N 
ATOM     41  C   UNL A   1      41.042  27.916  28.792  1.00  0.00     0.074 A 
ATOM     42  C   UNL A   1      40.312  28.086  27.552  1.00  0.00     0.031 C 
ATOM     43  C   UNL A   1      38.115  32.070  32.718  1.00  0.00     0.029 A 
ATOM     44  C   UNL A   1      39.318  31.291  32.977  1.00  0.00     0.049 A 
ATOM     45  H   UNL A   1      40.338  30.059  31.641  1.00  0.00     0.167 HD
ATOM     46  C   UNL A   1      42.116  27.105  28.951  1.00  0.00     0.037 A 
ATOM     47  C   UNL A   1      39.964  31.252  34.160  1.00  0.00     0.037 A 
ATOM     48  C   UNL A   1      42.874  26.993  30.170  1.00  0.00     0.049 A 
ATOM     49  C   UNL A   1      41.126  30.315  34.328  1.00  0.00     0.074 A 
ATOM     50  C   UNL A   1      43.986  26.211  30.428  1.00  0.00     0.029 A 
ATOM     51  N   UNL A   1      42.605  27.701  31.333  1.00  0.00    -0.354 N 
ATOM     52  N   UNL A   1      41.660  29.498  33.453  1.00  0.00    -0.248 NA
ATOM     53  C   UNL A   1      41.758  30.273  35.653  1.00  0.00     0.031 C 
ATOM     54  C   UNL A   1      44.370  26.419  31.757  1.00  0.00     0.029 A 
ATOM     55  C   UNL A   1      43.525  27.367  32.314  1.00  0.00     0.049 A 
ATOM     56  H   UNL A   1      41.869  28.346  31.446  1.00  0.00     0.167 HD
ATOM     57  C   UNL A   1      42.701  28.862  34.113  1.00  0.00     0.074 A 
ATOM     58  C   UNL A   1      42.731  29.393  35.460  1.00  0.00     0.031 C 
ATOM     59  C   UNL A   1      43.553  27.919  33.643  1.00  0.00     0.037 A 
BRANCH  46  60
ATOM     60  C   UNL A   1      42.515  26.238  27.792  1.00  0.00     0.064 A 
ATOM     61  C   UNL A   1      41.889  25.013  27.525  1.00  0.00     0.173 A 
ATOM     62  C   UNL A   1      43.517  26.668  26.908  1.00  0.00     0.173 A 
ATOM     63  F   UNL A   1      40.934  24.549  28.346  1.00  0.00    -0.203 F 
ATOM     64  C   UNL A   1      42.270  24.238  26.432  1.00  0.00     0.198 A 
ATOM     65  C   UNL A   1      43.874  25.906  25.799  1.00  0.00     0.198 A 
ATOM     66  F   UNL A   1      44.143  27.837  27.111  1.00  0.00    -0.203 F 
ATOM     67  F   UNL A   1      41.690  23.048  26.222  1.00  0.00    -0.200 F 
ATOM     68  C   UNL A   1      43.256  24.688  25.565  1.00  0.00     0.200 A 
ATOM     69  F   UNL A   1      44.818  26.350  24.957  1.00  0.00    -0.200 F 
ATOM     70  F   UNL A   1      43.615  23.944  24.510  1.00  0.00    -0.200 F 
ENDBRANCH  46  60
BRANCH  47  71
ATOM     71  C   UNL A   1      39.479  32.079  35.296  1.00  0.00     0.064 A 
ATOM     72  C   UNL A   1      38.597  31.551  36.249  1.00  0.00     0.173 A 
ATOM     73  C   UNL A   1      39.895  33.410  35.461  1.00  0.00     0.173 A 
ATOM     74  F   UNL A   1      38.149  30.293  36.119  1.00  0.00    -0.203 F 
ATOM     75  C   UNL A   1      38.148  32.321  37.319  1.00  0.00     0.198 A 
ATOM     76  C   UNL A   1      39.470  34.169  36.550  1.00  0.00     0.198 A 
ATOM     77  F   UNL A   1      40.736  33.966  34.578  1.00  0.00    -0.203 F 
ATOM     78  F   UNL A   1      37.276  31.804  38.195  1.00  0.00    -0.200 F 
ATOM     79  C   UNL A   1      38.592  33.626  37.475  1.00  0.00     0.200 A 
ATOM     80  F   UNL A   1      39.917  35.423  36.704  1.00  0.00    -0.200 F 
ATOM     81  F   UNL A   1      38.171  34.361  38.512  1.00  0.00    -0.200 F 
ENDBRANCH  47  71
BRANCH  59  82
ATOM     82  C   UNL A   1      44.625  27.438  34.572  1.00  0.00     0.064 A 
ATOM     83  C   UNL A   1      44.448  26.305  35.378  1.00  0.00     0.173 A 
ATOM     84  C   UNL A   1      45.867  28.091  34.614  1.00  0.00     0.173 A 
ATOM     85  F   UNL A   1      43.273  25.660  35.385  1.00  0.00    -0.203 F 
ATOM     86  C   UNL A   1      45.473  25.850  36.203  1.00  0.00     0.198 A 
ATOM     87  C   UNL A   1      46.896  27.619  35.422  1.00  0.00     0.198 A 
ATOM     88  F   UNL A   1      46.084  29.179  33.859  1.00  0.00    -0.203 F 
ATOM     89  F   UNL A   1      45.273  24.785  36.992  1.00  0.00    -0.200 F 
ATOM     90  C   UNL A   1      46.698  26.501  36.218  1.00  0.00     0.200 A 
ATOM     91  F   UNL A   1      48.082  28.243  35.427  1.00  0.00    -0.200 F 
ATOM     92  F   UNL A   1      47.686  26.054  37.005  1.00  0.00    -0.200 F 
ENDBRANCH  59  82
ENDBRANCH  33  34
ENDBRANCH  26  28
ENDBRANCH  25  26
ENDBRANCH  24  25
ENDBRANCH   1  24
TORSDOF 13
ENDMDL
MODEL 3
REMARK VINA RESULT:     -12.5      0.728      1.808
REMARK SMILES CC1(C)CCC[C@H]1NC(=O)N[C@@H]1COC[C@@]1(C)C(=O)OCCOC(=O)c1ccc(-c2c3nc(c(-c4c(F)c(F)c(F)c(F)c4F)c4ccc([nH]4)c(-c4c(F)c(F)c(F)c(F)c4F)c4nc(c(-c5c(F)c(F)c(F)c(F)c5F)c5ccc2[nH]5)C=C4)C=C3)cc1
REMARK SMILES IDX 21 1 20 2 18 3 19 4 16 5 12 6 13 7 14 8 15 9 17 10 11 11
REMARK SMILES IDX 8 12 9 13 10 15 7 17 1 18 2 19 3 20 4 21 5 22 6 23 22 24
REMARK SMILES IDX 23 25 24 26 25 27 26 28 27 29 88 30 28 31 87 32 29 33 30 34
REMARK SMILES IDX 31 35 81 36 32 37 86 38 80 39 82 40 33 41 85 42 79 43 78 44
REMARK SMILES IDX 34 46 66 47 46 48 65 49 47 50 50 51 64 52 83 53 48 54 49 55
REMARK SMILES IDX 63 57 84 58 51 59 35 60 36 61 44 62 37 63 38 64 42 65 45 66
REMARK SMILES IDX 39 67 40 68 43 69 41 70 67 71 68 72 76 73 69 74 70 75 74 76
REMARK SMILES IDX 77 77 71 78 72 79 75 80 73 81 52 82 53 83 61 84 54 85 55 86
REMARK SMILES IDX 59 87 62 88 56 89 57 90 60 91 58 92
REMARK H PARENT 8 14 11 16 82 45 50 56
REMARK Flexibility Score: inf
ROOT
ATOM      1  C   UNL A   1      31.536  29.177  24.699  1.00  0.00     0.274 C 
ENDROOT
BRANCH   1   2
ATOM      2  O   UNL A   1      31.948  27.921  25.283  1.00  0.00    -0.462 OA
BRANCH   2   3
ATOM      3  C   UNL A   1      32.957  27.237  24.666  1.00  0.00     0.316 C 
ATOM      4  O   UNL A   1      33.965  27.769  24.224  1.00  0.00    -0.251 OA
BRANCH   3   5
ATOM      5  C   UNL A   1      32.709  25.719  24.726  1.00  0.00     0.111 C 
ATOM      6  C   UNL A   1      31.231  25.317  24.697  1.00  0.00     0.129 C 
ATOM      7  C   UNL A   1      31.006  24.606  23.365  1.00  0.00     0.186 C 
ATOM      8  O   UNL A   1      32.281  24.168  22.911  1.00  0.00    -0.378 OA
ATOM      9  C   UNL A   1      33.247  25.083  23.434  1.00  0.00     0.181 C 
ATOM     10  C   UNL A   1      33.462  25.226  25.958  1.00  0.00     0.028 C 
BRANCH   6  11
ATOM     11  N   UNL A   1      30.682  24.569  25.847  1.00  0.00    -0.332 N 
ATOM     12  N   UNL A   1      31.509  22.349  26.226  1.00  0.00    -0.335 N 
ATOM     13  C   UNL A   1      30.733  23.399  26.477  1.00  0.00     0.315 C 
ATOM     14  H   UNL A   1      31.381  21.653  26.912  1.00  0.00     0.165 HD
ATOM     15  O   UNL A   1      29.962  23.286  27.437  1.00  0.00    -0.249 OA
ATOM     16  H   UNL A   1      30.044  25.151  26.320  1.00  0.00     0.165 HD
BRANCH  12  17
ATOM     17  C   UNL A   1      32.497  21.919  25.237  1.00  0.00     0.089 C 
ATOM     18  C   UNL A   1      34.144  21.557  27.307  1.00  0.00     0.013 C 
ATOM     19  C   UNL A   1      33.772  21.225  25.849  1.00  0.00    -0.015 C 
ATOM     20  C   UNL A   1      35.006  21.528  24.965  1.00  0.00     0.013 C 
ATOM     21  C   UNL A   1      33.413  19.734  25.772  1.00  0.00     0.008 C 
ATOM     22  C   UNL A   1      32.689  19.585  24.451  1.00  0.00     0.003 C 
ATOM     23  C   UNL A   1      31.873  20.865  24.299  1.00  0.00     0.025 C 
ENDBRANCH  12  17
ENDBRANCH   6  11
ENDBRANCH   3   5
ENDBRANCH   2   3
ENDBRANCH   1   2
BRANCH   1  24
ATOM     24  C   UNL A   1      31.593  30.290  25.760  1.00  0.00     0.275 C 
BRANCH  24  25
ATOM     25  O   UNL A   1      32.975  30.533  26.085  1.00  0.00    -0.458 OA
BRANCH  25  26
ATOM     26  C   UNL A   1      33.227  31.479  27.022  1.00  0.00     0.338 C 
ATOM     27  O   UNL A   1      32.517  32.434  27.306  1.00  0.00    -0.246 OA
BRANCH  26  28
ATOM     28  C   UNL A   1      34.526  31.178  27.676  1.00  0.00     0.060 A 
ATOM     29  C   UNL A   1      35.435  32.204  27.935  1.00  0.00     0.016 A 
ATOM     30  C   UNL A   1      34.865  29.872  28.029  1.00  0.00     0.016 A 
ATOM     31  C   UNL A   1      36.693  31.937  28.469  1.00  0.00     0.010 A 
ATOM     32  C   UNL A   1      36.076  29.624  28.696  1.00  0.00     0.010 A 
ATOM     33  C   UNL A   1      37.007  30.655  28.926  1.00  0.00    -0.014 A 
BRANCH  33  34
ATOM     34  C   UNL A   1      38.270  30.395  29.684  1.00  0.00     0.031 A 
ATOM     35  C   UNL A   1      39.323  29.490  29.109  1.00  0.00     0.074 A 
ATOM     36  C   UNL A   1      38.460  30.925  30.911  1.00  0.00     0.049 A 
ATOM     37  N   UNL A   1      40.319  28.886  29.708  1.00  0.00    -0.248 NA
ATOM     38  C   UNL A   1      39.233  29.213  27.667  1.00  0.00     0.031 C 
ATOM     39  C   UNL A   1      37.566  31.870  31.584  1.00  0.00     0.029 A 
ATOM     40  N   UNL A   1      39.469  30.729  31.826  1.00  0.00    -0.354 N 
ATOM     41  C   UNL A   1      40.926  28.100  28.736  1.00  0.00     0.074 A 
ATOM     42  C   UNL A   1      40.196  28.315  27.503  1.00  0.00     0.031 C 
ATOM     43  C   UNL A   1      38.073  32.189  32.783  1.00  0.00     0.029 A 
ATOM     44  C   UNL A   1      39.264  31.385  33.018  1.00  0.00     0.049 A 
ATOM     45  H   UNL A   1      40.262  30.174  31.646  1.00  0.00     0.167 HD
ATOM     46  C   UNL A   1      41.987  27.269  28.870  1.00  0.00     0.037 A 
ATOM     47  C   UNL A   1      39.912  31.302  34.197  1.00  0.00     0.037 A 
ATOM     48  C   UNL A   1      42.746  27.111  30.084  1.00  0.00     0.049 A 
ATOM     49  C   UNL A   1      41.060  30.343  34.336  1.00  0.00     0.074 A 
ATOM     50  C   UNL A   1      43.847  26.305  30.317  1.00  0.00     0.029 A 
ATOM     51  N   UNL A   1      42.491  27.791  31.266  1.00  0.00    -0.354 N 
ATOM     52  N   UNL A   1      41.579  29.543  33.437  1.00  0.00    -0.248 NA
ATOM     53  C   UNL A   1      41.694  30.255  35.658  1.00  0.00     0.031 C 
ATOM     54  C   UNL A   1      44.237  26.470  31.651  1.00  0.00     0.029 A 
ATOM     55  C   UNL A   1      43.408  27.415  32.235  1.00  0.00     0.049 A 
ATOM     56  H   UNL A   1      41.766  28.444  31.399  1.00  0.00     0.167 HD
ATOM     57  C   UNL A   1      42.611  28.873  34.077  1.00  0.00     0.074 A 
ATOM     58  C   UNL A   1      42.652  29.365  35.438  1.00  0.00     0.031 C 
ATOM     59  C   UNL A   1      43.448  27.930  33.579  1.00  0.00     0.037 A 
BRANCH  46  60
ATOM     60  C   UNL A   1      42.370  26.427  27.686  1.00  0.00     0.064 A 
ATOM     61  C   UNL A   1      43.373  26.813  26.787  1.00  0.00     0.173 A 
ATOM     62  C   UNL A   1      41.745  25.187  27.478  1.00  0.00     0.173 A 
ATOM     63  F   UNL A   1      43.992  27.995  26.933  1.00  0.00    -0.203 F 
ATOM     64  C   UNL A   1      43.718  26.003  25.708  1.00  0.00     0.198 A 
ATOM     65  C   UNL A   1      42.113  24.365  26.416  1.00  0.00     0.198 A 
ATOM     66  F   UNL A   1      40.784  24.764  28.313  1.00  0.00    -0.203 F 
ATOM     67  F   UNL A   1      44.647  26.413  24.834  1.00  0.00    -0.200 F 
ATOM     68  C   UNL A   1      43.093  24.777  25.527  1.00  0.00     0.200 A 
ATOM     69  F   UNL A   1      41.517  23.176  26.253  1.00  0.00    -0.200 F 
ATOM     70  F   UNL A   1      43.432  23.995  24.493  1.00  0.00    -0.200 F 
ENDBRANCH  46  60
BRANCH  47  71
ATOM     71  C   UNL A   1      39.442  32.106  35.357  1.00  0.00     0.064 A 
ATOM     72  C   UNL A   1      38.558  31.563  36.299  1.00  0.00     0.173 A 
ATOM     73  C   UNL A   1      39.876  33.426  35.555  1.00  0.00     0.173 A 
ATOM     74  F   UNL A   1      38.093  30.316  36.138  1.00  0.00    -0.203 F 
ATOM     75  C   UNL A   1      38.124  32.311  37.391  1.00  0.00     0.198 A 
ATOM     76  C   UNL A   1      39.466  34.162  36.666  1.00  0.00     0.198 A 
ATOM     77  F   UNL A   1      40.721  33.995  34.683  1.00  0.00    -0.203 F 
ATOM     78  F   UNL A   1      37.248  31.781  38.257  1.00  0.00    -0.200 F 
ATOM     79  C   UNL A   1      38.585  33.605  37.579  1.00  0.00     0.200 A 
ATOM     80  F   UNL A   1      39.929  35.405  36.851  1.00  0.00    -0.200 F 
ATOM     81  F   UNL A   1      38.177  34.318  38.638  1.00  0.00    -0.200 F 
ENDBRANCH  47  71
BRANCH  59  82
ATOM     82  C   UNL A   1      44.514  27.407  34.492  1.00  0.00     0.064 A 
ATOM     83  C   UNL A   1      44.326  26.247  35.257  1.00  0.00     0.173 A 
ATOM     84  C   UNL A   1      45.761  28.047  34.559  1.00  0.00     0.173 A 
ATOM     85  F   UNL A   1      43.145  25.612  35.238  1.00  0.00    -0.203 F 
ATOM     86  C   UNL A   1      45.346  25.754  36.066  1.00  0.00     0.198 A 
ATOM     87  C   UNL A   1      46.785  27.538  35.350  1.00  0.00     0.198 A 
ATOM     88  F   UNL A   1      45.989  29.160  33.843  1.00  0.00    -0.203 F 
ATOM     89  F   UNL A   1      45.135  24.663  36.815  1.00  0.00    -0.200 F 
ATOM     90  C   UNL A   1      46.576  26.394  36.106  1.00  0.00     0.200 A 
ATOM     91  F   UNL A   1      47.976  28.152  35.380  1.00  0.00    -0.200 F 
ATOM     92  F   UNL A   1      47.559  25.911  36.877  1.00  0.00    -0.200 F 
ENDBRANCH  59  82
ENDBRANCH  33  34
ENDBRANCH  26  28
ENDBRANCH  25  26
ENDBRANCH  24  25
ENDBRANCH   1  24
TORSDOF 13
ENDMDL
