MODEL 1
REMARK VINA RESULT:     -12.9      0.000      0.000
REMARK SMILES Cc1ccc(OCC(=O)NC(=S)Nc2ccc(C(=O)OCCOC(=O)c3ccc(-c4c5nc(c(-c6c(F)c(F)c(F)c(F)c6F)c6ccc([nH]6)c(-c6c(F)c(F)c(F)c(F)c6F)c6nc(c(-c7c(F)c(F)c(F)c(F)c7F)c7ccc4[nH]7)C=C6)C=C5)cc3)cc2)cc1
REMARK SMILES IDX 18 1 19 2 17 3 14 4 15 5 90 6 16 7 89 8 13 9 11 11 12 12
REMARK SMILES IDX 10 13 8 14 9 15 7 17 6 18 5 19 1 20 2 21 3 22 92 23 4 24
REMARK SMILES IDX 91 25 20 26 21 27 22 28 23 29 24 30 25 31 26 32 27 33 88 34
REMARK SMILES IDX 28 35 87 36 29 37 30 38 31 39 81 40 32 41 86 42 80 43 82 44
REMARK SMILES IDX 33 45 85 46 79 47 78 48 34 50 66 51 46 52 65 53 47 54 50 55
REMARK SMILES IDX 64 56 83 57 48 58 49 59 63 61 84 62 51 63 35 64 36 65 44 66
REMARK SMILES IDX 37 67 38 68 42 69 45 70 39 71 40 72 43 73 41 74 67 75 68 76
REMARK SMILES IDX 76 77 69 78 70 79 74 80 77 81 71 82 72 83 75 84 73 85 52 86
REMARK SMILES IDX 53 87 61 88 54 89 55 90 59 91 62 92 56 93 57 94 60 95 58 96
REMARK H PARENT 13 10 10 16 82 49 50 60
REMARK Flexibility Score: inf
ROOT
ATOM      1  C   UNL A   1      34.586  22.586  24.917  1.00  0.00     0.338 C 
ATOM      2  O   UNL A   1      34.099  21.651  24.337  1.00  0.00    -0.246 OA
ENDROOT
BRANCH   1   3
ATOM      3  C   UNL A   1      34.291  24.015  24.655  1.00  0.00     0.060 A 
ATOM      4  C   UNL A   1      33.924  26.765  24.189  1.00  0.00     0.040 A 
ATOM      5  C   UNL A   1      33.949  26.255  25.472  1.00  0.00     0.027 A 
ATOM      6  C   UNL A   1      33.925  25.859  23.126  1.00  0.00     0.027 A 
ATOM      7  C   UNL A   1      34.196  24.901  25.724  1.00  0.00     0.018 A 
ATOM      8  C   UNL A   1      34.081  24.482  23.357  1.00  0.00     0.018 A 
BRANCH   4   9
ATOM      9  N   UNL A   1      33.722  28.125  23.925  1.00  0.00    -0.332 N 
ATOM     10  H   UNL A   1      34.570  28.589  23.741  1.00  0.00     0.169 HD
BRANCH   9  11
ATOM     11  C   UNL A   1      32.670  28.961  23.857  1.00  0.00     0.177 C 
ATOM     12  S   UNL A   1      32.221  29.715  25.293  1.00  0.00    -0.040 S 
BRANCH  11  13
ATOM     13  N   UNL A   1      31.764  29.072  22.830  1.00  0.00    -0.300 N 
ATOM     14  C   UNL A   1      30.417  29.124  22.457  1.00  0.00     0.264 C 
ATOM     15  O   UNL A   1      30.078  29.947  21.600  1.00  0.00    -0.271 OA
ATOM     16  H   UNL A   1      32.288  29.147  21.999  1.00  0.00     0.172 HD
BRANCH  14  17
ATOM     17  C   UNL A   1      29.436  28.111  22.986  1.00  0.00     0.329 C 
BRANCH  17  18
ATOM     18  O   UNL A   1      30.052  26.855  22.693  1.00  0.00    -0.484 OA
BRANCH  18  19
ATOM     19  C   UNL A   1      30.270  26.004  23.734  1.00  0.00     0.120 A 
ATOM     20  C   UNL A   1      30.808  22.979  26.736  1.00  0.00     0.044 C 
ATOM     21  C   UNL A   1      30.653  24.048  25.698  1.00  0.00    -0.051 A 
ATOM     22  C   UNL A   1      30.717  23.703  24.346  1.00  0.00     0.007 A 
ATOM     23  C   UNL A   1      30.422  25.384  26.054  1.00  0.00     0.007 A 
ATOM     24  C   UNL A   1      30.489  24.671  23.374  1.00  0.00     0.047 A 
ATOM     25  C   UNL A   1      30.238  26.366  25.073  1.00  0.00     0.047 A 
ENDBRANCH  18  19
ENDBRANCH  17  18
ENDBRANCH  14  17
ENDBRANCH  11  13
ENDBRANCH   9  11
ENDBRANCH   4   9
ENDBRANCH   1   3
BRANCH   1  26
ATOM     26  O   UNL A   1      35.521  22.550  25.898  1.00  0.00    -0.458 OA
BRANCH  26  27
ATOM     27  C   UNL A   1      36.901  22.353  25.553  1.00  0.00     0.275 C 
BRANCH  27  28
ATOM     28  C   UNL A   1      37.977  23.389  25.957  1.00  0.00     0.275 C 
BRANCH  28  29
ATOM     29  O   UNL A   1      39.109  23.138  26.840  1.00  0.00    -0.458 OA
BRANCH  29  30
ATOM     30  C   UNL A   1      40.294  23.784  26.862  1.00  0.00     0.338 C 
ATOM     31  O   UNL A   1      41.372  23.260  26.637  1.00  0.00    -0.246 OA
BRANCH  30  32
ATOM     32  C   UNL A   1      40.206  25.168  27.327  1.00  0.00     0.060 A 
ATOM     33  C   UNL A   1      40.469  26.217  26.432  1.00  0.00     0.016 A 
ATOM     34  C   UNL A   1      39.763  25.399  28.626  1.00  0.00     0.016 A 
ATOM     35  C   UNL A   1      40.198  27.520  26.808  1.00  0.00     0.010 A 
ATOM     36  C   UNL A   1      39.363  26.660  28.955  1.00  0.00     0.010 A 
ATOM     37  C   UNL A   1      39.658  27.714  28.075  1.00  0.00    -0.014 A 
BRANCH  37  38
ATOM     38  C   UNL A   1      39.786  28.964  28.788  1.00  0.00     0.031 A 
ATOM     39  C   UNL A   1      38.693  29.932  28.831  1.00  0.00     0.074 A 
ATOM     40  C   UNL A   1      40.874  28.923  29.590  1.00  0.00     0.049 A 
ATOM     41  N   UNL A   1      38.868  31.178  29.084  1.00  0.00    -0.248 NA
ATOM     42  C   UNL A   1      37.298  29.594  28.550  1.00  0.00     0.031 C 
ATOM     43  C   UNL A   1      41.196  29.640  30.805  1.00  0.00     0.029 A 
ATOM     44  N   UNL A   1      42.004  28.110  29.368  1.00  0.00    -0.354 N 
ATOM     45  C   UNL A   1      37.629  31.698  29.384  1.00  0.00     0.074 A 
ATOM     46  C   UNL A   1      36.678  30.738  28.873  1.00  0.00     0.031 C 
ATOM     47  C   UNL A   1      42.512  29.481  31.056  1.00  0.00     0.029 A 
ATOM     48  C   UNL A   1      43.097  28.777  29.918  1.00  0.00     0.049 A 
ATOM     49  H   UNL A   1      42.018  27.238  28.912  1.00  0.00     0.167 HD
ATOM     50  C   UNL A   1      37.562  32.754  30.246  1.00  0.00     0.037 A 
ATOM     51  C   UNL A   1      44.022  29.284  29.051  1.00  0.00     0.037 A 
ATOM     52  C   UNL A   1      38.905  33.056  30.740  1.00  0.00     0.049 A 
ATOM     53  C   UNL A   1      43.980  30.789  29.073  1.00  0.00     0.074 A 
ATOM     54  C   UNL A   1      39.562  32.627  31.883  1.00  0.00     0.029 A 
ATOM     55  N   UNL A   1      39.884  33.522  29.870  1.00  0.00    -0.354 N 
ATOM     56  N   UNL A   1      42.897  31.489  29.280  1.00  0.00    -0.248 NA
ATOM     57  C   UNL A   1      45.177  31.607  28.947  1.00  0.00     0.031 C 
ATOM     58  C   UNL A   1      40.952  32.804  31.682  1.00  0.00     0.029 A 
ATOM     59  C   UNL A   1      41.141  33.331  30.415  1.00  0.00     0.049 A 
ATOM     60  H   UNL A   1      39.707  33.928  28.991  1.00  0.00     0.167 HD
ATOM     61  C   UNL A   1      43.239  32.810  29.400  1.00  0.00     0.074 A 
ATOM     62  C   UNL A   1      44.673  32.833  29.165  1.00  0.00     0.031 C 
ATOM     63  C   UNL A   1      42.335  33.783  29.725  1.00  0.00     0.037 A 
BRANCH  50  64
ATOM     64  C   UNL A   1      36.310  33.262  30.925  1.00  0.00     0.064 A 
ATOM     65  C   UNL A   1      35.425  34.134  30.247  1.00  0.00     0.173 A 
ATOM     66  C   UNL A   1      35.919  32.927  32.235  1.00  0.00     0.173 A 
ATOM     67  F   UNL A   1      35.622  34.485  28.970  1.00  0.00    -0.203 F 
ATOM     68  C   UNL A   1      34.295  34.686  30.852  1.00  0.00     0.198 A 
ATOM     69  C   UNL A   1      34.798  33.502  32.850  1.00  0.00     0.198 A 
ATOM     70  F   UNL A   1      36.585  32.007  32.944  1.00  0.00    -0.203 F 
ATOM     71  F   UNL A   1      33.507  35.516  30.153  1.00  0.00    -0.200 F 
ATOM     72  C   UNL A   1      33.990  34.386  32.161  1.00  0.00     0.200 A 
ATOM     73  F   UNL A   1      34.505  33.192  34.121  1.00  0.00    -0.200 F 
ATOM     74  F   UNL A   1      32.917  34.932  32.749  1.00  0.00    -0.200 F 
ENDBRANCH  50  64
BRANCH  51  75
ATOM     75  C   UNL A   1      44.221  28.437  27.827  1.00  0.00     0.064 A 
ATOM     76  C   UNL A   1      44.850  27.179  27.977  1.00  0.00     0.173 A 
ATOM     77  C   UNL A   1      43.543  28.662  26.622  1.00  0.00     0.173 A 
ATOM     78  F   UNL A   1      45.513  26.895  29.109  1.00  0.00    -0.203 F 
ATOM     79  C   UNL A   1      44.714  26.167  27.025  1.00  0.00     0.198 A 
ATOM     80  C   UNL A   1      43.425  27.651  25.659  1.00  0.00     0.198 A 
ATOM     81  F   UNL A   1      42.913  29.824  26.401  1.00  0.00    -0.203 F 
ATOM     82  F   UNL A   1      45.230  24.952  27.263  1.00  0.00    -0.200 F 
ATOM     83  C   UNL A   1      43.987  26.399  25.873  1.00  0.00     0.200 A 
ATOM     84  F   UNL A   1      42.685  27.857  24.558  1.00  0.00    -0.200 F 
ATOM     85  F   UNL A   1      43.780  25.410  24.992  1.00  0.00    -0.200 F 
ENDBRANCH  51  75
BRANCH  63  86
ATOM     86  C   UNL A   1      42.541  35.267  29.558  1.00  0.00     0.064 A 
ATOM     87  C   UNL A   1      43.383  36.031  30.380  1.00  0.00     0.173 A 
ATOM     88  C   UNL A   1      42.008  35.951  28.435  1.00  0.00     0.173 A 
ATOM     89  F   UNL A   1      44.070  35.478  31.388  1.00  0.00    -0.203 F 
ATOM     90  C   UNL A   1      43.601  37.390  30.154  1.00  0.00     0.198 A 
ATOM     91  C   UNL A   1      42.296  37.285  28.166  1.00  0.00     0.198 A 
ATOM     92  F   UNL A   1      41.215  35.343  27.542  1.00  0.00    -0.203 F 
ATOM     93  F   UNL A   1      44.359  38.087  31.011  1.00  0.00    -0.200 F 
ATOM     94  C   UNL A   1      43.071  38.012  29.040  1.00  0.00     0.200 A 
ATOM     95  F   UNL A   1      41.832  37.851  27.043  1.00  0.00    -0.200 F 
ATOM     96  F   UNL A   1      43.327  39.304  28.800  1.00  0.00    -0.200 F 
ENDBRANCH  63  86
ENDBRANCH  37  38
ENDBRANCH  30  32
ENDBRANCH  29  30
ENDBRANCH  28  29
ENDBRANCH  27  28
ENDBRANCH  26  27
ENDBRANCH   1  26
TORSDOF 17
ENDMDL
MODEL 2
REMARK VINA RESULT:     -12.7      3.947      9.838
REMARK SMILES Cc1ccc(OCC(=O)NC(=S)Nc2ccc(C(=O)OCCOC(=O)c3ccc(-c4c5nc(c(-c6c(F)c(F)c(F)c(F)c6F)c6ccc([nH]6)c(-c6c(F)c(F)c(F)c(F)c6F)c6nc(c(-c7c(F)c(F)c(F)c(F)c7F)c7ccc4[nH]7)C=C6)C=C5)cc3)cc2)cc1
REMARK SMILES IDX 18 1 19 2 17 3 14 4 15 5 90 6 16 7 89 8 13 9 11 11 12 12
REMARK SMILES IDX 10 13 8 14 9 15 7 17 6 18 5 19 1 20 2 21 3 22 92 23 4 24
REMARK SMILES IDX 91 25 20 26 21 27 22 28 23 29 24 30 25 31 26 32 27 33 88 34
REMARK SMILES IDX 28 35 87 36 29 37 30 38 31 39 81 40 32 41 86 42 80 43 82 44
REMARK SMILES IDX 33 45 85 46 79 47 78 48 34 50 66 51 46 52 65 53 47 54 50 55
REMARK SMILES IDX 64 56 83 57 48 58 49 59 63 61 84 62 51 63 35 64 36 65 44 66
REMARK SMILES IDX 37 67 38 68 42 69 45 70 39 71 40 72 43 73 41 74 67 75 68 76
REMARK SMILES IDX 76 77 69 78 70 79 74 80 77 81 71 82 72 83 75 84 73 85 52 86
REMARK SMILES IDX 53 87 61 88 54 89 55 90 59 91 62 92 56 93 57 94 60 95 58 96
REMARK H PARENT 13 10 10 16 82 49 50 60
REMARK Flexibility Score: inf
ROOT
ATOM      1  C   UNL A   1      32.857  28.411  25.026  1.00  0.00     0.338 C 
ATOM      2  O   UNL A   1      32.596  29.290  24.247  1.00  0.00    -0.246 OA
ENDROOT
BRANCH   1   3
ATOM      3  C   UNL A   1      33.443  27.094  24.677  1.00  0.00     0.060 A 
ATOM      4  C   UNL A   1      34.380  24.512  24.073  1.00  0.00     0.040 A 
ATOM      5  C   UNL A   1      34.417  25.001  25.363  1.00  0.00     0.027 A 
ATOM      6  C   UNL A   1      34.015  25.391  23.051  1.00  0.00     0.027 A 
ATOM      7  C   UNL A   1      33.894  26.257  25.692  1.00  0.00     0.018 A 
ATOM      8  C   UNL A   1      33.571  26.691  23.347  1.00  0.00     0.018 A 
BRANCH   4   9
ATOM      9  N   UNL A   1      34.859  23.240  23.737  1.00  0.00    -0.332 N 
ATOM     10  H   UNL A   1      34.810  23.077  22.767  1.00  0.00     0.169 HD
BRANCH   9  11
ATOM     11  C   UNL A   1      35.367  22.182  24.395  1.00  0.00     0.177 C 
ATOM     12  S   UNL A   1      37.041  22.014  24.361  1.00  0.00    -0.040 S 
BRANCH  11  13
ATOM     13  N   UNL A   1      34.679  21.089  24.864  1.00  0.00    -0.300 N 
ATOM     14  C   UNL A   1      33.606  20.212  24.676  1.00  0.00     0.264 C 
ATOM     15  O   UNL A   1      33.794  19.006  24.870  1.00  0.00    -0.271 OA
ATOM     16  H   UNL A   1      35.138  20.798  25.685  1.00  0.00     0.172 HD
BRANCH  14  17
ATOM     17  C   UNL A   1      32.226  20.740  24.380  1.00  0.00     0.329 C 
BRANCH  17  18
ATOM     18  O   UNL A   1      31.944  21.594  25.491  1.00  0.00    -0.484 OA
BRANCH  18  19
ATOM     19  C   UNL A   1      31.367  22.799  25.225  1.00  0.00     0.120 A 
ATOM     20  C   UNL A   1      29.753  26.577  23.970  1.00  0.00     0.044 C 
ATOM     21  C   UNL A   1      30.283  25.250  24.421  1.00  0.00    -0.051 A 
ATOM     22  C   UNL A   1      30.612  24.285  23.466  1.00  0.00     0.007 A 
ATOM     23  C   UNL A   1      30.477  24.965  25.779  1.00  0.00     0.007 A 
ATOM     24  C   UNL A   1      31.185  23.083  23.868  1.00  0.00     0.047 A 
ATOM     25  C   UNL A   1      31.011  23.736  26.185  1.00  0.00     0.047 A 
ENDBRANCH  18  19
ENDBRANCH  17  18
ENDBRANCH  14  17
ENDBRANCH  11  13
ENDBRANCH   9  11
ENDBRANCH   4   9
ENDBRANCH   1   3
BRANCH   1  26
ATOM     26  O   UNL A   1      32.650  28.409  26.365  1.00  0.00    -0.458 OA
BRANCH  26  27
ATOM     27  C   UNL A   1      32.944  29.589  27.128  1.00  0.00     0.275 C 
BRANCH  27  28
ATOM     28  C   UNL A   1      34.383  30.151  27.202  1.00  0.00     0.275 C 
BRANCH  28  29
ATOM     29  O   UNL A   1      35.091  30.519  28.422  1.00  0.00    -0.458 OA
BRANCH  29  30
ATOM     30  C   UNL A   1      36.308  31.093  28.525  1.00  0.00     0.338 C 
ATOM     31  O   UNL A   1      36.529  32.281  28.357  1.00  0.00    -0.246 OA
BRANCH  30  32
ATOM     32  C   UNL A   1      37.400  30.139  28.718  1.00  0.00     0.060 A 
ATOM     33  C   UNL A   1      37.326  29.206  29.764  1.00  0.00     0.016 A 
ATOM     34  C   UNL A   1      38.434  30.125  27.787  1.00  0.00     0.016 A 
ATOM     35  C   UNL A   1      38.252  28.181  29.832  1.00  0.00     0.010 A 
ATOM     36  C   UNL A   1      39.264  29.043  27.764  1.00  0.00     0.010 A 
ATOM     37  C   UNL A   1      39.214  28.130  28.829  1.00  0.00    -0.014 A 
BRANCH  37  38
ATOM     38  C   UNL A   1      40.489  27.478  29.014  1.00  0.00     0.031 A 
ATOM     39  C   UNL A   1      40.749  26.145  28.477  1.00  0.00     0.074 A 
ATOM     40  C   UNL A   1      41.402  28.376  29.448  1.00  0.00     0.049 A 
ATOM     41  N   UNL A   1      41.668  25.372  28.930  1.00  0.00    -0.248 NA
ATOM     42  C   UNL A   1      39.965  25.536  27.402  1.00  0.00     0.031 C 
ATOM     43  C   UNL A   1      42.846  28.403  29.342  1.00  0.00     0.029 A 
ATOM     44  N   UNL A   1      41.095  29.553  30.160  1.00  0.00    -0.354 N 
ATOM     45  C   UNL A   1      41.852  24.383  27.989  1.00  0.00     0.074 A 
ATOM     46  C   UNL A   1      40.671  24.422  27.158  1.00  0.00     0.031 C 
ATOM     47  C   UNL A   1      43.317  29.339  30.193  1.00  0.00     0.029 A 
ATOM     48  C   UNL A   1      42.188  29.830  30.978  1.00  0.00     0.049 A 
ATOM     49  H   UNL A   1      40.265  30.079  30.092  1.00  0.00     0.167 HD
ATOM     50  C   UNL A   1      43.090  23.820  27.875  1.00  0.00     0.037 A 
ATOM     51  C   UNL A   1      42.018  29.674  32.324  1.00  0.00     0.037 A 
ATOM     52  C   UNL A   1      44.011  24.497  28.789  1.00  0.00     0.049 A 
ATOM     53  C   UNL A   1      42.835  28.507  32.815  1.00  0.00     0.074 A 
ATOM     54  C   UNL A   1      44.870  25.563  28.574  1.00  0.00     0.029 A 
ATOM     55  N   UNL A   1      43.831  24.401  30.164  1.00  0.00    -0.354 N 
ATOM     56  N   UNL A   1      43.083  27.437  32.108  1.00  0.00    -0.248 NA
ATOM     57  C   UNL A   1      43.497  28.506  34.111  1.00  0.00     0.031 C 
ATOM     58  C   UNL A   1      45.181  26.135  29.831  1.00  0.00     0.029 A 
ATOM     59  C   UNL A   1      44.504  25.423  30.808  1.00  0.00     0.049 A 
ATOM     60  H   UNL A   1      43.300  23.705  30.614  1.00  0.00     0.167 HD
ATOM     61  C   UNL A   1      43.982  26.657  32.786  1.00  0.00     0.074 A 
ATOM     62  C   UNL A   1      44.194  27.359  34.040  1.00  0.00     0.031 C 
ATOM     63  C   UNL A   1      44.519  25.517  32.256  1.00  0.00     0.037 A 
BRANCH  50  64
ATOM     64  C   UNL A   1      43.566  22.957  26.728  1.00  0.00     0.064 A 
ATOM     65  C   UNL A   1      43.181  21.599  26.640  1.00  0.00     0.173 A 
ATOM     66  C   UNL A   1      44.396  23.404  25.683  1.00  0.00     0.173 A 
ATOM     67  F   UNL A   1      42.335  21.047  27.519  1.00  0.00    -0.203 F 
ATOM     68  C   UNL A   1      43.649  20.742  25.642  1.00  0.00     0.198 A 
ATOM     69  C   UNL A   1      44.886  22.537  24.697  1.00  0.00     0.198 A 
ATOM     70  F   UNL A   1      44.726  24.696  25.563  1.00  0.00    -0.203 F 
ATOM     71  F   UNL A   1      43.252  19.462  25.627  1.00  0.00    -0.200 F 
ATOM     72  C   UNL A   1      44.518  21.206  24.680  1.00  0.00     0.200 A 
ATOM     73  F   UNL A   1      45.722  23.004  23.757  1.00  0.00    -0.200 F 
ATOM     74  F   UNL A   1      44.984  20.379  23.733  1.00  0.00    -0.200 F 
ENDBRANCH  50  64
BRANCH  51  75
ATOM     75  C   UNL A   1      40.639  30.033  32.799  1.00  0.00     0.064 A 
ATOM     76  C   UNL A   1      40.247  31.390  32.752  1.00  0.00     0.173 A 
ATOM     77  C   UNL A   1      39.620  29.088  32.972  1.00  0.00     0.173 A 
ATOM     78  F   UNL A   1      41.173  32.348  32.583  1.00  0.00    -0.203 F 
ATOM     79  C   UNL A   1      38.904  31.771  32.767  1.00  0.00     0.198 A 
ATOM     80  C   UNL A   1      38.274  29.475  33.006  1.00  0.00     0.198 A 
ATOM     81  F   UNL A   1      39.904  27.779  33.018  1.00  0.00    -0.203 F 
ATOM     82  F   UNL A   1      38.574  33.061  32.603  1.00  0.00    -0.200 F 
ATOM     83  C   UNL A   1      37.917  30.811  32.877  1.00  0.00     0.200 A 
ATOM     84  F   UNL A   1      37.310  28.543  33.071  1.00  0.00    -0.200 F 
ATOM     85  F   UNL A   1      36.623  31.158  32.809  1.00  0.00    -0.200 F 
ENDBRANCH  51  75
BRANCH  63  86
ATOM     86  C   UNL A   1      45.240  24.442  33.031  1.00  0.00     0.064 A 
ATOM     87  C   UNL A   1      46.534  24.595  33.551  1.00  0.00     0.173 A 
ATOM     88  C   UNL A   1      44.568  23.254  33.419  1.00  0.00     0.173 A 
ATOM     89  F   UNL A   1      47.226  25.730  33.388  1.00  0.00    -0.203 F 
ATOM     90  C   UNL A   1      47.143  23.604  34.320  1.00  0.00     0.198 A 
ATOM     91  C   UNL A   1      45.148  22.307  34.256  1.00  0.00     0.198 A 
ATOM     92  F   UNL A   1      43.314  22.986  33.029  1.00  0.00    -0.203 F 
ATOM     93  F   UNL A   1      48.406  23.773  34.732  1.00  0.00    -0.200 F 
ATOM     94  C   UNL A   1      46.446  22.468  34.685  1.00  0.00     0.200 A 
ATOM     95  F   UNL A   1      44.431  21.248  34.657  1.00  0.00    -0.200 F 
ATOM     96  F   UNL A   1      47.018  21.544  35.466  1.00  0.00    -0.200 F 
ENDBRANCH  63  86
ENDBRANCH  37  38
ENDBRANCH  30  32
ENDBRANCH  29  30
ENDBRANCH  28  29
ENDBRANCH  27  28
ENDBRANCH  26  27
ENDBRANCH   1  26
TORSDOF 17
ENDMDL
MODEL 3
REMARK VINA RESULT:     -12.2      3.594      9.404
REMARK SMILES Cc1ccc(OCC(=O)NC(=S)Nc2ccc(C(=O)OCCOC(=O)c3ccc(-c4c5nc(c(-c6c(F)c(F)c(F)c(F)c6F)c6ccc([nH]6)c(-c6c(F)c(F)c(F)c(F)c6F)c6nc(c(-c7c(F)c(F)c(F)c(F)c7F)c7ccc4[nH]7)C=C6)C=C5)cc3)cc2)cc1
REMARK SMILES IDX 18 1 19 2 17 3 14 4 15 5 90 6 16 7 89 8 13 9 11 11 12 12
REMARK SMILES IDX 10 13 8 14 9 15 7 17 6 18 5 19 1 20 2 21 3 22 92 23 4 24
REMARK SMILES IDX 91 25 20 26 21 27 22 28 23 29 24 30 25 31 26 32 27 33 88 34
REMARK SMILES IDX 28 35 87 36 29 37 30 38 31 39 81 40 32 41 86 42 80 43 82 44
REMARK SMILES IDX 33 45 85 46 79 47 78 48 34 50 66 51 46 52 65 53 47 54 50 55
REMARK SMILES IDX 64 56 83 57 48 58 49 59 63 61 84 62 51 63 35 64 36 65 44 66
REMARK SMILES IDX 37 67 38 68 42 69 45 70 39 71 40 72 43 73 41 74 67 75 68 76
REMARK SMILES IDX 76 77 69 78 70 79 74 80 77 81 71 82 72 83 75 84 73 85 52 86
REMARK SMILES IDX 53 87 61 88 54 89 55 90 59 91 62 92 56 93 57 94 60 95 58 96
REMARK H PARENT 13 10 10 16 82 49 50 60
REMARK Flexibility Score: inf
ROOT
ATOM      1  C   UNL A   1      33.260  27.428  25.131  1.00  0.00     0.338 C 
ATOM      2  O   UNL A   1      32.525  28.038  24.399  1.00  0.00    -0.246 OA
ENDROOT
BRANCH   1   3
ATOM      3  C   UNL A   1      33.890  26.120  24.828  1.00  0.00     0.060 A 
ATOM      4  C   UNL A   1      34.920  23.551  24.327  1.00  0.00     0.040 A 
ATOM      5  C   UNL A   1      35.009  24.124  25.580  1.00  0.00     0.027 A 
ATOM      6  C   UNL A   1      34.449  24.344  23.277  1.00  0.00     0.027 A 
ATOM      7  C   UNL A   1      34.443  25.372  25.862  1.00  0.00     0.018 A 
ATOM      8  C   UNL A   1      33.959  25.638  23.520  1.00  0.00     0.018 A 
BRANCH   4   9
ATOM      9  N   UNL A   1      35.441  22.283  24.041  1.00  0.00    -0.332 N 
ATOM     10  H   UNL A   1      35.627  22.175  23.080  1.00  0.00     0.169 HD
BRANCH   9  11
ATOM     11  C   UNL A   1      35.754  21.176  24.737  1.00  0.00     0.177 C 
ATOM     12  S   UNL A   1      37.394  20.869  24.958  1.00  0.00    -0.040 S 
BRANCH  11  13
ATOM     13  N   UNL A   1      34.916  20.136  25.060  1.00  0.00    -0.300 N 
ATOM     14  C   UNL A   1      33.784  19.393  24.711  1.00  0.00     0.264 C 
ATOM     15  O   UNL A   1      33.830  18.163  24.834  1.00  0.00    -0.271 OA
ATOM     16  H   UNL A   1      35.260  19.747  25.897  1.00  0.00     0.172 HD
BRANCH  14  17
ATOM     17  C   UNL A   1      32.501  20.084  24.330  1.00  0.00     0.329 C 
BRANCH  17  18
ATOM     18  O   UNL A   1      32.214  20.914  25.457  1.00  0.00    -0.484 OA
BRANCH  18  19
ATOM     19  C   UNL A   1      31.635  22.123  25.214  1.00  0.00     0.120 A 
ATOM     20  C   UNL A   1      29.996  25.911  24.021  1.00  0.00     0.044 C 
ATOM     21  C   UNL A   1      30.535  24.581  24.451  1.00  0.00    -0.051 A 
ATOM     22  C   UNL A   1      30.814  23.611  23.486  1.00  0.00     0.007 A 
ATOM     23  C   UNL A   1      30.787  24.297  25.801  1.00  0.00     0.007 A 
ATOM     24  C   UNL A   1      31.396  22.406  23.865  1.00  0.00     0.047 A 
ATOM     25  C   UNL A   1      31.329  23.066  26.186  1.00  0.00     0.047 A 
ENDBRANCH  18  19
ENDBRANCH  17  18
ENDBRANCH  14  17
ENDBRANCH  11  13
ENDBRANCH   9  11
ENDBRANCH   4   9
ENDBRANCH   1   3
BRANCH   1  26
ATOM     26  O   UNL A   1      33.647  27.772  26.383  1.00  0.00    -0.458 OA
BRANCH  26  27
ATOM     27  C   UNL A   1      32.889  28.748  27.115  1.00  0.00     0.275 C 
BRANCH  27  28
ATOM     28  C   UNL A   1      33.361  30.218  27.204  1.00  0.00     0.275 C 
BRANCH  28  29
ATOM     29  O   UNL A   1      34.221  30.774  28.241  1.00  0.00    -0.458 OA
BRANCH  29  30
ATOM     30  C   UNL A   1      35.394  31.422  28.077  1.00  0.00     0.338 C 
ATOM     31  O   UNL A   1      35.503  32.558  27.646  1.00  0.00    -0.246 OA
BRANCH  30  32
ATOM     32  C   UNL A   1      36.571  30.589  28.326  1.00  0.00     0.060 A 
ATOM     33  C   UNL A   1      36.695  29.915  29.551  1.00  0.00     0.016 A 
ATOM     34  C   UNL A   1      37.483  30.413  27.291  1.00  0.00     0.016 A 
ATOM     35  C   UNL A   1      37.698  28.978  29.717  1.00  0.00     0.010 A 
ATOM     36  C   UNL A   1      38.385  29.396  27.393  1.00  0.00     0.010 A 
ATOM     37  C   UNL A   1      38.534  28.747  28.630  1.00  0.00    -0.014 A 
BRANCH  37  38
ATOM     38  C   UNL A   1      39.868  28.215  28.779  1.00  0.00     0.031 A 
ATOM     39  C   UNL A   1      40.179  26.830  28.440  1.00  0.00     0.074 A 
ATOM     40  C   UNL A   1      40.745  29.228  28.963  1.00  0.00     0.049 A 
ATOM     41  N   UNL A   1      41.196  26.202  28.911  1.00  0.00    -0.248 NA
ATOM     42  C   UNL A   1      39.348  26.001  27.567  1.00  0.00     0.031 C 
ATOM     43  C   UNL A   1      42.165  29.327  28.700  1.00  0.00     0.029 A 
ATOM     44  N   UNL A   1      40.415  30.487  29.505  1.00  0.00    -0.354 N 
ATOM     45  C   UNL A   1      41.367  25.083  28.127  1.00  0.00     0.074 A 
ATOM     46  C   UNL A   1      40.112  24.908  27.432  1.00  0.00     0.031 C 
ATOM     47  C   UNL A   1      42.640  30.419  29.334  1.00  0.00     0.029 A 
ATOM     48  C   UNL A   1      41.556  30.965  30.146  1.00  0.00     0.049 A 
ATOM     49  H   UNL A   1      39.544  30.942  29.442  1.00  0.00     0.167 HD
ATOM     50  C   UNL A   1      42.629  24.586  27.974  1.00  0.00     0.037 A 
ATOM     51  C   UNL A   1      41.528  31.027  31.510  1.00  0.00     0.037 A 
ATOM     52  C   UNL A   1      43.576  25.462  28.662  1.00  0.00     0.049 A 
ATOM     53  C   UNL A   1      42.477  30.012  32.092  1.00  0.00     0.074 A 
ATOM     54  C   UNL A   1      44.324  26.528  28.188  1.00  0.00     0.029 A 
ATOM     55  N   UNL A   1      43.536  25.588  30.046  1.00  0.00    -0.354 N 
ATOM     56  N   UNL A   1      42.740  28.856  31.544  1.00  0.00    -0.248 NA
ATOM     57  C   UNL A   1      43.258  30.270  33.293  1.00  0.00     0.031 C 
ATOM     58  C   UNL A   1      44.707  27.322  29.296  1.00  0.00     0.029 A 
ATOM     59  C   UNL A   1      44.185  26.744  30.441  1.00  0.00     0.049 A 
ATOM     60  H   UNL A   1      43.106  24.947  30.657  1.00  0.00     0.167 HD
ATOM     61  C   UNL A   1      43.758  28.258  32.239  1.00  0.00     0.074 A 
ATOM     62  C   UNL A   1      44.032  29.173  33.333  1.00  0.00     0.031 C 
ATOM     63  C   UNL A   1      44.330  27.081  31.846  1.00  0.00     0.037 A 
BRANCH  50  64
ATOM     64  C   UNL A   1      43.059  23.574  26.936  1.00  0.00     0.064 A 
ATOM     65  C   UNL A   1      42.816  22.193  27.131  1.00  0.00     0.173 A 
ATOM     66  C   UNL A   1      43.710  23.893  25.730  1.00  0.00     0.173 A 
ATOM     67  F   UNL A   1      42.141  21.740  28.194  1.00  0.00    -0.203 F 
ATOM     68  C   UNL A   1      43.255  21.214  26.239  1.00  0.00     0.198 A 
ATOM     69  C   UNL A   1      44.174  22.907  24.848  1.00  0.00     0.198 A 
ATOM     70  F   UNL A   1      43.882  25.165  25.350  1.00  0.00    -0.203 F 
ATOM     71  F   UNL A   1      43.000  19.922  26.493  1.00  0.00    -0.200 F 
ATOM     72  C   UNL A   1      43.952  21.568  25.106  1.00  0.00     0.200 A 
ATOM     73  F   UNL A   1      44.841  23.266  23.741  1.00  0.00    -0.200 F 
ATOM     74  F   UNL A   1      44.393  20.627  24.260  1.00  0.00    -0.200 F 
ENDBRANCH  50  64
BRANCH  51  75
ATOM     75  C   UNL A   1      40.177  31.375  32.065  1.00  0.00     0.064 A 
ATOM     76  C   UNL A   1      39.375  30.330  32.580  1.00  0.00     0.173 A 
ATOM     77  C   UNL A   1      39.800  32.682  32.401  1.00  0.00     0.173 A 
ATOM     78  F   UNL A   1      39.682  29.053  32.301  1.00  0.00    -0.203 F 
ATOM     79  C   UNL A   1      38.326  30.574  33.468  1.00  0.00     0.198 A 
ATOM     80  C   UNL A   1      38.735  32.924  33.277  1.00  0.00     0.198 A 
ATOM     81  F   UNL A   1      40.510  33.729  31.962  1.00  0.00    -0.203 F 
ATOM     82  F   UNL A   1      37.667  29.545  34.023  1.00  0.00    -0.200 F 
ATOM     83  C   UNL A   1      38.017  31.871  33.830  1.00  0.00     0.200 A 
ATOM     84  F   UNL A   1      38.457  34.179  33.664  1.00  0.00    -0.200 F 
ATOM     85  F   UNL A   1      37.067  32.111  34.745  1.00  0.00    -0.200 F 
ENDBRANCH  51  75
BRANCH  63  86
ATOM     86  C   UNL A   1      45.204  26.198  32.701  1.00  0.00     0.064 A 
ATOM     87  C   UNL A   1      44.701  25.246  33.601  1.00  0.00     0.173 A 
ATOM     88  C   UNL A   1      46.611  26.173  32.517  1.00  0.00     0.173 A 
ATOM     89  F   UNL A   1      43.384  25.058  33.761  1.00  0.00    -0.203 F 
ATOM     90  C   UNL A   1      45.540  24.400  34.326  1.00  0.00     0.198 A 
ATOM     91  C   UNL A   1      47.435  25.270  33.179  1.00  0.00     0.198 A 
ATOM     92  F   UNL A   1      47.232  26.999  31.663  1.00  0.00    -0.203 F 
ATOM     93  F   UNL A   1      45.009  23.558  35.223  1.00  0.00    -0.200 F 
ATOM     94  C   UNL A   1      46.903  24.401  34.105  1.00  0.00     0.200 A 
ATOM     95  F   UNL A   1      48.745  25.237  32.898  1.00  0.00    -0.200 F 
ATOM     96  F   UNL A   1      47.697  23.551  34.766  1.00  0.00    -0.200 F 
ENDBRANCH  63  86
ENDBRANCH  37  38
ENDBRANCH  30  32
ENDBRANCH  29  30
ENDBRANCH  28  29
ENDBRANCH  27  28
ENDBRANCH  26  27
ENDBRANCH   1  26
TORSDOF 17
ENDMDL
