MODEL 1
REMARK VINA RESULT:     -12.0      0.000      0.000
REMARK SMILES Cc1c(Cl)cccc1NC(=O)C[C@H](C(=O)OCCOC(=O)c1ccc(-c2c3nc(c(-c4c(F)c(F)c(F)c(F)c4F)c4ccc([nH]4)c(-c4c(F)c(F)c(F)c(F)c4F)c4nc(c(-c5c(F)c(F)c(F)c(F)c5F)c5ccc2[nH]5)C=C4)C=C3)cc1)[C@H](C)c1ccccc1
REMARK SMILES IDX 17 1 16 2 14 3 15 4 13 5 12 6 10 7 9 8 11 10 8 11 1 12 2 13
REMARK SMILES IDX 3 14 4 15 5 16 7 17 6 18 85 19 86 20 87 21 88 22 92 23 89 24
REMARK SMILES IDX 91 25 90 26 18 27 19 28 20 29 21 30 22 31 23 32 84 33 24 34
REMARK SMILES IDX 83 35 25 36 26 37 27 38 77 39 28 40 82 41 76 42 78 43 29 44
REMARK SMILES IDX 81 45 75 46 74 47 30 49 62 50 42 51 61 52 43 53 46 54 60 55
REMARK SMILES IDX 79 56 44 57 45 58 59 60 80 61 47 62 31 63 32 64 40 65 33 66
REMARK SMILES IDX 34 67 38 68 41 69 35 70 36 71 39 72 37 73 63 74 64 75 72 76
REMARK SMILES IDX 65 77 66 78 70 79 73 80 67 81 68 82 71 83 69 84 48 85 49 86
REMARK SMILES IDX 57 87 50 88 51 89 55 90 58 91 52 92 53 93 56 94 54 95
REMARK H PARENT 9 9 78 48 46 59
REMARK Flexibility Score: inf
ROOT
ATOM      1  C   UNL A   1      31.437  29.711  24.655  1.00  0.00     0.274 C 
ENDROOT
BRANCH   1   2
ATOM      2  O   UNL A   1      31.547  28.294  24.402  1.00  0.00    -0.462 OA
BRANCH   2   3
ATOM      3  C   UNL A   1      32.774  27.820  24.057  1.00  0.00     0.310 C 
ATOM      4  O   UNL A   1      33.578  28.424  23.357  1.00  0.00    -0.252 OA
BRANCH   3   5
ATOM      5  C   UNL A   1      33.045  26.428  24.638  1.00  0.00     0.116 C 
BRANCH   5   6
ATOM      6  C   UNL A   1      31.841  26.028  25.524  1.00  0.00     0.116 C 
BRANCH   6   7
ATOM      7  C   UNL A   1      30.797  25.037  25.080  1.00  0.00     0.225 C 
ATOM      8  N   UNL A   1      30.961  23.685  25.145  1.00  0.00    -0.326 N 
ATOM      9  H   UNL A   1      30.254  23.170  24.692  1.00  0.00     0.169 HD
ATOM     10  O   UNL A   1      29.713  25.455  24.659  1.00  0.00    -0.275 OA
BRANCH   8  11
ATOM     11  C   UNL A   1      31.959  22.893  25.744  1.00  0.00     0.045 A 
ATOM     12  C   UNL A   1      32.143  21.530  23.571  1.00  0.00     0.048 C 
ATOM     13  C   UNL A   1      32.503  21.809  25.011  1.00  0.00    -0.009 A 
ATOM     14  C   UNL A   1      33.316  20.883  25.699  1.00  0.00     0.046 A 
ATOM     15  Cl  UNL A   1      33.894  19.438  24.940  1.00  0.00    -0.084 Cl
ATOM     16  C   UNL A   1      33.649  21.068  27.041  1.00  0.00     0.021 A 
ATOM     17  C   UNL A   1      32.386  23.116  27.056  1.00  0.00     0.026 A 
ATOM     18  C   UNL A   1      33.215  22.205  27.708  1.00  0.00     0.004 A 
ENDBRANCH   8  11
ENDBRANCH   6   7
ENDBRANCH   5   6
BRANCH   5  19
ATOM     19  C   UNL A   1      33.665  25.585  23.487  1.00  0.00     0.031 C 
ATOM     20  C   UNL A   1      32.750  24.861  22.509  1.00  0.00     0.013 C 
BRANCH  19  21
ATOM     21  C   UNL A   1      34.673  24.584  24.061  1.00  0.00    -0.044 A 
ATOM     22  C   UNL A   1      35.134  23.523  23.266  1.00  0.00     0.004 A 
ATOM     23  C   UNL A   1      35.156  24.696  25.376  1.00  0.00     0.004 A 
ATOM     24  C   UNL A   1      36.018  22.577  23.787  1.00  0.00     0.000 A 
ATOM     25  C   UNL A   1      36.032  23.742  25.897  1.00  0.00     0.000 A 
ATOM     26  C   UNL A   1      36.458  22.679  25.105  1.00  0.00     0.000 A 
ENDBRANCH  19  21
ENDBRANCH   5  19
ENDBRANCH   3   5
ENDBRANCH   2   3
ENDBRANCH   1   2
BRANCH   1  27
ATOM     27  C   UNL A   1      31.775  30.029  26.112  1.00  0.00     0.275 C 
BRANCH  27  28
ATOM     28  O   UNL A   1      33.147  30.445  26.211  1.00  0.00    -0.458 OA
BRANCH  28  29
ATOM     29  C   UNL A   1      33.402  31.475  27.048  1.00  0.00     0.338 C 
ATOM     30  O   UNL A   1      32.711  32.451  27.273  1.00  0.00    -0.246 OA
BRANCH  29  31
ATOM     31  C   UNL A   1      34.647  31.174  27.763  1.00  0.00     0.060 A 
ATOM     32  C   UNL A   1      34.855  29.870  28.215  1.00  0.00     0.016 A 
ATOM     33  C   UNL A   1      35.580  32.174  28.024  1.00  0.00     0.016 A 
ATOM     34  C   UNL A   1      35.987  29.554  28.950  1.00  0.00     0.010 A 
ATOM     35  C   UNL A   1      36.741  31.849  28.729  1.00  0.00     0.010 A 
ATOM     36  C   UNL A   1      36.944  30.539  29.204  1.00  0.00    -0.014 A 
BRANCH  36  37
ATOM     37  C   UNL A   1      38.145  30.203  29.996  1.00  0.00     0.031 A 
ATOM     38  C   UNL A   1      39.180  29.289  29.415  1.00  0.00     0.074 A 
ATOM     39  C   UNL A   1      38.303  30.730  31.224  1.00  0.00     0.049 A 
ATOM     40  N   UNL A   1      40.227  28.754  29.985  1.00  0.00    -0.248 NA
ATOM     41  C   UNL A   1      39.007  28.923  28.001  1.00  0.00     0.031 C 
ATOM     42  C   UNL A   1      37.390  31.682  31.858  1.00  0.00     0.029 A 
ATOM     43  N   UNL A   1      39.285  30.532  32.159  1.00  0.00    -0.354 N 
ATOM     44  C   UNL A   1      40.822  27.965  29.011  1.00  0.00     0.074 A 
ATOM     45  C   UNL A   1      40.014  28.082  27.816  1.00  0.00     0.031 C 
ATOM     46  C   UNL A   1      37.852  31.982  33.081  1.00  0.00     0.029 A 
ATOM     47  C   UNL A   1      39.059  31.201  33.336  1.00  0.00     0.049 A 
ATOM     48  H   UNL A   1      40.074  29.966  32.002  1.00  0.00     0.167 HD
ATOM     49  C   UNL A   1      41.941  27.211  29.116  1.00  0.00     0.037 A 
ATOM     50  C   UNL A   1      39.731  31.154  34.502  1.00  0.00     0.037 A 
ATOM     51  C   UNL A   1      42.744  27.122  30.306  1.00  0.00     0.049 A 
ATOM     52  C   UNL A   1      40.937  30.263  34.608  1.00  0.00     0.074 A 
ATOM     53  C   UNL A   1      43.899  26.392  30.518  1.00  0.00     0.029 A 
ATOM     54  N   UNL A   1      42.470  27.793  31.490  1.00  0.00    -0.354 N 
ATOM     55  N   UNL A   1      41.480  29.494  33.696  1.00  0.00    -0.248 NA
ATOM     56  C   UNL A   1      41.617  30.224  35.909  1.00  0.00     0.031 C 
ATOM     57  C   UNL A   1      44.304  26.592  31.844  1.00  0.00     0.029 A 
ATOM     58  C   UNL A   1      43.425  27.481  32.443  1.00  0.00     0.049 A 
ATOM     59  H   UNL A   1      41.709  28.403  31.631  1.00  0.00     0.167 HD
ATOM     60  C   UNL A   1      42.573  28.893  34.303  1.00  0.00     0.074 A 
ATOM     61  C   UNL A   1      42.625  29.400  35.659  1.00  0.00     0.031 C 
ATOM     62  C   UNL A   1      43.454  28.002  33.787  1.00  0.00     0.037 A 
BRANCH  49  63
ATOM     63  C   UNL A   1      42.334  26.394  27.920  1.00  0.00     0.064 A 
ATOM     64  C   UNL A   1      43.291  26.842  26.998  1.00  0.00     0.173 A 
ATOM     65  C   UNL A   1      41.748  25.137  27.702  1.00  0.00     0.173 A 
ATOM     66  F   UNL A   1      43.866  28.045  27.153  1.00  0.00    -0.203 F 
ATOM     67  C   UNL A   1      43.628  26.073  25.887  1.00  0.00     0.198 A 
ATOM     68  C   UNL A   1      42.108  24.361  26.604  1.00  0.00     0.198 A 
ATOM     69  F   UNL A   1      40.827  24.664  28.554  1.00  0.00    -0.203 F 
ATOM     70  F   UNL A   1      44.510  26.542  24.992  1.00  0.00    -0.200 F 
ATOM     71  C   UNL A   1      43.041  24.832  25.693  1.00  0.00     0.200 A 
ATOM     72  F   UNL A   1      41.544  23.158  26.423  1.00  0.00    -0.200 F 
ATOM     73  F   UNL A   1      43.368  24.094  24.624  1.00  0.00    -0.200 F 
ENDBRANCH  49  63
BRANCH  50  74
ATOM     74  C   UNL A   1      39.258  31.953  35.660  1.00  0.00     0.064 A 
ATOM     75  C   UNL A   1      39.684  33.274  35.848  1.00  0.00     0.173 A 
ATOM     76  C   UNL A   1      38.364  31.415  36.598  1.00  0.00     0.173 A 
ATOM     77  F   UNL A   1      40.558  33.823  34.992  1.00  0.00    -0.203 F 
ATOM     78  C   UNL A   1      39.243  34.025  36.937  1.00  0.00     0.198 A 
ATOM     79  C   UNL A   1      37.902  32.174  37.671  1.00  0.00     0.198 A 
ATOM     80  F   UNL A   1      37.927  30.154  36.464  1.00  0.00    -0.203 F 
ATOM     81  F   UNL A   1      39.695  35.272  37.115  1.00  0.00    -0.200 F 
ATOM     82  C   UNL A   1      38.346  33.477  37.842  1.00  0.00     0.200 A 
ATOM     83  F   UNL A   1      37.028  31.645  38.538  1.00  0.00    -0.200 F 
ATOM     84  F   UNL A   1      37.917  34.201  38.885  1.00  0.00    -0.200 F 
ENDBRANCH  50  74
BRANCH  62  85
ATOM     85  C   UNL A   1      44.562  27.542  34.685  1.00  0.00     0.064 A 
ATOM     86  C   UNL A   1      44.436  26.389  35.474  1.00  0.00     0.173 A 
ATOM     87  C   UNL A   1      45.775  28.244  34.731  1.00  0.00     0.173 A 
ATOM     88  F   UNL A   1      43.288  25.696  35.476  1.00  0.00    -0.203 F 
ATOM     89  C   UNL A   1      45.480  25.967  36.292  1.00  0.00     0.198 A 
ATOM     90  C   UNL A   1      46.826  27.804  35.530  1.00  0.00     0.198 A 
ATOM     91  F   UNL A   1      45.945  29.350  33.991  1.00  0.00    -0.203 F 
ATOM     92  F   UNL A   1      45.324  24.886  37.069  1.00  0.00    -0.200 F 
ATOM     93  C   UNL A   1      46.675  26.669  36.315  1.00  0.00     0.200 A 
ATOM     94  F   UNL A   1      47.984  28.477  35.543  1.00  0.00    -0.200 F 
ATOM     95  F   UNL A   1      47.682  26.258  37.099  1.00  0.00    -0.200 F 
ENDBRANCH  62  85
ENDBRANCH  36  37
ENDBRANCH  29  31
ENDBRANCH  28  29
ENDBRANCH  27  28
ENDBRANCH   1  27
TORSDOF 16
ENDMDL
MODEL 2
REMARK VINA RESULT:     -11.9      4.461      9.450
REMARK SMILES Cc1c(Cl)cccc1NC(=O)C[C@H](C(=O)OCCOC(=O)c1ccc(-c2c3nc(c(-c4c(F)c(F)c(F)c(F)c4F)c4ccc([nH]4)c(-c4c(F)c(F)c(F)c(F)c4F)c4nc(c(-c5c(F)c(F)c(F)c(F)c5F)c5ccc2[nH]5)C=C4)C=C3)cc1)[C@H](C)c1ccccc1
REMARK SMILES IDX 17 1 16 2 14 3 15 4 13 5 12 6 10 7 9 8 11 10 8 11 1 12 2 13
REMARK SMILES IDX 3 14 4 15 5 16 7 17 6 18 85 19 86 20 87 21 88 22 92 23 89 24
REMARK SMILES IDX 91 25 90 26 18 27 19 28 20 29 21 30 22 31 23 32 84 33 24 34
REMARK SMILES IDX 83 35 25 36 26 37 27 38 77 39 28 40 82 41 76 42 78 43 29 44
REMARK SMILES IDX 81 45 75 46 74 47 30 49 62 50 42 51 61 52 43 53 46 54 60 55
REMARK SMILES IDX 79 56 44 57 45 58 59 60 80 61 47 62 31 63 32 64 40 65 33 66
REMARK SMILES IDX 34 67 38 68 41 69 35 70 36 71 39 72 37 73 63 74 64 75 72 76
REMARK SMILES IDX 65 77 66 78 70 79 73 80 67 81 68 82 71 83 69 84 48 85 49 86
REMARK SMILES IDX 57 87 50 88 51 89 55 90 58 91 52 92 53 93 56 94 54 95
REMARK H PARENT 9 9 78 48 46 59
REMARK Flexibility Score: inf
ROOT
ATOM      1  C   UNL A   1      35.113  20.666  25.082  1.00  0.00     0.274 C 
ENDROOT
BRANCH   1   2
ATOM      2  O   UNL A   1      34.233  21.486  24.283  1.00  0.00    -0.462 OA
BRANCH   2   3
ATOM      3  C   UNL A   1      32.984  21.710  24.771  1.00  0.00     0.310 C 
ATOM      4  O   UNL A   1      32.330  20.890  25.405  1.00  0.00    -0.252 OA
BRANCH   3   5
ATOM      5  C   UNL A   1      32.471  23.116  24.436  1.00  0.00     0.116 C 
BRANCH   5   6
ATOM      6  C   UNL A   1      31.029  23.249  24.978  1.00  0.00     0.116 C 
BRANCH   6   7
ATOM      7  C   UNL A   1      30.711  23.920  26.289  1.00  0.00     0.225 C 
ATOM      8  N   UNL A   1      30.612  25.271  26.444  1.00  0.00    -0.326 N 
ATOM      9  H   UNL A   1      30.538  25.566  27.380  1.00  0.00     0.169 HD
ATOM     10  O   UNL A   1      30.492  23.220  27.285  1.00  0.00    -0.275 OA
BRANCH   8  11
ATOM     11  C   UNL A   1      30.599  26.320  25.505  1.00  0.00     0.045 A 
ATOM     12  C   UNL A   1      32.055  27.724  27.092  1.00  0.00     0.048 C 
ATOM     13  C   UNL A   1      31.248  27.537  25.829  1.00  0.00    -0.009 A 
ATOM     14  C   UNL A   1      31.023  28.653  24.995  1.00  0.00     0.046 A 
ATOM     15  Cl  UNL A   1      31.635  30.224  25.391  1.00  0.00    -0.084 Cl
ATOM     16  C   UNL A   1      30.253  28.549  23.836  1.00  0.00     0.021 A 
ATOM     17  C   UNL A   1      29.917  26.209  24.289  1.00  0.00     0.026 A 
ATOM     18  C   UNL A   1      29.732  27.318  23.464  1.00  0.00     0.004 A 
ENDBRANCH   8  11
ENDBRANCH   6   7
ENDBRANCH   5   6
BRANCH   5  19
ATOM     19  C   UNL A   1      33.654  24.089  24.707  1.00  0.00     0.031 C 
ATOM     20  C   UNL A   1      33.921  24.570  26.127  1.00  0.00     0.013 C 
BRANCH  19  21
ATOM     21  C   UNL A   1      33.549  25.305  23.780  1.00  0.00    -0.044 A 
ATOM     22  C   UNL A   1      32.961  25.169  22.513  1.00  0.00     0.004 A 
ATOM     23  C   UNL A   1      34.030  26.568  24.164  1.00  0.00     0.004 A 
ATOM     24  C   UNL A   1      32.897  26.255  21.639  1.00  0.00     0.000 A 
ATOM     25  C   UNL A   1      33.974  27.650  23.284  1.00  0.00     0.000 A 
ATOM     26  C   UNL A   1      33.414  27.492  22.019  1.00  0.00     0.000 A 
ENDBRANCH  19  21
ENDBRANCH   5  19
ENDBRANCH   3   5
ENDBRANCH   2   3
ENDBRANCH   1   2
BRANCH   1  27
ATOM     27  C   UNL A   1      35.934  21.530  26.041  1.00  0.00     0.275 C 
BRANCH  27  28
ATOM     28  O   UNL A   1      37.098  22.033  25.364  1.00  0.00    -0.458 OA
BRANCH  28  29
ATOM     29  C   UNL A   1      38.291  21.587  25.814  1.00  0.00     0.338 C 
ATOM     30  O   UNL A   1      38.746  20.459  25.752  1.00  0.00    -0.246 OA
BRANCH  29  31
ATOM     31  C   UNL A   1      39.042  22.743  26.318  1.00  0.00     0.060 A 
ATOM     32  C   UNL A   1      38.658  24.017  25.896  1.00  0.00     0.016 A 
ATOM     33  C   UNL A   1      40.137  22.573  27.160  1.00  0.00     0.016 A 
ATOM     34  C   UNL A   1      39.376  25.134  26.295  1.00  0.00     0.010 A 
ATOM     35  C   UNL A   1      40.837  23.700  27.596  1.00  0.00     0.010 A 
ATOM     36  C   UNL A   1      40.465  24.984  27.157  1.00  0.00    -0.014 A 
BRANCH  36  37
ATOM     37  C   UNL A   1      41.236  26.175  27.573  1.00  0.00     0.031 A 
ATOM     38  C   UNL A   1      40.557  27.256  28.356  1.00  0.00     0.074 A 
ATOM     39  C   UNL A   1      42.539  26.269  27.255  1.00  0.00     0.049 A 
ATOM     40  N   UNL A   1      41.001  28.437  28.696  1.00  0.00    -0.248 NA
ATOM     41  C   UNL A   1      39.189  26.968  28.815  1.00  0.00     0.031 C 
ATOM     42  C   UNL A   1      43.314  25.245  26.554  1.00  0.00     0.029 A 
ATOM     43  N   UNL A   1      43.440  27.279  27.476  1.00  0.00    -0.354 N 
ATOM     44  C   UNL A   1      39.960  29.047  29.380  1.00  0.00     0.074 A 
ATOM     45  C   UNL A   1      38.857  28.110  29.400  1.00  0.00     0.031 C 
ATOM     46  C   UNL A   1      44.573  25.681  26.397  1.00  0.00     0.029 A 
ATOM     47  C   UNL A   1      44.677  27.035  26.934  1.00  0.00     0.049 A 
ATOM     48  H   UNL A   1      43.220  28.099  27.974  1.00  0.00     0.167 HD
ATOM     49  C   UNL A   1      39.934  30.281  29.935  1.00  0.00     0.037 A 
ATOM     50  C   UNL A   1      45.758  27.832  26.848  1.00  0.00     0.037 A 
ATOM     51  C   UNL A   1      41.047  31.192  29.924  1.00  0.00     0.049 A 
ATOM     52  C   UNL A   1      45.683  29.219  27.422  1.00  0.00     0.074 A 
ATOM     53  C   UNL A   1      41.130  32.464  30.461  1.00  0.00     0.029 A 
ATOM     54  N   UNL A   1      42.278  30.921  29.342  1.00  0.00    -0.354 N 
ATOM     55  N   UNL A   1      44.687  29.806  28.041  1.00  0.00    -0.248 NA
ATOM     56  C   UNL A   1      46.877  30.061  27.275  1.00  0.00     0.031 C 
ATOM     57  C   UNL A   1      42.400  32.977  30.171  1.00  0.00     0.029 A 
ATOM     58  C   UNL A   1      43.122  32.008  29.491  1.00  0.00     0.049 A 
ATOM     59  H   UNL A   1      42.516  30.079  28.890  1.00  0.00     0.167 HD
ATOM     60  C   UNL A   1      45.137  31.075  28.373  1.00  0.00     0.074 A 
ATOM     61  C   UNL A   1      46.503  31.168  27.900  1.00  0.00     0.031 C 
ATOM     62  C   UNL A   1      44.480  32.074  29.011  1.00  0.00     0.037 A 
BRANCH  49  63
ATOM     63  C   UNL A   1      38.647  30.725  30.565  1.00  0.00     0.064 A 
ATOM     64  C   UNL A   1      38.438  30.661  31.950  1.00  0.00     0.173 A 
ATOM     65  C   UNL A   1      37.611  31.234  29.767  1.00  0.00     0.173 A 
ATOM     66  F   UNL A   1      39.391  30.164  32.754  1.00  0.00    -0.203 F 
ATOM     67  C   UNL A   1      37.228  31.064  32.510  1.00  0.00     0.198 A 
ATOM     68  C   UNL A   1      36.413  31.661  30.333  1.00  0.00     0.198 A 
ATOM     69  F   UNL A   1      37.760  31.316  28.437  1.00  0.00    -0.203 F 
ATOM     70  F   UNL A   1      37.032  30.949  33.832  1.00  0.00    -0.200 F 
ATOM     71  C   UNL A   1      36.220  31.568  31.703  1.00  0.00     0.200 A 
ATOM     72  F   UNL A   1      35.443  32.155  29.552  1.00  0.00    -0.200 F 
ATOM     73  F   UNL A   1      35.058  31.957  32.245  1.00  0.00    -0.200 F 
ENDBRANCH  49  63
BRANCH  50  74
ATOM     74  C   UNL A   1      46.984  27.344  26.168  1.00  0.00     0.064 A 
ATOM     75  C   UNL A   1      47.982  26.666  26.879  1.00  0.00     0.173 A 
ATOM     76  C   UNL A   1      47.179  27.539  24.792  1.00  0.00     0.173 A 
ATOM     77  F   UNL A   1      47.851  26.477  28.201  1.00  0.00    -0.203 F 
ATOM     78  C   UNL A   1      49.135  26.209  26.243  1.00  0.00     0.198 A 
ATOM     79  C   UNL A   1      48.320  27.059  24.152  1.00  0.00     0.198 A 
ATOM     80  F   UNL A   1      46.255  28.184  24.066  1.00  0.00    -0.203 F 
ATOM     81  F   UNL A   1      50.091  25.597  26.952  1.00  0.00    -0.200 F 
ATOM     82  C   UNL A   1      49.299  26.399  24.879  1.00  0.00     0.200 A 
ATOM     83  F   UNL A   1      48.469  27.235  22.832  1.00  0.00    -0.200 F 
ATOM     84  F   UNL A   1      50.405  25.954  24.266  1.00  0.00    -0.200 F 
ENDBRANCH  50  74
BRANCH  62  85
ATOM     85  C   UNL A   1      45.242  33.341  29.257  1.00  0.00     0.064 A 
ATOM     86  C   UNL A   1      45.215  34.402  28.340  1.00  0.00     0.173 A 
ATOM     87  C   UNL A   1      45.979  33.509  30.438  1.00  0.00     0.173 A 
ATOM     88  F   UNL A   1      44.538  34.281  27.188  1.00  0.00    -0.203 F 
ATOM     89  C   UNL A   1      45.916  35.579  28.589  1.00  0.00     0.198 A 
ATOM     90  C   UNL A   1      46.657  34.695  30.696  1.00  0.00     0.198 A 
ATOM     91  F   UNL A   1      46.031  32.523  31.348  1.00  0.00    -0.203 F 
ATOM     92  F   UNL A   1      45.911  36.564  27.681  1.00  0.00    -0.200 F 
ATOM     93  C   UNL A   1      46.630  35.727  29.768  1.00  0.00     0.200 A 
ATOM     94  F   UNL A   1      47.338  34.842  31.840  1.00  0.00    -0.200 F 
ATOM     95  F   UNL A   1      47.300  36.863  30.009  1.00  0.00    -0.200 F 
ENDBRANCH  62  85
ENDBRANCH  36  37
ENDBRANCH  29  31
ENDBRANCH  28  29
ENDBRANCH  27  28
ENDBRANCH   1  27
TORSDOF 16
ENDMDL
MODEL 3
REMARK VINA RESULT:     -11.9      0.958      2.374
REMARK SMILES Cc1c(Cl)cccc1NC(=O)C[C@H](C(=O)OCCOC(=O)c1ccc(-c2c3nc(c(-c4c(F)c(F)c(F)c(F)c4F)c4ccc([nH]4)c(-c4c(F)c(F)c(F)c(F)c4F)c4nc(c(-c5c(F)c(F)c(F)c(F)c5F)c5ccc2[nH]5)C=C4)C=C3)cc1)[C@H](C)c1ccccc1
REMARK SMILES IDX 17 1 16 2 14 3 15 4 13 5 12 6 10 7 9 8 11 10 8 11 1 12 2 13
REMARK SMILES IDX 3 14 4 15 5 16 7 17 6 18 85 19 86 20 87 21 88 22 92 23 89 24
REMARK SMILES IDX 91 25 90 26 18 27 19 28 20 29 21 30 22 31 23 32 84 33 24 34
REMARK SMILES IDX 83 35 25 36 26 37 27 38 77 39 28 40 82 41 76 42 78 43 29 44
REMARK SMILES IDX 81 45 75 46 74 47 30 49 62 50 42 51 61 52 43 53 46 54 60 55
REMARK SMILES IDX 79 56 44 57 45 58 59 60 80 61 47 62 31 63 32 64 40 65 33 66
REMARK SMILES IDX 34 67 38 68 41 69 35 70 36 71 39 72 37 73 63 74 64 75 72 76
REMARK SMILES IDX 65 77 66 78 70 79 73 80 67 81 68 82 71 83 69 84 48 85 49 86
REMARK SMILES IDX 57 87 50 88 51 89 55 90 58 91 52 92 53 93 56 94 54 95
REMARK H PARENT 9 9 78 48 46 59
REMARK Flexibility Score: inf
ROOT
ATOM      1  C   UNL A   1      31.330  29.568  24.564  1.00  0.00     0.274 C 
ENDROOT
BRANCH   1   2
ATOM      2  O   UNL A   1      32.075  28.554  23.857  1.00  0.00    -0.462 OA
BRANCH   2   3
ATOM      3  C   UNL A   1      31.363  27.674  23.103  1.00  0.00     0.310 C 
ATOM      4  O   UNL A   1      30.690  27.984  22.127  1.00  0.00    -0.252 OA
BRANCH   3   5
ATOM      5  C   UNL A   1      31.488  26.234  23.615  1.00  0.00     0.116 C 
BRANCH   5   6
ATOM      6  C   UNL A   1      31.507  25.285  22.393  1.00  0.00     0.116 C 
BRANCH   6   7
ATOM      7  C   UNL A   1      32.768  24.957  21.637  1.00  0.00     0.225 C 
ATOM      8  N   UNL A   1      33.607  23.935  21.970  1.00  0.00    -0.326 N 
ATOM      9  H   UNL A   1      34.456  23.931  21.472  1.00  0.00     0.169 HD
ATOM     10  O   UNL A   1      33.058  25.621  20.635  1.00  0.00    -0.275 OA
BRANCH   8  11
ATOM     11  C   UNL A   1      33.477  22.886  22.900  1.00  0.00     0.045 A 
ATOM     12  C   UNL A   1      35.912  23.269  23.632  1.00  0.00     0.048 C 
ATOM     13  C   UNL A   1      34.604  22.515  23.674  1.00  0.00    -0.009 A 
ATOM     14  C   UNL A   1      34.534  21.317  24.418  1.00  0.00     0.046 A 
ATOM     15  Cl  UNL A   1      35.908  20.690  25.265  1.00  0.00    -0.084 Cl
ATOM     16  C   UNL A   1      33.365  20.558  24.461  1.00  0.00     0.021 A 
ATOM     17  C   UNL A   1      32.285  22.169  23.037  1.00  0.00     0.026 A 
ATOM     18  C   UNL A   1      32.228  21.004  23.801  1.00  0.00     0.004 A 
ENDBRANCH   8  11
ENDBRANCH   6   7
ENDBRANCH   5   6
BRANCH   5  19
ATOM     19  C   UNL A   1      32.526  26.270  24.773  1.00  0.00     0.031 C 
ATOM     20  C   UNL A   1      33.998  26.493  24.457  1.00  0.00     0.013 C 
BRANCH  19  21
ATOM     21  C   UNL A   1      32.386  25.010  25.635  1.00  0.00    -0.044 A 
ATOM     22  C   UNL A   1      31.127  24.410  25.797  1.00  0.00     0.004 A 
ATOM     23  C   UNL A   1      33.493  24.429  26.276  1.00  0.00     0.004 A 
ATOM     24  C   UNL A   1      30.974  23.288  26.613  1.00  0.00     0.000 A 
ATOM     25  C   UNL A   1      33.335  23.314  27.100  1.00  0.00     0.000 A 
ATOM     26  C   UNL A   1      32.075  22.748  27.274  1.00  0.00     0.000 A 
ENDBRANCH  19  21
ENDBRANCH   5  19
ENDBRANCH   3   5
ENDBRANCH   2   3
ENDBRANCH   1   2
BRANCH   1  27
ATOM     27  C   UNL A   1      31.791  29.662  26.019  1.00  0.00     0.275 C 
BRANCH  27  28
ATOM     28  O   UNL A   1      33.140  30.157  26.069  1.00  0.00    -0.458 OA
BRANCH  28  29
ATOM     29  C   UNL A   1      33.362  31.207  26.890  1.00  0.00     0.338 C 
ATOM     30  O   UNL A   1      32.634  32.157  27.111  1.00  0.00    -0.246 OA
BRANCH  29  31
ATOM     31  C   UNL A   1      34.626  30.966  27.594  1.00  0.00     0.060 A 
ATOM     32  C   UNL A   1      34.901  29.673  28.041  1.00  0.00     0.016 A 
ATOM     33  C   UNL A   1      35.512  32.010  27.850  1.00  0.00     0.016 A 
ATOM     34  C   UNL A   1      36.054  29.411  28.766  1.00  0.00     0.010 A 
ATOM     35  C   UNL A   1      36.693  31.740  28.544  1.00  0.00     0.010 A 
ATOM     36  C   UNL A   1      36.964  30.441  29.014  1.00  0.00    -0.014 A 
BRANCH  36  37
ATOM     37  C   UNL A   1      38.187  30.162  29.795  1.00  0.00     0.031 A 
ATOM     38  C   UNL A   1      39.240  29.266  29.221  1.00  0.00     0.074 A 
ATOM     39  C   UNL A   1      38.347  30.725  31.006  1.00  0.00     0.049 A 
ATOM     40  N   UNL A   1      40.312  28.778  29.788  1.00  0.00    -0.248 NA
ATOM     41  C   UNL A   1      39.057  28.859  27.820  1.00  0.00     0.031 C 
ATOM     42  C   UNL A   1      37.415  31.665  31.631  1.00  0.00     0.029 A 
ATOM     43  N   UNL A   1      39.349  30.582  31.931  1.00  0.00    -0.354 N 
ATOM     44  C   UNL A   1      40.917  27.983  28.825  1.00  0.00     0.074 A 
ATOM     45  C   UNL A   1      40.087  28.044  27.640  1.00  0.00     0.031 C 
ATOM     46  C   UNL A   1      37.886  32.011  32.838  1.00  0.00     0.029 A 
ATOM     47  C   UNL A   1      39.120  31.273  33.094  1.00  0.00     0.049 A 
ATOM     48  H   UNL A   1      40.153  30.036  31.776  1.00  0.00     0.167 HD
ATOM     49  C   UNL A   1      42.060  27.266  28.930  1.00  0.00     0.037 A 
ATOM     50  C   UNL A   1      39.810  31.278  34.249  1.00  0.00     0.037 A 
ATOM     51  C   UNL A   1      42.883  27.232  30.109  1.00  0.00     0.049 A 
ATOM     52  C   UNL A   1      41.045  30.427  34.359  1.00  0.00     0.074 A 
ATOM     53  C   UNL A   1      44.063  26.544  30.321  1.00  0.00     0.029 A 
ATOM     54  N   UNL A   1      42.607  27.925  31.280  1.00  0.00    -0.354 N 
ATOM     55  N   UNL A   1      41.598  29.651  33.458  1.00  0.00    -0.248 NA
ATOM     56  C   UNL A   1      41.746  30.442  35.650  1.00  0.00     0.031 C 
ATOM     57  C   UNL A   1      44.482  26.790  31.634  1.00  0.00     0.029 A 
ATOM     58  C   UNL A   1      43.585  27.667  32.226  1.00  0.00     0.049 A 
ATOM     59  H   UNL A   1      41.830  28.515  31.418  1.00  0.00     0.167 HD
ATOM     60  C   UNL A   1      42.718  29.100  34.063  1.00  0.00     0.074 A 
ATOM     61  C   UNL A   1      42.775  29.643  35.404  1.00  0.00     0.031 C 
ATOM     62  C   UNL A   1      43.619  28.223  33.555  1.00  0.00     0.037 A 
BRANCH  49  63
ATOM     63  C   UNL A   1      42.459  26.431  27.750  1.00  0.00     0.064 A 
ATOM     64  C   UNL A   1      41.930  25.150  27.534  1.00  0.00     0.173 A 
ATOM     65  C   UNL A   1      43.380  26.928  26.814  1.00  0.00     0.173 A 
ATOM     66  F   UNL A   1      41.061  24.624  28.410  1.00  0.00    -0.203 F 
ATOM     67  C   UNL A   1      42.328  24.387  26.439  1.00  0.00     0.198 A 
ATOM     68  C   UNL A   1      43.755  26.172  25.707  1.00  0.00     0.198 A 
ATOM     69  F   UNL A   1      43.916  28.147  26.975  1.00  0.00    -0.203 F 
ATOM     70  F   UNL A   1      41.845  23.146  26.278  1.00  0.00    -0.200 F 
ATOM     71  C   UNL A   1      43.236  24.900  25.524  1.00  0.00     0.200 A 
ATOM     72  F   UNL A   1      44.627  26.673  24.820  1.00  0.00    -0.200 F 
ATOM     73  F   UNL A   1      43.616  24.164  24.471  1.00  0.00    -0.200 F 
ENDBRANCH  49  63
BRANCH  50  74
ATOM     74  C   UNL A   1      39.331  32.091  35.394  1.00  0.00     0.064 A 
ATOM     75  C   UNL A   1      39.699  33.436  35.529  1.00  0.00     0.173 A 
ATOM     76  C   UNL A   1      38.488  31.543  36.373  1.00  0.00     0.173 A 
ATOM     77  F   UNL A   1      40.523  33.997  34.632  1.00  0.00    -0.203 F 
ATOM     78  C   UNL A   1      39.251  34.201  36.605  1.00  0.00     0.198 A 
ATOM     79  C   UNL A   1      38.019  32.315  37.434  1.00  0.00     0.198 A 
ATOM     80  F   UNL A   1      38.108  30.259  36.292  1.00  0.00    -0.203 F 
ATOM     81  F   UNL A   1      39.648  35.473  36.731  1.00  0.00    -0.200 F 
ATOM     82  C   UNL A   1      38.406  33.642  37.552  1.00  0.00     0.200 A 
ATOM     83  F   UNL A   1      37.194  31.774  38.341  1.00  0.00    -0.200 F 
ATOM     84  F   UNL A   1      37.970  34.379  38.583  1.00  0.00    -0.200 F 
ENDBRANCH  50  74
BRANCH  62  85
ATOM     85  C   UNL A   1      44.754  27.821  34.447  1.00  0.00     0.064 A 
ATOM     86  C   UNL A   1      45.943  28.562  34.498  1.00  0.00     0.173 A 
ATOM     87  C   UNL A   1      44.637  26.702  35.284  1.00  0.00     0.173 A 
ATOM     88  F   UNL A   1      46.108  29.630  33.703  1.00  0.00    -0.203 F 
ATOM     89  C   UNL A   1      46.983  28.184  35.344  1.00  0.00     0.198 A 
ATOM     90  C   UNL A   1      45.668  26.342  36.146  1.00  0.00     0.198 A 
ATOM     91  F   UNL A   1      43.516  25.964  35.273  1.00  0.00    -0.203 F 
ATOM     92  F   UNL A   1      48.127  28.882  35.347  1.00  0.00    -0.200 F 
ATOM     93  C   UNL A   1      46.843  27.080  36.171  1.00  0.00     0.200 A 
ATOM     94  F   UNL A   1      45.527  25.282  36.952  1.00  0.00    -0.200 F 
ATOM     95  F   UNL A   1      47.843  26.721  36.987  1.00  0.00    -0.200 F 
ENDBRANCH  62  85
ENDBRANCH  36  37
ENDBRANCH  29  31
ENDBRANCH  28  29
ENDBRANCH  27  28
ENDBRANCH   1  27
TORSDOF 16
ENDMDL
