MODEL 1
REMARK VINA RESULT:     -10.7      0.000      0.000
REMARK SMILES C[C@@H]1CC[N@@H+]1[C@@H]1CCC[C@@H]1C(=O)OCCOC(=O)c1ccc(-c2c3nc(c(-c4c(F)c(F)c(F)c(F)c4F)c4ccc([nH]4)c(-c4c(F)c(F)c(F)c(F)c4F)c4nc(c(-c5c(F)c(F)c(F)c(F)c5F)c5ccc2[nH]5)C=C4)C=C3)cc1
REMARK SMILES IDX 15 1 14 2 13 3 11 4 12 5 10 6 6 7 7 8 8 9 9 10 5 11 1 12
REMARK SMILES IDX 2 13 3 14 4 15 16 17 17 18 18 19 19 20 20 21 81 22 21 23
REMARK SMILES IDX 80 24 22 25 23 26 24 27 74 28 25 29 79 30 73 31 75 32 26 33
REMARK SMILES IDX 78 34 72 35 71 36 27 38 59 39 39 40 58 41 40 42 43 43 57 44
REMARK SMILES IDX 76 45 41 46 42 47 56 49 77 50 44 51 28 52 29 53 37 54 30 55
REMARK SMILES IDX 31 56 35 57 38 58 32 59 33 60 36 61 34 62 60 63 61 64 69 65
REMARK SMILES IDX 62 66 63 67 67 68 70 69 64 70 65 71 68 72 66 73 45 74 46 75
REMARK SMILES IDX 54 76 47 77 48 78 52 79 55 80 49 81 50 82 53 83 51 84
REMARK H PARENT 5 16 75 37 43 48
REMARK Flexibility Score: inf
ROOT
ATOM      1  C   UNL A   1      32.925  36.056  29.660  1.00  0.00     0.275 C 
ENDROOT
BRANCH   1   2
ATOM      2  C   UNL A   1      33.865  35.215  28.756  1.00  0.00     0.274 C 
BRANCH   2   3
ATOM      3  O   UNL A   1      33.364  33.935  28.320  1.00  0.00    -0.462 OA
BRANCH   3   4
ATOM      4  C   UNL A   1      34.123  32.908  28.797  1.00  0.00     0.315 C 
ATOM      5  O   UNL A   1      34.077  32.591  29.978  1.00  0.00    -0.252 OA
BRANCH   4   6
ATOM      6  C   UNL A   1      34.877  32.142  27.726  1.00  0.00     0.157 C 
ATOM      7  C   UNL A   1      34.363  30.692  27.458  1.00  0.00     0.198 C 
ATOM      8  C   UNL A   1      35.453  29.762  28.002  1.00  0.00     0.066 C 
ATOM      9  C   UNL A   1      36.735  30.532  27.721  1.00  0.00     0.007 C 
ATOM     10  C   UNL A   1      36.386  31.995  27.982  1.00  0.00     0.022 C 
BRANCH   7  11
ATOM     11  N   UNL A   1      32.939  30.414  27.650  1.00  0.00    -0.329 N 
ATOM     12  C   UNL A   1      33.025  27.861  26.907  1.00  0.00     0.075 C 
ATOM     13  C   UNL A   1      32.286  29.166  27.155  1.00  0.00     0.186 C 
ATOM     14  C   UNL A   1      31.832  29.935  25.906  1.00  0.00     0.126 C 
ATOM     15  C   UNL A   1      32.076  31.196  26.738  1.00  0.00     0.268 C 
ATOM     16  H   UNL A   1      32.983  30.526  28.663  1.00  0.00     0.348 HD
ENDBRANCH   7  11
ENDBRANCH   4   6
ENDBRANCH   3   4
ENDBRANCH   2   3
ENDBRANCH   1   2
BRANCH   1  17
ATOM     17  O   UNL A   1      32.286  35.336  30.732  1.00  0.00    -0.458 OA
BRANCH  17  18
ATOM     18  C   UNL A   1      32.621  35.771  31.971  1.00  0.00     0.338 C 
ATOM     19  O   UNL A   1      31.979  36.572  32.634  1.00  0.00    -0.246 OA
BRANCH  18  20
ATOM     20  C   UNL A   1      33.784  35.033  32.544  1.00  0.00     0.060 A 
ATOM     21  C   UNL A   1      35.037  35.646  32.400  1.00  0.00     0.016 A 
ATOM     22  C   UNL A   1      33.702  33.795  33.190  1.00  0.00     0.016 A 
ATOM     23  C   UNL A   1      36.199  35.029  32.864  1.00  0.00     0.010 A 
ATOM     24  C   UNL A   1      34.880  33.153  33.626  1.00  0.00     0.010 A 
ATOM     25  C   UNL A   1      36.139  33.755  33.440  1.00  0.00    -0.014 A 
BRANCH  25  26
ATOM     26  C   UNL A   1      37.415  33.010  33.631  1.00  0.00     0.031 A 
ATOM     27  C   UNL A   1      38.221  33.284  34.871  1.00  0.00     0.074 A 
ATOM     28  C   UNL A   1      37.819  32.035  32.796  1.00  0.00     0.049 A 
ATOM     29  N   UNL A   1      39.302  32.692  35.310  1.00  0.00    -0.248 NA
ATOM     30  C   UNL A   1      37.719  34.353  35.749  1.00  0.00     0.031 C 
ATOM     31  C   UNL A   1      37.099  31.594  31.609  1.00  0.00     0.029 A 
ATOM     32  N   UNL A   1      38.934  31.229  32.828  1.00  0.00    -0.354 N 
ATOM     33  C   UNL A   1      39.589  33.290  36.528  1.00  0.00     0.074 A 
ATOM     34  C   UNL A   1      38.592  34.316  36.743  1.00  0.00     0.031 C 
ATOM     35  C   UNL A   1      37.803  30.624  31.001  1.00  0.00     0.029 A 
ATOM     36  C   UNL A   1      39.028  30.369  31.761  1.00  0.00     0.049 A 
ATOM     37  H   UNL A   1      39.604  31.267  33.550  1.00  0.00     0.167 HD
ATOM     38  C   UNL A   1      40.587  33.005  37.399  1.00  0.00     0.037 A 
ATOM     39  C   UNL A   1      39.992  29.484  31.433  1.00  0.00     0.037 A 
ATOM     40  C   UNL A   1      41.612  32.023  37.180  1.00  0.00     0.049 A 
ATOM     41  C   UNL A   1      41.175  29.290  32.350  1.00  0.00     0.074 A 
ATOM     42  C   UNL A   1      42.675  31.690  38.002  1.00  0.00     0.029 A 
ATOM     43  N   UNL A   1      41.721  31.233  36.046  1.00  0.00    -0.354 N 
ATOM     44  N   UNL A   1      41.415  29.830  33.519  1.00  0.00    -0.248 NA
ATOM     45  C   UNL A   1      42.216  28.348  31.906  1.00  0.00     0.031 C 
ATOM     46  C   UNL A   1      43.459  30.738  37.341  1.00  0.00     0.029 A 
ATOM     47  C   UNL A   1      42.853  30.437  36.132  1.00  0.00     0.049 A 
ATOM     48  H   UNL A   1      41.087  31.236  35.293  1.00  0.00     0.167 HD
ATOM     49  C   UNL A   1      42.606  29.269  33.965  1.00  0.00     0.074 A 
ATOM     50  C   UNL A   1      43.040  28.340  32.944  1.00  0.00     0.031 C 
ATOM     51  C   UNL A   1      43.275  29.502  35.121  1.00  0.00     0.037 A 
BRANCH  38  52
ATOM     52  C   UNL A   1      40.630  33.807  38.664  1.00  0.00     0.064 A 
ATOM     53  C   UNL A   1      39.844  33.466  39.774  1.00  0.00     0.173 A 
ATOM     54  C   UNL A   1      41.477  34.919  38.769  1.00  0.00     0.173 A 
ATOM     55  F   UNL A   1      39.006  32.421  39.714  1.00  0.00    -0.203 F 
ATOM     56  C   UNL A   1      39.889  34.227  40.939  1.00  0.00     0.198 A 
ATOM     57  C   UNL A   1      41.538  35.662  39.944  1.00  0.00     0.198 A 
ATOM     58  F   UNL A   1      42.249  35.283  37.734  1.00  0.00    -0.203 F 
ATOM     59  F   UNL A   1      39.097  33.911  41.975  1.00  0.00    -0.200 F 
ATOM     60  C   UNL A   1      40.738  35.320  41.025  1.00  0.00     0.200 A 
ATOM     61  F   UNL A   1      42.365  36.712  40.030  1.00  0.00    -0.200 F 
ATOM     62  F   UNL A   1      40.781  36.051  42.148  1.00  0.00    -0.200 F 
ENDBRANCH  38  52
BRANCH  39  63
ATOM     63  C   UNL A   1      39.903  28.710  30.164  1.00  0.00     0.064 A 
ATOM     64  C   UNL A   1      39.360  27.418  30.135  1.00  0.00     0.173 A 
ATOM     65  C   UNL A   1      40.420  29.226  28.967  1.00  0.00     0.173 A 
ATOM     66  F   UNL A   1      38.884  26.867  31.262  1.00  0.00    -0.203 F 
ATOM     67  C   UNL A   1      39.359  26.662  28.964  1.00  0.00     0.198 A 
ATOM     68  C   UNL A   1      40.395  28.479  27.790  1.00  0.00     0.198 A 
ATOM     69  F   UNL A   1      40.963  30.451  28.941  1.00  0.00    -0.203 F 
ATOM     70  F   UNL A   1      38.887  25.408  28.979  1.00  0.00    -0.200 F 
ATOM     71  C   UNL A   1      39.874  27.194  27.791  1.00  0.00     0.200 A 
ATOM     72  F   UNL A   1      40.891  28.998  26.659  1.00  0.00    -0.200 F 
ATOM     73  F   UNL A   1      39.882  26.464  26.668  1.00  0.00    -0.200 F 
ENDBRANCH  39  63
BRANCH  51  74
ATOM     74  C   UNL A   1      44.529  28.714  35.377  1.00  0.00     0.064 A 
ATOM     75  C   UNL A   1      45.795  29.198  35.016  1.00  0.00     0.173 A 
ATOM     76  C   UNL A   1      44.467  27.482  36.048  1.00  0.00     0.173 A 
ATOM     77  F   UNL A   1      45.908  30.364  34.361  1.00  0.00    -0.203 F 
ATOM     78  C   UNL A   1      46.948  28.470  35.298  1.00  0.00     0.198 A 
ATOM     79  C   UNL A   1      45.624  26.772  36.355  1.00  0.00     0.198 A 
ATOM     80  F   UNL A   1      43.283  26.975  36.423  1.00  0.00    -0.203 F 
ATOM     81  F   UNL A   1      48.143  28.935  34.907  1.00  0.00    -0.200 F 
ATOM     82  C   UNL A   1      46.864  27.263  35.975  1.00  0.00     0.200 A 
ATOM     83  F   UNL A   1      45.540  25.612  37.022  1.00  0.00    -0.200 F 
ATOM     84  F   UNL A   1      47.976  26.571  36.257  1.00  0.00    -0.200 F 
ENDBRANCH  51  74
ENDBRANCH  25  26
ENDBRANCH  18  20
ENDBRANCH  17  18
ENDBRANCH   1  17
TORSDOF 12
ENDMDL
MODEL 2
REMARK VINA RESULT:     -10.5      2.528      4.266
REMARK SMILES C[C@@H]1CC[N@@H+]1[C@@H]1CCC[C@@H]1C(=O)OCCOC(=O)c1ccc(-c2c3nc(c(-c4c(F)c(F)c(F)c(F)c4F)c4ccc([nH]4)c(-c4c(F)c(F)c(F)c(F)c4F)c4nc(c(-c5c(F)c(F)c(F)c(F)c5F)c5ccc2[nH]5)C=C4)C=C3)cc1
REMARK SMILES IDX 15 1 14 2 13 3 11 4 12 5 10 6 6 7 7 8 8 9 9 10 5 11 1 12
REMARK SMILES IDX 2 13 3 14 4 15 16 17 17 18 18 19 19 20 20 21 81 22 21 23
REMARK SMILES IDX 80 24 22 25 23 26 24 27 74 28 25 29 79 30 73 31 75 32 26 33
REMARK SMILES IDX 78 34 72 35 71 36 27 38 59 39 39 40 58 41 40 42 43 43 57 44
REMARK SMILES IDX 76 45 41 46 42 47 56 49 77 50 44 51 28 52 29 53 37 54 30 55
REMARK SMILES IDX 31 56 35 57 38 58 32 59 33 60 36 61 34 62 60 63 61 64 69 65
REMARK SMILES IDX 62 66 63 67 67 68 70 69 64 70 65 71 68 72 66 73 45 74 46 75
REMARK SMILES IDX 54 76 47 77 48 78 52 79 55 80 49 81 50 82 53 83 51 84
REMARK H PARENT 5 16 75 37 43 48
REMARK Flexibility Score: inf
ROOT
ATOM      1  C   UNL A   1      31.681  32.289  26.964  1.00  0.00     0.275 C 
ENDROOT
BRANCH   1   2
ATOM      2  C   UNL A   1      31.915  30.768  26.769  1.00  0.00     0.274 C 
BRANCH   2   3
ATOM      3  O   UNL A   1      31.659  30.239  25.452  1.00  0.00    -0.462 OA
BRANCH   3   4
ATOM      4  C   UNL A   1      32.726  29.535  24.976  1.00  0.00     0.315 C 
ATOM      5  O   UNL A   1      33.696  29.312  25.687  1.00  0.00    -0.252 OA
BRANCH   4   6
ATOM      6  C   UNL A   1      32.520  28.956  23.590  1.00  0.00     0.157 C 
ATOM      7  C   UNL A   1      31.690  27.634  23.535  1.00  0.00     0.198 C 
ATOM      8  C   UNL A   1      32.689  26.536  23.160  1.00  0.00     0.066 C 
ATOM      9  C   UNL A   1      33.656  27.252  22.229  1.00  0.00     0.007 C 
ATOM     10  C   UNL A   1      33.816  28.650  22.821  1.00  0.00     0.022 C 
BRANCH   7  11
ATOM     11  N   UNL A   1      30.650  27.427  24.545  1.00  0.00    -0.329 N 
ATOM     12  C   UNL A   1      32.196  26.194  26.324  1.00  0.00     0.075 C 
ATOM     13  C   UNL A   1      30.841  26.538  25.729  1.00  0.00     0.186 C 
ATOM     14  C   UNL A   1      30.133  25.413  24.961  1.00  0.00     0.126 C 
ATOM     15  C   UNL A   1      29.570  26.530  24.078  1.00  0.00     0.268 C 
ATOM     16  H   UNL A   1      30.547  28.423  24.743  1.00  0.00     0.348 HD
ENDBRANCH   7  11
ENDBRANCH   4   6
ENDBRANCH   3   4
ENDBRANCH   2   3
ENDBRANCH   1   2
BRANCH   1  17
ATOM     17  O   UNL A   1      32.856  33.117  26.853  1.00  0.00    -0.458 OA
BRANCH  17  18
ATOM     18  C   UNL A   1      33.349  33.542  28.042  1.00  0.00     0.338 C 
ATOM     19  O   UNL A   1      32.741  34.223  28.854  1.00  0.00    -0.246 OA
BRANCH  18  20
ATOM     20  C   UNL A   1      34.676  32.941  28.360  1.00  0.00     0.060 A 
ATOM     21  C   UNL A   1      34.674  31.578  28.694  1.00  0.00     0.016 A 
ATOM     22  C   UNL A   1      35.889  33.637  28.355  1.00  0.00     0.016 A 
ATOM     23  C   UNL A   1      35.853  30.920  29.045  1.00  0.00     0.010 A 
ATOM     24  C   UNL A   1      37.076  32.983  28.747  1.00  0.00     0.010 A 
ATOM     25  C   UNL A   1      37.059  31.626  29.121  1.00  0.00    -0.014 A 
BRANCH  25  26
ATOM     26  C   UNL A   1      38.215  30.971  29.796  1.00  0.00     0.031 A 
ATOM     27  C   UNL A   1      38.495  31.323  31.230  1.00  0.00     0.074 A 
ATOM     28  C   UNL A   1      38.949  30.008  29.208  1.00  0.00     0.049 A 
ATOM     29  N   UNL A   1      39.371  30.812  32.059  1.00  0.00    -0.248 NA
ATOM     30  C   UNL A   1      37.649  32.374  31.819  1.00  0.00     0.031 C 
ATOM     31  C   UNL A   1      38.739  29.497  27.861  1.00  0.00     0.029 A 
ATOM     32  N   UNL A   1      40.017  29.279  29.678  1.00  0.00    -0.354 N 
ATOM     33  C   UNL A   1      39.159  31.453  33.271  1.00  0.00     0.074 A 
ATOM     34  C   UNL A   1      38.098  32.415  33.063  1.00  0.00     0.031 C 
ATOM     35  C   UNL A   1      39.668  28.563  27.592  1.00  0.00     0.029 A 
ATOM     36  C   UNL A   1      40.542  28.406  28.757  1.00  0.00     0.049 A 
ATOM     37  H   UNL A   1      40.373  29.375  30.592  1.00  0.00     0.167 HD
ATOM     38  C   UNL A   1      39.782  31.252  34.456  1.00  0.00     0.037 A 
ATOM     39  C   UNL A   1      41.606  27.580  28.840  1.00  0.00     0.037 A 
ATOM     40  C   UNL A   1      40.869  30.336  34.668  1.00  0.00     0.049 A 
ATOM     41  C   UNL A   1      42.379  27.483  30.133  1.00  0.00     0.074 A 
ATOM     42  C   UNL A   1      41.573  30.091  35.834  1.00  0.00     0.029 A 
ATOM     43  N   UNL A   1      41.427  29.533  33.687  1.00  0.00    -0.354 N 
ATOM     44  N   UNL A   1      42.145  28.062  31.285  1.00  0.00    -0.248 NA
ATOM     45  C   UNL A   1      43.560  26.604  30.139  1.00  0.00     0.031 C 
ATOM     46  C   UNL A   1      42.595  29.180  35.545  1.00  0.00     0.029 A 
ATOM     47  C   UNL A   1      42.491  28.816  34.213  1.00  0.00     0.049 A 
ATOM     48  H   UNL A   1      41.114  29.478  32.755  1.00  0.00     0.167 HD
ATOM     49  C   UNL A   1      43.119  27.590  32.157  1.00  0.00     0.074 A 
ATOM     50  C   UNL A   1      43.946  26.671  31.406  1.00  0.00     0.031 C 
ATOM     51  C   UNL A   1      43.304  27.890  33.466  1.00  0.00     0.037 A 
BRANCH  38  52
ATOM     52  C   UNL A   1      39.316  32.081  35.615  1.00  0.00     0.064 A 
ATOM     53  C   UNL A   1      39.788  33.386  35.818  1.00  0.00     0.173 A 
ATOM     54  C   UNL A   1      38.378  31.568  36.521  1.00  0.00     0.173 A 
ATOM     55  F   UNL A   1      40.699  33.913  34.986  1.00  0.00    -0.203 F 
ATOM     56  C   UNL A   1      39.352  34.140  36.904  1.00  0.00     0.198 A 
ATOM     57  C   UNL A   1      37.926  32.333  37.591  1.00  0.00     0.198 A 
ATOM     58  F   UNL A   1      37.897  30.325  36.367  1.00  0.00    -0.203 F 
ATOM     59  F   UNL A   1      39.848  35.369  37.107  1.00  0.00    -0.200 F 
ATOM     60  C   UNL A   1      38.420  33.616  37.786  1.00  0.00     0.200 A 
ATOM     61  F   UNL A   1      37.018  31.830  38.438  1.00  0.00    -0.200 F 
ATOM     62  F   UNL A   1      38.000  34.343  38.831  1.00  0.00    -0.200 F 
ENDBRANCH  38  52
BRANCH  39  63
ATOM     63  C   UNL A   1      42.029  26.777  27.661  1.00  0.00     0.064 A 
ATOM     64  C   UNL A   1      41.511  25.495  27.428  1.00  0.00     0.173 A 
ATOM     65  C   UNL A   1      43.011  27.252  26.779  1.00  0.00     0.173 A 
ATOM     66  F   UNL A   1      40.595  24.982  28.262  1.00  0.00    -0.203 F 
ATOM     67  C   UNL A   1      41.975  24.710  26.373  1.00  0.00     0.198 A 
ATOM     68  C   UNL A   1      43.456  26.476  25.710  1.00  0.00     0.198 A 
ATOM     69  F   UNL A   1      43.550  28.465  26.964  1.00  0.00    -0.203 F 
ATOM     70  F   UNL A   1      41.504  23.467  26.209  1.00  0.00    -0.200 F 
ATOM     71  C   UNL A   1      42.945  25.203  25.513  1.00  0.00     0.200 A 
ATOM     72  F   UNL A   1      44.391  26.957  24.880  1.00  0.00    -0.200 F 
ATOM     73  F   UNL A   1      43.398  24.445  24.506  1.00  0.00    -0.200 F 
ENDBRANCH  39  63
BRANCH  51  74
ATOM     74  C   UNL A   1      44.418  27.192  34.195  1.00  0.00     0.064 A 
ATOM     75  C   UNL A   1      45.703  27.747  34.289  1.00  0.00     0.173 A 
ATOM     76  C   UNL A   1      44.179  25.979  34.860  1.00  0.00     0.173 A 
ATOM     77  F   UNL A   1      45.988  28.898  33.661  1.00  0.00    -0.203 F 
ATOM     78  C   UNL A   1      46.711  27.103  35.003  1.00  0.00     0.198 A 
ATOM     79  C   UNL A   1      45.181  25.354  35.597  1.00  0.00     0.198 A 
ATOM     80  F   UNL A   1      42.967  25.407  34.810  1.00  0.00    -0.203 F 
ATOM     81  F   UNL A   1      47.942  27.633  35.045  1.00  0.00    -0.200 F 
ATOM     82  C   UNL A   1      46.448  25.913  35.664  1.00  0.00     0.200 A 
ATOM     83  F   UNL A   1      44.919  24.211  36.247  1.00  0.00    -0.200 F 
ATOM     84  F   UNL A   1      47.416  25.302  36.361  1.00  0.00    -0.200 F 
ENDBRANCH  51  74
ENDBRANCH  25  26
ENDBRANCH  18  20
ENDBRANCH  17  18
ENDBRANCH   1  17
TORSDOF 12
ENDMDL
MODEL 3
REMARK VINA RESULT:     -10.5      3.341      6.188
REMARK SMILES C[C@@H]1CC[N@@H+]1[C@@H]1CCC[C@@H]1C(=O)OCCOC(=O)c1ccc(-c2c3nc(c(-c4c(F)c(F)c(F)c(F)c4F)c4ccc([nH]4)c(-c4c(F)c(F)c(F)c(F)c4F)c4nc(c(-c5c(F)c(F)c(F)c(F)c5F)c5ccc2[nH]5)C=C4)C=C3)cc1
REMARK SMILES IDX 15 1 14 2 13 3 11 4 12 5 10 6 6 7 7 8 8 9 9 10 5 11 1 12
REMARK SMILES IDX 2 13 3 14 4 15 16 17 17 18 18 19 19 20 20 21 81 22 21 23
REMARK SMILES IDX 80 24 22 25 23 26 24 27 74 28 25 29 79 30 73 31 75 32 26 33
REMARK SMILES IDX 78 34 72 35 71 36 27 38 59 39 39 40 58 41 40 42 43 43 57 44
REMARK SMILES IDX 76 45 41 46 42 47 56 49 77 50 44 51 28 52 29 53 37 54 30 55
REMARK SMILES IDX 31 56 35 57 38 58 32 59 33 60 36 61 34 62 60 63 61 64 69 65
REMARK SMILES IDX 62 66 63 67 67 68 70 69 64 70 65 71 68 72 66 73 45 74 46 75
REMARK SMILES IDX 54 76 47 77 48 78 52 79 55 80 49 81 50 82 53 83 51 84
REMARK H PARENT 5 16 75 37 43 48
REMARK Flexibility Score: inf
ROOT
ATOM      1  C   UNL A   1      33.538  33.400  27.914  1.00  0.00     0.275 C 
ENDROOT
BRANCH   1   2
ATOM      2  C   UNL A   1      33.592  34.319  29.163  1.00  0.00     0.274 C 
BRANCH   2   3
ATOM      3  O   UNL A   1      34.897  34.564  29.727  1.00  0.00    -0.462 OA
BRANCH   3   4
ATOM      4  C   UNL A   1      35.248  33.598  30.623  1.00  0.00     0.315 C 
ATOM      5  O   UNL A   1      34.407  33.070  31.336  1.00  0.00    -0.252 OA
BRANCH   4   6
ATOM      6  C   UNL A   1      36.699  33.166  30.532  1.00  0.00     0.157 C 
ATOM      7  C   UNL A   1      37.558  33.441  31.808  1.00  0.00     0.198 C 
ATOM      8  C   UNL A   1      38.524  34.564  31.419  1.00  0.00     0.066 C 
ATOM      9  C   UNL A   1      38.814  34.278  29.954  1.00  0.00     0.007 C 
ATOM     10  C   UNL A   1      37.487  33.796  29.372  1.00  0.00     0.022 C 
BRANCH   7  11
ATOM     11  N   UNL A   1      36.893  33.404  33.112  1.00  0.00    -0.329 N 
ATOM     12  C   UNL A   1      38.787  34.703  34.454  1.00  0.00     0.075 C 
ATOM     13  C   UNL A   1      37.586  33.775  34.381  1.00  0.00     0.186 C 
ATOM     14  C   UNL A   1      37.864  32.286  34.630  1.00  0.00     0.126 C 
ATOM     15  C   UNL A   1      36.732  32.029  33.633  1.00  0.00     0.268 C 
ATOM     16  H   UNL A   1      36.133  34.018  32.819  1.00  0.00     0.348 HD
ENDBRANCH   7  11
ENDBRANCH   4   6
ENDBRANCH   3   4
ENDBRANCH   2   3
ENDBRANCH   1   2
BRANCH   1  17
ATOM     17  O   UNL A   1      34.705  32.583  27.693  1.00  0.00    -0.458 OA
BRANCH  17  18
ATOM     18  C   UNL A   1      34.508  31.261  27.920  1.00  0.00     0.338 C 
ATOM     19  O   UNL A   1      33.432  30.686  27.844  1.00  0.00    -0.246 OA
BRANCH  18  20
ATOM     20  C   UNL A   1      35.785  30.513  28.103  1.00  0.00     0.060 A 
ATOM     21  C   UNL A   1      35.872  29.709  29.249  1.00  0.00     0.016 A 
ATOM     22  C   UNL A   1      36.876  30.571  27.229  1.00  0.00     0.016 A 
ATOM     23  C   UNL A   1      37.033  28.994  29.542  1.00  0.00     0.010 A 
ATOM     24  C   UNL A   1      38.064  29.879  27.543  1.00  0.00     0.010 A 
ATOM     25  C   UNL A   1      38.158  29.108  28.717  1.00  0.00    -0.014 A 
BRANCH  25  26
ATOM     26  C   UNL A   1      39.458  28.588  29.227  1.00  0.00     0.031 A 
ATOM     27  C   UNL A   1      40.124  29.322  30.358  1.00  0.00     0.074 A 
ATOM     28  C   UNL A   1      40.003  27.439  28.789  1.00  0.00     0.049 A 
ATOM     29  N   UNL A   1      41.197  29.008  31.039  1.00  0.00    -0.248 NA
ATOM     30  C   UNL A   1      39.471  30.565  30.800  1.00  0.00     0.031 C 
ATOM     31  C   UNL A   1      39.429  26.573  27.768  1.00  0.00     0.029 A 
ATOM     32  N   UNL A   1      41.162  26.795  29.157  1.00  0.00    -0.354 N 
ATOM     33  C   UNL A   1      41.327  29.991  32.008  1.00  0.00     0.074 A 
ATOM     34  C   UNL A   1      40.247  30.933  31.807  1.00  0.00     0.031 C 
ATOM     35  C   UNL A   1      40.251  25.529  27.560  1.00  0.00     0.029 A 
ATOM     36  C   UNL A   1      41.414  25.650  28.441  1.00  0.00     0.049 A 
ATOM     37  H   UNL A   1      41.757  27.127  29.869  1.00  0.00     0.167 HD
ATOM     38  C   UNL A   1      42.256  30.098  32.988  1.00  0.00     0.037 A 
ATOM     39  C   UNL A   1      42.463  24.802  28.488  1.00  0.00     0.037 A 
ATOM     40  C   UNL A   1      43.362  29.199  33.173  1.00  0.00     0.049 A 
ATOM     41  C   UNL A   1      43.564  25.026  29.495  1.00  0.00     0.074 A 
ATOM     42  C   UNL A   1      44.363  29.251  34.128  1.00  0.00     0.029 A 
ATOM     43  N   UNL A   1      43.629  28.100  32.373  1.00  0.00    -0.354 N 
ATOM     44  N   UNL A   1      43.657  25.935  30.434  1.00  0.00    -0.248 NA
ATOM     45  C   UNL A   1      44.704  24.095  29.455  1.00  0.00     0.031 C 
ATOM     46  C   UNL A   1      45.268  28.215  33.870  1.00  0.00     0.029 A 
ATOM     47  C   UNL A   1      44.800  27.485  32.790  1.00  0.00     0.049 A 
ATOM     48  H   UNL A   1      43.070  27.800  31.620  1.00  0.00     0.167 HD
ATOM     49  C   UNL A   1      44.836  25.663  31.117  1.00  0.00     0.074 A 
ATOM     50  C   UNL A   1      45.426  24.500  30.490  1.00  0.00     0.031 C 
ATOM     51  C   UNL A   1      45.376  26.318  32.174  1.00  0.00     0.037 A 
BRANCH  38  52
ATOM     52  C   UNL A   1      42.126  31.265  33.919  1.00  0.00     0.064 A 
ATOM     53  C   UNL A   1      42.743  32.494  33.642  1.00  0.00     0.173 A 
ATOM     54  C   UNL A   1      41.367  31.156  35.092  1.00  0.00     0.173 A 
ATOM     55  F   UNL A   1      43.494  32.640  32.540  1.00  0.00    -0.203 F 
ATOM     56  C   UNL A   1      42.622  33.566  34.522  1.00  0.00     0.198 A 
ATOM     57  C   UNL A   1      41.226  32.238  35.956  1.00  0.00     0.198 A 
ATOM     58  F   UNL A   1      40.757  30.001  35.399  1.00  0.00    -0.203 F 
ATOM     59  F   UNL A   1      43.255  34.719  34.262  1.00  0.00    -0.200 F 
ATOM     60  C   UNL A   1      41.860  33.439  35.673  1.00  0.00     0.200 A 
ATOM     61  F   UNL A   1      40.483  32.117  37.064  1.00  0.00    -0.200 F 
ATOM     62  F   UNL A   1      41.743  34.473  36.519  1.00  0.00    -0.200 F 
ENDBRANCH  38  52
BRANCH  39  63
ATOM     63  C   UNL A   1      42.545  23.656  27.541  1.00  0.00     0.064 A 
ATOM     64  C   UNL A   1      42.113  22.374  27.910  1.00  0.00     0.173 A 
ATOM     65  C   UNL A   1      43.118  23.809  26.270  1.00  0.00     0.173 A 
ATOM     66  F   UNL A   1      41.590  22.168  29.128  1.00  0.00    -0.203 F 
ATOM     67  C   UNL A   1      42.274  21.285  27.054  1.00  0.00     0.198 A 
ATOM     68  C   UNL A   1      43.255  22.724  25.405  1.00  0.00     0.198 A 
ATOM     69  F   UNL A   1      43.559  25.011  25.873  1.00  0.00    -0.203 F 
ATOM     70  F   UNL A   1      41.906  20.061  27.455  1.00  0.00    -0.200 F 
ATOM     71  C   UNL A   1      42.842  21.462  25.801  1.00  0.00     0.200 A 
ATOM     72  F   UNL A   1      43.801  22.901  24.195  1.00  0.00    -0.200 F 
ATOM     73  F   UNL A   1      43.005  20.414  24.983  1.00  0.00    -0.200 F 
ENDBRANCH  39  63
BRANCH  51  74
ATOM     74  C   UNL A   1      46.652  25.777  32.758  1.00  0.00     0.064 A 
ATOM     75  C   UNL A   1      46.649  24.804  33.769  1.00  0.00     0.173 A 
ATOM     76  C   UNL A   1      47.894  26.195  32.256  1.00  0.00     0.173 A 
ATOM     77  F   UNL A   1      45.488  24.380  34.293  1.00  0.00    -0.203 F 
ATOM     78  C   UNL A   1      47.842  24.287  34.269  1.00  0.00     0.198 A 
ATOM     79  C   UNL A   1      49.083  25.654  32.737  1.00  0.00     0.198 A 
ATOM     80  F   UNL A   1      47.955  27.118  31.284  1.00  0.00    -0.203 F 
ATOM     81  F   UNL A   1      47.814  23.388  35.263  1.00  0.00    -0.200 F 
ATOM     82  C   UNL A   1      49.056  24.704  33.747  1.00  0.00     0.200 A 
ATOM     83  F   UNL A   1      50.255  26.049  32.222  1.00  0.00    -0.200 F 
ATOM     84  F   UNL A   1      50.202  24.196  34.222  1.00  0.00    -0.200 F 
ENDBRANCH  51  74
ENDBRANCH  25  26
ENDBRANCH  18  20
ENDBRANCH  17  18
ENDBRANCH   1  17
TORSDOF 12
ENDMDL
