MODEL 1
REMARK VINA RESULT:     -11.4      0.000      0.000
REMARK SMILES CCOc1cccc(OCC)c1-c1ccc([C@@H](C)C(=O)OCCOC(=O)c2ccc(-c3c4nc(c(-c5c(F)c(F)c(F)c(F)c5F)c5ccc([nH]5)c(-c5c(F)c(F)c(F)c(F)c5F)c5nc(c(-c6c(F)c(F)c(F)c(F)c6F)c6ccc3[nH]6)C=C5)C=C4)cc2)cc1F
REMARK SMILES IDX 22 1 21 2 19 3 20 4 17 5 18 6 16 7 13 8 14 9 91 10 15 11
REMARK SMILES IDX 90 12 92 13 12 14 4 15 5 16 6 17 8 18 7 19 3 20 2 21 1 22
REMARK SMILES IDX 9 23 10 24 11 25 23 26 24 27 25 28 26 29 27 30 28 31 89 32
REMARK SMILES IDX 29 33 88 34 30 35 31 36 32 37 82 38 33 39 87 40 81 41 83 42
REMARK SMILES IDX 34 43 86 44 80 45 79 46 35 48 67 49 47 50 66 51 48 52 51 53
REMARK SMILES IDX 65 54 84 55 49 56 50 57 64 59 85 60 52 61 36 62 37 63 45 64
REMARK SMILES IDX 38 65 39 66 43 67 46 68 40 69 41 70 44 71 42 72 68 73 69 74
REMARK SMILES IDX 77 75 70 76 71 77 75 78 78 79 72 80 73 81 76 82 74 83 53 84
REMARK SMILES IDX 54 85 62 86 55 87 56 88 60 89 63 90 57 91 58 92 61 93 59 94
REMARK H PARENT 83 47 51 58
REMARK Flexibility Score: inf
ROOT
ATOM      1  C   UNL A   1      31.628  28.634  26.071  1.00  0.00     0.274 C 
ENDROOT
BRANCH   1   2
ATOM      2  O   UNL A   1      30.952  28.382  24.821  1.00  0.00    -0.462 OA
BRANCH   2   3
ATOM      3  C   UNL A   1      31.666  27.783  23.834  1.00  0.00     0.313 C 
ATOM      4  O   UNL A   1      31.178  27.402  22.773  1.00  0.00    -0.252 OA
BRANCH   3   5
ATOM      5  C   UNL A   1      33.145  27.570  24.163  1.00  0.00     0.126 C 
ATOM      6  C   UNL A   1      34.019  28.403  23.231  1.00  0.00     0.025 C 
BRANCH   5   7
ATOM      7  C   UNL A   1      33.647  26.137  24.277  1.00  0.00    -0.031 A 
ATOM      8  C   UNL A   1      34.507  23.419  24.423  1.00  0.00     0.025 A 
ATOM      9  C   UNL A   1      34.389  24.212  25.574  1.00  0.00     0.012 A 
ATOM     10  C   UNL A   1      34.233  24.029  23.194  1.00  0.00     0.131 A 
ATOM     11  C   UNL A   1      33.922  25.529  25.508  1.00  0.00     0.005 A 
ATOM     12  C   UNL A   1      33.816  25.362  23.116  1.00  0.00     0.044 A 
ATOM     13  F   UNL A   1      34.338  23.331  22.052  1.00  0.00    -0.206 F 
BRANCH   8  14
ATOM     14  C   UNL A   1      34.933  22.011  24.533  1.00  0.00     0.069 A 
ATOM     15  C   UNL A   1      36.310  21.750  24.774  1.00  0.00     0.130 A 
ATOM     16  C   UNL A   1      36.806  20.461  24.993  1.00  0.00     0.047 A 
ATOM     17  C   UNL A   1      35.934  19.387  24.996  1.00  0.00     0.008 A 
ATOM     18  C   UNL A   1      34.064  20.897  24.494  1.00  0.00     0.130 A 
ATOM     19  C   UNL A   1      34.584  19.608  24.738  1.00  0.00     0.047 A 
BRANCH  15  20
ATOM     20  O   UNL A   1      37.208  22.787  24.702  1.00  0.00    -0.493 OA
BRANCH  20  21
ATOM     21  C   UNL A   1      38.170  22.770  25.759  1.00  0.00     0.226 C 
ATOM     22  C   UNL A   1      38.063  24.089  26.494  1.00  0.00     0.049 C 
ENDBRANCH  20  21
ENDBRANCH  15  20
BRANCH  18  23
ATOM     23  O   UNL A   1      32.721  20.803  24.248  1.00  0.00    -0.493 OA
BRANCH  23  24
ATOM     24  C   UNL A   1      32.155  20.245  23.073  1.00  0.00     0.226 C 
ATOM     25  C   UNL A   1      31.899  21.355  22.068  1.00  0.00     0.049 C 
ENDBRANCH  23  24
ENDBRANCH  18  23
ENDBRANCH   8  14
ENDBRANCH   5   7
ENDBRANCH   3   5
ENDBRANCH   2   3
ENDBRANCH   1   2
BRANCH   1  26
ATOM     26  C   UNL A   1      31.753  30.135  26.367  1.00  0.00     0.275 C 
BRANCH  26  27
ATOM     27  O   UNL A   1      33.100  30.616  26.183  1.00  0.00    -0.458 OA
BRANCH  27  28
ATOM     28  C   UNL A   1      33.450  31.605  27.030  1.00  0.00     0.338 C 
ATOM     29  O   UNL A   1      32.794  32.604  27.291  1.00  0.00    -0.246 OA
BRANCH  28  30
ATOM     30  C   UNL A   1      34.676  31.283  27.761  1.00  0.00     0.060 A 
ATOM     31  C   UNL A   1      34.784  29.995  28.294  1.00  0.00     0.016 A 
ATOM     32  C   UNL A   1      35.664  32.238  28.001  1.00  0.00     0.016 A 
ATOM     33  C   UNL A   1      35.891  29.642  29.052  1.00  0.00     0.010 A 
ATOM     34  C   UNL A   1      36.781  31.883  28.763  1.00  0.00     0.010 A 
ATOM     35  C   UNL A   1      36.901  30.582  29.285  1.00  0.00    -0.014 A 
BRANCH  35  36
ATOM     36  C   UNL A   1      38.096  30.176  30.053  1.00  0.00     0.031 A 
ATOM     37  C   UNL A   1      39.093  29.230  29.462  1.00  0.00     0.074 A 
ATOM     38  C   UNL A   1      38.284  30.698  31.279  1.00  0.00     0.049 A 
ATOM     39  N   UNL A   1      40.158  28.706  30.011  1.00  0.00    -0.248 NA
ATOM     40  C   UNL A   1      38.865  28.819  28.069  1.00  0.00     0.031 C 
ATOM     41  C   UNL A   1      37.398  31.669  31.923  1.00  0.00     0.029 A 
ATOM     42  N   UNL A   1      39.279  30.489  32.198  1.00  0.00    -0.354 N 
ATOM     43  C   UNL A   1      40.723  27.894  29.037  1.00  0.00     0.074 A 
ATOM     44  C   UNL A   1      39.874  27.983  27.867  1.00  0.00     0.031 C 
ATOM     45  C   UNL A   1      37.888  31.970  33.134  1.00  0.00     0.029 A 
ATOM     46  C   UNL A   1      39.090  31.177  33.370  1.00  0.00     0.049 A 
ATOM     47  H   UNL A   1      40.052  29.901  32.034  1.00  0.00     0.167 HD
ATOM     48  C   UNL A   1      41.849  27.145  29.121  1.00  0.00     0.037 A 
ATOM     49  C   UNL A   1      39.792  31.143  34.518  1.00  0.00     0.037 A 
ATOM     50  C   UNL A   1      42.686  27.072  30.291  1.00  0.00     0.049 A 
ATOM     51  C   UNL A   1      40.999  30.252  34.606  1.00  0.00     0.074 A 
ATOM     52  C   UNL A   1      43.850  26.347  30.478  1.00  0.00     0.029 A 
ATOM     53  N   UNL A   1      42.443  27.752  31.477  1.00  0.00    -0.354 N 
ATOM     54  N   UNL A   1      41.518  29.475  33.687  1.00  0.00    -0.248 NA
ATOM     55  C   UNL A   1      41.711  30.228  35.889  1.00  0.00     0.031 C 
ATOM     56  C   UNL A   1      44.288  26.555  31.792  1.00  0.00     0.029 A 
ATOM     57  C   UNL A   1      43.422  27.444  32.409  1.00  0.00     0.049 A 
ATOM     58  H   UNL A   1      41.687  28.362  31.634  1.00  0.00     0.167 HD
ATOM     59  C   UNL A   1      42.622  28.874  34.276  1.00  0.00     0.074 A 
ATOM     60  C   UNL A   1      42.709  29.396  35.626  1.00  0.00     0.031 C 
ATOM     61  C   UNL A   1      43.483  27.970  33.749  1.00  0.00     0.037 A 
BRANCH  48  62
ATOM     62  C   UNL A   1      42.222  26.319  27.925  1.00  0.00     0.064 A 
ATOM     63  C   UNL A   1      43.168  26.761  26.990  1.00  0.00     0.173 A 
ATOM     64  C   UNL A   1      41.646  25.055  27.733  1.00  0.00     0.173 A 
ATOM     65  F   UNL A   1      43.738  27.968  27.122  1.00  0.00    -0.203 F 
ATOM     66  C   UNL A   1      43.508  25.974  25.891  1.00  0.00     0.198 A 
ATOM     67  C   UNL A   1      42.006  24.261  26.647  1.00  0.00     0.198 A 
ATOM     68  F   UNL A   1      40.739  24.585  28.602  1.00  0.00    -0.203 F 
ATOM     69  F   UNL A   1      44.387  26.431  24.988  1.00  0.00    -0.200 F 
ATOM     70  C   UNL A   1      42.932  24.723  25.724  1.00  0.00     0.200 A 
ATOM     71  F   UNL A   1      41.456  23.049  26.493  1.00  0.00    -0.200 F 
ATOM     72  F   UNL A   1      43.264  23.966  24.670  1.00  0.00    -0.200 F 
ENDBRANCH  48  62
BRANCH  49  73
ATOM     73  C   UNL A   1      39.343  31.954  35.677  1.00  0.00     0.064 A 
ATOM     74  C   UNL A   1      38.407  31.456  36.592  1.00  0.00     0.173 A 
ATOM     75  C   UNL A   1      39.856  33.241  35.903  1.00  0.00     0.173 A 
ATOM     76  F   UNL A   1      37.871  30.240  36.405  1.00  0.00    -0.203 F 
ATOM     77  C   UNL A   1      37.995  32.216  37.684  1.00  0.00     0.198 A 
ATOM     78  C   UNL A   1      39.464  33.989  37.010  1.00  0.00     0.198 A 
ATOM     79  F   UNL A   1      40.754  33.764  35.056  1.00  0.00    -0.203 F 
ATOM     80  F   UNL A   1      37.072  31.730  38.525  1.00  0.00    -0.200 F 
ATOM     81  C   UNL A   1      38.529  33.478  37.897  1.00  0.00     0.200 A 
ATOM     82  F   UNL A   1      39.993  35.203  37.218  1.00  0.00    -0.200 F 
ATOM     83  F   UNL A   1      38.139  34.204  38.953  1.00  0.00    -0.200 F 
ENDBRANCH  49  73
BRANCH  61  84
ATOM     84  C   UNL A   1      44.596  27.498  34.635  1.00  0.00     0.064 A 
ATOM     85  C   UNL A   1      45.836  28.150  34.661  1.00  0.00     0.173 A 
ATOM     86  C   UNL A   1      44.410  26.398  35.487  1.00  0.00     0.173 A 
ATOM     87  F   UNL A   1      46.066  29.194  33.851  1.00  0.00    -0.203 F 
ATOM     88  C   UNL A   1      46.859  27.708  35.495  1.00  0.00     0.198 A 
ATOM     89  C   UNL A   1      45.426  25.975  36.338  1.00  0.00     0.198 A 
ATOM     90  F   UNL A   1      43.240  25.743  35.500  1.00  0.00    -0.203 F 
ATOM     91  F   UNL A   1      48.051  28.320  35.474  1.00  0.00    -0.200 F 
ATOM     92  C   UNL A   1      46.652  26.625  36.337  1.00  0.00     0.200 A 
ATOM     93  F   UNL A   1      45.221  24.935  37.158  1.00  0.00    -0.200 F 
ATOM     94  F   UNL A   1      47.636  26.203  37.143  1.00  0.00    -0.200 F 
ENDBRANCH  61  84
ENDBRANCH  35  36
ENDBRANCH  28  30
ENDBRANCH  27  28
ENDBRANCH  26  27
ENDBRANCH   1  26
TORSDOF 17
ENDMDL
MODEL 2
REMARK VINA RESULT:     -11.3      0.675      2.302
REMARK SMILES CCOc1cccc(OCC)c1-c1ccc([C@@H](C)C(=O)OCCOC(=O)c2ccc(-c3c4nc(c(-c5c(F)c(F)c(F)c(F)c5F)c5ccc([nH]5)c(-c5c(F)c(F)c(F)c(F)c5F)c5nc(c(-c6c(F)c(F)c(F)c(F)c6F)c6ccc3[nH]6)C=C5)C=C4)cc2)cc1F
REMARK SMILES IDX 22 1 21 2 19 3 20 4 17 5 18 6 16 7 13 8 14 9 91 10 15 11
REMARK SMILES IDX 90 12 92 13 12 14 4 15 5 16 6 17 8 18 7 19 3 20 2 21 1 22
REMARK SMILES IDX 9 23 10 24 11 25 23 26 24 27 25 28 26 29 27 30 28 31 89 32
REMARK SMILES IDX 29 33 88 34 30 35 31 36 32 37 82 38 33 39 87 40 81 41 83 42
REMARK SMILES IDX 34 43 86 44 80 45 79 46 35 48 67 49 47 50 66 51 48 52 51 53
REMARK SMILES IDX 65 54 84 55 49 56 50 57 64 59 85 60 52 61 36 62 37 63 45 64
REMARK SMILES IDX 38 65 39 66 43 67 46 68 40 69 41 70 44 71 42 72 68 73 69 74
REMARK SMILES IDX 77 75 70 76 71 77 75 78 78 79 72 80 73 81 76 82 74 83 53 84
REMARK SMILES IDX 54 85 62 86 55 87 56 88 60 89 63 90 57 91 58 92 61 93 59 94
REMARK H PARENT 83 47 51 58
REMARK Flexibility Score: inf
ROOT
ATOM      1  C   UNL A   1      31.431  28.557  25.525  1.00  0.00     0.274 C 
ENDROOT
BRANCH   1   2
ATOM      2  O   UNL A   1      30.736  28.349  24.277  1.00  0.00    -0.462 OA
BRANCH   2   3
ATOM      3  C   UNL A   1      31.443  27.811  23.251  1.00  0.00     0.313 C 
ATOM      4  O   UNL A   1      30.937  27.439  22.195  1.00  0.00    -0.252 OA
BRANCH   3   5
ATOM      5  C   UNL A   1      32.939  27.652  23.526  1.00  0.00     0.126 C 
ATOM      6  C   UNL A   1      33.753  28.360  22.449  1.00  0.00     0.025 C 
BRANCH   5   7
ATOM      7  C   UNL A   1      33.466  26.249  23.802  1.00  0.00    -0.031 A 
ATOM      8  C   UNL A   1      34.525  23.665  24.389  1.00  0.00     0.025 A 
ATOM      9  C   UNL A   1      34.291  24.078  23.069  1.00  0.00     0.012 A 
ATOM     10  C   UNL A   1      34.171  24.555  25.411  1.00  0.00     0.131 A 
ATOM     11  C   UNL A   1      33.817  25.361  22.778  1.00  0.00     0.005 A 
ATOM     12  C   UNL A   1      33.647  25.821  25.129  1.00  0.00     0.044 A 
ATOM     13  F   UNL A   1      34.357  24.219  26.697  1.00  0.00    -0.206 F 
BRANCH   8  14
ATOM     14  C   UNL A   1      35.093  22.332  24.660  1.00  0.00     0.069 A 
ATOM     15  C   UNL A   1      34.222  21.210  24.589  1.00  0.00     0.130 A 
ATOM     16  C   UNL A   1      34.673  19.894  24.729  1.00  0.00     0.047 A 
ATOM     17  C   UNL A   1      36.021  19.654  24.930  1.00  0.00     0.008 A 
ATOM     18  C   UNL A   1      36.460  22.070  24.912  1.00  0.00     0.130 A 
ATOM     19  C   UNL A   1      36.894  20.732  25.030  1.00  0.00     0.047 A 
BRANCH  15  20
ATOM     20  O   UNL A   1      32.870  21.423  24.465  1.00  0.00    -0.493 OA
BRANCH  20  21
ATOM     21  C   UNL A   1      32.235  20.497  23.580  1.00  0.00     0.226 C 
ATOM     22  C   UNL A   1      32.039  21.198  22.253  1.00  0.00     0.049 C 
ENDBRANCH  20  21
ENDBRANCH  15  20
BRANCH  18  23
ATOM     23  O   UNL A   1      37.527  22.909  25.079  1.00  0.00    -0.493 OA
BRANCH  23  24
ATOM     24  C   UNL A   1      38.525  22.754  26.074  1.00  0.00     0.226 C 
ATOM     25  C   UNL A   1      38.781  24.097  26.736  1.00  0.00     0.049 C 
ENDBRANCH  23  24
ENDBRANCH  18  23
ENDBRANCH   8  14
ENDBRANCH   5   7
ENDBRANCH   3   5
ENDBRANCH   2   3
ENDBRANCH   1   2
BRANCH   1  26
ATOM     26  C   UNL A   1      31.835  30.024  25.723  1.00  0.00     0.275 C 
BRANCH  26  27
ATOM     27  O   UNL A   1      33.230  30.165  26.060  1.00  0.00    -0.458 OA
BRANCH  27  28
ATOM     28  C   UNL A   1      33.487  31.168  26.924  1.00  0.00     0.338 C 
ATOM     29  O   UNL A   1      32.744  32.102  27.196  1.00  0.00    -0.246 OA
BRANCH  28  30
ATOM     30  C   UNL A   1      34.734  30.945  27.656  1.00  0.00     0.060 A 
ATOM     31  C   UNL A   1      34.947  29.668  28.184  1.00  0.00     0.016 A 
ATOM     32  C   UNL A   1      35.639  31.977  27.902  1.00  0.00     0.016 A 
ATOM     33  C   UNL A   1      36.077  29.405  28.943  1.00  0.00     0.010 A 
ATOM     34  C   UNL A   1      36.781  31.712  28.665  1.00  0.00     0.010 A 
ATOM     35  C   UNL A   1      37.006  30.424  29.181  1.00  0.00    -0.014 A 
BRANCH  35  36
ATOM     36  C   UNL A   1      38.230  30.114  29.951  1.00  0.00     0.031 A 
ATOM     37  C   UNL A   1      39.285  29.226  29.372  1.00  0.00     0.074 A 
ATOM     38  C   UNL A   1      38.387  30.671  31.165  1.00  0.00     0.049 A 
ATOM     39  N   UNL A   1      40.387  28.786  29.925  1.00  0.00    -0.248 NA
ATOM     40  C   UNL A   1      39.080  28.774  27.988  1.00  0.00     0.031 C 
ATOM     41  C   UNL A   1      37.441  31.592  31.796  1.00  0.00     0.029 A 
ATOM     42  N   UNL A   1      39.397  30.547  32.083  1.00  0.00    -0.354 N 
ATOM     43  C   UNL A   1      41.001  27.995  28.963  1.00  0.00     0.074 A 
ATOM     44  C   UNL A   1      40.142  28.005  27.796  1.00  0.00     0.031 C 
ATOM     45  C   UNL A   1      37.914  31.949  32.999  1.00  0.00     0.029 A 
ATOM     46  C   UNL A   1      39.168  31.243  33.243  1.00  0.00     0.049 A 
ATOM     47  H   UNL A   1      40.208  30.009  31.925  1.00  0.00     0.167 HD
ATOM     48  C   UNL A   1      42.175  27.326  29.055  1.00  0.00     0.037 A 
ATOM     49  C   UNL A   1      39.875  31.278  34.387  1.00  0.00     0.037 A 
ATOM     50  C   UNL A   1      43.020  27.332  30.221  1.00  0.00     0.049 A 
ATOM     51  C   UNL A   1      41.140  30.473  34.485  1.00  0.00     0.074 A 
ATOM     52  C   UNL A   1      44.231  26.691  30.415  1.00  0.00     0.029 A 
ATOM     53  N   UNL A   1      42.736  28.016  31.396  1.00  0.00    -0.354 N 
ATOM     54  N   UNL A   1      41.707  29.715  33.579  1.00  0.00    -0.248 NA
ATOM     55  C   UNL A   1      41.858  30.521  35.765  1.00  0.00     0.031 C 
ATOM     56  C   UNL A   1      44.660  26.954  31.723  1.00  0.00     0.029 A 
ATOM     57  C   UNL A   1      43.738  27.793  32.328  1.00  0.00     0.049 A 
ATOM     58  H   UNL A   1      41.942  28.577  31.545  1.00  0.00     0.167 HD
ATOM     59  C   UNL A   1      42.851  29.201  34.172  1.00  0.00     0.074 A 
ATOM     60  C   UNL A   1      42.909  29.754  35.511  1.00  0.00     0.031 C 
ATOM     61  C   UNL A   1      43.769  28.348  33.658  1.00  0.00     0.037 A 
BRANCH  48  62
ATOM     62  C   UNL A   1      42.597  26.505  27.873  1.00  0.00     0.064 A 
ATOM     63  C   UNL A   1      42.133  25.196  27.681  1.00  0.00     0.173 A 
ATOM     64  C   UNL A   1      43.453  27.048  26.904  1.00  0.00     0.173 A 
ATOM     65  F   UNL A   1      41.323  24.626  28.585  1.00  0.00    -0.203 F 
ATOM     66  C   UNL A   1      42.529  24.453  26.570  1.00  0.00     0.198 A 
ATOM     67  C   UNL A   1      43.827  26.312  25.783  1.00  0.00     0.198 A 
ATOM     68  F   UNL A   1      43.922  28.298  27.040  1.00  0.00    -0.203 F 
ATOM     69  F   UNL A   1      42.104  23.190  26.424  1.00  0.00    -0.200 F 
ATOM     70  C   UNL A   1      43.370  25.014  25.620  1.00  0.00     0.200 A 
ATOM     71  F   UNL A   1      44.632  26.859  24.861  1.00  0.00    -0.200 F 
ATOM     72  F   UNL A   1      43.745  24.300  24.550  1.00  0.00    -0.200 F 
ENDBRANCH  48  62
BRANCH  49  73
ATOM     73  C   UNL A   1      39.377  32.080  35.533  1.00  0.00     0.064 A 
ATOM     74  C   UNL A   1      38.481  31.536  36.462  1.00  0.00     0.173 A 
ATOM     75  C   UNL A   1      39.804  33.402  35.732  1.00  0.00     0.173 A 
ATOM     76  F   UNL A   1      38.027  30.285  36.301  1.00  0.00    -0.203 F 
ATOM     77  C   UNL A   1      38.023  32.288  37.542  1.00  0.00     0.198 A 
ATOM     78  C   UNL A   1      39.367  34.142  36.827  1.00  0.00     0.198 A 
ATOM     79  F   UNL A   1      40.661  33.968  34.871  1.00  0.00    -0.203 F 
ATOM     80  F   UNL A   1      37.138  31.757  38.397  1.00  0.00    -0.200 F 
ATOM     81  C   UNL A   1      38.472  33.587  37.728  1.00  0.00     0.200 A 
ATOM     82  F   UNL A   1      39.814  35.393  37.010  1.00  0.00    -0.200 F 
ATOM     83  F   UNL A   1      38.038  34.305  38.773  1.00  0.00    -0.200 F 
ENDBRANCH  49  73
BRANCH  61  84
ATOM     84  C   UNL A   1      44.916  27.969  34.546  1.00  0.00     0.064 A 
ATOM     85  C   UNL A   1      46.086  28.738  34.597  1.00  0.00     0.173 A 
ATOM     86  C   UNL A   1      44.830  26.841  35.376  1.00  0.00     0.173 A 
ATOM     87  F   UNL A   1      46.220  29.814  33.808  1.00  0.00    -0.203 F 
ATOM     88  C   UNL A   1      47.140  28.381  35.433  1.00  0.00     0.198 A 
ATOM     89  C   UNL A   1      45.875  26.501  36.229  1.00  0.00     0.198 A 
ATOM     90  F   UNL A   1      43.729  26.074  35.365  1.00  0.00    -0.203 F 
ATOM     91  F   UNL A   1      48.267  29.106  35.435  1.00  0.00    -0.200 F 
ATOM     92  C   UNL A   1      47.032  27.267  36.253  1.00  0.00     0.200 A 
ATOM     93  F   UNL A   1      45.766  25.430  37.028  1.00  0.00    -0.200 F 
ATOM     94  F   UNL A   1      48.046  26.927  37.060  1.00  0.00    -0.200 F 
ENDBRANCH  61  84
ENDBRANCH  35  36
ENDBRANCH  28  30
ENDBRANCH  27  28
ENDBRANCH  26  27
ENDBRANCH   1  26
TORSDOF 17
ENDMDL
MODEL 3
REMARK VINA RESULT:     -11.3      4.110      9.985
REMARK SMILES CCOc1cccc(OCC)c1-c1ccc([C@@H](C)C(=O)OCCOC(=O)c2ccc(-c3c4nc(c(-c5c(F)c(F)c(F)c(F)c5F)c5ccc([nH]5)c(-c5c(F)c(F)c(F)c(F)c5F)c5nc(c(-c6c(F)c(F)c(F)c(F)c6F)c6ccc3[nH]6)C=C5)C=C4)cc2)cc1F
REMARK SMILES IDX 22 1 21 2 19 3 20 4 17 5 18 6 16 7 13 8 14 9 91 10 15 11
REMARK SMILES IDX 90 12 92 13 12 14 4 15 5 16 6 17 8 18 7 19 3 20 2 21 1 22
REMARK SMILES IDX 9 23 10 24 11 25 23 26 24 27 25 28 26 29 27 30 28 31 89 32
REMARK SMILES IDX 29 33 88 34 30 35 31 36 32 37 82 38 33 39 87 40 81 41 83 42
REMARK SMILES IDX 34 43 86 44 80 45 79 46 35 48 67 49 47 50 66 51 48 52 51 53
REMARK SMILES IDX 65 54 84 55 49 56 50 57 64 59 85 60 52 61 36 62 37 63 45 64
REMARK SMILES IDX 38 65 39 66 43 67 46 68 40 69 41 70 44 71 42 72 68 73 69 74
REMARK SMILES IDX 77 75 70 76 71 77 75 78 78 79 72 80 73 81 76 82 74 83 53 84
REMARK SMILES IDX 54 85 62 86 55 87 56 88 60 89 63 90 57 91 58 92 61 93 59 94
REMARK H PARENT 83 47 51 58
REMARK Flexibility Score: inf
ROOT
ATOM      1  C   UNL A   1      35.477  20.660  25.029  1.00  0.00     0.274 C 
ENDROOT
BRANCH   1   2
ATOM      2  O   UNL A   1      34.934  21.886  24.496  1.00  0.00    -0.462 OA
BRANCH   2   3
ATOM      3  C   UNL A   1      33.775  22.343  25.037  1.00  0.00     0.313 C 
ATOM      4  O   UNL A   1      32.660  22.007  24.645  1.00  0.00    -0.252 OA
BRANCH   3   5
ATOM      5  C   UNL A   1      33.960  23.363  26.160  1.00  0.00     0.126 C 
ATOM      6  C   UNL A   1      33.537  22.761  27.496  1.00  0.00     0.025 C 
BRANCH   5   7
ATOM      7  C   UNL A   1      33.377  24.756  25.958  1.00  0.00    -0.031 A 
ATOM      8  C   UNL A   1      32.382  27.409  25.609  1.00  0.00     0.025 A 
ATOM      9  C   UNL A   1      31.639  26.431  26.287  1.00  0.00     0.012 A 
ATOM     10  C   UNL A   1      33.612  27.017  25.068  1.00  0.00     0.131 A 
ATOM     11  C   UNL A   1      32.146  25.144  26.499  1.00  0.00     0.005 A 
ATOM     12  C   UNL A   1      34.103  25.717  25.232  1.00  0.00     0.044 A 
ATOM     13  F   UNL A   1      34.370  27.899  24.397  1.00  0.00    -0.206 F 
BRANCH   8  14
ATOM     14  C   UNL A   1      31.851  28.777  25.464  1.00  0.00     0.069 A 
ATOM     15  C   UNL A   1      30.937  29.026  24.404  1.00  0.00     0.130 A 
ATOM     16  C   UNL A   1      30.297  30.257  24.233  1.00  0.00     0.047 A 
ATOM     17  C   UNL A   1      30.538  31.280  25.133  1.00  0.00     0.008 A 
ATOM     18  C   UNL A   1      32.120  29.848  26.347  1.00  0.00     0.130 A 
ATOM     19  C   UNL A   1      31.447  31.075  26.166  1.00  0.00     0.047 A 
BRANCH  15  20
ATOM     20  O   UNL A   1      30.736  28.053  23.454  1.00  0.00    -0.493 OA
BRANCH  20  21
ATOM     21  C   UNL A   1      29.358  27.874  23.117  1.00  0.00     0.226 C 
ATOM     22  C   UNL A   1      28.863  26.653  23.863  1.00  0.00     0.049 C 
ENDBRANCH  20  21
ENDBRANCH  15  20
BRANCH  18  23
ATOM     23  O   UNL A   1      32.964  29.948  27.419  1.00  0.00    -0.493 OA
BRANCH  23  24
ATOM     24  C   UNL A   1      34.250  30.544  27.378  1.00  0.00     0.226 C 
ATOM     25  C   UNL A   1      35.303  29.470  27.591  1.00  0.00     0.049 C 
ENDBRANCH  23  24
ENDBRANCH  18  23
ENDBRANCH   8  14
ENDBRANCH   5   7
ENDBRANCH   3   5
ENDBRANCH   2   3
ENDBRANCH   1   2
BRANCH   1  26
ATOM     26  C   UNL A   1      37.010  20.626  24.948  1.00  0.00     0.275 C 
BRANCH  26  27
ATOM     27  O   UNL A   1      37.620  21.681  25.719  1.00  0.00    -0.458 OA
BRANCH  27  28
ATOM     28  C   UNL A   1      38.866  21.397  26.149  1.00  0.00     0.338 C 
ATOM     29  O   UNL A   1      39.429  20.312  26.082  1.00  0.00    -0.246 OA
BRANCH  28  30
ATOM     30  C   UNL A   1      39.577  22.601  26.581  1.00  0.00     0.060 A 
ATOM     31  C   UNL A   1      39.226  23.807  25.968  1.00  0.00     0.016 A 
ATOM     32  C   UNL A   1      40.624  22.548  27.501  1.00  0.00     0.016 A 
ATOM     33  C   UNL A   1      39.902  24.976  26.285  1.00  0.00     0.010 A 
ATOM     34  C   UNL A   1      41.305  23.726  27.823  1.00  0.00     0.010 A 
ATOM     35  C   UNL A   1      40.941  24.944  27.222  1.00  0.00    -0.014 A 
BRANCH  35  36
ATOM     36  C   UNL A   1      41.619  26.206  27.585  1.00  0.00     0.031 A 
ATOM     37  C   UNL A   1      40.899  27.256  28.370  1.00  0.00     0.074 A 
ATOM     38  C   UNL A   1      42.904  26.376  27.223  1.00  0.00     0.049 A 
ATOM     39  N   UNL A   1      41.305  28.450  28.716  1.00  0.00    -0.248 NA
ATOM     40  C   UNL A   1      39.544  26.919  28.831  1.00  0.00     0.031 C 
ATOM     41  C   UNL A   1      43.711  25.391  26.501  1.00  0.00     0.029 A 
ATOM     42  N   UNL A   1      43.755  27.434  27.411  1.00  0.00    -0.354 N 
ATOM     43  C   UNL A   1      40.253  29.015  29.424  1.00  0.00     0.074 A 
ATOM     44  C   UNL A   1      39.185  28.037  29.446  1.00  0.00     0.031 C 
ATOM     45  C   UNL A   1      44.940  25.891  26.307  1.00  0.00     0.029 A 
ATOM     46  C   UNL A   1      44.990  27.247  26.843  1.00  0.00     0.049 A 
ATOM     47  H   UNL A   1      43.503  28.248  27.906  1.00  0.00     0.167 HD
ATOM     48  C   UNL A   1      40.194  30.240  30.001  1.00  0.00     0.037 A 
ATOM     49  C   UNL A   1      46.032  28.092  26.738  1.00  0.00     0.037 A 
ATOM     50  C   UNL A   1      41.269  31.198  29.975  1.00  0.00     0.049 A 
ATOM     51  C   UNL A   1      45.914  29.469  27.328  1.00  0.00     0.074 A 
ATOM     52  C   UNL A   1      41.311  32.465  30.531  1.00  0.00     0.029 A 
ATOM     53  N   UNL A   1      42.493  30.992  29.354  1.00  0.00    -0.354 N 
ATOM     54  N   UNL A   1      44.912  30.003  27.982  1.00  0.00    -0.248 NA
ATOM     55  C   UNL A   1      47.067  30.362  27.159  1.00  0.00     0.031 C 
ATOM     56  C   UNL A   1      42.547  33.041  30.210  1.00  0.00     0.029 A 
ATOM     57  C   UNL A   1      43.290  32.118  29.493  1.00  0.00     0.049 A 
ATOM     58  H   UNL A   1      42.757  30.169  28.885  1.00  0.00     0.167 HD
ATOM     59  C   UNL A   1      45.312  31.289  28.310  1.00  0.00     0.074 A 
ATOM     60  C   UNL A   1      46.661  31.448  27.802  1.00  0.00     0.031 C 
ATOM     61  C   UNL A   1      44.626  32.254  28.970  1.00  0.00     0.037 A 
BRANCH  48  62
ATOM     62  C   UNL A   1      38.912  30.624  30.679  1.00  0.00     0.064 A 
ATOM     63  C   UNL A   1      38.734  30.468  32.061  1.00  0.00     0.173 A 
ATOM     64  C   UNL A   1      37.861  31.185  29.939  1.00  0.00     0.173 A 
ATOM     65  F   UNL A   1      39.703  29.925  32.811  1.00  0.00    -0.203 F 
ATOM     66  C   UNL A   1      37.539  30.841  32.673  1.00  0.00     0.198 A 
ATOM     67  C   UNL A   1      36.678  31.579  30.558  1.00  0.00     0.198 A 
ATOM     68  F   UNL A   1      37.984  31.359  28.614  1.00  0.00    -0.203 F 
ATOM     69  F   UNL A   1      37.374  30.649  33.990  1.00  0.00    -0.200 F 
ATOM     70  C   UNL A   1      36.516  31.401  31.923  1.00  0.00     0.200 A 
ATOM     71  F   UNL A   1      35.694  32.129  29.833  1.00  0.00    -0.200 F 
ATOM     72  F   UNL A   1      35.370  31.764  32.515  1.00  0.00    -0.200 F 
ENDBRANCH  48  62
BRANCH  49  73
ATOM     73  C   UNL A   1      47.256  27.661  26.016  1.00  0.00     0.064 A 
ATOM     74  C   UNL A   1      47.334  27.727  24.620  1.00  0.00     0.173 A 
ATOM     75  C   UNL A   1      48.380  27.192  26.713  1.00  0.00     0.173 A 
ATOM     76  F   UNL A   1      46.277  28.146  23.909  1.00  0.00    -0.203 F 
ATOM     77  C   UNL A   1      48.488  27.331  23.946  1.00  0.00     0.198 A 
ATOM     78  C   UNL A   1      49.541  26.823  26.040  1.00  0.00     0.198 A 
ATOM     79  F   UNL A   1      48.355  27.110  28.051  1.00  0.00    -0.203 F 
ATOM     80  F   UNL A   1      48.525  27.369  22.607  1.00  0.00    -0.200 F 
ATOM     81  C   UNL A   1      49.593  26.887  24.657  1.00  0.00     0.200 A 
ATOM     82  F   UNL A   1      50.611  26.407  26.733  1.00  0.00    -0.200 F 
ATOM     83  F   UNL A   1      50.705  26.516  24.008  1.00  0.00    -0.200 F 
ENDBRANCH  49  73
BRANCH  61  84
ATOM     84  C   UNL A   1      45.330  33.561  29.184  1.00  0.00     0.064 A 
ATOM     85  C   UNL A   1      45.208  34.614  28.267  1.00  0.00     0.173 A 
ATOM     86  C   UNL A   1      46.109  33.770  30.331  1.00  0.00     0.173 A 
ATOM     87  F   UNL A   1      44.489  34.454  27.146  1.00  0.00    -0.203 F 
ATOM     88  C   UNL A   1      45.859  35.826  28.482  1.00  0.00     0.198 A 
ATOM     89  C   UNL A   1      46.737  34.991  30.555  1.00  0.00     0.198 A 
ATOM     90  F   UNL A   1      46.253  32.793  31.239  1.00  0.00    -0.203 F 
ATOM     91  F   UNL A   1      45.764  36.805  27.572  1.00  0.00    -0.200 F 
ATOM     92  C   UNL A   1      46.617  36.017  29.628  1.00  0.00     0.200 A 
ATOM     93  F   UNL A   1      47.461  35.178  31.668  1.00  0.00    -0.200 F 
ATOM     94  F   UNL A   1      47.239  37.185  29.835  1.00  0.00    -0.200 F 
ENDBRANCH  61  84
ENDBRANCH  35  36
ENDBRANCH  28  30
ENDBRANCH  27  28
ENDBRANCH  26  27
ENDBRANCH   1  26
TORSDOF 17
ENDMDL
