MODEL 1
REMARK VINA RESULT:     -10.8      0.000      0.000
REMARK SMILES Cc1c(C(=O)NC(=S)Nc2ccccc2C(=O)OCCOC(=O)c2ccc(-c3c4nc(c(-c5c(F)c(F)c(F)c(F)c5F)c5ccc([nH]5)c(-c5c(F)c(F)c(F)c(F)c5F)c5nc(c(-c6c(F)c(F)c(F)c(F)c6F)c6ccc3[nH]6)C=C5)C=C4)cc2)cccc1[N+](=O)[O-]
REMARK SMILES IDX 18 1 16 2 17 3 15 4 10 5 11 6 12 7 14 8 13 9 9 10 7 12 8 13
REMARK SMILES IDX 6 14 4 15 5 16 3 18 1 19 2 20 90 21 87 22 89 23 88 24 91 25
REMARK SMILES IDX 92 26 93 27 19 28 20 29 21 30 22 31 23 32 24 33 25 34 86 35
REMARK SMILES IDX 26 36 85 37 27 38 28 39 29 40 79 41 30 42 84 43 78 44 80 45
REMARK SMILES IDX 31 46 83 47 77 48 76 49 32 51 64 52 44 53 63 54 45 55 48 56
REMARK SMILES IDX 62 57 81 58 46 59 47 60 61 62 82 63 49 64 33 65 34 66 42 67
REMARK SMILES IDX 35 68 36 69 40 70 43 71 37 72 38 73 41 74 39 75 65 76 66 77
REMARK SMILES IDX 74 78 67 79 68 80 72 81 75 82 69 83 70 84 73 85 71 86 50 87
REMARK SMILES IDX 51 88 59 89 52 90 53 91 57 92 60 93 54 94 55 95 58 96 56 97
REMARK H PARENT 9 11 6 17 80 50 48 61
REMARK Flexibility Score: inf
ROOT
ATOM      1  O   UNL A   1      37.312  30.579  32.381  1.00  0.00    -0.458 OA
ENDROOT
BRANCH   1   2
ATOM      2  C   UNL A   1      37.407  29.226  32.223  1.00  0.00     0.340 C 
ATOM      3  O   UNL A   1      37.374  28.515  33.224  1.00  0.00    -0.246 OA
BRANCH   2   4
ATOM      4  C   UNL A   1      37.977  28.570  30.977  1.00  0.00     0.083 A 
ATOM      5  C   UNL A   1      38.051  28.896  29.213  1.00  0.00     0.055 A 
ATOM      6  C   UNL A   1      39.440  28.312  28.157  1.00  0.00     0.027 A 
ATOM      7  C   UNL A   1      40.972  27.771  29.098  1.00  0.00     0.002 A 
ATOM      8  C   UNL A   1      39.152  27.797  31.807  1.00  0.00     0.018 A 
ATOM      9  C   UNL A   1      40.597  27.503  31.077  1.00  0.00     0.001 A 
BRANCH   5  10
ATOM     10  N   UNL A   1      37.816  30.273  28.896  1.00  0.00    -0.332 N 
ATOM     11  H   UNL A   1      38.578  30.878  29.040  1.00  0.00     0.169 HD
BRANCH  10  12
ATOM     12  C   UNL A   1      36.659  30.870  28.415  1.00  0.00     0.177 C 
ATOM     13  S   UNL A   1      35.577  29.854  27.601  1.00  0.00    -0.040 S 
BRANCH  12  14
ATOM     14  N   UNL A   1      36.402  32.302  28.355  1.00  0.00    -0.299 N 
ATOM     15  C   UNL A   1      35.812  33.589  29.036  1.00  0.00     0.257 C 
ATOM     16  O   UNL A   1      35.958  34.671  28.475  1.00  0.00    -0.269 OA
ATOM     17  H   UNL A   1      36.764  32.602  27.491  1.00  0.00     0.172 HD
BRANCH  15  18
ATOM     18  C   UNL A   1      35.023  33.484  30.369  1.00  0.00     0.049 A 
ATOM     19  C   UNL A   1      33.159  34.236  29.410  1.00  0.00     0.053 C 
ATOM     20  C   UNL A   1      34.589  35.034  30.446  1.00  0.00     0.039 A 
ATOM     21  C   UNL A   1      34.319  36.157  32.147  1.00  0.00     0.273 A 
ATOM     22  C   UNL A   1      34.718  32.591  31.841  1.00  0.00     0.014 A 
ATOM     23  C   UNL A   1      34.068  35.132  33.658  1.00  0.00     0.086 A 
ATOM     24  C   UNL A   1      34.212  33.342  33.426  1.00  0.00     0.008 A 
BRANCH  21  25
ATOM     25  N   UNL A   1      33.722  37.568  32.482  1.00  0.00     0.063 N 
ATOM     26  O   UNL A   1      32.852  37.986  31.697  1.00  0.00    -0.258 OA
ATOM     27  O   UNL A   1      34.111  38.198  33.474  1.00  0.00    -0.258 OA
ENDBRANCH  21  25
ENDBRANCH  15  18
ENDBRANCH  12  14
ENDBRANCH  10  12
ENDBRANCH   5  10
ENDBRANCH   2   4
ENDBRANCH   1   2
BRANCH   1  28
ATOM     28  C   UNL A   1      38.482  31.167  33.042  1.00  0.00     0.275 C 
BRANCH  28  29
ATOM     29  C   UNL A   1      38.179  32.344  33.998  1.00  0.00     0.275 C 
BRANCH  29  30
ATOM     30  O   UNL A   1      38.926  33.573  33.871  1.00  0.00    -0.458 OA
BRANCH  30  31
ATOM     31  C   UNL A   1      38.619  34.354  32.814  1.00  0.00     0.338 C 
ATOM     32  O   UNL A   1      37.743  35.193  32.821  1.00  0.00    -0.246 OA
BRANCH  31  33
ATOM     33  C   UNL A   1      39.625  34.167  31.748  1.00  0.00     0.060 A 
ATOM     34  C   UNL A   1      39.254  34.414  30.412  1.00  0.00     0.016 A 
ATOM     35  C   UNL A   1      40.961  34.147  32.142  1.00  0.00     0.016 A 
ATOM     36  C   UNL A   1      40.214  34.672  29.449  1.00  0.00     0.010 A 
ATOM     37  C   UNL A   1      41.890  34.629  31.270  1.00  0.00     0.010 A 
ATOM     38  C   UNL A   1      41.519  34.763  29.914  1.00  0.00    -0.014 A 
BRANCH  38  39
ATOM     39  C   UNL A   1      42.631  34.449  29.047  1.00  0.00     0.031 A 
ATOM     40  C   UNL A   1      43.100  33.016  29.166  1.00  0.00     0.074 A 
ATOM     41  C   UNL A   1      42.622  35.554  28.222  1.00  0.00     0.049 A 
ATOM     42  N   UNL A   1      44.289  32.553  28.956  1.00  0.00    -0.248 NA
ATOM     43  C   UNL A   1      42.315  31.903  29.758  1.00  0.00     0.031 C 
ATOM     44  C   UNL A   1      42.899  35.878  26.832  1.00  0.00     0.029 A 
ATOM     45  N   UNL A   1      42.234  36.859  28.692  1.00  0.00    -0.354 N 
ATOM     46  C   UNL A   1      44.081  31.204  28.645  1.00  0.00     0.074 A 
ATOM     47  C   UNL A   1      43.014  30.796  29.488  1.00  0.00     0.031 C 
ATOM     48  C   UNL A   1      43.121  37.212  26.717  1.00  0.00     0.029 A 
ATOM     49  C   UNL A   1      42.990  37.818  28.035  1.00  0.00     0.049 A 
ATOM     50  H   UNL A   1      41.545  37.041  29.371  1.00  0.00     0.167 HD
ATOM     51  C   UNL A   1      44.402  30.772  27.387  1.00  0.00     0.037 A 
ATOM     52  C   UNL A   1      43.966  38.396  28.795  1.00  0.00     0.037 A 
ATOM     53  C   UNL A   1      44.834  31.948  26.637  1.00  0.00     0.049 A 
ATOM     54  C   UNL A   1      45.235  37.650  28.501  1.00  0.00     0.074 A 
ATOM     55  C   UNL A   1      44.195  32.763  25.722  1.00  0.00     0.029 A 
ATOM     56  N   UNL A   1      45.881  32.687  27.156  1.00  0.00    -0.354 N 
ATOM     57  N   UNL A   1      45.311  36.368  28.262  1.00  0.00    -0.248 NA
ATOM     58  C   UNL A   1      46.465  38.374  28.251  1.00  0.00     0.031 C 
ATOM     59  C   UNL A   1      44.915  33.995  25.690  1.00  0.00     0.029 A 
ATOM     60  C   UNL A   1      45.877  33.981  26.688  1.00  0.00     0.049 A 
ATOM     61  H   UNL A   1      46.550  32.331  27.785  1.00  0.00     0.167 HD
ATOM     62  C   UNL A   1      46.519  36.108  27.683  1.00  0.00     0.074 A 
ATOM     63  C   UNL A   1      47.199  37.397  27.702  1.00  0.00     0.031 C 
ATOM     64  C   UNL A   1      46.900  34.897  27.172  1.00  0.00     0.037 A 
BRANCH  51  65
ATOM     65  C   UNL A   1      44.103  29.454  26.696  1.00  0.00     0.064 A 
ATOM     66  C   UNL A   1      45.165  28.538  26.484  1.00  0.00     0.173 A 
ATOM     67  C   UNL A   1      42.839  28.982  26.288  1.00  0.00     0.173 A 
ATOM     68  F   UNL A   1      46.417  28.819  26.868  1.00  0.00    -0.203 F 
ATOM     69  C   UNL A   1      44.990  27.283  25.899  1.00  0.00     0.198 A 
ATOM     70  C   UNL A   1      42.664  27.714  25.700  1.00  0.00     0.198 A 
ATOM     71  F   UNL A   1      41.725  29.703  26.471  1.00  0.00    -0.203 F 
ATOM     72  F   UNL A   1      46.048  26.476  25.736  1.00  0.00    -0.200 F 
ATOM     73  C   UNL A   1      43.739  26.867  25.507  1.00  0.00     0.200 A 
ATOM     74  F   UNL A   1      41.438  27.309  25.335  1.00  0.00    -0.200 F 
ATOM     75  F   UNL A   1      43.569  25.654  24.965  1.00  0.00    -0.200 F 
ENDBRANCH  51  65
BRANCH  52  76
ATOM     76  C   UNL A   1      43.470  38.790  30.157  1.00  0.00     0.064 A 
ATOM     77  C   UNL A   1      43.900  37.999  31.251  1.00  0.00     0.173 A 
ATOM     78  C   UNL A   1      42.928  40.048  30.450  1.00  0.00     0.173 A 
ATOM     79  F   UNL A   1      44.403  36.771  31.038  1.00  0.00    -0.203 F 
ATOM     80  C   UNL A   1      43.960  38.510  32.541  1.00  0.00     0.198 A 
ATOM     81  C   UNL A   1      42.925  40.532  31.761  1.00  0.00     0.198 A 
ATOM     82  F   UNL A   1      42.527  40.866  29.469  1.00  0.00    -0.203 F 
ATOM     83  F   UNL A   1      44.617  37.841  33.500  1.00  0.00    -0.200 F 
ATOM     84  C   UNL A   1      43.467  39.773  32.790  1.00  0.00     0.200 A 
ATOM     85  F   UNL A   1      42.569  41.802  32.010  1.00  0.00    -0.200 F 
ATOM     86  F   UNL A   1      43.643  40.324  33.994  1.00  0.00    -0.200 F 
ENDBRANCH  52  76
BRANCH  64  87
ATOM     87  C   UNL A   1      48.349  34.492  27.039  1.00  0.00     0.064 A 
ATOM     88  C   UNL A   1      49.061  33.837  28.052  1.00  0.00     0.173 A 
ATOM     89  C   UNL A   1      49.053  34.634  25.816  1.00  0.00     0.173 A 
ATOM     90  F   UNL A   1      48.466  33.372  29.158  1.00  0.00    -0.203 F 
ATOM     91  C   UNL A   1      50.418  33.566  27.941  1.00  0.00     0.198 A 
ATOM     92  C   UNL A   1      50.364  34.214  25.658  1.00  0.00     0.198 A 
ATOM     93  F   UNL A   1      48.506  35.160  24.712  1.00  0.00    -0.203 F 
ATOM     94  F   UNL A   1      51.083  33.106  29.008  1.00  0.00    -0.200 F 
ATOM     95  C   UNL A   1      51.069  33.745  26.740  1.00  0.00     0.200 A 
ATOM     96  F   UNL A   1      50.934  34.272  24.447  1.00  0.00    -0.200 F 
ATOM     97  F   UNL A   1      52.364  33.439  26.619  1.00  0.00    -0.200 F 
ENDBRANCH  64  87
ENDBRANCH  38  39
ENDBRANCH  31  33
ENDBRANCH  30  31
ENDBRANCH  29  30
ENDBRANCH  28  29
ENDBRANCH   1  28
TORSDOF 16
ENDMDL
MODEL 2
REMARK VINA RESULT:     -10.7      6.489     10.662
REMARK SMILES Cc1c(C(=O)NC(=S)Nc2ccccc2C(=O)OCCOC(=O)c2ccc(-c3c4nc(c(-c5c(F)c(F)c(F)c(F)c5F)c5ccc([nH]5)c(-c5c(F)c(F)c(F)c(F)c5F)c5nc(c(-c6c(F)c(F)c(F)c(F)c6F)c6ccc3[nH]6)C=C5)C=C4)cc2)cccc1[N+](=O)[O-]
REMARK SMILES IDX 18 1 16 2 17 3 15 4 10 5 11 6 12 7 14 8 13 9 9 10 7 12 8 13
REMARK SMILES IDX 6 14 4 15 5 16 3 18 1 19 2 20 90 21 87 22 89 23 88 24 91 25
REMARK SMILES IDX 92 26 93 27 19 28 20 29 21 30 22 31 23 32 24 33 25 34 86 35
REMARK SMILES IDX 26 36 85 37 27 38 28 39 29 40 79 41 30 42 84 43 78 44 80 45
REMARK SMILES IDX 31 46 83 47 77 48 76 49 32 51 64 52 44 53 63 54 45 55 48 56
REMARK SMILES IDX 62 57 81 58 46 59 47 60 61 62 82 63 49 64 33 65 34 66 42 67
REMARK SMILES IDX 35 68 36 69 40 70 43 71 37 72 38 73 41 74 39 75 65 76 66 77
REMARK SMILES IDX 74 78 67 79 68 80 72 81 75 82 69 83 70 84 73 85 71 86 50 87
REMARK SMILES IDX 51 88 59 89 52 90 53 91 57 92 60 93 54 94 55 95 58 96 56 97
REMARK H PARENT 9 11 6 17 80 50 48 61
REMARK Flexibility Score: inf
ROOT
ATOM      1  O   UNL A   1      32.349  29.013  27.286  1.00  0.00    -0.458 OA
ENDROOT
BRANCH   1   2
ATOM      2  C   UNL A   1      32.023  30.018  26.421  1.00  0.00     0.340 C 
ATOM      3  O   UNL A   1      31.887  31.154  26.866  1.00  0.00    -0.246 OA
BRANCH   2   4
ATOM      4  C   UNL A   1      31.401  29.774  25.057  1.00  0.00     0.083 A 
ATOM      5  C   UNL A   1      30.892  28.374  24.054  1.00  0.00     0.055 A 
ATOM      6  C   UNL A   1      29.516  28.478  22.838  1.00  0.00     0.027 A 
ATOM      7  C   UNL A   1      28.395  29.969  23.042  1.00  0.00     0.002 A 
ATOM      8  C   UNL A   1      30.654  31.226  25.034  1.00  0.00     0.018 A 
ATOM      9  C   UNL A   1      29.216  31.382  24.250  1.00  0.00     0.001 A 
BRANCH   5  10
ATOM     10  N   UNL A   1      30.700  27.183  24.825  1.00  0.00    -0.332 N 
ATOM     11  H   UNL A   1      29.833  27.110  25.285  1.00  0.00     0.169 HD
BRANCH  10  12
ATOM     12  C   UNL A   1      31.570  26.119  25.014  1.00  0.00     0.177 C 
ATOM     13  S   UNL A   1      32.929  26.075  24.005  1.00  0.00    -0.040 S 
BRANCH  12  14
ATOM     14  N   UNL A   1      31.310  24.942  25.832  1.00  0.00    -0.299 N 
ATOM     15  C   UNL A   1      31.746  23.503  26.289  1.00  0.00     0.257 C 
ATOM     16  O   UNL A   1      31.093  22.942  27.165  1.00  0.00    -0.269 OA
ATOM     17  H   UNL A   1      30.480  25.137  26.324  1.00  0.00     0.172 HD
BRANCH  15  18
ATOM     18  C   UNL A   1      32.949  22.793  25.615  1.00  0.00     0.049 A 
ATOM     19  C   UNL A   1      31.822  22.530  23.711  1.00  0.00     0.053 C 
ATOM     20  C   UNL A   1      32.177  21.423  25.261  1.00  0.00     0.039 A 
ATOM     21  C   UNL A   1      32.984  19.533  25.192  1.00  0.00     0.273 A 
ATOM     22  C   UNL A   1      34.682  22.702  25.397  1.00  0.00     0.014 A 
ATOM     23  C   UNL A   1      34.820  19.536  25.026  1.00  0.00     0.086 A 
ATOM     24  C   UNL A   1      35.609  21.166  25.066  1.00  0.00     0.008 A 
BRANCH  21  25
ATOM     25  N   UNL A   1      32.511  18.124  24.693  1.00  0.00     0.063 N 
ATOM     26  O   UNL A   1      32.165  18.062  23.500  1.00  0.00    -0.258 OA
ATOM     27  O   UNL A   1      32.498  17.154  25.461  1.00  0.00    -0.258 OA
ENDBRANCH  21  25
ENDBRANCH  15  18
ENDBRANCH  12  14
ENDBRANCH  10  12
ENDBRANCH   5  10
ENDBRANCH   2   4
ENDBRANCH   1   2
BRANCH   1  28
ATOM     28  C   UNL A   1      33.655  28.408  27.003  1.00  0.00     0.275 C 
BRANCH  28  29
ATOM     29  C   UNL A   1      34.853  29.386  27.009  1.00  0.00     0.275 C 
BRANCH  29  30
ATOM     30  O   UNL A   1      36.113  28.964  27.574  1.00  0.00    -0.458 OA
BRANCH  30  31
ATOM     31  C   UNL A   1      36.903  29.938  28.071  1.00  0.00     0.338 C 
ATOM     32  O   UNL A   1      36.518  31.057  28.332  1.00  0.00    -0.246 OA
BRANCH  31  33
ATOM     33  C   UNL A   1      38.224  29.375  28.422  1.00  0.00     0.060 A 
ATOM     34  C   UNL A   1      39.384  30.077  28.044  1.00  0.00     0.016 A 
ATOM     35  C   UNL A   1      38.249  28.415  29.432  1.00  0.00     0.016 A 
ATOM     36  C   UNL A   1      40.588  29.851  28.687  1.00  0.00     0.010 A 
ATOM     37  C   UNL A   1      39.355  28.353  30.225  1.00  0.00     0.010 A 
ATOM     38  C   UNL A   1      40.536  28.977  29.765  1.00  0.00    -0.014 A 
BRANCH  38  39
ATOM     39  C   UNL A   1      41.700  28.211  30.148  1.00  0.00     0.031 A 
ATOM     40  C   UNL A   1      41.880  26.947  29.338  1.00  0.00     0.074 A 
ATOM     41  C   UNL A   1      42.355  29.135  30.935  1.00  0.00     0.049 A 
ATOM     42  N   UNL A   1      42.454  25.848  29.706  1.00  0.00    -0.248 NA
ATOM     43  C   UNL A   1      41.235  26.667  28.030  1.00  0.00     0.031 C 
ATOM     44  C   UNL A   1      43.721  29.524  31.249  1.00  0.00     0.029 A 
ATOM     45  N   UNL A   1      41.648  30.095  31.743  1.00  0.00    -0.354 N 
ATOM     46  C   UNL A   1      42.854  25.253  28.504  1.00  0.00     0.074 A 
ATOM     47  C   UNL A   1      41.811  25.545  27.587  1.00  0.00     0.031 C 
ATOM     48  C   UNL A   1      43.733  30.220  32.414  1.00  0.00     0.029 A 
ATOM     49  C   UNL A   1      42.366  30.320  32.908  1.00  0.00     0.049 A 
ATOM     50  H   UNL A   1      40.793  30.522  31.507  1.00  0.00     0.167 HD
ATOM     51  C   UNL A   1      44.194  25.104  28.269  1.00  0.00     0.037 A 
ATOM     52  C   UNL A   1      41.833  29.748  34.027  1.00  0.00     0.037 A 
ATOM     53  C   UNL A   1      44.888  25.727  29.393  1.00  0.00     0.049 A 
ATOM     54  C   UNL A   1      42.541  28.439  34.218  1.00  0.00     0.074 A 
ATOM     55  C   UNL A   1      45.497  26.958  29.553  1.00  0.00     0.029 A 
ATOM     56  N   UNL A   1      44.586  25.271  30.663  1.00  0.00    -0.354 N 
ATOM     57  N   UNL A   1      42.941  27.656  33.251  1.00  0.00    -0.248 NA
ATOM     58  C   UNL A   1      43.025  28.057  35.530  1.00  0.00     0.031 C 
ATOM     59  C   UNL A   1      45.575  27.202  30.957  1.00  0.00     0.029 A 
ATOM     60  C   UNL A   1      44.880  26.207  31.627  1.00  0.00     0.049 A 
ATOM     61  H   UNL A   1      44.205  24.383  30.854  1.00  0.00     0.167 HD
ATOM     62  C   UNL A   1      43.849  26.774  33.759  1.00  0.00     0.074 A 
ATOM     63  C   UNL A   1      43.861  27.068  35.186  1.00  0.00     0.031 C 
ATOM     64  C   UNL A   1      44.582  25.888  33.016  1.00  0.00     0.037 A 
BRANCH  51  65
ATOM     65  C   UNL A   1      44.930  24.702  27.004  1.00  0.00     0.064 A 
ATOM     66  C   UNL A   1      45.435  25.721  26.156  1.00  0.00     0.173 A 
ATOM     67  C   UNL A   1      45.248  23.392  26.591  1.00  0.00     0.173 A 
ATOM     68  F   UNL A   1      45.263  27.018  26.443  1.00  0.00    -0.203 F 
ATOM     69  C   UNL A   1      46.163  25.460  24.995  1.00  0.00     0.198 A 
ATOM     70  C   UNL A   1      45.985  23.131  25.420  1.00  0.00     0.198 A 
ATOM     71  F   UNL A   1      44.895  22.321  27.313  1.00  0.00    -0.203 F 
ATOM     72  F   UNL A   1      46.605  26.482  24.247  1.00  0.00    -0.200 F 
ATOM     73  C   UNL A   1      46.441  24.165  24.624  1.00  0.00     0.200 A 
ATOM     74  F   UNL A   1      46.266  21.865  25.074  1.00  0.00    -0.200 F 
ATOM     75  F   UNL A   1      47.159  23.916  23.521  1.00  0.00    -0.200 F 
ENDBRANCH  51  65
BRANCH  52  76
ATOM     76  C   UNL A   1      40.351  29.972  34.131  1.00  0.00     0.064 A 
ATOM     77  C   UNL A   1      39.921  31.284  34.452  1.00  0.00     0.173 A 
ATOM     78  C   UNL A   1      39.397  29.097  33.598  1.00  0.00     0.173 A 
ATOM     79  F   UNL A   1      40.781  32.163  34.992  1.00  0.00    -0.203 F 
ATOM     80  C   UNL A   1      38.664  31.748  34.086  1.00  0.00     0.198 A 
ATOM     81  C   UNL A   1      38.109  29.549  33.297  1.00  0.00     0.198 A 
ATOM     82  F   UNL A   1      39.733  27.851  33.243  1.00  0.00    -0.203 F 
ATOM     83  F   UNL A   1      38.383  33.057  34.158  1.00  0.00    -0.200 F 
ATOM     84  C   UNL A   1      37.762  30.876  33.515  1.00  0.00     0.200 A 
ATOM     85  F   UNL A   1      37.256  28.757  32.627  1.00  0.00    -0.200 F 
ATOM     86  F   UNL A   1      36.604  31.342  33.039  1.00  0.00    -0.200 F 
ENDBRANCH  52  76
BRANCH  64  87
ATOM     87  C   UNL A   1      45.146  24.613  33.597  1.00  0.00     0.064 A 
ATOM     88  C   UNL A   1      46.476  24.481  34.017  1.00  0.00     0.173 A 
ATOM     89  C   UNL A   1      44.322  23.493  33.879  1.00  0.00     0.173 A 
ATOM     90  F   UNL A   1      47.311  25.527  34.088  1.00  0.00    -0.203 F 
ATOM     91  C   UNL A   1      46.994  23.269  34.454  1.00  0.00     0.198 A 
ATOM     92  C   UNL A   1      44.811  22.337  34.466  1.00  0.00     0.198 A 
ATOM     93  F   UNL A   1      43.007  23.469  33.626  1.00  0.00    -0.203 F 
ATOM     94  F   UNL A   1      48.311  23.160  34.668  1.00  0.00    -0.200 F 
ATOM     95  C   UNL A   1      46.159  22.199  34.688  1.00  0.00     0.200 A 
ATOM     96  F   UNL A   1      43.960  21.362  34.810  1.00  0.00    -0.200 F 
ATOM     97  F   UNL A   1      46.651  21.046  35.155  1.00  0.00    -0.200 F 
ENDBRANCH  64  87
ENDBRANCH  38  39
ENDBRANCH  31  33
ENDBRANCH  30  31
ENDBRANCH  29  30
ENDBRANCH  28  29
ENDBRANCH   1  28
TORSDOF 16
ENDMDL
MODEL 3
REMARK VINA RESULT:     -10.6      4.579      9.904
REMARK SMILES Cc1c(C(=O)NC(=S)Nc2ccccc2C(=O)OCCOC(=O)c2ccc(-c3c4nc(c(-c5c(F)c(F)c(F)c(F)c5F)c5ccc([nH]5)c(-c5c(F)c(F)c(F)c(F)c5F)c5nc(c(-c6c(F)c(F)c(F)c(F)c6F)c6ccc3[nH]6)C=C5)C=C4)cc2)cccc1[N+](=O)[O-]
REMARK SMILES IDX 18 1 16 2 17 3 15 4 10 5 11 6 12 7 14 8 13 9 9 10 7 12 8 13
REMARK SMILES IDX 6 14 4 15 5 16 3 18 1 19 2 20 90 21 87 22 89 23 88 24 91 25
REMARK SMILES IDX 92 26 93 27 19 28 20 29 21 30 22 31 23 32 24 33 25 34 86 35
REMARK SMILES IDX 26 36 85 37 27 38 28 39 29 40 79 41 30 42 84 43 78 44 80 45
REMARK SMILES IDX 31 46 83 47 77 48 76 49 32 51 64 52 44 53 63 54 45 55 48 56
REMARK SMILES IDX 62 57 81 58 46 59 47 60 61 62 82 63 49 64 33 65 34 66 42 67
REMARK SMILES IDX 35 68 36 69 40 70 43 71 37 72 38 73 41 74 39 75 65 76 66 77
REMARK SMILES IDX 74 78 67 79 68 80 72 81 75 82 69 83 70 84 73 85 71 86 50 87
REMARK SMILES IDX 51 88 59 89 52 90 53 91 57 92 60 93 54 94 55 95 58 96 56 97
REMARK H PARENT 9 11 6 17 80 50 48 61
REMARK Flexibility Score: inf
ROOT
ATOM      1  O   UNL A   1      37.958  30.984  32.957  1.00  0.00    -0.458 OA
ENDROOT
BRANCH   1   2
ATOM      2  C   UNL A   1      36.738  31.122  32.359  1.00  0.00     0.340 C 
ATOM      3  O   UNL A   1      36.230  30.137  31.830  1.00  0.00    -0.246 OA
BRANCH   2   4
ATOM      4  C   UNL A   1      36.169  32.461  31.923  1.00  0.00     0.083 A 
ATOM      5  C   UNL A   1      35.137  33.105  30.602  1.00  0.00     0.055 A 
ATOM      6  C   UNL A   1      34.054  34.576  30.823  1.00  0.00     0.027 A 
ATOM      7  C   UNL A   1      33.746  35.069  32.608  1.00  0.00     0.002 A 
ATOM      8  C   UNL A   1      36.188  33.069  33.438  1.00  0.00     0.018 A 
ATOM      9  C   UNL A   1      35.046  34.166  33.883  1.00  0.00     0.001 A 
BRANCH   5  10
ATOM     10  N   UNL A   1      34.359  32.087  29.963  1.00  0.00    -0.332 N 
ATOM     11  H   UNL A   1      33.745  31.590  30.550  1.00  0.00     0.169 HD
BRANCH  10  12
ATOM     12  C   UNL A   1      34.354  31.706  28.629  1.00  0.00     0.177 C 
ATOM     13  S   UNL A   1      35.849  31.261  27.972  1.00  0.00    -0.040 S 
BRANCH  12  14
ATOM     14  N   UNL A   1      33.240  31.863  27.703  1.00  0.00    -0.299 N 
ATOM     15  C   UNL A   1      32.108  31.196  26.841  1.00  0.00     0.257 C 
ATOM     16  O   UNL A   1      31.327  31.923  26.234  1.00  0.00    -0.269 OA
ATOM     17  H   UNL A   1      33.160  32.830  27.544  1.00  0.00     0.172 HD
BRANCH  15  18
ATOM     18  C   UNL A   1      32.011  29.652  26.727  1.00  0.00     0.049 A 
ATOM     19  C   UNL A   1      33.729  29.575  25.311  1.00  0.00     0.053 C 
ATOM     20  C   UNL A   1      31.800  29.600  25.129  1.00  0.00     0.039 A 
ATOM     21  C   UNL A   1      30.702  28.219  24.073  1.00  0.00     0.273 A 
ATOM     22  C   UNL A   1      31.719  28.124  27.526  1.00  0.00     0.014 A 
ATOM     23  C   UNL A   1      30.390  26.668  25.018  1.00  0.00     0.086 A 
ATOM     24  C   UNL A   1      30.988  26.656  26.728  1.00  0.00     0.008 A 
BRANCH  21  25
ATOM     25  N   UNL A   1      30.519  27.845  22.562  1.00  0.00     0.063 N 
ATOM     26  O   UNL A   1      29.626  28.464  21.956  1.00  0.00    -0.258 OA
ATOM     27  O   UNL A   1      31.235  26.985  22.034  1.00  0.00    -0.258 OA
ENDBRANCH  21  25
ENDBRANCH  15  18
ENDBRANCH  12  14
ENDBRANCH  10  12
ENDBRANCH   5  10
ENDBRANCH   2   4
ENDBRANCH   1   2
BRANCH   1  28
ATOM     28  C   UNL A   1      39.029  30.651  32.011  1.00  0.00     0.275 C 
BRANCH  28  29
ATOM     29  C   UNL A   1      39.599  29.219  32.136  1.00  0.00     0.275 C 
BRANCH  29  30
ATOM     30  O   UNL A   1      39.238  28.222  31.156  1.00  0.00    -0.458 OA
BRANCH  30  31
ATOM     31  C   UNL A   1      39.397  28.568  29.862  1.00  0.00     0.338 C 
ATOM     32  O   UNL A   1      38.519  29.037  29.171  1.00  0.00    -0.246 OA
BRANCH  31  33
ATOM     33  C   UNL A   1      40.826  28.471  29.494  1.00  0.00     0.060 A 
ATOM     34  C   UNL A   1      41.723  27.874  30.400  1.00  0.00     0.016 A 
ATOM     35  C   UNL A   1      41.136  28.605  28.142  1.00  0.00     0.016 A 
ATOM     36  C   UNL A   1      42.938  27.375  29.965  1.00  0.00     0.010 A 
ATOM     37  C   UNL A   1      42.208  27.914  27.662  1.00  0.00     0.010 A 
ATOM     38  C   UNL A   1      43.148  27.421  28.594  1.00  0.00    -0.014 A 
BRANCH  38  39
ATOM     39  C   UNL A   1      44.487  27.500  28.057  1.00  0.00     0.031 A 
ATOM     40  C   UNL A   1      44.928  28.913  27.746  1.00  0.00     0.074 A 
ATOM     41  C   UNL A   1      44.939  26.226  28.330  1.00  0.00     0.049 A 
ATOM     42  N   UNL A   1      45.779  29.297  26.852  1.00  0.00    -0.248 NA
ATOM     43  C   UNL A   1      44.293  30.146  28.280  1.00  0.00     0.031 C 
ATOM     44  C   UNL A   1      46.180  25.567  28.702  1.00  0.00     0.029 A 
ATOM     45  N   UNL A   1      44.065  25.081  28.309  1.00  0.00    -0.354 N 
ATOM     46  C   UNL A   1      46.240  30.530  27.327  1.00  0.00     0.074 A 
ATOM     47  C   UNL A   1      45.103  31.145  27.913  1.00  0.00     0.031 C 
ATOM     48  C   UNL A   1      46.091  24.244  28.416  1.00  0.00     0.029 A 
ATOM     49  C   UNL A   1      44.775  23.981  27.848  1.00  0.00     0.049 A 
ATOM     50  H   UNL A   1      43.118  25.079  28.576  1.00  0.00     0.167 HD
ATOM     51  C   UNL A   1      47.559  30.636  27.680  1.00  0.00     0.037 A 
ATOM     52  C   UNL A   1      44.470  23.598  26.574  1.00  0.00     0.037 A 
ATOM     53  C   UNL A   1      48.142  29.307  27.524  1.00  0.00     0.049 A 
ATOM     54  C   UNL A   1      45.493  24.235  25.679  1.00  0.00     0.074 A 
ATOM     55  C   UNL A   1      48.433  28.299  28.424  1.00  0.00     0.029 A 
ATOM     56  N   UNL A   1      48.041  28.707  26.282  1.00  0.00    -0.354 N 
ATOM     57  N   UNL A   1      46.015  25.419  25.864  1.00  0.00    -0.248 NA
ATOM     58  C   UNL A   1      46.136  23.458  24.638  1.00  0.00     0.031 C 
ATOM     59  C   UNL A   1      48.534  27.090  27.673  1.00  0.00     0.029 A 
ATOM     60  C   UNL A   1      48.151  27.338  26.363  1.00  0.00     0.049 A 
ATOM     61  H   UNL A   1      47.906  29.200  25.440  1.00  0.00     0.167 HD
ATOM     62  C   UNL A   1      47.145  25.515  25.104  1.00  0.00     0.074 A 
ATOM     63  C   UNL A   1      47.170  24.262  24.357  1.00  0.00     0.031 C 
ATOM     64  C   UNL A   1      48.028  26.559  25.140  1.00  0.00     0.037 A 
BRANCH  51  65
ATOM     65  C   UNL A   1      48.293  31.747  28.409  1.00  0.00     0.064 A 
ATOM     66  C   UNL A   1      48.190  31.818  29.822  1.00  0.00     0.173 A 
ATOM     67  C   UNL A   1      49.154  32.707  27.840  1.00  0.00     0.173 A 
ATOM     68  F   UNL A   1      47.454  30.940  30.515  1.00  0.00    -0.203 F 
ATOM     69  C   UNL A   1      48.860  32.771  30.592  1.00  0.00     0.198 A 
ATOM     70  C   UNL A   1      49.830  33.666  28.618  1.00  0.00     0.198 A 
ATOM     71  F   UNL A   1      49.403  32.737  26.524  1.00  0.00    -0.203 F 
ATOM     72  F   UNL A   1      48.709  32.769  31.924  1.00  0.00    -0.200 F 
ATOM     73  C   UNL A   1      49.682  33.696  29.992  1.00  0.00     0.200 A 
ATOM     74  F   UNL A   1      50.643  34.555  28.028  1.00  0.00    -0.200 F 
ATOM     75  F   UNL A   1      50.341  34.596  30.734  1.00  0.00    -0.200 F 
ENDBRANCH  51  65
BRANCH  52  76
ATOM     76  C   UNL A   1      42.989  23.556  26.329  1.00  0.00     0.064 A 
ATOM     77  C   UNL A   1      42.279  22.456  26.871  1.00  0.00     0.173 A 
ATOM     78  C   UNL A   1      42.238  24.670  25.931  1.00  0.00     0.173 A 
ATOM     79  F   UNL A   1      42.938  21.347  27.246  1.00  0.00    -0.203 F 
ATOM     80  C   UNL A   1      40.925  22.539  27.172  1.00  0.00     0.198 A 
ATOM     81  C   UNL A   1      40.862  24.721  26.170  1.00  0.00     0.198 A 
ATOM     82  F   UNL A   1      42.839  25.759  25.437  1.00  0.00    -0.203 F 
ATOM     83  F   UNL A   1      40.343  21.594  27.924  1.00  0.00    -0.200 F 
ATOM     84  C   UNL A   1      40.222  23.670  26.814  1.00  0.00     0.200 A 
ATOM     85  F   UNL A   1      40.181  25.856  25.948  1.00  0.00    -0.200 F 
ATOM     86  F   UNL A   1      38.957  23.816  27.217  1.00  0.00    -0.200 F 
ENDBRANCH  52  76
BRANCH  64  87
ATOM     87  C   UNL A   1      48.927  26.903  23.975  1.00  0.00     0.064 A 
ATOM     88  C   UNL A   1      48.467  27.524  22.807  1.00  0.00     0.173 A 
ATOM     89  C   UNL A   1      50.333  26.734  24.043  1.00  0.00     0.173 A 
ATOM     90  F   UNL A   1      47.224  28.011  22.697  1.00  0.00    -0.203 F 
ATOM     91  C   UNL A   1      49.294  27.739  21.712  1.00  0.00     0.198 A 
ATOM     92  C   UNL A   1      51.178  27.100  23.007  1.00  0.00     0.198 A 
ATOM     93  F   UNL A   1      50.960  26.236  25.116  1.00  0.00    -0.203 F 
ATOM     94  F   UNL A   1      48.760  28.167  20.562  1.00  0.00    -0.200 F 
ATOM     95  C   UNL A   1      50.653  27.535  21.816  1.00  0.00     0.200 A 
ATOM     96  F   UNL A   1      52.505  27.021  23.180  1.00  0.00    -0.200 F 
ATOM     97  F   UNL A   1      51.456  27.787  20.777  1.00  0.00    -0.200 F 
ENDBRANCH  64  87
ENDBRANCH  38  39
ENDBRANCH  31  33
ENDBRANCH  30  31
ENDBRANCH  29  30
ENDBRANCH  28  29
ENDBRANCH   1  28
TORSDOF 16
ENDMDL
