MODEL 1
REMARK VINA RESULT:     -11.2      0.000      0.000
REMARK SMILES O=C(CSCc1ccc(Cl)s1)Nc1ccsc1C(=O)OCCOC(=O)c1ccc(-c2c3nc(c(-c4c(F)c(F)c(F)c(F)c4F)c4ccc([nH]4)c(-c4c(F)c(F)c(F)c(F)c4F)c4nc(c(-c5c(F)c(F)c(F)c(F)c5F)c5ccc2[nH]5)C=C4)C=C3)cc1
REMARK SMILES IDX 20 1 18 2 19 3 17 4 13 5 14 6 15 7 16 8 12 9 1 10 2 11 3 13
REMARK SMILES IDX 4 14 5 15 6 16 7 17 11 18 8 19 9 20 10 21 21 22 22 23 23 24
REMARK SMILES IDX 24 25 25 26 26 27 27 28 88 29 28 30 87 31 29 32 30 33 31 34
REMARK SMILES IDX 81 35 32 36 86 37 80 38 82 39 33 40 85 41 79 42 78 43 34 45
REMARK SMILES IDX 66 46 46 47 65 48 47 49 50 50 64 51 83 52 48 53 49 54 63 56
REMARK SMILES IDX 84 57 51 58 35 59 36 60 44 61 37 62 38 63 42 64 45 65 39 66
REMARK SMILES IDX 40 67 43 68 41 69 67 70 68 71 76 72 69 73 70 74 74 75 77 76
REMARK SMILES IDX 71 77 72 78 75 79 73 80 52 81 53 82 61 83 54 84 55 85 59 86
REMARK SMILES IDX 62 87 56 88 57 89 60 90 58 91
REMARK H PARENT 12 12 82 44 50 55
REMARK Flexibility Score: inf
ROOT
ATOM      1  O   UNL A   1      31.372  28.045  25.871  1.00  0.00    -0.458 OA
ENDROOT
BRANCH   1   2
ATOM      2  C   UNL A   1      31.957  26.804  25.847  1.00  0.00     0.350 C 
ATOM      3  O   UNL A   1      31.974  26.048  26.807  1.00  0.00    -0.245 OA
BRANCH   2   4
ATOM      4  C   UNL A   1      32.470  26.513  24.514  1.00  0.00     0.136 A 
ATOM      5  C   UNL A   1      32.878  25.321  23.927  1.00  0.00     0.066 A 
ATOM      6  C   UNL A   1      33.480  25.551  22.650  1.00  0.00     0.039 A 
ATOM      7  C   UNL A   1      33.437  26.871  22.266  1.00  0.00     0.068 A 
ATOM      8  S   UNL A   1      32.625  27.829  23.412  1.00  0.00    -0.135 S 
BRANCH   5   9
ATOM      9  N   UNL A   1      32.684  24.085  24.535  1.00  0.00    -0.324 N 
ATOM     10  O   UNL A   1      30.758  23.348  23.462  1.00  0.00    -0.274 OA
ATOM     11  C   UNL A   1      31.615  23.235  24.335  1.00  0.00     0.234 C 
ATOM     12  H   UNL A   1      33.377  23.788  25.170  1.00  0.00     0.170 HD
BRANCH  11  13
ATOM     13  C   UNL A   1      31.496  22.161  25.401  1.00  0.00     0.170 C 
BRANCH  13  14
ATOM     14  S   UNL A   1      32.937  21.043  25.478  1.00  0.00    -0.146 SA
BRANCH  14  15
ATOM     15  C   UNL A   1      32.632  19.995  24.024  1.00  0.00     0.116 C 
BRANCH  15  16
ATOM     16  C   UNL A   1      32.905  18.521  24.147  1.00  0.00     0.016 A 
ATOM     17  C   UNL A   1      33.598  17.747  23.226  1.00  0.00     0.018 A 
ATOM     18  S   UNL A   1      32.479  17.579  25.522  1.00  0.00    -0.128 S 
ATOM     19  C   UNL A   1      33.696  16.378  23.615  1.00  0.00     0.033 A 
ATOM     20  C   UNL A   1      33.084  16.166  24.821  1.00  0.00     0.093 A 
ATOM     21  Cl  UNL A   1      32.918  14.666  25.637  1.00  0.00    -0.072 Cl
ENDBRANCH  15  16
ENDBRANCH  14  15
ENDBRANCH  13  14
ENDBRANCH  11  13
ENDBRANCH   5   9
ENDBRANCH   2   4
ENDBRANCH   1   2
BRANCH   1  22
ATOM     22  C   UNL A   1      31.668  28.877  27.011  1.00  0.00     0.275 C 
BRANCH  22  23
ATOM     23  C   UNL A   1      31.800  30.351  26.610  1.00  0.00     0.275 C 
BRANCH  23  24
ATOM     24  O   UNL A   1      33.178  30.743  26.469  1.00  0.00    -0.458 OA
BRANCH  24  25
ATOM     25  C   UNL A   1      33.563  31.795  27.228  1.00  0.00     0.338 C 
ATOM     26  O   UNL A   1      32.931  32.813  27.450  1.00  0.00    -0.246 OA
BRANCH  25  27
ATOM     27  C   UNL A   1      34.841  31.474  27.887  1.00  0.00     0.060 A 
ATOM     28  C   UNL A   1      35.018  30.176  28.367  1.00  0.00     0.016 A 
ATOM     29  C   UNL A   1      35.829  32.439  28.079  1.00  0.00     0.016 A 
ATOM     30  C   UNL A   1      36.182  29.825  29.045  1.00  0.00     0.010 A 
ATOM     31  C   UNL A   1      37.001  32.088  28.758  1.00  0.00     0.010 A 
ATOM     32  C   UNL A   1      37.182  30.781  29.250  1.00  0.00    -0.014 A 
BRANCH  32  33
ATOM     33  C   UNL A   1      38.395  30.436  30.028  1.00  0.00     0.031 A 
ATOM     34  C   UNL A   1      39.421  29.522  29.429  1.00  0.00     0.074 A 
ATOM     35  C   UNL A   1      38.574  30.935  31.265  1.00  0.00     0.049 A 
ATOM     36  N   UNL A   1      40.451  28.945  29.992  1.00  0.00    -0.248 NA
ATOM     37  C   UNL A   1      39.264  29.214  27.999  1.00  0.00     0.031 C 
ATOM     38  C   UNL A   1      37.688  31.892  31.925  1.00  0.00     0.029 A 
ATOM     39  N   UNL A   1      39.559  30.695  32.190  1.00  0.00    -0.354 N 
ATOM     40  C   UNL A   1      41.044  28.178  28.998  1.00  0.00     0.074 A 
ATOM     41  C   UNL A   1      40.260  28.362  27.796  1.00  0.00     0.031 C 
ATOM     42  C   UNL A   1      38.162  32.150  33.155  1.00  0.00     0.029 A 
ATOM     43  C   UNL A   1      39.349  31.331  33.388  1.00  0.00     0.049 A 
ATOM     44  H   UNL A   1      40.341  30.123  32.012  1.00  0.00     0.167 HD
ATOM     45  C   UNL A   1      42.138  27.386  29.090  1.00  0.00     0.037 A 
ATOM     46  C   UNL A   1      40.014  31.228  34.556  1.00  0.00     0.037 A 
ATOM     47  C   UNL A   1      42.924  27.230  30.285  1.00  0.00     0.049 A 
ATOM     48  C   UNL A   1      41.192  30.296  34.651  1.00  0.00     0.074 A 
ATOM     49  C   UNL A   1      44.047  26.446  30.485  1.00  0.00     0.029 A 
ATOM     50  N   UNL A   1      42.673  27.881  31.484  1.00  0.00    -0.354 N 
ATOM     51  N   UNL A   1      41.720  29.535  33.724  1.00  0.00    -0.248 NA
ATOM     52  C   UNL A   1      41.858  30.198  35.957  1.00  0.00     0.031 C 
ATOM     53  C   UNL A   1      44.454  26.597  31.814  1.00  0.00     0.029 A 
ATOM     54  C   UNL A   1      43.612  27.509  32.431  1.00  0.00     0.049 A 
ATOM     55  H   UNL A   1      41.935  28.515  31.639  1.00  0.00     0.167 HD
ATOM     56  C   UNL A   1      42.794  28.891  34.322  1.00  0.00     0.074 A 
ATOM     57  C   UNL A   1      42.845  29.351  35.695  1.00  0.00     0.031 C 
ATOM     58  C   UNL A   1      43.659  27.999  33.784  1.00  0.00     0.037 A 
BRANCH  45  59
ATOM     59  C   UNL A   1      42.525  26.595  27.877  1.00  0.00     0.064 A 
ATOM     60  C   UNL A   1      43.480  27.059  26.964  1.00  0.00     0.173 A 
ATOM     61  C   UNL A   1      41.948  25.337  27.644  1.00  0.00     0.173 A 
ATOM     62  F   UNL A   1      44.049  28.262  27.134  1.00  0.00    -0.203 F 
ATOM     63  C   UNL A   1      43.830  26.302  25.848  1.00  0.00     0.198 A 
ATOM     64  C   UNL A   1      42.317  24.571  26.542  1.00  0.00     0.198 A 
ATOM     65  F   UNL A   1      41.030  24.847  28.490  1.00  0.00    -0.203 F 
ATOM     66  F   UNL A   1      44.716  26.783  24.963  1.00  0.00    -0.200 F 
ATOM     67  C   UNL A   1      43.253  25.057  25.641  1.00  0.00     0.200 A 
ATOM     68  F   UNL A   1      41.766  23.365  26.350  1.00  0.00    -0.200 F 
ATOM     69  F   UNL A   1      43.594  24.328  24.570  1.00  0.00    -0.200 F 
ENDBRANCH  45  59
BRANCH  46  70
ATOM     70  C   UNL A   1      39.554  32.002  35.737  1.00  0.00     0.064 A 
ATOM     71  C   UNL A   1      40.118  33.247  36.049  1.00  0.00     0.173 A 
ATOM     72  C   UNL A   1      38.541  31.515  36.577  1.00  0.00     0.173 A 
ATOM     73  F   UNL A   1      41.110  33.741  35.293  1.00  0.00    -0.203 F 
ATOM     74  C   UNL A   1      39.691  33.971  37.161  1.00  0.00     0.198 A 
ATOM     75  C   UNL A   1      38.097  32.252  37.672  1.00  0.00     0.198 A 
ATOM     76  F   UNL A   1      37.974  30.327  36.325  1.00  0.00    -0.203 F 
ATOM     77  F   UNL A   1      40.274  35.141  37.459  1.00  0.00    -0.200 F 
ATOM     78  C   UNL A   1      38.676  33.477  37.966  1.00  0.00     0.200 A 
ATOM     79  F   UNL A   1      37.109  31.775  38.442  1.00  0.00    -0.200 F 
ATOM     80  F   UNL A   1      38.262  34.177  39.031  1.00  0.00    -0.200 F 
ENDBRANCH  46  70
BRANCH  58  81
ATOM     81  C   UNL A   1      44.771  27.500  34.657  1.00  0.00     0.064 A 
ATOM     82  C   UNL A   1      45.989  28.186  34.760  1.00  0.00     0.173 A 
ATOM     83  C   UNL A   1      44.584  26.359  35.452  1.00  0.00     0.173 A 
ATOM     84  F   UNL A   1      46.218  29.273  34.009  1.00  0.00    -0.203 F 
ATOM     85  C   UNL A   1      46.987  27.739  35.623  1.00  0.00     0.198 A 
ATOM     86  C   UNL A   1      45.575  25.929  36.329  1.00  0.00     0.198 A 
ATOM     87  F   UNL A   1      43.432  25.674  35.391  1.00  0.00    -0.203 F 
ATOM     88  F   UNL A   1      48.156  28.392  35.687  1.00  0.00    -0.200 F 
ATOM     89  C   UNL A   1      46.776  26.618  36.413  1.00  0.00     0.200 A 
ATOM     90  F   UNL A   1      45.365  24.853  37.100  1.00  0.00    -0.200 F 
ATOM     91  F   UNL A   1      47.732  26.199  37.252  1.00  0.00    -0.200 F 
ENDBRANCH  58  81
ENDBRANCH  32  33
ENDBRANCH  25  27
ENDBRANCH  24  25
ENDBRANCH  23  24
ENDBRANCH  22  23
ENDBRANCH   1  22
TORSDOF 16
ENDMDL
MODEL 2
REMARK VINA RESULT:     -11.2      2.567      4.515
REMARK SMILES O=C(CSCc1ccc(Cl)s1)Nc1ccsc1C(=O)OCCOC(=O)c1ccc(-c2c3nc(c(-c4c(F)c(F)c(F)c(F)c4F)c4ccc([nH]4)c(-c4c(F)c(F)c(F)c(F)c4F)c4nc(c(-c5c(F)c(F)c(F)c(F)c5F)c5ccc2[nH]5)C=C4)C=C3)cc1
REMARK SMILES IDX 20 1 18 2 19 3 17 4 13 5 14 6 15 7 16 8 12 9 1 10 2 11 3 13
REMARK SMILES IDX 4 14 5 15 6 16 7 17 11 18 8 19 9 20 10 21 21 22 22 23 23 24
REMARK SMILES IDX 24 25 25 26 26 27 27 28 88 29 28 30 87 31 29 32 30 33 31 34
REMARK SMILES IDX 81 35 32 36 86 37 80 38 82 39 33 40 85 41 79 42 78 43 34 45
REMARK SMILES IDX 66 46 46 47 65 48 47 49 50 50 64 51 83 52 48 53 49 54 63 56
REMARK SMILES IDX 84 57 51 58 35 59 36 60 44 61 37 62 38 63 42 64 45 65 39 66
REMARK SMILES IDX 40 67 43 68 41 69 67 70 68 71 76 72 69 73 70 74 74 75 77 76
REMARK SMILES IDX 71 77 72 78 75 79 73 80 52 81 53 82 61 83 54 84 55 85 59 86
REMARK SMILES IDX 62 87 56 88 57 89 60 90 58 91
REMARK H PARENT 12 12 82 44 50 55
REMARK Flexibility Score: inf
ROOT
ATOM      1  O   UNL A   1      31.996  26.585  25.811  1.00  0.00    -0.458 OA
ENDROOT
BRANCH   1   2
ATOM      2  C   UNL A   1      31.052  25.616  26.041  1.00  0.00     0.350 C 
ATOM      3  O   UNL A   1      29.930  25.853  26.464  1.00  0.00    -0.245 OA
BRANCH   2   4
ATOM      4  C   UNL A   1      31.562  24.310  25.641  1.00  0.00     0.136 A 
ATOM      5  C   UNL A   1      31.915  23.804  24.396  1.00  0.00     0.066 A 
ATOM      6  C   UNL A   1      32.193  22.403  24.465  1.00  0.00     0.039 A 
ATOM      7  C   UNL A   1      32.132  21.906  25.745  1.00  0.00     0.068 A 
ATOM      8  S   UNL A   1      31.796  23.130  26.875  1.00  0.00    -0.135 S 
BRANCH   5   9
ATOM      9  N   UNL A   1      31.994  24.604  23.261  1.00  0.00    -0.324 N 
ATOM     10  O   UNL A   1      34.297  24.792  22.997  1.00  0.00    -0.274 OA
ATOM     11  C   UNL A   1      33.149  25.109  22.696  1.00  0.00     0.234 C 
ATOM     12  H   UNL A   1      31.145  24.832  22.817  1.00  0.00     0.170 HD
BRANCH  11  13
ATOM     13  C   UNL A   1      32.891  26.235  21.710  1.00  0.00     0.170 C 
BRANCH  13  14
ATOM     14  S   UNL A   1      32.272  27.764  22.491  1.00  0.00    -0.146 SA
BRANCH  14  15
ATOM     15  C   UNL A   1      30.484  27.437  22.509  1.00  0.00     0.116 C 
BRANCH  15  16
ATOM     16  C   UNL A   1      29.551  28.617  22.531  1.00  0.00     0.016 A 
ATOM     17  C   UNL A   1      28.297  28.645  23.126  1.00  0.00     0.018 A 
ATOM     18  S   UNL A   1      29.950  30.165  21.897  1.00  0.00    -0.128 S 
ATOM     19  C   UNL A   1      27.643  29.904  22.981  1.00  0.00     0.033 A 
ATOM     20  C   UNL A   1      28.430  30.788  22.291  1.00  0.00     0.093 A 
ATOM     21  Cl  UNL A   1      28.020  32.394  21.846  1.00  0.00    -0.072 Cl
ENDBRANCH  15  16
ENDBRANCH  14  15
ENDBRANCH  13  14
ENDBRANCH  11  13
ENDBRANCH   5   9
ENDBRANCH   2   4
ENDBRANCH   1   2
BRANCH   1  22
ATOM     22  C   UNL A   1      32.006  27.706  26.719  1.00  0.00     0.275 C 
BRANCH  22  23
ATOM     23  C   UNL A   1      31.775  29.028  25.979  1.00  0.00     0.275 C 
BRANCH  23  24
ATOM     24  O   UNL A   1      32.995  29.781  25.839  1.00  0.00    -0.458 OA
BRANCH  24  25
ATOM     25  C   UNL A   1      33.166  30.782  26.732  1.00  0.00     0.338 C 
ATOM     26  O   UNL A   1      32.354  31.636  27.045  1.00  0.00    -0.246 OA
BRANCH  25  27
ATOM     27  C   UNL A   1      34.466  30.614  27.404  1.00  0.00     0.060 A 
ATOM     28  C   UNL A   1      34.820  29.332  27.826  1.00  0.00     0.016 A 
ATOM     29  C   UNL A   1      35.301  31.699  27.667  1.00  0.00     0.016 A 
ATOM     30  C   UNL A   1      36.011  29.117  28.513  1.00  0.00     0.010 A 
ATOM     31  C   UNL A   1      36.500  31.485  28.355  1.00  0.00     0.010 A 
ATOM     32  C   UNL A   1      36.860  30.194  28.787  1.00  0.00    -0.014 A 
BRANCH  32  33
ATOM     33  C   UNL A   1      38.097  29.987  29.575  1.00  0.00     0.031 A 
ATOM     34  C   UNL A   1      39.178  29.100  29.034  1.00  0.00     0.074 A 
ATOM     35  C   UNL A   1      38.250  30.587  30.770  1.00  0.00     0.049 A 
ATOM     36  N   UNL A   1      40.247  28.635  29.627  1.00  0.00    -0.248 NA
ATOM     37  C   UNL A   1      39.033  28.679  27.632  1.00  0.00     0.031 C 
ATOM     38  C   UNL A   1      37.307  31.529  31.368  1.00  0.00     0.029 A 
ATOM     39  N   UNL A   1      39.254  30.480  31.700  1.00  0.00    -0.354 N 
ATOM     40  C   UNL A   1      40.883  27.837  28.686  1.00  0.00     0.074 A 
ATOM     41  C   UNL A   1      40.082  27.881  27.481  1.00  0.00     0.031 C 
ATOM     42  C   UNL A   1      37.770  31.907  32.571  1.00  0.00     0.029 A 
ATOM     43  C   UNL A   1      39.010  31.187  32.851  1.00  0.00     0.049 A 
ATOM     44  H   UNL A   1      40.070  29.948  31.556  1.00  0.00     0.167 HD
ATOM     45  C   UNL A   1      42.028  27.127  28.823  1.00  0.00     0.037 A 
ATOM     46  C   UNL A   1      39.686  31.214  34.016  1.00  0.00     0.037 A 
ATOM     47  C   UNL A   1      42.829  27.111  30.018  1.00  0.00     0.049 A 
ATOM     48  C   UNL A   1      40.924  30.370  34.166  1.00  0.00     0.074 A 
ATOM     49  C   UNL A   1      44.002  26.418  30.264  1.00  0.00     0.029 A 
ATOM     50  N   UNL A   1      42.542  27.830  31.169  1.00  0.00    -0.354 N 
ATOM     51  N   UNL A   1      41.495  29.579  33.292  1.00  0.00    -0.248 NA
ATOM     52  C   UNL A   1      41.602  30.412  35.470  1.00  0.00     0.031 C 
ATOM     53  C   UNL A   1      44.406  26.693  31.574  1.00  0.00     0.029 A 
ATOM     54  C   UNL A   1      43.509  27.591  32.131  1.00  0.00     0.049 A 
ATOM     55  H   UNL A   1      41.765  28.425  31.285  1.00  0.00     0.167 HD
ATOM     56  C   UNL A   1      42.612  29.052  33.925  1.00  0.00     0.074 A 
ATOM     57  C   UNL A   1      42.641  29.614  35.259  1.00  0.00     0.031 C 
ATOM     58  C   UNL A   1      43.532  28.181  33.444  1.00  0.00     0.037 A 
BRANCH  45  59
ATOM     59  C   UNL A   1      42.458  26.275  27.668  1.00  0.00     0.064 A 
ATOM     60  C   UNL A   1      43.405  26.719  26.734  1.00  0.00     0.173 A 
ATOM     61  C   UNL A   1      41.935  24.983  27.512  1.00  0.00     0.173 A 
ATOM     62  F   UNL A   1      43.922  27.952  26.830  1.00  0.00    -0.203 F 
ATOM     63  C   UNL A   1      43.796  25.906  25.672  1.00  0.00     0.198 A 
ATOM     64  C   UNL A   1      42.346  24.163  26.464  1.00  0.00     0.198 A 
ATOM     65  F   UNL A   1      41.028  24.512  28.380  1.00  0.00    -0.203 F 
ATOM     66  F   UNL A   1      44.671  26.364  24.766  1.00  0.00    -0.200 F 
ATOM     67  C   UNL A   1      43.272  24.627  25.542  1.00  0.00     0.200 A 
ATOM     68  F   UNL A   1      41.846  22.926  26.347  1.00  0.00    -0.200 F 
ATOM     69  F   UNL A   1      43.653  23.846  24.523  1.00  0.00    -0.200 F 
ENDBRANCH  45  59
BRANCH  46  70
ATOM     70  C   UNL A   1      39.184  32.041  35.142  1.00  0.00     0.064 A 
ATOM     71  C   UNL A   1      38.442  31.470  36.184  1.00  0.00     0.173 A 
ATOM     72  C   UNL A   1      39.437  33.421  35.201  1.00  0.00     0.173 A 
ATOM     73  F   UNL A   1      38.148  30.161  36.157  1.00  0.00    -0.203 F 
ATOM     74  C   UNL A   1      37.965  32.247  37.239  1.00  0.00     0.198 A 
ATOM     75  C   UNL A   1      38.984  34.191  36.269  1.00  0.00     0.198 A 
ATOM     76  F   UNL A   1      40.138  34.016  34.226  1.00  0.00    -0.203 F 
ATOM     77  F   UNL A   1      37.225  31.682  38.202  1.00  0.00    -0.200 F 
ATOM     78  C   UNL A   1      38.243  33.605  37.284  1.00  0.00     0.200 A 
ATOM     79  F   UNL A   1      39.263  35.501  36.314  1.00  0.00    -0.200 F 
ATOM     80  F   UNL A   1      37.791  34.350  38.302  1.00  0.00    -0.200 F 
ENDBRANCH  46  70
BRANCH  58  81
ATOM     81  C   UNL A   1      44.679  27.821  34.339  1.00  0.00     0.064 A 
ATOM     82  C   UNL A   1      44.632  26.701  35.180  1.00  0.00     0.173 A 
ATOM     83  C   UNL A   1      45.864  28.570  34.300  1.00  0.00     0.173 A 
ATOM     84  F   UNL A   1      43.514  25.964  35.262  1.00  0.00    -0.203 F 
ATOM     85  C   UNL A   1      45.731  26.349  35.960  1.00  0.00     0.198 A 
ATOM     86  C   UNL A   1      46.968  28.202  35.063  1.00  0.00     0.198 A 
ATOM     87  F   UNL A   1      45.958  29.647  33.505  1.00  0.00    -0.203 F 
ATOM     88  F   UNL A   1      45.657  25.291  36.779  1.00  0.00    -0.200 F 
ATOM     89  C   UNL A   1      46.900  27.094  35.894  1.00  0.00     0.200 A 
ATOM     90  F   UNL A   1      48.100  28.916  34.990  1.00  0.00    -0.200 F 
ATOM     91  F   UNL A   1      47.960  26.744  36.634  1.00  0.00    -0.200 F 
ENDBRANCH  58  81
ENDBRANCH  32  33
ENDBRANCH  25  27
ENDBRANCH  24  25
ENDBRANCH  23  24
ENDBRANCH  22  23
ENDBRANCH   1  22
TORSDOF 16
ENDMDL
MODEL 3
REMARK VINA RESULT:     -11.1      4.570      9.471
REMARK SMILES O=C(CSCc1ccc(Cl)s1)Nc1ccsc1C(=O)OCCOC(=O)c1ccc(-c2c3nc(c(-c4c(F)c(F)c(F)c(F)c4F)c4ccc([nH]4)c(-c4c(F)c(F)c(F)c(F)c4F)c4nc(c(-c5c(F)c(F)c(F)c(F)c5F)c5ccc2[nH]5)C=C4)C=C3)cc1
REMARK SMILES IDX 20 1 18 2 19 3 17 4 13 5 14 6 15 7 16 8 12 9 1 10 2 11 3 13
REMARK SMILES IDX 4 14 5 15 6 16 7 17 11 18 8 19 9 20 10 21 21 22 22 23 23 24
REMARK SMILES IDX 24 25 25 26 26 27 27 28 88 29 28 30 87 31 29 32 30 33 31 34
REMARK SMILES IDX 81 35 32 36 86 37 80 38 82 39 33 40 85 41 79 42 78 43 34 45
REMARK SMILES IDX 66 46 46 47 65 48 47 49 50 50 64 51 83 52 48 53 49 54 63 56
REMARK SMILES IDX 84 57 51 58 35 59 36 60 44 61 37 62 38 63 42 64 45 65 39 66
REMARK SMILES IDX 40 67 43 68 41 69 67 70 68 71 76 72 69 73 70 74 74 75 77 76
REMARK SMILES IDX 71 77 72 78 75 79 73 80 52 81 53 82 61 83 54 84 55 85 59 86
REMARK SMILES IDX 62 87 56 88 57 89 60 90 58 91
REMARK H PARENT 12 12 82 44 50 55
REMARK Flexibility Score: inf
ROOT
ATOM      1  O   UNL A   1      33.643  33.962  28.676  1.00  0.00    -0.458 OA
ENDROOT
BRANCH   1   2
ATOM      2  C   UNL A   1      33.198  32.945  27.869  1.00  0.00     0.350 C 
ATOM      3  O   UNL A   1      32.118  32.962  27.296  1.00  0.00    -0.245 OA
BRANCH   2   4
ATOM      4  C   UNL A   1      34.220  31.913  27.747  1.00  0.00     0.136 A 
ATOM      5  C   UNL A   1      34.137  30.579  27.368  1.00  0.00     0.066 A 
ATOM      6  C   UNL A   1      35.381  29.903  27.574  1.00  0.00     0.039 A 
ATOM      7  C   UNL A   1      36.381  30.739  28.010  1.00  0.00     0.068 A 
ATOM      8  S   UNL A   1      35.846  32.348  28.122  1.00  0.00    -0.135 S 
BRANCH   5   9
ATOM      9  N   UNL A   1      32.976  30.024  26.842  1.00  0.00    -0.324 N 
ATOM     10  O   UNL A   1      33.822  28.823  25.040  1.00  0.00    -0.274 OA
ATOM     11  C   UNL A   1      32.880  29.271  25.689  1.00  0.00     0.234 C 
ATOM     12  H   UNL A   1      32.141  30.183  27.341  1.00  0.00     0.170 HD
BRANCH  11  13
ATOM     13  C   UNL A   1      31.456  29.131  25.181  1.00  0.00     0.170 C 
BRANCH  13  14
ATOM     14  S   UNL A   1      31.345  28.455  23.489  1.00  0.00    -0.146 SA
BRANCH  14  15
ATOM     15  C   UNL A   1      29.543  28.441  23.246  1.00  0.00     0.116 C 
BRANCH  15  16
ATOM     16  C   UNL A   1      28.873  29.731  22.860  1.00  0.00     0.016 A 
ATOM     17  C   UNL A   1      27.996  30.456  23.654  1.00  0.00     0.018 A 
ATOM     18  S   UNL A   1      29.179  30.565  21.387  1.00  0.00    -0.128 S 
ATOM     19  C   UNL A   1      27.518  31.639  23.015  1.00  0.00     0.033 A 
ATOM     20  C   UNL A   1      28.060  31.773  21.765  1.00  0.00     0.093 A 
ATOM     21  Cl  UNL A   1      27.724  33.016  20.631  1.00  0.00    -0.072 Cl
ENDBRANCH  15  16
ENDBRANCH  14  15
ENDBRANCH  13  14
ENDBRANCH  11  13
ENDBRANCH   5   9
ENDBRANCH   2   4
ENDBRANCH   1   2
BRANCH   1  22
ATOM     22  C   UNL A   1      32.902  35.199  28.626  1.00  0.00     0.275 C 
BRANCH  22  23
ATOM     23  C   UNL A   1      33.099  36.021  29.904  1.00  0.00     0.275 C 
BRANCH  23  24
ATOM     24  O   UNL A   1      32.370  35.464  31.014  1.00  0.00    -0.458 OA
BRANCH  24  25
ATOM     25  C   UNL A   1      32.736  35.915  32.236  1.00  0.00     0.338 C 
ATOM     26  O   UNL A   1      32.173  36.763  32.905  1.00  0.00    -0.246 OA
BRANCH  25  27
ATOM     27  C   UNL A   1      33.870  35.114  32.727  1.00  0.00     0.060 A 
ATOM     28  C   UNL A   1      35.147  35.669  32.636  1.00  0.00     0.016 A 
ATOM     29  C   UNL A   1      33.696  33.821  33.220  1.00  0.00     0.016 A 
ATOM     30  C   UNL A   1      36.265  34.942  33.035  1.00  0.00     0.010 A 
ATOM     31  C   UNL A   1      34.818  33.089  33.624  1.00  0.00     0.010 A 
ATOM     32  C   UNL A   1      36.109  33.643  33.529  1.00  0.00    -0.014 A 
BRANCH  32  33
ATOM     33  C   UNL A   1      37.298  32.837  33.894  1.00  0.00     0.031 A 
ATOM     34  C   UNL A   1      37.979  33.078  35.207  1.00  0.00     0.074 A 
ATOM     35  C   UNL A   1      37.765  31.896  33.052  1.00  0.00     0.049 A 
ATOM     36  N   UNL A   1      39.126  32.627  35.644  1.00  0.00    -0.248 NA
ATOM     37  C   UNL A   1      37.271  33.949  36.158  1.00  0.00     0.031 C 
ATOM     38  C   UNL A   1      37.147  31.516  31.784  1.00  0.00     0.029 A 
ATOM     39  N   UNL A   1      38.879  31.098  33.136  1.00  0.00    -0.354 N 
ATOM     40  C   UNL A   1      39.297  33.187  36.903  1.00  0.00     0.074 A 
ATOM     41  C   UNL A   1      38.135  34.010  37.162  1.00  0.00     0.031 C 
ATOM     42  C   UNL A   1      37.895  30.566  31.200  1.00  0.00     0.029 A 
ATOM     43  C   UNL A   1      39.075  30.316  32.025  1.00  0.00     0.049 A 
ATOM     44  H   UNL A   1      39.479  31.088  33.917  1.00  0.00     0.167 HD
ATOM     45  C   UNL A   1      40.335  33.031  37.757  1.00  0.00     0.037 A 
ATOM     46  C   UNL A   1      40.111  29.522  31.692  1.00  0.00     0.037 A 
ATOM     47  C   UNL A   1      41.474  32.189  37.499  1.00  0.00     0.049 A 
ATOM     48  C   UNL A   1      41.283  29.410  32.631  1.00  0.00     0.074 A 
ATOM     49  C   UNL A   1      42.584  31.968  38.296  1.00  0.00     0.029 A 
ATOM     50  N   UNL A   1      41.643  31.421  36.356  1.00  0.00    -0.354 N 
ATOM     51  N   UNL A   1      41.463  29.979  33.798  1.00  0.00    -0.248 NA
ATOM     52  C   UNL A   1      42.400  28.558  32.200  1.00  0.00     0.031 C 
ATOM     53  C   UNL A   1      43.439  31.093  37.619  1.00  0.00     0.029 A 
ATOM     54  C   UNL A   1      42.843  30.734  36.421  1.00  0.00     0.049 A 
ATOM     55  H   UNL A   1      41.003  31.372  35.609  1.00  0.00     0.167 HD
ATOM     56  C   UNL A   1      42.696  29.534  34.254  1.00  0.00     0.074 A 
ATOM     57  C   UNL A   1      43.222  28.645  33.239  1.00  0.00     0.031 C 
ATOM     58  C   UNL A   1      43.335  29.834  35.410  1.00  0.00     0.037 A 
BRANCH  45  59
ATOM     59  C   UNL A   1      40.309  33.819  39.032  1.00  0.00     0.064 A 
ATOM     60  C   UNL A   1      39.652  33.351  40.178  1.00  0.00     0.173 A 
ATOM     61  C   UNL A   1      40.978  35.049  39.113  1.00  0.00     0.173 A 
ATOM     62  F   UNL A   1      38.985  32.188  40.147  1.00  0.00    -0.203 F 
ATOM     63  C   UNL A   1      39.649  34.097  41.354  1.00  0.00     0.198 A 
ATOM     64  C   UNL A   1      40.994  35.781  40.297  1.00  0.00     0.198 A 
ATOM     65  F   UNL A   1      41.623  35.540  38.044  1.00  0.00    -0.203 F 
ATOM     66  F   UNL A   1      38.980  33.651  42.428  1.00  0.00    -0.200 F 
ATOM     67  C   UNL A   1      40.324  35.308  41.415  1.00  0.00     0.200 A 
ATOM     68  F   UNL A   1      41.655  36.945  40.355  1.00  0.00    -0.200 F 
ATOM     69  F   UNL A   1      40.323  36.022  42.548  1.00  0.00    -0.200 F 
ENDBRANCH  45  59
BRANCH  46  70
ATOM     70  C   UNL A   1      40.101  28.803  30.393  1.00  0.00     0.064 A 
ATOM     71  C   UNL A   1      40.693  29.362  29.252  1.00  0.00     0.173 A 
ATOM     72  C   UNL A   1      39.503  27.540  30.264  1.00  0.00     0.173 A 
ATOM     73  F   UNL A   1      41.252  30.580  29.317  1.00  0.00    -0.203 F 
ATOM     74  C   UNL A   1      40.679  28.690  28.031  1.00  0.00     0.198 A 
ATOM     75  C   UNL A   1      39.514  26.857  29.051  1.00  0.00     0.198 A 
ATOM     76  F   UNL A   1      38.919  26.964  31.325  1.00  0.00    -0.203 F 
ATOM     77  F   UNL A   1      41.218  29.264  26.947  1.00  0.00    -0.200 F 
ATOM     78  C   UNL A   1      40.097  27.435  27.934  1.00  0.00     0.200 A 
ATOM     79  F   UNL A   1      38.959  25.640  28.964  1.00  0.00    -0.200 F 
ATOM     80  F   UNL A   1      40.090  26.786  26.761  1.00  0.00    -0.200 F 
ENDBRANCH  46  70
BRANCH  58  81
ATOM     81  C   UNL A   1      44.647  29.158  35.671  1.00  0.00     0.064 A 
ATOM     82  C   UNL A   1      45.860  29.720  35.252  1.00  0.00     0.173 A 
ATOM     83  C   UNL A   1      44.689  27.967  36.413  1.00  0.00     0.173 A 
ATOM     84  F   UNL A   1      45.867  30.849  34.528  1.00  0.00    -0.203 F 
ATOM     85  C   UNL A   1      47.073  29.107  35.557  1.00  0.00     0.198 A 
ATOM     86  C   UNL A   1      45.904  27.370  36.735  1.00  0.00     0.198 A 
ATOM     87  F   UNL A   1      43.554  27.396  36.841  1.00  0.00    -0.203 F 
ATOM     88  F   UNL A   1      48.221  29.644  35.123  1.00  0.00    -0.200 F 
ATOM     89  C   UNL A   1      47.094  27.938  36.305  1.00  0.00     0.200 A 
ATOM     90  F   UNL A   1      45.924  26.247  37.468  1.00  0.00    -0.200 F 
ATOM     91  F   UNL A   1      48.262  27.358  36.610  1.00  0.00    -0.200 F 
ENDBRANCH  58  81
ENDBRANCH  32  33
ENDBRANCH  25  27
ENDBRANCH  24  25
ENDBRANCH  23  24
ENDBRANCH  22  23
ENDBRANCH   1  22
TORSDOF 16
ENDMDL
