MODEL 1
REMARK VINA RESULT:     -12.2      0.000      0.000
REMARK SMILES Cc1occc1C(=O)N1[C@@H](C(=O)OCCOC(=O)c2ccc(-c3c4nc(c(-c5c(F)c(F)c(F)c(F)c5F)c5ccc([nH]5)c(-c5c(F)c(F)c(F)c(F)c5F)c5nc(c(-c6c(F)c(F)c(F)c(F)c6F)c6ccc3[nH]6)C=C5)C=C4)cc2)C[C@@H]2CCCC[C@H]21
REMARK SMILES IDX 14 1 13 2 11 3 12 4 10 5 9 6 88 7 82 8 83 9 87 10 84 11
REMARK SMILES IDX 86 12 85 13 7 14 8 15 6 16 1 17 2 18 3 19 4 20 5 21 15 22
REMARK SMILES IDX 16 23 17 24 18 25 19 26 20 27 81 28 21 29 80 30 22 31 23 32
REMARK SMILES IDX 24 33 74 34 25 35 79 36 73 37 75 38 26 39 78 40 72 41 71 42
REMARK SMILES IDX 27 44 59 45 39 46 58 47 40 48 43 49 57 50 76 51 41 52 42 53
REMARK SMILES IDX 56 55 77 56 44 57 28 58 29 59 37 60 30 61 31 62 35 63 38 64
REMARK SMILES IDX 32 65 33 66 36 67 34 68 60 69 61 70 69 71 62 72 63 73 67 74
REMARK SMILES IDX 70 75 64 76 65 77 68 78 66 79 45 80 46 81 54 82 47 83 48 84
REMARK SMILES IDX 52 85 55 86 49 87 50 88 53 89 51 90
REMARK H PARENT 75 43 43 54
REMARK Flexibility Score: inf
ROOT
ATOM      1  C   UNL A   1      31.831  28.008  26.883  1.00  0.00     0.274 C 
ENDROOT
BRANCH   1   2
ATOM      2  O   UNL A   1      31.136  26.941  26.204  1.00  0.00    -0.461 OA
BRANCH   2   3
ATOM      3  C   UNL A   1      31.747  25.727  26.229  1.00  0.00     0.329 C 
ATOM      4  O   UNL A   1      31.378  24.778  26.916  1.00  0.00    -0.250 OA
BRANCH   3   5
ATOM      5  C   UNL A   1      33.040  25.686  25.404  1.00  0.00     0.196 C 
ATOM      6  N   UNL A   1      33.095  24.896  24.147  1.00  0.00    -0.321 N 
ATOM      7  C   UNL A   1      34.475  24.429  24.020  1.00  0.00     0.089 C 
ATOM      8  C   UNL A   1      34.232  25.183  26.254  1.00  0.00     0.043 C 
ATOM      9  C   UNL A   1      34.760  23.998  25.456  1.00  0.00     0.014 C 
ATOM     10  C   UNL A   1      34.881  23.333  23.044  1.00  0.00     0.025 C 
ATOM     11  C   UNL A   1      36.208  23.614  25.702  1.00  0.00     0.006 C 
ATOM     12  C   UNL A   1      36.351  22.939  23.266  1.00  0.00     0.002 C 
ATOM     13  C   UNL A   1      36.617  22.519  24.715  1.00  0.00     0.000 C 
BRANCH   6  14
ATOM     14  C   UNL A   1      32.379  25.401  23.069  1.00  0.00     0.258 C 
ATOM     15  O   UNL A   1      31.829  24.632  22.278  1.00  0.00    -0.269 OA
BRANCH  14  16
ATOM     16  C   UNL A   1      32.362  26.843  22.818  1.00  0.00     0.081 A 
ATOM     17  C   UNL A   1      29.866  27.784  22.927  1.00  0.00     0.088 C 
ATOM     18  C   UNL A   1      31.334  27.778  22.769  1.00  0.00     0.113 A 
ATOM     19  O   UNL A   1      31.842  29.029  22.552  1.00  0.00    -0.469 OA
ATOM     20  C   UNL A   1      33.187  28.930  22.520  1.00  0.00     0.196 A 
ATOM     21  C   UNL A   1      33.562  27.623  22.679  1.00  0.00     0.056 A 
ENDBRANCH  14  16
ENDBRANCH   6  14
ENDBRANCH   3   5
ENDBRANCH   2   3
ENDBRANCH   1   2
BRANCH   1  22
ATOM     22  C   UNL A   1      31.712  29.292  26.073  1.00  0.00     0.275 C 
BRANCH  22  23
ATOM     23  O   UNL A   1      33.008  29.913  26.019  1.00  0.00    -0.458 OA
BRANCH  23  24
ATOM     24  C   UNL A   1      33.189  30.952  26.860  1.00  0.00     0.338 C 
ATOM     25  O   UNL A   1      32.429  31.896  27.041  1.00  0.00    -0.246 OA
BRANCH  24  26
ATOM     26  C   UNL A   1      34.470  30.813  27.580  1.00  0.00     0.060 A 
ATOM     27  C   UNL A   1      35.296  31.913  27.821  1.00  0.00     0.016 A 
ATOM     28  C   UNL A   1      34.889  29.536  27.956  1.00  0.00     0.016 A 
ATOM     29  C   UNL A   1      36.551  31.730  28.407  1.00  0.00     0.010 A 
ATOM     30  C   UNL A   1      36.107  29.367  28.620  1.00  0.00     0.010 A 
ATOM     31  C   UNL A   1      36.957  30.461  28.849  1.00  0.00    -0.014 A 
BRANCH  31  32
ATOM     32  C   UNL A   1      38.232  30.268  29.595  1.00  0.00     0.031 A 
ATOM     33  C   UNL A   1      39.342  29.431  29.020  1.00  0.00     0.074 A 
ATOM     34  C   UNL A   1      38.378  30.798  30.826  1.00  0.00     0.049 A 
ATOM     35  N   UNL A   1      40.401  28.940  29.614  1.00  0.00    -0.248 NA
ATOM     36  C   UNL A   1      39.244  29.092  27.593  1.00  0.00     0.031 C 
ATOM     37  C   UNL A   1      37.404  31.658  31.500  1.00  0.00     0.029 A 
ATOM     38  N   UNL A   1      39.401  30.683  31.736  1.00  0.00    -0.354 N 
ATOM     39  C   UNL A   1      41.065  28.190  28.653  1.00  0.00     0.074 A 
ATOM     40  C   UNL A   1      40.296  28.299  27.430  1.00  0.00     0.031 C 
ATOM     41  C   UNL A   1      37.888  32.019  32.697  1.00  0.00     0.029 A 
ATOM     42  C   UNL A   1      39.157  31.338  32.918  1.00  0.00     0.049 A 
ATOM     43  H   UNL A   1      40.227  30.179  31.559  1.00  0.00     0.167 HD
ATOM     44  C   UNL A   1      42.207  27.472  28.784  1.00  0.00     0.037 A 
ATOM     45  C   UNL A   1      39.842  31.349  34.078  1.00  0.00     0.037 A 
ATOM     46  C   UNL A   1      42.995  27.400  29.988  1.00  0.00     0.049 A 
ATOM     47  C   UNL A   1      41.078  30.509  34.213  1.00  0.00     0.074 A 
ATOM     48  C   UNL A   1      44.179  26.714  30.207  1.00  0.00     0.029 A 
ATOM     49  N   UNL A   1      42.687  28.048  31.174  1.00  0.00    -0.354 N 
ATOM     50  N   UNL A   1      41.658  29.745  33.321  1.00  0.00    -0.248 NA
ATOM     51  C   UNL A   1      41.733  30.504  35.528  1.00  0.00     0.031 C 
ATOM     52  C   UNL A   1      44.571  26.924  31.534  1.00  0.00     0.029 A 
ATOM     53  C   UNL A   1      43.650  27.768  32.131  1.00  0.00     0.049 A 
ATOM     54  H   UNL A   1      41.901  28.624  31.316  1.00  0.00     0.167 HD
ATOM     55  C   UNL A   1      42.742  29.167  33.964  1.00  0.00     0.074 A 
ATOM     56  C   UNL A   1      42.754  29.686  35.316  1.00  0.00     0.031 C 
ATOM     57  C   UNL A   1      43.641  28.278  33.478  1.00  0.00     0.037 A 
BRANCH  44  58
ATOM     58  C   UNL A   1      42.670  26.673  27.602  1.00  0.00     0.064 A 
ATOM     59  C   UNL A   1      43.619  27.171  26.699  1.00  0.00     0.173 A 
ATOM     60  C   UNL A   1      42.204  25.361  27.412  1.00  0.00     0.173 A 
ATOM     61  F   UNL A   1      44.085  28.422  26.832  1.00  0.00    -0.203 F 
ATOM     62  C   UNL A   1      44.077  26.389  25.641  1.00  0.00     0.198 A 
ATOM     63  C   UNL A   1      42.680  24.576  26.366  1.00  0.00     0.198 A 
ATOM     64  F   UNL A   1      41.300  24.837  28.253  1.00  0.00    -0.203 F 
ATOM     65  F   UNL A   1      44.965  26.894  24.773  1.00  0.00    -0.200 F 
ATOM     66  C   UNL A   1      43.613  25.091  25.480  1.00  0.00     0.200 A 
ATOM     67  F   UNL A   1      42.239  23.319  26.219  1.00  0.00    -0.200 F 
ATOM     68  F   UNL A   1      44.066  24.338  24.468  1.00  0.00    -0.200 F 
ENDBRANCH  44  58
BRANCH  45  69
ATOM     69  C   UNL A   1      39.333  32.150  35.219  1.00  0.00     0.064 A 
ATOM     70  C   UNL A   1      38.515  31.566  36.194  1.00  0.00     0.173 A 
ATOM     71  C   UNL A   1      39.685  33.499  35.376  1.00  0.00     0.173 A 
ATOM     72  F   UNL A   1      38.132  30.287  36.068  1.00  0.00    -0.203 F 
ATOM     73  C   UNL A   1      38.071  32.302  37.290  1.00  0.00     0.198 A 
ATOM     74  C   UNL A   1      39.264  34.224  36.487  1.00  0.00     0.198 A 
ATOM     75  F   UNL A   1      40.466  34.100  34.467  1.00  0.00    -0.203 F 
ATOM     76  F   UNL A   1      37.271  31.728  38.199  1.00  0.00    -0.200 F 
ATOM     77  C   UNL A   1      38.455  33.626  37.442  1.00  0.00     0.200 A 
ATOM     78  F   UNL A   1      39.649  35.500  36.637  1.00  0.00    -0.200 F 
ATOM     79  F   UNL A   1      38.044  34.327  38.507  1.00  0.00    -0.200 F 
ENDBRANCH  45  69
BRANCH  57  80
ATOM     80  C   UNL A   1      44.713  27.815  34.415  1.00  0.00     0.064 A 
ATOM     81  C   UNL A   1      44.550  26.658  35.190  1.00  0.00     0.173 A 
ATOM     82  C   UNL A   1      45.918  28.523  34.526  1.00  0.00     0.173 A 
ATOM     83  F   UNL A   1      43.406  25.961  35.131  1.00  0.00    -0.203 F 
ATOM     84  C   UNL A   1      45.553  26.235  36.060  1.00  0.00     0.198 A 
ATOM     85  C   UNL A   1      46.926  28.086  35.382  1.00  0.00     0.198 A 
ATOM     86  F   UNL A   1      46.118  29.635  33.804  1.00  0.00    -0.203 F 
ATOM     87  F   UNL A   1      45.363  25.149  36.820  1.00  0.00    -0.200 F 
ATOM     88  C   UNL A   1      46.741  26.947  36.152  1.00  0.00     0.200 A 
ATOM     89  F   UNL A   1      48.074  28.771  35.467  1.00  0.00    -0.200 F 
ATOM     90  F   UNL A   1      47.703  26.540  36.989  1.00  0.00    -0.200 F 
ENDBRANCH  57  80
ENDBRANCH  31  32
ENDBRANCH  24  26
ENDBRANCH  23  24
ENDBRANCH  22  23
ENDBRANCH   1  22
TORSDOF 13
ENDMDL
MODEL 2
REMARK VINA RESULT:     -12.1      4.064      9.494
REMARK SMILES Cc1occc1C(=O)N1[C@@H](C(=O)OCCOC(=O)c2ccc(-c3c4nc(c(-c5c(F)c(F)c(F)c(F)c5F)c5ccc([nH]5)c(-c5c(F)c(F)c(F)c(F)c5F)c5nc(c(-c6c(F)c(F)c(F)c(F)c6F)c6ccc3[nH]6)C=C5)C=C4)cc2)C[C@@H]2CCCC[C@H]21
REMARK SMILES IDX 14 1 13 2 11 3 12 4 10 5 9 6 88 7 82 8 83 9 87 10 84 11
REMARK SMILES IDX 86 12 85 13 7 14 8 15 6 16 1 17 2 18 3 19 4 20 5 21 15 22
REMARK SMILES IDX 16 23 17 24 18 25 19 26 20 27 81 28 21 29 80 30 22 31 23 32
REMARK SMILES IDX 24 33 74 34 25 35 79 36 73 37 75 38 26 39 78 40 72 41 71 42
REMARK SMILES IDX 27 44 59 45 39 46 58 47 40 48 43 49 57 50 76 51 41 52 42 53
REMARK SMILES IDX 56 55 77 56 44 57 28 58 29 59 37 60 30 61 31 62 35 63 38 64
REMARK SMILES IDX 32 65 33 66 36 67 34 68 60 69 61 70 69 71 62 72 63 73 67 74
REMARK SMILES IDX 70 75 64 76 65 77 68 78 66 79 45 80 46 81 54 82 47 83 48 84
REMARK SMILES IDX 52 85 55 86 49 87 50 88 53 89 51 90
REMARK H PARENT 75 43 43 54
REMARK Flexibility Score: inf
ROOT
ATOM      1  C   UNL A   1      35.992  23.067  23.729  1.00  0.00     0.274 C 
ENDROOT
BRANCH   1   2
ATOM      2  O   UNL A   1      34.735  23.052  23.021  1.00  0.00    -0.461 OA
BRANCH   2   3
ATOM      3  C   UNL A   1      34.014  24.204  23.067  1.00  0.00     0.329 C 
ATOM      4  O   UNL A   1      33.661  24.841  22.078  1.00  0.00    -0.250 OA
BRANCH   3   5
ATOM      5  C   UNL A   1      33.789  24.716  24.494  1.00  0.00     0.196 C 
ATOM      6  N   UNL A   1      32.411  24.811  25.040  1.00  0.00    -0.321 N 
ATOM      7  C   UNL A   1      32.419  25.938  25.974  1.00  0.00     0.089 C 
ATOM      8  C   UNL A   1      34.402  26.125  24.688  1.00  0.00     0.043 C 
ATOM      9  C   UNL A   1      33.224  26.959  25.176  1.00  0.00     0.014 C 
ATOM     10  C   UNL A   1      31.140  26.567  26.508  1.00  0.00     0.025 C 
ATOM     11  C   UNL A   1      33.567  28.213  25.959  1.00  0.00     0.006 C 
ATOM     12  C   UNL A   1      31.466  27.832  27.319  1.00  0.00     0.002 C 
ATOM     13  C   UNL A   1      32.282  28.839  26.503  1.00  0.00     0.000 C 
BRANCH   6  14
ATOM     14  C   UNL A   1      31.778  23.609  25.332  1.00  0.00     0.258 C 
ATOM     15  O   UNL A   1      30.568  23.483  25.130  1.00  0.00    -0.269 OA
BRANCH  14  16
ATOM     16  C   UNL A   1      32.530  22.528  25.971  1.00  0.00     0.081 A 
ATOM     17  C   UNL A   1      32.711  20.422  24.341  1.00  0.00     0.088 C 
ATOM     18  C   UNL A   1      32.892  21.255  25.547  1.00  0.00     0.113 A 
ATOM     19  O   UNL A   1      33.651  20.635  26.501  1.00  0.00    -0.469 OA
ATOM     20  C   UNL A   1      33.839  21.509  27.512  1.00  0.00     0.196 A 
ATOM     21  C   UNL A   1      33.182  22.680  27.244  1.00  0.00     0.056 A 
ENDBRANCH  14  16
ENDBRANCH   6  14
ENDBRANCH   3   5
ENDBRANCH   2   3
ENDBRANCH   1   2
BRANCH   1  22
ATOM     22  C   UNL A   1      36.266  21.688  24.313  1.00  0.00     0.275 C 
BRANCH  22  23
ATOM     23  O   UNL A   1      36.833  21.857  25.624  1.00  0.00    -0.458 OA
BRANCH  23  24
ATOM     24  C   UNL A   1      38.121  21.476  25.753  1.00  0.00     0.338 C 
ATOM     25  O   UNL A   1      38.592  20.373  25.507  1.00  0.00    -0.246 OA
BRANCH  24  26
ATOM     26  C   UNL A   1      38.942  22.600  26.245  1.00  0.00     0.060 A 
ATOM     27  C   UNL A   1      40.110  22.384  26.979  1.00  0.00     0.016 A 
ATOM     28  C   UNL A   1      38.489  23.903  26.029  1.00  0.00     0.016 A 
ATOM     29  C   UNL A   1      40.804  23.469  27.523  1.00  0.00     0.010 A 
ATOM     30  C   UNL A   1      39.232  24.988  26.501  1.00  0.00     0.010 A 
ATOM     31  C   UNL A   1      40.397  24.786  27.259  1.00  0.00    -0.014 A 
BRANCH  31  32
ATOM     32  C   UNL A   1      41.198  25.955  27.718  1.00  0.00     0.031 A 
ATOM     33  C   UNL A   1      40.577  27.027  28.572  1.00  0.00     0.074 A 
ATOM     34  C   UNL A   1      42.478  26.091  27.318  1.00  0.00     0.049 A 
ATOM     35  N   UNL A   1      41.024  28.226  28.850  1.00  0.00    -0.248 NA
ATOM     36  C   UNL A   1      39.278  26.714  29.186  1.00  0.00     0.031 C 
ATOM     37  C   UNL A   1      43.224  25.120  26.517  1.00  0.00     0.029 A 
ATOM     38  N   UNL A   1      43.377  27.109  27.523  1.00  0.00    -0.354 N 
ATOM     39  C   UNL A   1      40.041  28.831  29.621  1.00  0.00     0.074 A 
ATOM     40  C   UNL A   1      38.976  27.863  29.779  1.00  0.00     0.031 C 
ATOM     41  C   UNL A   1      44.473  25.570  26.328  1.00  0.00     0.029 A 
ATOM     42  C   UNL A   1      44.586  26.904  26.906  1.00  0.00     0.049 A 
ATOM     43  H   UNL A   1      43.174  27.909  28.060  1.00  0.00     0.167 HD
ATOM     44  C   UNL A   1      40.029  30.082  30.142  1.00  0.00     0.037 A 
ATOM     45  C   UNL A   1      45.653  27.714  26.764  1.00  0.00     0.037 A 
ATOM     46  C   UNL A   1      41.109  31.029  30.022  1.00  0.00     0.049 A 
ATOM     47  C   UNL A   1      45.597  29.110  27.309  1.00  0.00     0.074 A 
ATOM     48  C   UNL A   1      41.194  32.313  30.536  1.00  0.00     0.029 A 
ATOM     49  N   UNL A   1      42.299  30.791  29.352  1.00  0.00    -0.354 N 
ATOM     50  N   UNL A   1      44.634  29.698  27.975  1.00  0.00    -0.248 NA
ATOM     51  C   UNL A   1      46.762  29.968  27.051  1.00  0.00     0.031 C 
ATOM     52  C   UNL A   1      42.423  32.862  30.152  1.00  0.00     0.029 A 
ATOM     53  C   UNL A   1      43.117  31.907  29.428  1.00  0.00     0.049 A 
ATOM     54  H   UNL A   1      42.529  29.952  28.891  1.00  0.00     0.167 HD
ATOM     55  C   UNL A   1      45.073  30.992  28.212  1.00  0.00     0.074 A 
ATOM     56  C   UNL A   1      46.399  31.098  27.640  1.00  0.00     0.031 C 
ATOM     57  C   UNL A   1      44.428  32.004  28.841  1.00  0.00     0.037 A 
BRANCH  44  58
ATOM     58  C   UNL A   1      38.795  30.524  30.871  1.00  0.00     0.064 A 
ATOM     59  C   UNL A   1      38.697  30.454  32.267  1.00  0.00     0.173 A 
ATOM     60  C   UNL A   1      37.723  31.090  30.163  1.00  0.00     0.173 A 
ATOM     61  F   UNL A   1      39.690  29.910  32.987  1.00  0.00    -0.203 F 
ATOM     62  C   UNL A   1      37.564  30.923  32.929  1.00  0.00     0.198 A 
ATOM     63  C   UNL A   1      36.601  31.577  30.829  1.00  0.00     0.198 A 
ATOM     64  F   UNL A   1      37.771  31.185  28.826  1.00  0.00    -0.203 F 
ATOM     65  F   UNL A   1      37.478  30.821  34.262  1.00  0.00    -0.200 F 
ATOM     66  C   UNL A   1      36.522  31.490  32.210  1.00  0.00     0.200 A 
ATOM     67  F   UNL A   1      35.600  32.135  30.133  1.00  0.00    -0.200 F 
ATOM     68  F   UNL A   1      35.438  31.952  32.850  1.00  0.00    -0.200 F 
ENDBRANCH  44  58
BRANCH  45  69
ATOM     69  C   UNL A   1      46.844  27.228  26.024  1.00  0.00     0.064 A 
ATOM     70  C   UNL A   1      47.002  27.506  24.661  1.00  0.00     0.173 A 
ATOM     71  C   UNL A   1      47.863  26.513  26.672  1.00  0.00     0.173 A 
ATOM     72  F   UNL A   1      46.041  28.164  23.997  1.00  0.00    -0.203 F 
ATOM     73  C   UNL A   1      48.140  27.091  23.972  1.00  0.00     0.198 A 
ATOM     74  C   UNL A   1      49.011  26.124  25.989  1.00  0.00     0.198 A 
ATOM     75  F   UNL A   1      47.755  26.223  27.976  1.00  0.00    -0.203 F 
ATOM     76  F   UNL A   1      48.258  27.350  22.663  1.00  0.00    -0.200 F 
ATOM     77  C   UNL A   1      49.148  26.411  24.639  1.00  0.00     0.200 A 
ATOM     78  F   UNL A   1      49.990  25.479  26.640  1.00  0.00    -0.200 F 
ATOM     79  F   UNL A   1      50.251  26.030  23.980  1.00  0.00    -0.200 F 
ENDBRANCH  45  69
BRANCH  57  80
ATOM     80  C   UNL A   1      45.153  33.310  28.944  1.00  0.00     0.064 A 
ATOM     81  C   UNL A   1      46.014  33.581  30.017  1.00  0.00     0.173 A 
ATOM     82  C   UNL A   1      45.001  34.291  27.954  1.00  0.00     0.173 A 
ATOM     83  F   UNL A   1      46.175  32.680  30.997  1.00  0.00    -0.203 F 
ATOM     84  C   UNL A   1      46.683  34.799  30.105  1.00  0.00     0.198 A 
ATOM     85  C   UNL A   1      45.687  35.499  28.035  1.00  0.00     0.198 A 
ATOM     86  F   UNL A   1      44.188  34.076  26.908  1.00  0.00    -0.203 F 
ATOM     87  F   UNL A   1      47.471  35.054  31.158  1.00  0.00    -0.200 F 
ATOM     88  C   UNL A   1      46.523  35.755  29.111  1.00  0.00     0.200 A 
ATOM     89  F   UNL A   1      45.535  36.421  27.073  1.00  0.00    -0.200 F 
ATOM     90  F   UNL A   1      47.166  36.927  29.198  1.00  0.00    -0.200 F 
ENDBRANCH  57  80
ENDBRANCH  31  32
ENDBRANCH  24  26
ENDBRANCH  23  24
ENDBRANCH  22  23
ENDBRANCH   1  22
TORSDOF 13
ENDMDL
MODEL 3
REMARK VINA RESULT:     -12.1      0.418      1.768
REMARK SMILES Cc1occc1C(=O)N1[C@@H](C(=O)OCCOC(=O)c2ccc(-c3c4nc(c(-c5c(F)c(F)c(F)c(F)c5F)c5ccc([nH]5)c(-c5c(F)c(F)c(F)c(F)c5F)c5nc(c(-c6c(F)c(F)c(F)c(F)c6F)c6ccc3[nH]6)C=C5)C=C4)cc2)C[C@@H]2CCCC[C@H]21
REMARK SMILES IDX 14 1 13 2 11 3 12 4 10 5 9 6 88 7 82 8 83 9 87 10 84 11
REMARK SMILES IDX 86 12 85 13 7 14 8 15 6 16 1 17 2 18 3 19 4 20 5 21 15 22
REMARK SMILES IDX 16 23 17 24 18 25 19 26 20 27 81 28 21 29 80 30 22 31 23 32
REMARK SMILES IDX 24 33 74 34 25 35 79 36 73 37 75 38 26 39 78 40 72 41 71 42
REMARK SMILES IDX 27 44 59 45 39 46 58 47 40 48 43 49 57 50 76 51 41 52 42 53
REMARK SMILES IDX 56 55 77 56 44 57 28 58 29 59 37 60 30 61 31 62 35 63 38 64
REMARK SMILES IDX 32 65 33 66 36 67 34 68 60 69 61 70 69 71 62 72 63 73 67 74
REMARK SMILES IDX 70 75 64 76 65 77 68 78 66 79 45 80 46 81 54 82 47 83 48 84
REMARK SMILES IDX 52 85 55 86 49 87 50 88 53 89 51 90
REMARK H PARENT 75 43 43 54
REMARK Flexibility Score: inf
ROOT
ATOM      1  C   UNL A   1      32.043  27.949  27.146  1.00  0.00     0.274 C 
ENDROOT
BRANCH   1   2
ATOM      2  O   UNL A   1      31.083  26.915  26.845  1.00  0.00    -0.461 OA
BRANCH   2   3
ATOM      3  C   UNL A   1      31.598  25.679  26.608  1.00  0.00     0.329 C 
ATOM      4  O   UNL A   1      31.310  24.673  27.250  1.00  0.00    -0.250 OA
BRANCH   3   5
ATOM      5  C   UNL A   1      32.690  25.679  25.531  1.00  0.00     0.196 C 
ATOM      6  N   UNL A   1      32.529  24.847  24.311  1.00  0.00    -0.321 N 
ATOM      7  C   UNL A   1      33.878  24.451  23.907  1.00  0.00     0.089 C 
ATOM      8  C   UNL A   1      34.061  25.272  26.123  1.00  0.00     0.043 C 
ATOM      9  C   UNL A   1      34.482  24.089  25.260  1.00  0.00     0.014 C 
ATOM     10  C   UNL A   1      34.136  23.344  22.894  1.00  0.00     0.025 C 
ATOM     11  C   UNL A   1      35.970  23.793  25.205  1.00  0.00     0.006 C 
ATOM     12  C   UNL A   1      35.641  23.038  22.810  1.00  0.00     0.002 C 
ATOM     13  C   UNL A   1      36.229  22.687  24.181  1.00  0.00     0.000 C 
BRANCH   6  14
ATOM     14  C   UNL A   1      31.574  25.273  23.395  1.00  0.00     0.258 C 
ATOM     15  O   UNL A   1      30.950  24.448  22.724  1.00  0.00    -0.269 OA
BRANCH  14  16
ATOM     16  C   UNL A   1      31.381  26.704  23.158  1.00  0.00     0.081 A 
ATOM     17  C   UNL A   1      33.665  27.839  22.370  1.00  0.00     0.088 C 
ATOM     18  C   UNL A   1      32.242  27.714  22.743  1.00  0.00     0.113 A 
ATOM     19  O   UNL A   1      31.563  28.895  22.617  1.00  0.00    -0.469 OA
ATOM     20  C   UNL A   1      30.262  28.654  22.884  1.00  0.00     0.196 A 
ATOM     21  C   UNL A   1      30.091  27.337  23.217  1.00  0.00     0.056 A 
ENDBRANCH  14  16
ENDBRANCH   6  14
ENDBRANCH   3   5
ENDBRANCH   2   3
ENDBRANCH   1   2
BRANCH   1  22
ATOM     22  C   UNL A   1      31.773  29.167  26.273  1.00  0.00     0.275 C 
BRANCH  22  23
ATOM     23  O   UNL A   1      33.014  29.865  26.074  1.00  0.00    -0.458 OA
BRANCH  23  24
ATOM     24  C   UNL A   1      33.222  30.923  26.886  1.00  0.00     0.338 C 
ATOM     25  O   UNL A   1      32.493  31.896  27.031  1.00  0.00    -0.246 OA
BRANCH  24  26
ATOM     26  C   UNL A   1      34.491  30.763  27.622  1.00  0.00     0.060 A 
ATOM     27  C   UNL A   1      35.303  31.858  27.925  1.00  0.00     0.016 A 
ATOM     28  C   UNL A   1      34.915  29.473  27.951  1.00  0.00     0.016 A 
ATOM     29  C   UNL A   1      36.549  31.659  28.526  1.00  0.00     0.010 A 
ATOM     30  C   UNL A   1      36.122  29.286  28.629  1.00  0.00     0.010 A 
ATOM     31  C   UNL A   1      36.958  30.376  28.921  1.00  0.00    -0.014 A 
BRANCH  31  32
ATOM     32  C   UNL A   1      38.222  30.161  29.681  1.00  0.00     0.031 A 
ATOM     33  C   UNL A   1      39.301  29.261  29.144  1.00  0.00     0.074 A 
ATOM     34  C   UNL A   1      38.382  30.730  30.893  1.00  0.00     0.049 A 
ATOM     35  N   UNL A   1      40.337  28.750  29.762  1.00  0.00    -0.248 NA
ATOM     36  C   UNL A   1      39.196  28.873  27.729  1.00  0.00     0.031 C 
ATOM     37  C   UNL A   1      37.439  31.652  31.529  1.00  0.00     0.029 A 
ATOM     38  N   UNL A   1      39.395  30.609  31.813  1.00  0.00    -0.354 N 
ATOM     39  C   UNL A   1      40.975  27.941  28.833  1.00  0.00     0.074 A 
ATOM     40  C   UNL A   1      40.217  28.034  27.602  1.00  0.00     0.031 C 
ATOM     41  C   UNL A   1      37.932  32.037  32.715  1.00  0.00     0.029 A 
ATOM     42  C   UNL A   1      39.173  31.316  32.968  1.00  0.00     0.049 A 
ATOM     43  H   UNL A   1      40.202  30.067  31.658  1.00  0.00     0.167 HD
ATOM     44  C   UNL A   1      42.087  27.184  28.997  1.00  0.00     0.037 A 
ATOM     45  C   UNL A   1      39.852  31.343  34.130  1.00  0.00     0.037 A 
ATOM     46  C   UNL A   1      42.867  27.126  30.208  1.00  0.00     0.049 A 
ATOM     47  C   UNL A   1      41.053  30.461  34.304  1.00  0.00     0.074 A 
ATOM     48  C   UNL A   1      44.021  26.403  30.459  1.00  0.00     0.029 A 
ATOM     49  N   UNL A   1      42.579  27.829  31.367  1.00  0.00    -0.354 N 
ATOM     50  N   UNL A   1      41.607  29.643  33.444  1.00  0.00    -0.248 NA
ATOM     51  C   UNL A   1      41.701  30.479  35.623  1.00  0.00     0.031 C 
ATOM     52  C   UNL A   1      44.416  26.646  31.780  1.00  0.00     0.029 A 
ATOM     53  C   UNL A   1      43.525  27.547  32.340  1.00  0.00     0.049 A 
ATOM     54  H   UNL A   1      41.815  28.440  31.483  1.00  0.00     0.167 HD
ATOM     55  C   UNL A   1      42.665  29.046  34.114  1.00  0.00     0.074 A 
ATOM     56  C   UNL A   1      42.690  29.614  35.447  1.00  0.00     0.031 C 
ATOM     57  C   UNL A   1      43.530  28.107  33.666  1.00  0.00     0.037 A 
BRANCH  44  58
ATOM     58  C   UNL A   1      42.524  26.324  27.848  1.00  0.00     0.064 A 
ATOM     59  C   UNL A   1      41.933  25.080  27.589  1.00  0.00     0.173 A 
ATOM     60  C   UNL A   1      43.502  26.788  26.953  1.00  0.00     0.173 A 
ATOM     61  F   UNL A   1      41.003  24.589  28.422  1.00  0.00    -0.203 F 
ATOM     62  C   UNL A   1      42.314  24.324  26.483  1.00  0.00     0.198 A 
ATOM     63  C   UNL A   1      43.865  26.039  25.837  1.00  0.00     0.198 A 
ATOM     64  F   UNL A   1      44.093  27.975  27.154  1.00  0.00    -0.203 F 
ATOM     65  F   UNL A   1      41.756  23.124  26.269  1.00  0.00    -0.200 F 
ATOM     66  C   UNL A   1      43.274  24.807  25.605  1.00  0.00     0.200 A 
ATOM     67  F   UNL A   1      44.784  26.513  24.984  1.00  0.00    -0.200 F 
ATOM     68  F   UNL A   1      43.629  24.082  24.534  1.00  0.00    -0.200 F 
ENDBRANCH  44  58
BRANCH  45  69
ATOM     69  C   UNL A   1      39.370  32.205  35.238  1.00  0.00     0.064 A 
ATOM     70  C   UNL A   1      38.552  31.682  36.247  1.00  0.00     0.173 A 
ATOM     71  C   UNL A   1      39.747  33.553  35.330  1.00  0.00     0.173 A 
ATOM     72  F   UNL A   1      38.145  30.405  36.185  1.00  0.00    -0.203 F 
ATOM     73  C   UNL A   1      38.133  32.475  37.313  1.00  0.00     0.198 A 
ATOM     74  C   UNL A   1      39.350  34.336  36.410  1.00  0.00     0.198 A 
ATOM     75  F   UNL A   1      40.529  34.097  34.386  1.00  0.00    -0.203 F 
ATOM     76  F   UNL A   1      37.332  31.958  38.255  1.00  0.00    -0.200 F 
ATOM     77  C   UNL A   1      38.542  33.798  37.399  1.00  0.00     0.200 A 
ATOM     78  F   UNL A   1      39.760  35.610  36.497  1.00  0.00    -0.200 F 
ATOM     79  F   UNL A   1      38.154  34.554  38.435  1.00  0.00    -0.200 F 
ENDBRANCH  45  69
BRANCH  57  80
ATOM     80  C   UNL A   1      44.579  27.637  34.627  1.00  0.00     0.064 A 
ATOM     81  C   UNL A   1      45.809  28.300  34.741  1.00  0.00     0.173 A 
ATOM     82  C   UNL A   1      44.346  26.528  35.452  1.00  0.00     0.173 A 
ATOM     83  F   UNL A   1      46.083  29.354  33.959  1.00  0.00    -0.203 F 
ATOM     84  C   UNL A   1      46.778  27.856  35.637  1.00  0.00     0.198 A 
ATOM     85  C   UNL A   1      45.309  26.099  36.360  1.00  0.00     0.198 A 
ATOM     86  F   UNL A   1      43.183  25.862  35.378  1.00  0.00    -0.203 F 
ATOM     87  F   UNL A   1      47.962  28.480  35.704  1.00  0.00    -0.200 F 
ATOM     88  C   UNL A   1      46.526  26.759  36.449  1.00  0.00     0.200 A 
ATOM     89  F   UNL A   1      45.064  25.042  37.146  1.00  0.00    -0.200 F 
ATOM     90  F   UNL A   1      47.460  26.332  37.309  1.00  0.00    -0.200 F 
ENDBRANCH  57  80
ENDBRANCH  31  32
ENDBRANCH  24  26
ENDBRANCH  23  24
ENDBRANCH  22  23
ENDBRANCH   1  22
TORSDOF 13
ENDMDL
