MODEL 1
REMARK VINA RESULT:     -10.8      0.000      0.000
REMARK SMILES COc1ccc(CN(CC(=O)OCCOC(=O)c2ccc(-c3c4nc(c(-c5c(F)c(F)c(F)c(F)c5F)c5ccc([nH]5)c(-c5c(F)c(F)c(F)c(F)c5F)c5nc(c(-c6c(F)c(F)c(F)c(F)c6F)c6ccc3[nH]6)C=C5)C=C4)cc2)N=O)cc1
REMARK SMILES IDX 13 1 12 2 10 3 11 4 9 5 8 6 7 7 6 8 3 9 4 10 84 11 5 12
REMARK SMILES IDX 83 13 2 14 1 15 81 16 82 17 14 18 15 19 16 20 17 21 18 22
REMARK SMILES IDX 19 23 80 24 20 25 79 26 21 27 22 28 23 29 73 30 24 31 78 32
REMARK SMILES IDX 72 33 74 34 25 35 77 36 71 37 70 38 26 40 58 41 38 42 57 43
REMARK SMILES IDX 39 44 42 45 56 46 75 47 40 48 41 49 55 51 76 52 43 53 27 54
REMARK SMILES IDX 28 55 36 56 29 57 30 58 34 59 37 60 31 61 32 62 35 63 33 64
REMARK SMILES IDX 59 65 60 66 68 67 61 68 62 69 66 70 69 71 63 72 64 73 67 74
REMARK SMILES IDX 65 75 44 76 45 77 53 78 46 79 47 80 51 81 54 82 48 83 49 84
REMARK SMILES IDX 52 85 50 86
REMARK H PARENT 74 39 42 50
REMARK Flexibility Score: inf
ROOT
ATOM      1  C   UNL A   1      31.483  29.501  24.545  1.00  0.00     0.274 C 
ENDROOT
BRANCH   1   2
ATOM      2  O   UNL A   1      31.755  28.153  24.972  1.00  0.00    -0.461 OA
BRANCH   2   3
ATOM      3  C   UNL A   1      32.695  27.470  24.258  1.00  0.00     0.327 C 
ATOM      4  O   UNL A   1      33.905  27.668  24.331  1.00  0.00    -0.250 OA
BRANCH   3   5
ATOM      5  C   UNL A   1      32.091  26.487  23.265  1.00  0.00     0.264 C 
BRANCH   5   6
ATOM      6  N   UNL A   1      33.123  25.701  22.584  1.00  0.00    -0.245 NA
BRANCH   6   7
ATOM      7  C   UNL A   1      33.249  24.314  23.023  1.00  0.00     0.178 C 
BRANCH   7   8
ATOM      8  C   UNL A   1      34.547  23.958  23.725  1.00  0.00    -0.027 A 
ATOM      9  C   UNL A   1      36.907  23.299  25.106  1.00  0.00     0.118 A 
ATOM     10  C   UNL A   1      36.737  22.907  23.779  1.00  0.00     0.047 A 
ATOM     11  C   UNL A   1      35.918  24.051  25.736  1.00  0.00     0.047 A 
ATOM     12  C   UNL A   1      35.558  23.219  23.095  1.00  0.00     0.009 A 
ATOM     13  C   UNL A   1      34.745  24.374  25.050  1.00  0.00     0.009 A 
BRANCH   9  14
ATOM     14  O   UNL A   1      38.090  22.936  25.690  1.00  0.00    -0.497 OA
ATOM     15  C   UNL A   1      38.406  21.553  25.563  1.00  0.00     0.278 C 
ENDBRANCH   9  14
ENDBRANCH   7   8
ENDBRANCH   6   7
BRANCH   6  16
ATOM     16  N   UNL A   1      33.501  25.952  21.353  1.00  0.00     0.053 NA
ATOM     17  O   UNL A   1      33.240  25.040  20.567  1.00  0.00    -0.125 OA
ENDBRANCH   6  16
ENDBRANCH   5   6
ENDBRANCH   3   5
ENDBRANCH   2   3
ENDBRANCH   1   2
BRANCH   1  18
ATOM     18  C   UNL A   1      31.548  30.452  25.736  1.00  0.00     0.275 C 
BRANCH  18  19
ATOM     19  O   UNL A   1      32.823  30.304  26.382  1.00  0.00    -0.458 OA
BRANCH  19  20
ATOM     20  C   UNL A   1      33.258  31.380  27.074  1.00  0.00     0.338 C 
ATOM     21  O   UNL A   1      32.740  32.481  27.138  1.00  0.00    -0.246 OA
BRANCH  20  22
ATOM     22  C   UNL A   1      34.555  31.055  27.694  1.00  0.00     0.060 A 
ATOM     23  C   UNL A   1      34.877  29.747  28.068  1.00  0.00     0.016 A 
ATOM     24  C   UNL A   1      35.439  32.100  27.959  1.00  0.00     0.016 A 
ATOM     25  C   UNL A   1      36.059  29.489  28.763  1.00  0.00     0.010 A 
ATOM     26  C   UNL A   1      36.652  31.831  28.590  1.00  0.00     0.010 A 
ATOM     27  C   UNL A   1      36.960  30.530  29.021  1.00  0.00    -0.014 A 
BRANCH  27  28
ATOM     28  C   UNL A   1      38.217  30.292  29.771  1.00  0.00     0.031 A 
ATOM     29  C   UNL A   1      39.265  29.388  29.190  1.00  0.00     0.074 A 
ATOM     30  C   UNL A   1      38.393  30.838  30.988  1.00  0.00     0.049 A 
ATOM     31  N   UNL A   1      40.320  28.864  29.763  1.00  0.00    -0.248 NA
ATOM     32  C   UNL A   1      39.096  29.010  27.779  1.00  0.00     0.031 C 
ATOM     33  C   UNL A   1      37.470  31.764  31.644  1.00  0.00     0.029 A 
ATOM     34  N   UNL A   1      39.404  30.668  31.902  1.00  0.00    -0.354 N 
ATOM     35  C   UNL A   1      40.912  28.062  28.797  1.00  0.00     0.074 A 
ATOM     36  C   UNL A   1      40.101  28.164  27.603  1.00  0.00     0.031 C 
ATOM     37  C   UNL A   1      37.951  32.076  32.857  1.00  0.00     0.029 A 
ATOM     38  C   UNL A   1      39.180  31.323  33.089  1.00  0.00     0.049 A 
ATOM     39  H   UNL A   1      40.209  30.132  31.724  1.00  0.00     0.167 HD
ATOM     40  C   UNL A   1      42.032  27.308  28.904  1.00  0.00     0.037 A 
ATOM     41  C   UNL A   1      39.864  31.283  34.247  1.00  0.00     0.037 A 
ATOM     42  C   UNL A   1      42.854  27.241  30.083  1.00  0.00     0.049 A 
ATOM     43  C   UNL A   1      41.084  30.409  34.353  1.00  0.00     0.074 A 
ATOM     44  C   UNL A   1      44.022  26.526  30.282  1.00  0.00     0.029 A 
ATOM     45  N   UNL A   1      42.596  27.924  31.262  1.00  0.00    -0.354 N 
ATOM     46  N   UNL A   1      41.626  29.634  33.446  1.00  0.00    -0.248 NA
ATOM     47  C   UNL A   1      41.779  30.396  35.647  1.00  0.00     0.031 C 
ATOM     48  C   UNL A   1      44.454  26.751  31.594  1.00  0.00     0.029 A 
ATOM     49  C   UNL A   1      43.576  27.637  32.198  1.00  0.00     0.049 A 
ATOM     50  H   UNL A   1      41.830  28.523  31.412  1.00  0.00     0.167 HD
ATOM     51  C   UNL A   1      42.736  29.059  34.049  1.00  0.00     0.074 A 
ATOM     52  C   UNL A   1      42.794  29.580  35.400  1.00  0.00     0.031 C 
ATOM     53  C   UNL A   1      43.624  28.177  33.532  1.00  0.00     0.037 A 
BRANCH  40  54
ATOM     54  C   UNL A   1      42.421  26.471  27.721  1.00  0.00     0.064 A 
ATOM     55  C   UNL A   1      43.392  26.894  26.803  1.00  0.00     0.173 A 
ATOM     56  C   UNL A   1      41.838  25.209  27.529  1.00  0.00     0.173 A 
ATOM     57  F   UNL A   1      43.969  28.097  26.938  1.00  0.00    -0.203 F 
ATOM     58  C   UNL A   1      43.753  26.091  25.724  1.00  0.00     0.198 A 
ATOM     59  C   UNL A   1      42.219  24.398  26.463  1.00  0.00     0.198 A 
ATOM     60  F   UNL A   1      40.908  24.756  28.383  1.00  0.00    -0.203 F 
ATOM     61  F   UNL A   1      44.658  26.528  24.838  1.00  0.00    -0.200 F 
ATOM     62  C   UNL A   1      43.172  24.842  25.559  1.00  0.00     0.200 A 
ATOM     63  F   UNL A   1      41.665  23.187  26.313  1.00  0.00    -0.200 F 
ATOM     64  F   UNL A   1      43.527  24.067  24.525  1.00  0.00    -0.200 F 
ENDBRANCH  40  54
BRANCH  41  65
ATOM     65  C   UNL A   1      39.389  32.075  35.409  1.00  0.00     0.064 A 
ATOM     66  C   UNL A   1      38.515  31.516  36.351  1.00  0.00     0.173 A 
ATOM     67  C   UNL A   1      39.806  33.400  35.606  1.00  0.00     0.173 A 
ATOM     68  F   UNL A   1      38.070  30.262  36.189  1.00  0.00    -0.203 F 
ATOM     69  C   UNL A   1      38.068  32.257  37.443  1.00  0.00     0.198 A 
ATOM     70  C   UNL A   1      39.379  34.130  36.714  1.00  0.00     0.198 A 
ATOM     71  F   UNL A   1      40.642  33.979  34.733  1.00  0.00    -0.203 F 
ATOM     72  F   UNL A   1      37.204  31.712  38.311  1.00  0.00    -0.200 F 
ATOM     73  C   UNL A   1      38.506  33.560  37.627  1.00  0.00     0.200 A 
ATOM     74  F   UNL A   1      39.814  35.384  36.895  1.00  0.00    -0.200 F 
ATOM     75  F   UNL A   1      38.082  34.268  38.682  1.00  0.00    -0.200 F 
ENDBRANCH  41  65
BRANCH  53  76
ATOM     76  C   UNL A   1      44.760  27.751  34.412  1.00  0.00     0.064 A 
ATOM     77  C   UNL A   1      44.677  26.605  35.215  1.00  0.00     0.173 A 
ATOM     78  C   UNL A   1      45.963  28.474  34.413  1.00  0.00     0.173 A 
ATOM     79  F   UNL A   1      43.541  25.893  35.257  1.00  0.00    -0.203 F 
ATOM     80  C   UNL A   1      45.755  26.204  36.000  1.00  0.00     0.198 A 
ATOM     81  C   UNL A   1      47.045  28.057  35.182  1.00  0.00     0.198 A 
ATOM     82  F   UNL A   1      46.091  29.575  33.659  1.00  0.00    -0.203 F 
ATOM     83  F   UNL A   1      45.643  25.125  36.787  1.00  0.00    -0.200 F 
ATOM     84  C   UNL A   1      46.939  26.926  35.978  1.00  0.00     0.200 A 
ATOM     85  F   UNL A   1      48.192  28.750  35.153  1.00  0.00    -0.200 F 
ATOM     86  F   UNL A   1      47.977  26.535  36.729  1.00  0.00    -0.200 F 
ENDBRANCH  53  76
ENDBRANCH  27  28
ENDBRANCH  20  22
ENDBRANCH  19  20
ENDBRANCH  18  19
ENDBRANCH   1  18
TORSDOF 16
ENDMDL
MODEL 2
REMARK VINA RESULT:     -10.7      0.467      1.703
REMARK SMILES COc1ccc(CN(CC(=O)OCCOC(=O)c2ccc(-c3c4nc(c(-c5c(F)c(F)c(F)c(F)c5F)c5ccc([nH]5)c(-c5c(F)c(F)c(F)c(F)c5F)c5nc(c(-c6c(F)c(F)c(F)c(F)c6F)c6ccc3[nH]6)C=C5)C=C4)cc2)N=O)cc1
REMARK SMILES IDX 13 1 12 2 10 3 11 4 9 5 8 6 7 7 6 8 3 9 4 10 84 11 5 12
REMARK SMILES IDX 83 13 2 14 1 15 81 16 82 17 14 18 15 19 16 20 17 21 18 22
REMARK SMILES IDX 19 23 80 24 20 25 79 26 21 27 22 28 23 29 73 30 24 31 78 32
REMARK SMILES IDX 72 33 74 34 25 35 77 36 71 37 70 38 26 40 58 41 38 42 57 43
REMARK SMILES IDX 39 44 42 45 56 46 75 47 40 48 41 49 55 51 76 52 43 53 27 54
REMARK SMILES IDX 28 55 36 56 29 57 30 58 34 59 37 60 31 61 32 62 35 63 33 64
REMARK SMILES IDX 59 65 60 66 68 67 61 68 62 69 66 70 69 71 63 72 64 73 67 74
REMARK SMILES IDX 65 75 44 76 45 77 53 78 46 79 47 80 51 81 54 82 48 83 49 84
REMARK SMILES IDX 52 85 50 86
REMARK H PARENT 74 39 42 50
REMARK Flexibility Score: inf
ROOT
ATOM      1  C   UNL A   1      31.502  28.889  25.079  1.00  0.00     0.274 C 
ENDROOT
BRANCH   1   2
ATOM      2  O   UNL A   1      32.761  28.192  25.013  1.00  0.00    -0.461 OA
BRANCH   2   3
ATOM      3  C   UNL A   1      33.234  27.915  23.765  1.00  0.00     0.327 C 
ATOM      4  O   UNL A   1      34.160  28.513  23.223  1.00  0.00    -0.250 OA
BRANCH   3   5
ATOM      5  C   UNL A   1      32.429  26.840  23.048  1.00  0.00     0.264 C 
BRANCH   5   6
ATOM      6  N   UNL A   1      33.296  25.831  22.436  1.00  0.00    -0.245 NA
BRANCH   6   7
ATOM      7  C   UNL A   1      33.250  24.507  23.050  1.00  0.00     0.178 C 
BRANCH   7   8
ATOM      8  C   UNL A   1      34.520  24.058  23.750  1.00  0.00    -0.027 A 
ATOM      9  C   UNL A   1      36.828  23.232  25.129  1.00  0.00     0.118 A 
ATOM     10  C   UNL A   1      36.618  22.835  23.809  1.00  0.00     0.047 A 
ATOM     11  C   UNL A   1      35.908  24.072  25.752  1.00  0.00     0.047 A 
ATOM     12  C   UNL A   1      35.463  23.230  23.126  1.00  0.00     0.009 A 
ATOM     13  C   UNL A   1      34.760  24.478  25.067  1.00  0.00     0.009 A 
BRANCH   9  14
ATOM     14  O   UNL A   1      37.982  22.784  25.712  1.00  0.00    -0.497 OA
ATOM     15  C   UNL A   1      38.657  23.760  26.501  1.00  0.00     0.278 C 
ENDBRANCH   9  14
ENDBRANCH   7   8
ENDBRANCH   6   7
BRANCH   6  16
ATOM     16  N   UNL A   1      33.632  25.867  21.167  1.00  0.00     0.053 NA
ATOM     17  O   UNL A   1      32.913  25.166  20.453  1.00  0.00    -0.125 OA
ENDBRANCH   6  16
ENDBRANCH   5   6
ENDBRANCH   3   5
ENDBRANCH   2   3
ENDBRANCH   1   2
BRANCH   1  18
ATOM     18  C   UNL A   1      31.688  30.246  25.753  1.00  0.00     0.275 C 
BRANCH  18  19
ATOM     19  O   UNL A   1      33.075  30.414  26.087  1.00  0.00    -0.458 OA
BRANCH  19  20
ATOM     20  C   UNL A   1      33.344  31.357  27.019  1.00  0.00     0.338 C 
ATOM     21  O   UNL A   1      32.711  32.372  27.251  1.00  0.00    -0.246 OA
BRANCH  20  22
ATOM     22  C   UNL A   1      34.617  31.023  27.681  1.00  0.00     0.060 A 
ATOM     23  C   UNL A   1      34.930  29.708  28.038  1.00  0.00     0.016 A 
ATOM     24  C   UNL A   1      35.485  32.065  28.003  1.00  0.00     0.016 A 
ATOM     25  C   UNL A   1      36.085  29.439  28.772  1.00  0.00     0.010 A 
ATOM     26  C   UNL A   1      36.673  31.786  28.675  1.00  0.00     0.010 A 
ATOM     27  C   UNL A   1      36.970  30.477  29.089  1.00  0.00    -0.014 A 
BRANCH  27  28
ATOM     28  C   UNL A   1      38.199  30.227  29.882  1.00  0.00     0.031 A 
ATOM     29  C   UNL A   1      39.264  29.324  29.331  1.00  0.00     0.074 A 
ATOM     30  C   UNL A   1      38.333  30.761  31.109  1.00  0.00     0.049 A 
ATOM     31  N   UNL A   1      40.295  28.790  29.936  1.00  0.00    -0.248 NA
ATOM     32  C   UNL A   1      39.144  28.959  27.911  1.00  0.00     0.031 C 
ATOM     33  C   UNL A   1      37.390  31.685  31.739  1.00  0.00     0.029 A 
ATOM     34  N   UNL A   1      39.309  30.579  32.057  1.00  0.00    -0.354 N 
ATOM     35  C   UNL A   1      40.919  27.995  28.985  1.00  0.00     0.074 A 
ATOM     36  C   UNL A   1      40.152  28.111  27.763  1.00  0.00     0.031 C 
ATOM     37  C   UNL A   1      37.827  31.984  32.972  1.00  0.00     0.029 A 
ATOM     38  C   UNL A   1      39.045  31.224  33.241  1.00  0.00     0.049 A 
ATOM     39  H   UNL A   1      40.117  30.041  31.904  1.00  0.00     0.167 HD
ATOM     40  C   UNL A   1      42.031  27.236  29.126  1.00  0.00     0.037 A 
ATOM     41  C   UNL A   1      39.685  31.170  34.423  1.00  0.00     0.037 A 
ATOM     42  C   UNL A   1      42.810  27.154  30.333  1.00  0.00     0.049 A 
ATOM     43  C   UNL A   1      40.898  30.291  34.565  1.00  0.00     0.074 A 
ATOM     44  C   UNL A   1      43.967  26.433  30.568  1.00  0.00     0.029 A 
ATOM     45  N   UNL A   1      42.512  27.828  31.509  1.00  0.00    -0.354 N 
ATOM     46  N   UNL A   1      41.469  29.522  33.671  1.00  0.00    -0.248 NA
ATOM     47  C   UNL A   1      41.545  30.264  35.884  1.00  0.00     0.031 C 
ATOM     48  C   UNL A   1      44.352  26.644  31.897  1.00  0.00     0.029 A 
ATOM     49  C   UNL A   1      43.456  27.528  32.477  1.00  0.00     0.049 A 
ATOM     50  H   UNL A   1      41.743  28.429  31.636  1.00  0.00     0.167 HD
ATOM     51  C   UNL A   1      42.554  28.937  34.309  1.00  0.00     0.074 A 
ATOM     52  C   UNL A   1      42.566  29.446  35.666  1.00  0.00     0.031 C 
ATOM     53  C   UNL A   1      43.457  28.056  33.816  1.00  0.00     0.037 A 
BRANCH  40  54
ATOM     54  C   UNL A   1      42.460  26.407  27.950  1.00  0.00     0.064 A 
ATOM     55  C   UNL A   1      41.976  25.108  27.747  1.00  0.00     0.173 A 
ATOM     56  C   UNL A   1      43.337  26.942  26.994  1.00  0.00     0.173 A 
ATOM     57  F   UNL A   1      41.145  24.549  28.639  1.00  0.00    -0.203 F 
ATOM     58  C   UNL A   1      42.370  24.364  26.637  1.00  0.00     0.198 A 
ATOM     59  C   UNL A   1      43.709  26.205  25.873  1.00  0.00     0.198 A 
ATOM     60  F   UNL A   1      43.823  28.183  27.140  1.00  0.00    -0.203 F 
ATOM     61  F   UNL A   1      41.924  23.111  26.479  1.00  0.00    -0.200 F 
ATOM     62  C   UNL A   1      43.230  24.916  25.698  1.00  0.00     0.200 A 
ATOM     63  F   UNL A   1      44.530  26.744  24.961  1.00  0.00    -0.200 F 
ATOM     64  F   UNL A   1      43.601  24.202  24.626  1.00  0.00    -0.200 F 
ENDBRANCH  40  54
BRANCH  41  65
ATOM     65  C   UNL A   1      39.172  31.954  35.575  1.00  0.00     0.064 A 
ATOM     66  C   UNL A   1      38.337  31.362  36.531  1.00  0.00     0.173 A 
ATOM     67  C   UNL A   1      39.512  33.304  35.746  1.00  0.00     0.173 A 
ATOM     68  F   UNL A   1      37.965  30.082  36.394  1.00  0.00    -0.203 F 
ATOM     69  C   UNL A   1      37.854  32.095  37.613  1.00  0.00     0.198 A 
ATOM     70  C   UNL A   1      39.049  34.028  36.843  1.00  0.00     0.198 A 
ATOM     71  F   UNL A   1      40.308  33.916  34.857  1.00  0.00    -0.203 F 
ATOM     72  F   UNL A   1      37.028  31.516  38.496  1.00  0.00    -0.200 F 
ATOM     73  C   UNL A   1      38.216  33.424  37.772  1.00  0.00     0.200 A 
ATOM     74  F   UNL A   1      39.411  35.308  37.000  1.00  0.00    -0.200 F 
ATOM     75  F   UNL A   1      37.757  34.125  38.818  1.00  0.00    -0.200 F 
ENDBRANCH  41  65
BRANCH  53  76
ATOM     76  C   UNL A   1      44.559  27.617  34.733  1.00  0.00     0.064 A 
ATOM     77  C   UNL A   1      45.739  28.362  34.870  1.00  0.00     0.173 A 
ATOM     78  C   UNL A   1      44.409  26.465  35.520  1.00  0.00     0.173 A 
ATOM     79  F   UNL A   1      45.933  29.461  34.126  1.00  0.00    -0.203 F 
ATOM     80  C   UNL A   1      46.738  27.959  35.752  1.00  0.00     0.198 A 
ATOM     81  C   UNL A   1      45.400  26.079  36.417  1.00  0.00     0.198 A 
ATOM     82  F   UNL A   1      43.296  25.723  35.427  1.00  0.00    -0.203 F 
ATOM     83  F   UNL A   1      47.874  28.665  35.843  1.00  0.00    -0.200 F 
ATOM     84  C   UNL A   1      46.565  26.823  36.529  1.00  0.00     0.200 A 
ATOM     85  F   UNL A   1      45.228  24.987  37.174  1.00  0.00    -0.200 F 
ATOM     86  F   UNL A   1      47.525  26.441  37.383  1.00  0.00    -0.200 F 
ENDBRANCH  53  76
ENDBRANCH  27  28
ENDBRANCH  20  22
ENDBRANCH  19  20
ENDBRANCH  18  19
ENDBRANCH   1  18
TORSDOF 16
ENDMDL
MODEL 3
REMARK VINA RESULT:     -10.6      0.607      1.776
REMARK SMILES COc1ccc(CN(CC(=O)OCCOC(=O)c2ccc(-c3c4nc(c(-c5c(F)c(F)c(F)c(F)c5F)c5ccc([nH]5)c(-c5c(F)c(F)c(F)c(F)c5F)c5nc(c(-c6c(F)c(F)c(F)c(F)c6F)c6ccc3[nH]6)C=C5)C=C4)cc2)N=O)cc1
REMARK SMILES IDX 13 1 12 2 10 3 11 4 9 5 8 6 7 7 6 8 3 9 4 10 84 11 5 12
REMARK SMILES IDX 83 13 2 14 1 15 81 16 82 17 14 18 15 19 16 20 17 21 18 22
REMARK SMILES IDX 19 23 80 24 20 25 79 26 21 27 22 28 23 29 73 30 24 31 78 32
REMARK SMILES IDX 72 33 74 34 25 35 77 36 71 37 70 38 26 40 58 41 38 42 57 43
REMARK SMILES IDX 39 44 42 45 56 46 75 47 40 48 41 49 55 51 76 52 43 53 27 54
REMARK SMILES IDX 28 55 36 56 29 57 30 58 34 59 37 60 31 61 32 62 35 63 33 64
REMARK SMILES IDX 59 65 60 66 68 67 61 68 62 69 66 70 69 71 63 72 64 73 67 74
REMARK SMILES IDX 65 75 44 76 45 77 53 78 46 79 47 80 51 81 54 82 48 83 49 84
REMARK SMILES IDX 52 85 50 86
REMARK H PARENT 74 39 42 50
REMARK Flexibility Score: inf
ROOT
ATOM      1  C   UNL A   1      31.405  28.785  25.200  1.00  0.00     0.274 C 
ENDROOT
BRANCH   1   2
ATOM      2  O   UNL A   1      30.800  28.850  23.894  1.00  0.00    -0.461 OA
BRANCH   2   3
ATOM      3  C   UNL A   1      31.354  28.060  22.931  1.00  0.00     0.327 C 
ATOM      4  O   UNL A   1      30.721  27.508  22.035  1.00  0.00    -0.250 OA
BRANCH   3   5
ATOM      5  C   UNL A   1      32.847  27.838  23.128  1.00  0.00     0.264 C 
BRANCH   5   6
ATOM      6  N   UNL A   1      33.294  26.586  22.516  1.00  0.00    -0.245 NA
BRANCH   6   7
ATOM      7  C   UNL A   1      32.831  25.365  23.171  1.00  0.00     0.178 C 
BRANCH   7   8
ATOM      8  C   UNL A   1      33.905  24.529  23.844  1.00  0.00    -0.027 A 
ATOM      9  C   UNL A   1      35.866  23.013  25.174  1.00  0.00     0.118 A 
ATOM     10  C   UNL A   1      35.336  22.570  23.963  1.00  0.00     0.047 A 
ATOM     11  C   UNL A   1      35.447  24.231  25.706  1.00  0.00     0.047 A 
ATOM     12  C   UNL A   1      34.349  23.312  23.308  1.00  0.00     0.009 A 
ATOM     13  C   UNL A   1      34.470  24.980  25.046  1.00  0.00     0.009 A 
BRANCH   9  14
ATOM     14  O   UNL A   1      36.818  22.210  25.741  1.00  0.00    -0.497 OA
ATOM     15  C   UNL A   1      37.591  21.467  24.803  1.00  0.00     0.278 C 
ENDBRANCH   9  14
ENDBRANCH   7   8
ENDBRANCH   6   7
BRANCH   6  16
ATOM     16  N   UNL A   1      33.564  26.485  21.235  1.00  0.00     0.053 NA
ATOM     17  O   UNL A   1      33.141  25.445  20.728  1.00  0.00    -0.125 OA
ENDBRANCH   6  16
ENDBRANCH   5   6
ENDBRANCH   3   5
ENDBRANCH   2   3
ENDBRANCH   1   2
BRANCH   1  18
ATOM     18  C   UNL A   1      31.677  30.193  25.723  1.00  0.00     0.275 C 
BRANCH  18  19
ATOM     19  O   UNL A   1      33.053  30.283  26.125  1.00  0.00    -0.458 OA
BRANCH  19  20
ATOM     20  C   UNL A   1      33.341  31.257  27.017  1.00  0.00     0.338 C 
ATOM     21  O   UNL A   1      32.702  32.269  27.243  1.00  0.00    -0.246 OA
BRANCH  20  22
ATOM     22  C   UNL A   1      34.644  30.963  27.641  1.00  0.00     0.060 A 
ATOM     23  C   UNL A   1      35.033  29.651  27.931  1.00  0.00     0.016 A 
ATOM     24  C   UNL A   1      35.461  32.034  27.997  1.00  0.00     0.016 A 
ATOM     25  C   UNL A   1      36.215  29.412  28.632  1.00  0.00     0.010 A 
ATOM     26  C   UNL A   1      36.676  31.789  28.635  1.00  0.00     0.010 A 
ATOM     27  C   UNL A   1      37.050  30.480  28.982  1.00  0.00    -0.014 A 
BRANCH  27  28
ATOM     28  C   UNL A   1      38.305  30.261  29.740  1.00  0.00     0.031 A 
ATOM     29  C   UNL A   1      39.373  29.377  29.164  1.00  0.00     0.074 A 
ATOM     30  C   UNL A   1      38.462  30.805  30.960  1.00  0.00     0.049 A 
ATOM     31  N   UNL A   1      40.432  28.869  29.743  1.00  0.00    -0.248 NA
ATOM     32  C   UNL A   1      39.221  29.002  27.751  1.00  0.00     0.031 C 
ATOM     33  C   UNL A   1      37.518  31.713  31.612  1.00  0.00     0.029 A 
ATOM     34  N   UNL A   1      39.468  30.650  31.882  1.00  0.00    -0.354 N 
ATOM     35  C   UNL A   1      41.046  28.081  28.779  1.00  0.00     0.074 A 
ATOM     36  C   UNL A   1      40.242  28.174  27.579  1.00  0.00     0.031 C 
ATOM     37  C   UNL A   1      37.984  32.028  32.831  1.00  0.00     0.029 A 
ATOM     38  C   UNL A   1      39.224  31.295  33.069  1.00  0.00     0.049 A 
ATOM     39  H   UNL A   1      40.283  30.127  31.709  1.00  0.00     0.167 HD
ATOM     40  C   UNL A   1      42.177  27.346  28.892  1.00  0.00     0.037 A 
ATOM     41  C   UNL A   1      39.899  31.262  34.233  1.00  0.00     0.037 A 
ATOM     42  C   UNL A   1      42.991  27.288  30.078  1.00  0.00     0.049 A 
ATOM     43  C   UNL A   1      41.133  30.409  34.345  1.00  0.00     0.074 A 
ATOM     44  C   UNL A   1      44.169  26.593  30.284  1.00  0.00     0.029 A 
ATOM     45  N   UNL A   1      42.712  27.962  31.258  1.00  0.00    -0.354 N 
ATOM     46  N   UNL A   1      41.695  29.647  33.440  1.00  0.00    -0.248 NA
ATOM     47  C   UNL A   1      41.818  30.403  35.645  1.00  0.00     0.031 C 
ATOM     48  C   UNL A   1      44.587  26.820  31.600  1.00  0.00     0.029 A 
ATOM     49  C   UNL A   1      43.689  27.689  32.200  1.00  0.00     0.049 A 
ATOM     50  H   UNL A   1      41.934  28.548  31.403  1.00  0.00     0.167 HD
ATOM     51  C   UNL A   1      42.810  29.089  34.050  1.00  0.00     0.074 A 
ATOM     52  C   UNL A   1      42.849  29.606  35.402  1.00  0.00     0.031 C 
ATOM     53  C   UNL A   1      43.717  28.224  33.536  1.00  0.00     0.037 A 
BRANCH  40  54
ATOM     54  C   UNL A   1      42.590  26.520  27.710  1.00  0.00     0.064 A 
ATOM     55  C   UNL A   1      43.560  26.964  26.801  1.00  0.00     0.173 A 
ATOM     56  C   UNL A   1      42.031  25.249  27.509  1.00  0.00     0.173 A 
ATOM     57  F   UNL A   1      44.115  28.176  26.944  1.00  0.00    -0.203 F 
ATOM     58  C   UNL A   1      43.944  26.171  25.722  1.00  0.00     0.198 A 
ATOM     59  C   UNL A   1      42.434  24.449  26.443  1.00  0.00     0.198 A 
ATOM     60  F   UNL A   1      41.102  24.777  28.354  1.00  0.00    -0.203 F 
ATOM     61  F   UNL A   1      44.847  26.628  24.844  1.00  0.00    -0.200 F 
ATOM     62  C   UNL A   1      43.386  24.913  25.548  1.00  0.00     0.200 A 
ATOM     63  F   UNL A   1      41.903  23.229  26.284  1.00  0.00    -0.200 F 
ATOM     64  F   UNL A   1      43.762  24.148  24.514  1.00  0.00    -0.200 F 
ENDBRANCH  40  54
BRANCH  41  65
ATOM     65  C   UNL A   1      39.402  32.042  35.394  1.00  0.00     0.064 A 
ATOM     66  C   UNL A   1      39.795  33.372  35.589  1.00  0.00     0.173 A 
ATOM     67  C   UNL A   1      38.519  31.476  36.326  1.00  0.00     0.173 A 
ATOM     68  F   UNL A   1      40.657  33.945  34.738  1.00  0.00    -0.203 F 
ATOM     69  C   UNL A   1      39.330  34.106  36.678  1.00  0.00     0.198 A 
ATOM     70  C   UNL A   1      38.033  32.220  37.400  1.00  0.00     0.198 A 
ATOM     71  F   UNL A   1      38.113  30.205  36.184  1.00  0.00    -0.203 F 
ATOM     72  F   UNL A   1      39.748  35.366  36.862  1.00  0.00    -0.200 F 
ATOM     73  C   UNL A   1      38.444  33.532  37.578  1.00  0.00     0.200 A 
ATOM     74  F   UNL A   1      37.168  31.665  38.260  1.00  0.00    -0.200 F 
ATOM     75  F   UNL A   1      37.991  34.241  38.620  1.00  0.00    -0.200 F 
ENDBRANCH  41  65
BRANCH  53  76
ATOM     76  C   UNL A   1      44.854  27.814  34.424  1.00  0.00     0.064 A 
ATOM     77  C   UNL A   1      46.029  28.574  34.509  1.00  0.00     0.173 A 
ATOM     78  C   UNL A   1      44.742  26.675  35.235  1.00  0.00     0.173 A 
ATOM     79  F   UNL A   1      46.185  29.662  33.740  1.00  0.00    -0.203 F 
ATOM     80  C   UNL A   1      47.061  28.198  35.365  1.00  0.00     0.198 A 
ATOM     81  C   UNL A   1      45.767  26.315  36.105  1.00  0.00     0.198 A 
ATOM     82  F   UNL A   1      43.636  25.919  35.192  1.00  0.00    -0.203 F 
ATOM     83  F   UNL A   1      48.190  28.918  35.406  1.00  0.00    -0.200 F 
ATOM     84  C   UNL A   1      46.926  27.075  36.166  1.00  0.00     0.200 A 
ATOM     85  F   UNL A   1      45.633  25.235  36.887  1.00  0.00    -0.200 F 
ATOM     86  F   UNL A   1      47.918  26.719  36.995  1.00  0.00    -0.200 F 
ENDBRANCH  53  76
ENDBRANCH  27  28
ENDBRANCH  20  22
ENDBRANCH  19  20
ENDBRANCH  18  19
ENDBRANCH   1  18
TORSDOF 16
ENDMDL
