MODEL 1
REMARK VINA RESULT:     -11.9      0.000      0.000
REMARK SMILES CCc1cccc(NC(=O)N2CCO[C@@H](CC(=O)OCCOC(=O)c3ccc(-c4c5nc(c(-c6c(F)c(F)c(F)c(F)c6F)c6ccc([nH]6)c(-c6c(F)c(F)c(F)c(F)c6F)c6nc(c(-c7c(F)c(F)c(F)c(F)c7F)c7ccc4[nH]7)C=C6)C=C5)cc3)C2)c1
REMARK SMILES IDX 20 1 19 2 17 3 18 4 16 5 15 6 11 7 12 8 88 9 13 10 14 11
REMARK SMILES IDX 9 12 8 13 10 15 7 16 3 17 4 18 89 19 5 20 6 21 2 22 1 23
REMARK SMILES IDX 21 24 22 25 23 26 24 27 25 28 26 29 87 30 27 31 86 32 28 33
REMARK SMILES IDX 29 34 30 35 80 36 31 37 85 38 79 39 81 40 32 41 84 42 78 43
REMARK SMILES IDX 77 44 33 46 65 47 45 48 64 49 46 50 49 51 63 52 82 53 47 54
REMARK SMILES IDX 48 55 62 57 83 58 50 59 34 60 35 61 43 62 36 63 37 64 41 65
REMARK SMILES IDX 44 66 38 67 39 68 42 69 40 70 66 71 67 72 75 73 68 74 69 75
REMARK SMILES IDX 73 76 76 77 70 78 71 79 74 80 72 81 51 82 52 83 60 84 53 85
REMARK SMILES IDX 54 86 58 87 61 88 55 89 56 90 59 91 57 92
REMARK H PARENT 8 14 81 45 49 56
REMARK Flexibility Score: inf
ROOT
ATOM      1  C   UNL A   1      31.657  31.307  26.624  1.00  0.00     0.274 C 
ENDROOT
BRANCH   1   2
ATOM      2  O   UNL A   1      32.973  30.718  26.649  1.00  0.00    -0.462 OA
BRANCH   2   3
ATOM      3  C   UNL A   1      33.091  29.478  27.188  1.00  0.00     0.308 C 
ATOM      4  O   UNL A   1      34.149  28.939  27.482  1.00  0.00    -0.252 OA
BRANCH   3   5
ATOM      5  C   UNL A   1      31.750  28.806  27.330  1.00  0.00     0.156 C 
BRANCH   5   6
ATOM      6  C   UNL A   1      31.423  27.787  26.243  1.00  0.00     0.149 C 
ATOM      7  N   UNL A   1      31.988  26.867  24.034  1.00  0.00    -0.320 N 
ATOM      8  C   UNL A   1      32.061  25.519  24.600  1.00  0.00     0.150 C 
ATOM      9  C   UNL A   1      32.301  27.927  24.987  1.00  0.00     0.154 C 
ATOM     10  C   UNL A   1      31.270  25.425  25.911  1.00  0.00     0.182 C 
ATOM     11  O   UNL A   1      31.627  26.474  26.829  1.00  0.00    -0.374 OA
BRANCH   7  12
ATOM     12  C   UNL A   1      32.114  27.139  22.698  1.00  0.00     0.322 C 
ATOM     13  N   UNL A   1      31.046  27.570  21.977  1.00  0.00    -0.308 N 
ATOM     14  H   UNL A   1      31.089  27.336  21.021  1.00  0.00     0.171 HD
ATOM     15  O   UNL A   1      33.187  26.994  22.106  1.00  0.00    -0.248 OA
BRANCH  13  16
ATOM     16  C   UNL A   1      29.888  28.288  22.334  1.00  0.00     0.043 A 
ATOM     17  C   UNL A   1      28.708  30.433  22.278  1.00  0.00    -0.046 A 
ATOM     18  C   UNL A   1      27.639  29.841  22.965  1.00  0.00     0.004 A 
ATOM     19  C   UNL A   1      29.822  29.638  21.960  1.00  0.00     0.029 A 
ATOM     20  C   UNL A   1      27.714  28.514  23.380  1.00  0.00     0.002 A 
ATOM     21  C   UNL A   1      28.853  27.759  23.103  1.00  0.00     0.026 A 
BRANCH  17  22
ATOM     22  C   UNL A   1      28.673  31.921  22.021  1.00  0.00     0.032 C 
ATOM     23  C   UNL A   1      28.057  32.355  20.699  1.00  0.00     0.009 C 
ENDBRANCH  17  22
ENDBRANCH  13  16
ENDBRANCH   7  12
ENDBRANCH   5   6
ENDBRANCH   3   5
ENDBRANCH   2   3
ENDBRANCH   1   2
BRANCH   1  24
ATOM     24  C   UNL A   1      31.678  32.809  26.931  1.00  0.00     0.275 C 
BRANCH  24  25
ATOM     25  O   UNL A   1      33.017  33.341  26.898  1.00  0.00    -0.458 OA
BRANCH  25  26
ATOM     26  C   UNL A   1      33.440  33.894  28.058  1.00  0.00     0.338 C 
ATOM     27  O   UNL A   1      32.859  34.734  28.725  1.00  0.00    -0.246 OA
BRANCH  26  28
ATOM     28  C   UNL A   1      34.676  33.237  28.524  1.00  0.00     0.060 A 
ATOM     29  C   UNL A   1      34.538  32.022  29.203  1.00  0.00     0.016 A 
ATOM     30  C   UNL A   1      35.936  33.818  28.366  1.00  0.00     0.016 A 
ATOM     31  C   UNL A   1      35.652  31.395  29.751  1.00  0.00     0.010 A 
ATOM     32  C   UNL A   1      37.059  33.185  28.914  1.00  0.00     0.010 A 
ATOM     33  C   UNL A   1      36.919  31.981  29.627  1.00  0.00    -0.014 A 
BRANCH  33  34
ATOM     34  C   UNL A   1      38.073  31.344  30.306  1.00  0.00     0.031 A 
ATOM     35  C   UNL A   1      38.375  31.679  31.738  1.00  0.00     0.074 A 
ATOM     36  C   UNL A   1      38.807  30.422  29.657  1.00  0.00     0.049 A 
ATOM     37  N   UNL A   1      39.304  31.196  32.523  1.00  0.00    -0.248 NA
ATOM     38  C   UNL A   1      37.515  32.689  32.376  1.00  0.00     0.031 C 
ATOM     39  C   UNL A   1      38.594  29.995  28.274  1.00  0.00     0.029 A 
ATOM     40  N   UNL A   1      39.874  29.669  30.081  1.00  0.00    -0.354 N 
ATOM     41  C   UNL A   1      39.150  31.849  33.738  1.00  0.00     0.074 A 
ATOM     42  C   UNL A   1      38.052  32.778  33.585  1.00  0.00     0.031 C 
ATOM     43  C   UNL A   1      39.494  29.047  27.967  1.00  0.00     0.029 A 
ATOM     44  C   UNL A   1      40.363  28.820  29.120  1.00  0.00     0.049 A 
ATOM     45  H   UNL A   1      40.253  29.733  30.988  1.00  0.00     0.167 HD
ATOM     46  C   UNL A   1      39.858  31.679  34.881  1.00  0.00     0.037 A 
ATOM     47  C   UNL A   1      41.401  27.963  29.164  1.00  0.00     0.037 A 
ATOM     48  C   UNL A   1      40.934  30.736  35.043  1.00  0.00     0.049 A 
ATOM     49  C   UNL A   1      42.193  27.828  30.438  1.00  0.00     0.074 A 
ATOM     50  C   UNL A   1      41.672  30.457  36.180  1.00  0.00     0.029 A 
ATOM     51  N   UNL A   1      41.426  29.921  34.036  1.00  0.00    -0.354 N 
ATOM     52  N   UNL A   1      42.006  28.412  31.596  1.00  0.00    -0.248 NA
ATOM     53  C   UNL A   1      43.342  26.911  30.408  1.00  0.00     0.031 C 
ATOM     54  C   UNL A   1      42.643  29.506  35.850  1.00  0.00     0.029 A 
ATOM     55  C   UNL A   1      42.481  29.161  34.517  1.00  0.00     0.049 A 
ATOM     56  H   UNL A   1      41.080  29.889  33.115  1.00  0.00     0.167 HD
ATOM     57  C   UNL A   1      42.993  27.916  32.438  1.00  0.00     0.074 A 
ATOM     58  C   UNL A   1      43.769  26.971  31.662  1.00  0.00     0.031 C 
ATOM     59  C   UNL A   1      43.235  28.218  33.737  1.00  0.00     0.037 A 
BRANCH  46  60
ATOM     60  C   UNL A   1      39.507  32.545  36.052  1.00  0.00     0.064 A 
ATOM     61  C   UNL A   1      38.580  32.135  37.021  1.00  0.00     0.173 A 
ATOM     62  C   UNL A   1      40.156  33.775  36.241  1.00  0.00     0.173 A 
ATOM     63  F   UNL A   1      37.925  30.972  36.879  1.00  0.00    -0.203 F 
ATOM     64  C   UNL A   1      38.305  32.931  38.130  1.00  0.00     0.198 A 
ATOM     65  C   UNL A   1      39.896  34.558  37.362  1.00  0.00     0.198 A 
ATOM     66  F   UNL A   1      41.056  34.209  35.345  1.00  0.00    -0.203 F 
ATOM     67  F   UNL A   1      37.395  32.533  39.029  1.00  0.00    -0.200 F 
ATOM     68  C   UNL A   1      38.970  34.136  38.304  1.00  0.00     0.200 A 
ATOM     69  F   UNL A   1      40.545  35.717  37.534  1.00  0.00    -0.200 F 
ATOM     70  F   UNL A   1      38.712  34.895  39.379  1.00  0.00    -0.200 F 
ENDBRANCH  46  60
BRANCH  47  71
ATOM     71  C   UNL A   1      41.759  27.160  27.967  1.00  0.00     0.064 A 
ATOM     72  C   UNL A   1      41.257  25.864  27.789  1.00  0.00     0.173 A 
ATOM     73  C   UNL A   1      42.639  27.660  26.996  1.00  0.00     0.173 A 
ATOM     74  F   UNL A   1      40.435  25.332  28.706  1.00  0.00    -0.203 F 
ATOM     75  C   UNL A   1      41.641  25.088  26.697  1.00  0.00     0.198 A 
ATOM     76  C   UNL A   1      43.001  26.893  25.891  1.00  0.00     0.198 A 
ATOM     77  F   UNL A   1      43.151  28.892  27.124  1.00  0.00    -0.203 F 
ATOM     78  F   UNL A   1      41.189  23.831  26.579  1.00  0.00    -0.200 F 
ATOM     79  C   UNL A   1      42.509  25.605  25.747  1.00  0.00     0.200 A 
ATOM     80  F   UNL A   1      43.835  27.399  24.971  1.00  0.00    -0.200 F 
ATOM     81  F   UNL A   1      42.882  24.856  24.700  1.00  0.00    -0.200 F 
ENDBRANCH  47  71
BRANCH  59  82
ATOM     82  C   UNL A   1      44.365  27.496  34.410  1.00  0.00     0.064 A 
ATOM     83  C   UNL A   1      45.663  28.026  34.436  1.00  0.00     0.173 A 
ATOM     84  C   UNL A   1      44.139  26.277  35.070  1.00  0.00     0.173 A 
ATOM     85  F   UNL A   1      45.932  29.180  33.806  1.00  0.00    -0.203 F 
ATOM     86  C   UNL A   1      46.698  27.353  35.077  1.00  0.00     0.198 A 
ATOM     87  C   UNL A   1      45.171  25.620  35.732  1.00  0.00     0.198 A 
ATOM     88  F   UNL A   1      42.913  25.732  35.079  1.00  0.00    -0.203 F 
ATOM     89  F   UNL A   1      47.940  27.857  35.052  1.00  0.00    -0.200 F 
ATOM     90  C   UNL A   1      46.450  26.155  35.730  1.00  0.00     0.200 A 
ATOM     91  F   UNL A   1      44.926  24.469  36.372  1.00  0.00    -0.200 F 
ATOM     92  F   UNL A   1      47.447  25.511  36.352  1.00  0.00    -0.200 F 
ENDBRANCH  59  82
ENDBRANCH  33  34
ENDBRANCH  26  28
ENDBRANCH  25  26
ENDBRANCH  24  25
ENDBRANCH   1  24
TORSDOF 15
ENDMDL
MODEL 2
REMARK VINA RESULT:     -11.7      4.610      9.926
REMARK SMILES CCc1cccc(NC(=O)N2CCO[C@@H](CC(=O)OCCOC(=O)c3ccc(-c4c5nc(c(-c6c(F)c(F)c(F)c(F)c6F)c6ccc([nH]6)c(-c6c(F)c(F)c(F)c(F)c6F)c6nc(c(-c7c(F)c(F)c(F)c(F)c7F)c7ccc4[nH]7)C=C6)C=C5)cc3)C2)c1
REMARK SMILES IDX 20 1 19 2 17 3 18 4 16 5 15 6 11 7 12 8 88 9 13 10 14 11
REMARK SMILES IDX 9 12 8 13 10 15 7 16 3 17 4 18 89 19 5 20 6 21 2 22 1 23
REMARK SMILES IDX 21 24 22 25 23 26 24 27 25 28 26 29 87 30 27 31 86 32 28 33
REMARK SMILES IDX 29 34 30 35 80 36 31 37 85 38 79 39 81 40 32 41 84 42 78 43
REMARK SMILES IDX 77 44 33 46 65 47 45 48 64 49 46 50 49 51 63 52 82 53 47 54
REMARK SMILES IDX 48 55 62 57 83 58 50 59 34 60 35 61 43 62 36 63 37 64 41 65
REMARK SMILES IDX 44 66 38 67 39 68 42 69 40 70 66 71 67 72 75 73 68 74 69 75
REMARK SMILES IDX 73 76 76 77 70 78 71 79 74 80 72 81 51 82 52 83 60 84 53 85
REMARK SMILES IDX 54 86 58 87 61 88 55 89 56 90 59 91 57 92
REMARK H PARENT 8 14 81 45 49 56
REMARK Flexibility Score: inf
ROOT
ATOM      1  C   UNL A   1      35.962  20.289  24.998  1.00  0.00     0.274 C 
ENDROOT
BRANCH   1   2
ATOM      2  O   UNL A   1      35.524  21.095  26.111  1.00  0.00    -0.462 OA
BRANCH   2   3
ATOM      3  C   UNL A   1      34.948  22.290  25.827  1.00  0.00     0.308 C 
ATOM      4  O   UNL A   1      35.076  23.306  26.497  1.00  0.00    -0.252 OA
BRANCH   3   5
ATOM      5  C   UNL A   1      34.071  22.206  24.605  1.00  0.00     0.156 C 
BRANCH   5   6
ATOM      6  C   UNL A   1      33.213  23.440  24.343  1.00  0.00     0.149 C 
ATOM      7  N   UNL A   1      32.364  25.058  22.698  1.00  0.00    -0.320 N 
ATOM      8  C   UNL A   1      30.990  24.788  23.123  1.00  0.00     0.150 C 
ATOM      9  C   UNL A   1      33.274  23.932  22.886  1.00  0.00     0.154 C 
ATOM     10  C   UNL A   1      30.954  24.195  24.537  1.00  0.00     0.182 C 
ATOM     11  O   UNL A   1      31.847  23.075  24.672  1.00  0.00    -0.374 OA
BRANCH   7  12
ATOM     12  C   UNL A   1      32.702  26.017  21.782  1.00  0.00     0.322 C 
ATOM     13  N   UNL A   1      32.399  27.323  22.006  1.00  0.00    -0.308 N 
ATOM     14  H   UNL A   1      32.277  27.851  21.183  1.00  0.00     0.171 HD
ATOM     15  O   UNL A   1      33.278  25.733  20.728  1.00  0.00    -0.248 OA
BRANCH  13  16
ATOM     16  C   UNL A   1      32.226  28.067  23.189  1.00  0.00     0.043 A 
ATOM     17  C   UNL A   1      33.094  28.608  25.414  1.00  0.00    -0.046 A 
ATOM     18  C   UNL A   1      32.023  29.493  25.596  1.00  0.00     0.004 A 
ATOM     19  C   UNL A   1      33.188  27.909  24.198  1.00  0.00     0.029 A 
ATOM     20  C   UNL A   1      31.039  29.622  24.619  1.00  0.00     0.002 A 
ATOM     21  C   UNL A   1      31.121  28.877  23.443  1.00  0.00     0.026 A 
BRANCH  17  22
ATOM     22  C   UNL A   1      34.028  28.347  26.573  1.00  0.00     0.032 C 
ATOM     23  C   UNL A   1      34.675  29.575  27.196  1.00  0.00     0.009 C 
ENDBRANCH  17  22
ENDBRANCH  13  16
ENDBRANCH   7  12
ENDBRANCH   5   6
ENDBRANCH   3   5
ENDBRANCH   2   3
ENDBRANCH   1   2
BRANCH   1  24
ATOM     24  C   UNL A   1      37.477  20.055  25.001  1.00  0.00     0.275 C 
BRANCH  24  25
ATOM     25  O   UNL A   1      38.200  21.245  25.370  1.00  0.00    -0.458 OA
BRANCH  25  26
ATOM     26  C   UNL A   1      39.314  21.031  26.107  1.00  0.00     0.338 C 
ATOM     27  O   UNL A   1      39.919  19.979  26.234  1.00  0.00    -0.246 OA
BRANCH  26  28
ATOM     28  C   UNL A   1      39.824  22.301  26.657  1.00  0.00     0.060 A 
ATOM     29  C   UNL A   1      39.298  23.484  26.128  1.00  0.00     0.016 A 
ATOM     30  C   UNL A   1      40.839  22.346  27.616  1.00  0.00     0.016 A 
ATOM     31  C   UNL A   1      39.801  24.716  26.534  1.00  0.00     0.010 A 
ATOM     32  C   UNL A   1      41.342  23.586  28.028  1.00  0.00     0.010 A 
ATOM     33  C   UNL A   1      40.839  24.777  27.473  1.00  0.00    -0.014 A 
BRANCH  33  34
ATOM     34  C   UNL A   1      41.422  26.097  27.812  1.00  0.00     0.031 A 
ATOM     35  C   UNL A   1      42.807  26.443  27.345  1.00  0.00     0.074 A 
ATOM     36  C   UNL A   1      40.688  27.003  28.481  1.00  0.00     0.049 A 
ATOM     37  N   UNL A   1      43.477  27.558  27.495  1.00  0.00    -0.248 NA
ATOM     38  C   UNL A   1      43.537  25.398  26.610  1.00  0.00     0.031 C 
ATOM     39  C   UNL A   1      39.323  26.792  28.963  1.00  0.00     0.029 A 
ATOM     40  N   UNL A   1      40.983  28.289  28.862  1.00  0.00    -0.354 N 
ATOM     41  C   UNL A   1      44.706  27.346  26.885  1.00  0.00     0.074 A 
ATOM     42  C   UNL A   1      44.701  25.991  26.380  1.00  0.00     0.031 C 
ATOM     43  C   UNL A   1      38.893  27.913  29.565  1.00  0.00     0.029 A 
ATOM     44  C   UNL A   1      39.962  28.910  29.535  1.00  0.00     0.049 A 
ATOM     45  H   UNL A   1      41.846  28.723  28.670  1.00  0.00     0.167 HD
ATOM     46  C   UNL A   1      45.740  28.211  26.752  1.00  0.00     0.037 A 
ATOM     47  C   UNL A   1      39.900  30.143  30.074  1.00  0.00     0.037 A 
ATOM     48  C   UNL A   1      45.735  29.569  27.231  1.00  0.00     0.049 A 
ATOM     49  C   UNL A   1      41.082  31.066  29.944  1.00  0.00     0.074 A 
ATOM     50  C   UNL A   1      46.717  30.535  27.093  1.00  0.00     0.029 A 
ATOM     51  N   UNL A   1      44.698  30.151  27.942  1.00  0.00    -0.354 N 
ATOM     52  N   UNL A   1      42.219  30.874  29.320  1.00  0.00    -0.248 NA
ATOM     53  C   UNL A   1      40.971  32.381  30.594  1.00  0.00     0.031 C 
ATOM     54  C   UNL A   1      46.293  31.689  27.761  1.00  0.00     0.029 A 
ATOM     55  C   UNL A   1      45.029  31.454  28.278  1.00  0.00     0.049 A 
ATOM     56  H   UNL A   1      43.852  29.705  28.175  1.00  0.00     0.167 HD
ATOM     57  C   UNL A   1      42.945  32.048  29.479  1.00  0.00     0.074 A 
ATOM     58  C   UNL A   1      42.114  32.953  30.246  1.00  0.00     0.031 C 
ATOM     59  C   UNL A   1      44.188  32.347  29.031  1.00  0.00     0.037 A 
BRANCH  46  60
ATOM     60  C   UNL A   1      46.980  27.715  26.074  1.00  0.00     0.064 A 
ATOM     61  C   UNL A   1      48.055  27.184  26.802  1.00  0.00     0.173 A 
ATOM     62  C   UNL A   1      47.067  27.711  24.673  1.00  0.00     0.173 A 
ATOM     63  F   UNL A   1      48.024  27.177  28.144  1.00  0.00    -0.203 F 
ATOM     64  C   UNL A   1      49.179  26.680  26.152  1.00  0.00     0.198 A 
ATOM     65  C   UNL A   1      48.182  27.186  24.027  1.00  0.00     0.198 A 
ATOM     66  F   UNL A   1      46.062  28.202  23.933  1.00  0.00    -0.203 F 
ATOM     67  F   UNL A   1      50.207  26.204  26.867  1.00  0.00    -0.200 F 
ATOM     68  C   UNL A   1      49.237  26.673  24.766  1.00  0.00     0.200 A 
ATOM     69  F   UNL A   1      48.233  27.171  22.688  1.00  0.00    -0.200 F 
ATOM     70  F   UNL A   1      50.315  26.176  24.142  1.00  0.00    -0.200 F 
ENDBRANCH  46  60
BRANCH  47  71
ATOM     71  C   UNL A   1      38.676  30.585  30.790  1.00  0.00     0.064 A 
ATOM     72  C   UNL A   1      37.578  31.106  30.091  1.00  0.00     0.173 A 
ATOM     73  C   UNL A   1      38.594  30.530  32.189  1.00  0.00     0.173 A 
ATOM     74  F   UNL A   1      37.620  31.205  28.754  1.00  0.00    -0.203 F 
ATOM     75  C   UNL A   1      36.454  31.577  30.767  1.00  0.00     0.198 A 
ATOM     76  C   UNL A   1      37.459  30.977  32.861  1.00  0.00     0.198 A 
ATOM     77  F   UNL A   1      39.621  30.046  32.903  1.00  0.00    -0.203 F 
ATOM     78  F   UNL A   1      35.440  32.120  30.079  1.00  0.00    -0.200 F 
ATOM     79  C   UNL A   1      36.393  31.508  32.150  1.00  0.00     0.200 A 
ATOM     80  F   UNL A   1      37.402  30.902  34.198  1.00  0.00    -0.200 F 
ATOM     81  F   UNL A   1      35.315  31.967  32.800  1.00  0.00    -0.200 F 
ENDBRANCH  47  71
BRANCH  59  82
ATOM     82  C   UNL A   1      44.714  33.719  29.330  1.00  0.00     0.064 A 
ATOM     83  C   UNL A   1      45.472  33.980  30.481  1.00  0.00     0.173 A 
ATOM     84  C   UNL A   1      44.489  34.778  28.436  1.00  0.00     0.173 A 
ATOM     85  F   UNL A   1      45.700  33.004  31.373  1.00  0.00    -0.203 F 
ATOM     86  C   UNL A   1      45.966  35.256  30.738  1.00  0.00     0.198 A 
ATOM     87  C   UNL A   1      45.007  36.046  28.684  1.00  0.00     0.198 A 
ATOM     88  F   UNL A   1      43.776  34.578  27.317  1.00  0.00    -0.203 F 
ATOM     89  F   UNL A   1      46.651  35.492  31.866  1.00  0.00    -0.200 F 
ATOM     90  C   UNL A   1      45.739  36.285  29.836  1.00  0.00     0.200 A 
ATOM     91  F   UNL A   1      44.797  37.036  27.806  1.00  0.00    -0.200 F 
ATOM     92  F   UNL A   1      46.220  37.511  30.084  1.00  0.00    -0.200 F 
ENDBRANCH  59  82
ENDBRANCH  33  34
ENDBRANCH  26  28
ENDBRANCH  25  26
ENDBRANCH  24  25
ENDBRANCH   1  24
TORSDOF 15
ENDMDL
MODEL 3
REMARK VINA RESULT:     -11.7      2.520      4.466
REMARK SMILES CCc1cccc(NC(=O)N2CCO[C@@H](CC(=O)OCCOC(=O)c3ccc(-c4c5nc(c(-c6c(F)c(F)c(F)c(F)c6F)c6ccc([nH]6)c(-c6c(F)c(F)c(F)c(F)c6F)c6nc(c(-c7c(F)c(F)c(F)c(F)c7F)c7ccc4[nH]7)C=C6)C=C5)cc3)C2)c1
REMARK SMILES IDX 20 1 19 2 17 3 18 4 16 5 15 6 11 7 12 8 88 9 13 10 14 11
REMARK SMILES IDX 9 12 8 13 10 15 7 16 3 17 4 18 89 19 5 20 6 21 2 22 1 23
REMARK SMILES IDX 21 24 22 25 23 26 24 27 25 28 26 29 87 30 27 31 86 32 28 33
REMARK SMILES IDX 29 34 30 35 80 36 31 37 85 38 79 39 81 40 32 41 84 42 78 43
REMARK SMILES IDX 77 44 33 46 65 47 45 48 64 49 46 50 49 51 63 52 82 53 47 54
REMARK SMILES IDX 48 55 62 57 83 58 50 59 34 60 35 61 43 62 36 63 37 64 41 65
REMARK SMILES IDX 44 66 38 67 39 68 42 69 40 70 66 71 67 72 75 73 68 74 69 75
REMARK SMILES IDX 73 76 76 77 70 78 71 79 74 80 72 81 51 82 52 83 60 84 53 85
REMARK SMILES IDX 54 86 58 87 61 88 55 89 56 90 59 91 57 92
REMARK H PARENT 8 14 81 45 49 56
REMARK Flexibility Score: inf
ROOT
ATOM      1  C   UNL A   1      31.374  29.709  25.063  1.00  0.00     0.274 C 
ENDROOT
BRANCH   1   2
ATOM      2  O   UNL A   1      31.485  28.348  25.525  1.00  0.00    -0.462 OA
BRANCH   2   3
ATOM      3  C   UNL A   1      31.147  27.364  24.654  1.00  0.00     0.308 C 
ATOM      4  O   UNL A   1      31.466  27.331  23.474  1.00  0.00    -0.252 OA
BRANCH   3   5
ATOM      5  C   UNL A   1      30.267  26.328  25.305  1.00  0.00     0.156 C 
BRANCH   5   6
ATOM      6  C   UNL A   1      30.921  24.965  25.509  1.00  0.00     0.149 C 
ATOM      7  N   UNL A   1      32.965  23.714  26.059  1.00  0.00    -0.320 N 
ATOM      8  C   UNL A   1      32.253  22.990  27.114  1.00  0.00     0.150 C 
ATOM      9  C   UNL A   1      32.432  25.046  25.791  1.00  0.00     0.154 C 
ATOM     10  C   UNL A   1      30.738  23.013  26.876  1.00  0.00     0.182 C 
ATOM     11  O   UNL A   1      30.252  24.346  26.639  1.00  0.00    -0.374 OA
BRANCH   7  12
ATOM     12  C   UNL A   1      34.257  23.448  25.693  1.00  0.00     0.322 C 
ATOM     13  N   UNL A   1      34.611  22.209  25.261  1.00  0.00    -0.308 N 
ATOM     14  H   UNL A   1      35.555  21.983  25.428  1.00  0.00     0.171 HD
ATOM     15  O   UNL A   1      35.138  24.310  25.753  1.00  0.00    -0.248 OA
BRANCH  13  16
ATOM     16  C   UNL A   1      33.887  21.186  24.617  1.00  0.00     0.043 A 
ATOM     17  C   UNL A   1      33.603  18.778  24.278  1.00  0.00    -0.046 A 
ATOM     18  C   UNL A   1      32.528  19.045  23.420  1.00  0.00     0.004 A 
ATOM     19  C   UNL A   1      34.267  19.861  24.879  1.00  0.00     0.029 A 
ATOM     20  C   UNL A   1      32.173  20.357  23.119  1.00  0.00     0.002 A 
ATOM     21  C   UNL A   1      32.880  21.418  23.682  1.00  0.00     0.026 A 
BRANCH  17  22
ATOM     22  C   UNL A   1      34.083  17.352  24.422  1.00  0.00     0.032 C 
ATOM     23  C   UNL A   1      34.271  16.578  23.126  1.00  0.00     0.009 C 
ENDBRANCH  17  22
ENDBRANCH  13  16
ENDBRANCH   7  12
ENDBRANCH   5   6
ENDBRANCH   3   5
ENDBRANCH   2   3
ENDBRANCH   1   2
BRANCH   1  24
ATOM     24  C   UNL A   1      31.787  30.728  26.131  1.00  0.00     0.275 C 
BRANCH  24  25
ATOM     25  O   UNL A   1      33.146  30.527  26.565  1.00  0.00    -0.458 OA
BRANCH  25  26
ATOM     26  C   UNL A   1      33.659  31.526  27.319  1.00  0.00     0.338 C 
ATOM     27  O   UNL A   1      33.109  32.571  27.625  1.00  0.00    -0.246 OA
BRANCH  26  28
ATOM     28  C   UNL A   1      34.968  31.135  27.876  1.00  0.00     0.060 A 
ATOM     29  C   UNL A   1      35.104  29.818  28.328  1.00  0.00     0.016 A 
ATOM     30  C   UNL A   1      36.020  32.043  28.019  1.00  0.00     0.016 A 
ATOM     31  C   UNL A   1      36.280  29.409  28.949  1.00  0.00     0.010 A 
ATOM     32  C   UNL A   1      37.205  31.630  28.640  1.00  0.00     0.010 A 
ATOM     33  C   UNL A   1      37.333  30.316  29.127  1.00  0.00    -0.014 A 
BRANCH  33  34
ATOM     34  C   UNL A   1      38.533  29.881  29.880  1.00  0.00     0.031 A 
ATOM     35  C   UNL A   1      38.754  30.373  31.282  1.00  0.00     0.074 A 
ATOM     36  C   UNL A   1      39.388  29.000  29.330  1.00  0.00     0.049 A 
ATOM     37  N   UNL A   1      39.711  30.074  32.123  1.00  0.00    -0.248 NA
ATOM     38  C   UNL A   1      37.765  31.326  31.811  1.00  0.00     0.031 C 
ATOM     39  C   UNL A   1      39.265  28.433  27.987  1.00  0.00     0.029 A 
ATOM     40  N   UNL A   1      40.523  28.419  29.838  1.00  0.00    -0.354 N 
ATOM     41  C   UNL A   1      39.448  30.808  33.272  1.00  0.00     0.074 A 
ATOM     42  C   UNL A   1      38.254  31.583  33.017  1.00  0.00     0.031 C 
ATOM     43  C   UNL A   1      40.278  27.574  27.782  1.00  0.00     0.029 A 
ATOM     44  C   UNL A   1      41.134  27.554  28.966  1.00  0.00     0.049 A 
ATOM     45  H   UNL A   1      40.866  28.606  30.742  1.00  0.00     0.167 HD
ATOM     46  C   UNL A   1      40.138  30.824  34.437  1.00  0.00     0.037 A 
ATOM     47  C   UNL A   1      42.263  26.833  29.105  1.00  0.00     0.037 A 
ATOM     48  C   UNL A   1      41.312  30.033  34.702  1.00  0.00     0.049 A 
ATOM     49  C   UNL A   1      43.030  26.904  30.399  1.00  0.00     0.074 A 
ATOM     50  C   UNL A   1      42.046  29.943  35.872  1.00  0.00     0.029 A 
ATOM     51  N   UNL A   1      41.924  29.197  33.781  1.00  0.00    -0.354 N 
ATOM     52  N   UNL A   1      42.744  27.560  31.497  1.00  0.00    -0.248 NA
ATOM     53  C   UNL A   1      44.279  26.131  30.472  1.00  0.00     0.031 C 
ATOM     54  C   UNL A   1      43.130  29.088  35.645  1.00  0.00     0.029 A 
ATOM     55  C   UNL A   1      43.046  28.612  34.347  1.00  0.00     0.049 A 
ATOM     56  H   UNL A   1      41.610  29.043  32.861  1.00  0.00     0.167 HD
ATOM     57  C   UNL A   1      43.758  27.260  32.397  1.00  0.00     0.074 A 
ATOM     58  C   UNL A   1      44.660  26.350  31.722  1.00  0.00     0.031 C 
ATOM     59  C   UNL A   1      43.927  27.700  33.667  1.00  0.00     0.037 A 
BRANCH  46  60
ATOM     60  C   UNL A   1      39.657  31.740  35.520  1.00  0.00     0.064 A 
ATOM     61  C   UNL A   1      40.139  33.051  35.644  1.00  0.00     0.173 A 
ATOM     62  C   UNL A   1      38.652  31.322  36.406  1.00  0.00     0.173 A 
ATOM     63  F   UNL A   1      41.109  33.494  34.828  1.00  0.00    -0.203 F 
ATOM     64  C   UNL A   1      39.642  33.906  36.625  1.00  0.00     0.198 A 
ATOM     65  C   UNL A   1      38.142  32.185  37.370  1.00  0.00     0.198 A 
ATOM     66  F   UNL A   1      38.154  30.078  36.323  1.00  0.00    -0.203 F 
ATOM     67  F   UNL A   1      40.137  35.145  36.744  1.00  0.00    -0.200 F 
ATOM     68  C   UNL A   1      38.638  33.476  37.480  1.00  0.00     0.200 A 
ATOM     69  F   UNL A   1      37.165  31.772  38.189  1.00  0.00    -0.200 F 
ATOM     70  F   UNL A   1      38.153  34.304  38.416  1.00  0.00    -0.200 F 
ENDBRANCH  46  60
BRANCH  47  71
ATOM     71  C   UNL A   1      42.745  25.977  27.991  1.00  0.00     0.064 A 
ATOM     72  C   UNL A   1      43.623  26.480  27.021  1.00  0.00     0.173 A 
ATOM     73  C   UNL A   1      42.308  24.651  27.852  1.00  0.00     0.173 A 
ATOM     74  F   UNL A   1      44.046  27.751  27.094  1.00  0.00    -0.203 F 
ATOM     75  C   UNL A   1      44.028  25.697  25.942  1.00  0.00     0.198 A 
ATOM     76  C   UNL A   1      42.735  23.861  26.788  1.00  0.00     0.198 A 
ATOM     77  F   UNL A   1      41.463  24.126  28.751  1.00  0.00    -0.203 F 
ATOM     78  F   UNL A   1      44.825  26.219  24.999  1.00  0.00    -0.200 F 
ATOM     79  C   UNL A   1      43.587  24.387  25.829  1.00  0.00     0.200 A 
ATOM     80  F   UNL A   1      42.312  22.593  26.686  1.00  0.00    -0.200 F 
ATOM     81  F   UNL A   1      43.971  23.636  24.788  1.00  0.00    -0.200 F 
ENDBRANCH  47  71
BRANCH  59  82
ATOM     82  C   UNL A   1      45.114  27.179  34.422  1.00  0.00     0.064 A 
ATOM     83  C   UNL A   1      46.338  27.862  34.426  1.00  0.00     0.173 A 
ATOM     84  C   UNL A   1      45.014  26.002  35.181  1.00  0.00     0.173 A 
ATOM     85  F   UNL A   1      46.488  28.983  33.704  1.00  0.00    -0.203 F 
ATOM     86  C   UNL A   1      47.427  27.374  35.144  1.00  0.00     0.198 A 
ATOM     87  C   UNL A   1      46.097  25.532  35.918  1.00  0.00     0.198 A 
ATOM     88  F   UNL A   1      43.861  25.316  35.215  1.00  0.00    -0.203 F 
ATOM     89  F   UNL A   1      48.601  28.020  35.099  1.00  0.00    -0.200 F 
ATOM     90  C   UNL A   1      47.303  26.214  35.894  1.00  0.00     0.200 A 
ATOM     91  F   UNL A   1      45.972  24.418  36.651  1.00  0.00    -0.200 F 
ATOM     92  F   UNL A   1      48.351  25.749  36.588  1.00  0.00    -0.200 F 
ENDBRANCH  59  82
ENDBRANCH  33  34
ENDBRANCH  26  28
ENDBRANCH  25  26
ENDBRANCH  24  25
ENDBRANCH   1  24
TORSDOF 15
ENDMDL
