MODEL 1
REMARK VINA RESULT:     -13.7      0.000      0.000
REMARK SMILES COc1ccccc1C(=O)N1[C@@H](C(=O)OCCOC(=O)c2ccc(-c3c4nc(c(-c5c(F)c(F)c(F)c(F)c5F)c5ccc([nH]5)c(-c5c(F)c(F)c(F)c(F)c5F)c5nc(c(-c6c(F)c(F)c(F)c(F)c6F)c6ccc3[nH]6)C=C5)C=C4)cc2)COC12CC[NH+](Cc1ccccc1)CC2
REMARK SMILES IDX 16 1 15 2 13 3 14 4 12 5 11 6 86 7 84 8 85 9 87 10 98 11
REMARK SMILES IDX 88 12 97 13 89 14 9 16 10 17 8 18 3 19 4 20 5 21 7 22 6 23
REMARK SMILES IDX 2 24 1 25 90 26 91 27 92 28 96 29 93 30 95 31 94 32 17 33
REMARK SMILES IDX 18 34 19 35 20 36 21 37 22 38 83 39 23 40 82 41 24 42 25 43
REMARK SMILES IDX 26 44 76 45 27 46 81 47 75 48 77 49 28 50 80 51 74 52 73 53
REMARK SMILES IDX 29 55 61 56 41 57 60 58 42 59 45 60 59 61 78 62 43 63 44 64
REMARK SMILES IDX 58 66 79 67 46 68 30 69 31 70 39 71 32 72 33 73 37 74 40 75
REMARK SMILES IDX 34 76 35 77 38 78 36 79 62 80 63 81 71 82 64 83 65 84 69 85
REMARK SMILES IDX 72 86 66 87 67 88 70 89 68 90 47 91 48 92 56 93 49 94 50 95
REMARK SMILES IDX 54 96 57 97 51 98 52 99 55 100 53 101
REMARK H PARENT 89 15 77 54 45 65
REMARK Flexibility Score: inf
ROOT
ATOM      1  C   UNL A   1      31.696  29.551  24.651  1.00  0.00     0.274 C 
ENDROOT
BRANCH   1   2
ATOM      2  O   UNL A   1      33.070  29.327  24.293  1.00  0.00    -0.460 OA
BRANCH   2   3
ATOM      3  C   UNL A   1      33.335  28.208  23.567  1.00  0.00     0.331 C 
ATOM      4  O   UNL A   1      34.309  28.085  22.830  1.00  0.00    -0.250 OA
BRANCH   3   5
ATOM      5  C   UNL A   1      32.234  27.163  23.665  1.00  0.00     0.224 C 
ATOM      6  N   UNL A   1      32.797  25.939  24.210  1.00  0.00    -0.293 N 
ATOM      7  C   UNL A   1      32.356  24.819  23.371  1.00  0.00     0.155 C 
ATOM      8  C   UNL A   1      31.562  26.760  22.374  1.00  0.00     0.200 C 
ATOM      9  O   UNL A   1      32.059  25.442  22.092  1.00  0.00    -0.352 OA
ATOM     10  C   UNL A   1      33.463  23.801  23.116  1.00  0.00     0.120 C 
ATOM     11  C   UNL A   1      31.061  24.151  23.872  1.00  0.00     0.120 C 
ATOM     12  C   UNL A   1      32.994  22.577  22.355  1.00  0.00     0.267 C 
ATOM     13  C   UNL A   1      30.729  22.859  23.116  1.00  0.00     0.267 C 
ATOM     14  N   UNL A   1      31.843  21.930  22.970  1.00  0.00    -0.331 N 
ATOM     15  H   UNL A   1      31.503  21.233  22.308  1.00  0.00     0.348 HD
BRANCH   6  16
ATOM     16  C   UNL A   1      32.886  25.870  25.596  1.00  0.00     0.260 C 
ATOM     17  O   UNL A   1      32.874  26.913  26.254  1.00  0.00    -0.269 OA
BRANCH  16  18
ATOM     18  C   UNL A   1      33.170  24.567  26.302  1.00  0.00     0.082 A 
ATOM     19  C   UNL A   1      32.286  23.777  27.047  1.00  0.00     0.131 A 
ATOM     20  C   UNL A   1      32.740  22.639  27.740  1.00  0.00     0.047 A 
ATOM     21  C   UNL A   1      34.059  22.213  27.626  1.00  0.00     0.004 A 
ATOM     22  C   UNL A   1      34.496  24.092  26.176  1.00  0.00     0.018 A 
ATOM     23  C   UNL A   1      34.933  22.928  26.821  1.00  0.00     0.001 A 
BRANCH  19  24
ATOM     24  O   UNL A   1      30.971  24.081  27.241  1.00  0.00    -0.496 OA
ATOM     25  C   UNL A   1      30.127  22.966  26.981  1.00  0.00     0.278 C 
ENDBRANCH  19  24
ENDBRANCH  16  18
ENDBRANCH   6  16
BRANCH  14  26
ATOM     26  C   UNL A   1      32.130  21.006  24.078  1.00  0.00     0.299 C 
BRANCH  26  27
ATOM     27  C   UNL A   1      32.785  19.674  23.775  1.00  0.00     0.006 A 
ATOM     28  C   UNL A   1      33.876  19.208  24.522  1.00  0.00     0.009 A 
ATOM     29  C   UNL A   1      32.311  18.874  22.721  1.00  0.00     0.009 A 
ATOM     30  C   UNL A   1      34.438  17.957  24.255  1.00  0.00     0.001 A 
ATOM     31  C   UNL A   1      32.844  17.606  22.486  1.00  0.00     0.001 A 
ATOM     32  C   UNL A   1      33.904  17.145  23.257  1.00  0.00     0.000 A 
ENDBRANCH  26  27
ENDBRANCH  14  26
ENDBRANCH   3   5
ENDBRANCH   2   3
ENDBRANCH   1   2
BRANCH   1  33
ATOM     33  C   UNL A   1      31.581  30.523  25.824  1.00  0.00     0.275 C 
BRANCH  33  34
ATOM     34  O   UNL A   1      32.660  30.355  26.759  1.00  0.00    -0.458 OA
BRANCH  34  35
ATOM     35  C   UNL A   1      33.237  31.501  27.180  1.00  0.00     0.338 C 
ATOM     36  O   UNL A   1      32.719  32.608  27.272  1.00  0.00    -0.246 OA
BRANCH  35  37
ATOM     37  C   UNL A   1      34.581  31.223  27.696  1.00  0.00     0.060 A 
ATOM     38  C   UNL A   1      34.891  29.897  28.020  1.00  0.00     0.016 A 
ATOM     39  C   UNL A   1      35.493  32.250  27.935  1.00  0.00     0.016 A 
ATOM     40  C   UNL A   1      36.107  29.588  28.611  1.00  0.00     0.010 A 
ATOM     41  C   UNL A   1      36.711  31.943  28.539  1.00  0.00     0.010 A 
ATOM     42  C   UNL A   1      37.008  30.616  28.899  1.00  0.00    -0.014 A 
BRANCH  42  43
ATOM     43  C   UNL A   1      38.206  30.324  29.706  1.00  0.00     0.031 A 
ATOM     44  C   UNL A   1      39.245  29.408  29.139  1.00  0.00     0.074 A 
ATOM     45  C   UNL A   1      38.354  30.879  30.920  1.00  0.00     0.049 A 
ATOM     46  N   UNL A   1      40.286  28.872  29.718  1.00  0.00    -0.248 NA
ATOM     47  C   UNL A   1      39.082  29.040  27.724  1.00  0.00     0.031 C 
ATOM     48  C   UNL A   1      37.435  31.842  31.522  1.00  0.00     0.029 A 
ATOM     49  N   UNL A   1      39.327  30.696  31.865  1.00  0.00    -0.354 N 
ATOM     50  C   UNL A   1      40.879  28.072  28.751  1.00  0.00     0.074 A 
ATOM     51  C   UNL A   1      40.083  28.191  27.549  1.00  0.00     0.031 C 
ATOM     52  C   UNL A   1      37.875  32.149  32.753  1.00  0.00     0.029 A 
ATOM     53  C   UNL A   1      39.074  31.364  33.037  1.00  0.00     0.049 A 
ATOM     54  H   UNL A   1      40.127  30.141  31.721  1.00  0.00     0.167 HD
ATOM     55  C   UNL A   1      41.987  27.303  28.869  1.00  0.00     0.037 A 
ATOM     56  C   UNL A   1      39.716  31.305  34.217  1.00  0.00     0.037 A 
ATOM     57  C   UNL A   1      42.770  27.216  30.072  1.00  0.00     0.049 A 
ATOM     58  C   UNL A   1      40.917  30.409  34.343  1.00  0.00     0.074 A 
ATOM     59  C   UNL A   1      43.915  26.479  30.311  1.00  0.00     0.029 A 
ATOM     60  N   UNL A   1      42.481  27.900  31.247  1.00  0.00    -0.354 N 
ATOM     61  N   UNL A   1      41.461  29.625  33.441  1.00  0.00    -0.248 NA
ATOM     62  C   UNL A   1      41.588  30.380  35.648  1.00  0.00     0.031 C 
ATOM     63  C   UNL A   1      44.295  26.686  31.642  1.00  0.00     0.029 A 
ATOM     64  C   UNL A   1      43.414  27.587  32.220  1.00  0.00     0.049 A 
ATOM     65  H   UNL A   1      41.723  28.516  31.368  1.00  0.00     0.167 HD
ATOM     66  C   UNL A   1      42.545  29.022  34.061  1.00  0.00     0.074 A 
ATOM     67  C   UNL A   1      42.588  29.540  35.415  1.00  0.00     0.031 C 
ATOM     68  C   UNL A   1      43.426  28.121  33.559  1.00  0.00     0.037 A 
BRANCH  55  69
ATOM     69  C   UNL A   1      42.368  26.463  27.685  1.00  0.00     0.064 A 
ATOM     70  C   UNL A   1      41.797  25.204  27.451  1.00  0.00     0.173 A 
ATOM     71  C   UNL A   1      43.340  26.920  26.783  1.00  0.00     0.173 A 
ATOM     72  F   UNL A   1      40.878  24.710  28.296  1.00  0.00    -0.203 F 
ATOM     73  C   UNL A   1      42.211  24.417  26.379  1.00  0.00     0.198 A 
ATOM     74  C   UNL A   1      43.732  26.143  25.696  1.00  0.00     0.198 A 
ATOM     75  F   UNL A   1      43.920  28.116  26.962  1.00  0.00    -0.203 F 
ATOM     76  F   UNL A   1      41.698  23.190  26.211  1.00  0.00    -0.200 F 
ATOM     77  C   UNL A   1      43.176  24.888  25.501  1.00  0.00     0.200 A 
ATOM     78  F   UNL A   1      44.661  26.603  24.845  1.00  0.00    -0.200 F 
ATOM     79  F   UNL A   1      43.580  24.127  24.474  1.00  0.00    -0.200 F 
ENDBRANCH  55  69
BRANCH  56  80
ATOM     80  C   UNL A   1      39.205  32.095  35.364  1.00  0.00     0.064 A 
ATOM     81  C   UNL A   1      38.414  31.502  36.357  1.00  0.00     0.173 A 
ATOM     82  C   UNL A   1      39.539  33.450  35.516  1.00  0.00     0.173 A 
ATOM     83  F   UNL A   1      38.051  30.216  36.243  1.00  0.00    -0.203 F 
ATOM     84  C   UNL A   1      37.978  32.234  37.459  1.00  0.00     0.198 A 
ATOM     85  C   UNL A   1      39.123  34.174  36.631  1.00  0.00     0.198 A 
ATOM     86  F   UNL A   1      40.295  34.063  34.594  1.00  0.00    -0.203 F 
ATOM     87  F   UNL A   1      37.204  31.651  38.384  1.00  0.00    -0.200 F 
ATOM     88  C   UNL A   1      38.341  33.565  37.601  1.00  0.00     0.200 A 
ATOM     89  F   UNL A   1      39.488  35.455  36.771  1.00  0.00    -0.200 F 
ATOM     90  F   UNL A   1      37.936  34.263  38.671  1.00  0.00    -0.200 F 
ENDBRANCH  56  80
BRANCH  68  91
ATOM     91  C   UNL A   1      44.521  27.660  34.473  1.00  0.00     0.064 A 
ATOM     92  C   UNL A   1      45.737  28.352  34.567  1.00  0.00     0.173 A 
ATOM     93  C   UNL A   1      44.331  26.542  35.298  1.00  0.00     0.173 A 
ATOM     94  F   UNL A   1      45.969  29.417  33.786  1.00  0.00    -0.203 F 
ATOM     95  C   UNL A   1      46.731  27.930  35.444  1.00  0.00     0.198 A 
ATOM     96  C   UNL A   1      45.318  26.139  36.193  1.00  0.00     0.198 A 
ATOM     97  F   UNL A   1      43.182  25.851  35.248  1.00  0.00    -0.203 F 
ATOM     98  F   UNL A   1      47.900  28.584  35.492  1.00  0.00    -0.200 F 
ATOM     99  C   UNL A   1      46.519  26.830  36.261  1.00  0.00     0.200 A 
ATOM    100  F   UNL A   1      45.106  25.082  36.989  1.00  0.00    -0.200 F 
ATOM    101  F   UNL A   1      47.475  26.430  37.111  1.00  0.00    -0.200 F 
ENDBRANCH  68  91
ENDBRANCH  42  43
ENDBRANCH  35  37
ENDBRANCH  34  35
ENDBRANCH  33  34
ENDBRANCH   1  33
TORSDOF 16
ENDMDL
MODEL 2
REMARK VINA RESULT:     -13.5      4.237      9.634
REMARK SMILES COc1ccccc1C(=O)N1[C@@H](C(=O)OCCOC(=O)c2ccc(-c3c4nc(c(-c5c(F)c(F)c(F)c(F)c5F)c5ccc([nH]5)c(-c5c(F)c(F)c(F)c(F)c5F)c5nc(c(-c6c(F)c(F)c(F)c(F)c6F)c6ccc3[nH]6)C=C5)C=C4)cc2)COC12CC[NH+](Cc1ccccc1)CC2
REMARK SMILES IDX 16 1 15 2 13 3 14 4 12 5 11 6 86 7 84 8 85 9 87 10 98 11
REMARK SMILES IDX 88 12 97 13 89 14 9 16 10 17 8 18 3 19 4 20 5 21 7 22 6 23
REMARK SMILES IDX 2 24 1 25 90 26 91 27 92 28 96 29 93 30 95 31 94 32 17 33
REMARK SMILES IDX 18 34 19 35 20 36 21 37 22 38 83 39 23 40 82 41 24 42 25 43
REMARK SMILES IDX 26 44 76 45 27 46 81 47 75 48 77 49 28 50 80 51 74 52 73 53
REMARK SMILES IDX 29 55 61 56 41 57 60 58 42 59 45 60 59 61 78 62 43 63 44 64
REMARK SMILES IDX 58 66 79 67 46 68 30 69 31 70 39 71 32 72 33 73 37 74 40 75
REMARK SMILES IDX 34 76 35 77 38 78 36 79 62 80 63 81 71 82 64 83 65 84 69 85
REMARK SMILES IDX 72 86 66 87 67 88 70 89 68 90 47 91 48 92 56 93 49 94 50 95
REMARK SMILES IDX 54 96 57 97 51 98 52 99 55 100 53 101
REMARK H PARENT 89 15 77 54 45 65
REMARK Flexibility Score: inf
ROOT
ATOM      1  C   UNL A   1      35.916  20.116  24.960  1.00  0.00     0.274 C 
ENDROOT
BRANCH   1   2
ATOM      2  O   UNL A   1      35.225  21.258  25.492  1.00  0.00    -0.460 OA
BRANCH   2   3
ATOM      3  C   UNL A   1      34.263  21.810  24.704  1.00  0.00     0.331 C 
ATOM      4  O   UNL A   1      33.222  21.238  24.392  1.00  0.00    -0.250 OA
BRANCH   3   5
ATOM      5  C   UNL A   1      34.662  23.167  24.144  1.00  0.00     0.224 C 
ATOM      6  N   UNL A   1      33.644  24.139  24.504  1.00  0.00    -0.293 N 
ATOM      7  C   UNL A   1      33.297  24.905  23.302  1.00  0.00     0.155 C 
ATOM      8  C   UNL A   1      34.806  23.268  22.645  1.00  0.00     0.200 C 
ATOM      9  O   UNL A   1      33.660  24.017  22.210  1.00  0.00    -0.352 OA
ATOM     10  C   UNL A   1      31.798  25.161  23.177  1.00  0.00     0.120 C 
ATOM     11  C   UNL A   1      34.120  26.198  23.140  1.00  0.00     0.120 C 
ATOM     12  C   UNL A   1      31.433  26.054  22.008  1.00  0.00     0.267 C 
ATOM     13  C   UNL A   1      33.605  27.090  22.003  1.00  0.00     0.267 C 
ATOM     14  N   UNL A   1      32.164  27.314  22.004  1.00  0.00    -0.331 N 
ATOM     15  H   UNL A   1      31.980  27.763  21.107  1.00  0.00     0.348 HD
BRANCH   6  16
ATOM     16  C   UNL A   1      33.759  24.708  25.768  1.00  0.00     0.260 C 
ATOM     17  O   UNL A   1      34.334  24.080  26.662  1.00  0.00    -0.269 OA
BRANCH  16  18
ATOM     18  C   UNL A   1      33.051  25.993  26.120  1.00  0.00     0.082 A 
ATOM     19  C   UNL A   1      31.701  26.175  26.448  1.00  0.00     0.131 A 
ATOM     20  C   UNL A   1      31.171  27.464  26.642  1.00  0.00     0.047 A 
ATOM     21  C   UNL A   1      31.992  28.585  26.610  1.00  0.00     0.004 A 
ATOM     22  C   UNL A   1      33.868  27.146  26.128  1.00  0.00     0.018 A 
ATOM     23  C   UNL A   1      33.349  28.423  26.377  1.00  0.00     0.001 A 
BRANCH  19  24
ATOM     24  O   UNL A   1      30.790  25.162  26.511  1.00  0.00    -0.496 OA
ATOM     25  C   UNL A   1      29.527  25.554  25.987  1.00  0.00     0.278 C 
ENDBRANCH  19  24
ENDBRANCH  16  18
ENDBRANCH   6  16
BRANCH  14  26
ATOM     26  C   UNL A   1      31.625  28.383  22.857  1.00  0.00     0.299 C 
BRANCH  26  27
ATOM     27  C   UNL A   1      30.196  28.840  22.652  1.00  0.00     0.006 A 
ATOM     28  C   UNL A   1      29.124  28.205  23.295  1.00  0.00     0.009 A 
ATOM     29  C   UNL A   1      29.912  29.917  21.794  1.00  0.00     0.009 A 
ATOM     30  C   UNL A   1      27.817  28.670  23.126  1.00  0.00     0.001 A 
ATOM     31  C   UNL A   1      28.612  30.407  21.662  1.00  0.00     0.001 A 
ATOM     32  C   UNL A   1      27.566  29.787  22.333  1.00  0.00     0.000 A 
ENDBRANCH  26  27
ENDBRANCH  14  26
ENDBRANCH   3   5
ENDBRANCH   2   3
ENDBRANCH   1   2
BRANCH   1  33
ATOM     33  C   UNL A   1      37.389  20.430  24.704  1.00  0.00     0.275 C 
BRANCH  33  34
ATOM     34  O   UNL A   1      37.880  21.438  25.604  1.00  0.00    -0.458 OA
BRANCH  34  35
ATOM     35  C   UNL A   1      39.102  21.194  26.125  1.00  0.00     0.338 C 
ATOM     36  O   UNL A   1      39.759  20.163  26.038  1.00  0.00    -0.246 OA
BRANCH  35  37
ATOM     37  C   UNL A   1      39.654  22.425  26.699  1.00  0.00     0.060 A 
ATOM     38  C   UNL A   1      39.184  23.645  26.197  1.00  0.00     0.016 A 
ATOM     39  C   UNL A   1      40.672  22.389  27.651  1.00  0.00     0.016 A 
ATOM     40  C   UNL A   1      39.743  24.839  26.624  1.00  0.00     0.010 A 
ATOM     41  C   UNL A   1      41.243  23.588  28.073  1.00  0.00     0.010 A 
ATOM     42  C   UNL A   1      40.796  24.810  27.542  1.00  0.00    -0.014 A 
BRANCH  42  43
ATOM     43  C   UNL A   1      41.527  26.055  27.844  1.00  0.00     0.031 A 
ATOM     44  C   UNL A   1      40.824  27.131  28.611  1.00  0.00     0.074 A 
ATOM     45  C   UNL A   1      42.799  26.205  27.440  1.00  0.00     0.049 A 
ATOM     46  N   UNL A   1      41.192  28.362  28.844  1.00  0.00    -0.248 NA
ATOM     47  C   UNL A   1      39.519  26.768  29.187  1.00  0.00     0.031 C 
ATOM     48  C   UNL A   1      43.591  25.184  26.757  1.00  0.00     0.029 A 
ATOM     49  N   UNL A   1      43.637  27.283  27.534  1.00  0.00    -0.354 N 
ATOM     50  C   UNL A   1      40.149  28.933  29.559  1.00  0.00     0.074 A 
ATOM     51  C   UNL A   1      39.132  27.916  29.721  1.00  0.00     0.031 C 
ATOM     52  C   UNL A   1      44.799  25.695  26.469  1.00  0.00     0.029 A 
ATOM     53  C   UNL A   1      44.839  27.090  26.902  1.00  0.00     0.049 A 
ATOM     54  H   UNL A   1      43.402  28.114  28.007  1.00  0.00     0.167 HD
ATOM     55  C   UNL A   1      40.054  30.199  30.029  1.00  0.00     0.037 A 
ATOM     56  C   UNL A   1      45.836  27.961  26.662  1.00  0.00     0.037 A 
ATOM     57  C   UNL A   1      41.088  31.186  29.869  1.00  0.00     0.049 A 
ATOM     58  C   UNL A   1      45.692  29.376  27.150  1.00  0.00     0.074 A 
ATOM     59  C   UNL A   1      41.111  32.497  30.306  1.00  0.00     0.029 A 
ATOM     60  N   UNL A   1      42.293  30.960  29.214  1.00  0.00    -0.354 N 
ATOM     61  N   UNL A   1      44.693  29.929  27.797  1.00  0.00    -0.248 NA
ATOM     62  C   UNL A   1      46.806  30.289  26.869  1.00  0.00     0.031 C 
ATOM     63  C   UNL A   1      42.312  33.076  29.880  1.00  0.00     0.029 A 
ATOM     64  C   UNL A   1      43.058  32.113  29.218  1.00  0.00     0.049 A 
ATOM     65  H   UNL A   1      42.561  30.105  28.807  1.00  0.00     0.167 HD
ATOM     66  C   UNL A   1      45.061  31.249  28.015  1.00  0.00     0.074 A 
ATOM     67  C   UNL A   1      46.382  31.410  27.439  1.00  0.00     0.031 C 
ATOM     68  C   UNL A   1      44.370  32.238  28.633  1.00  0.00     0.037 A 
BRANCH  55  69
ATOM     69  C   UNL A   1      38.770  30.586  30.701  1.00  0.00     0.064 A 
ATOM     70  C   UNL A   1      37.659  31.044  29.978  1.00  0.00     0.173 A 
ATOM     71  C   UNL A   1      38.660  30.520  32.098  1.00  0.00     0.173 A 
ATOM     72  F   UNL A   1      37.718  31.147  28.641  1.00  0.00    -0.203 F 
ATOM     73  C   UNL A   1      36.499  31.455  30.630  1.00  0.00     0.198 A 
ATOM     74  C   UNL A   1      37.489  30.906  32.746  1.00  0.00     0.198 A 
ATOM     75  F   UNL A   1      39.694  30.093  32.839  1.00  0.00    -0.203 F 
ATOM     76  F   UNL A   1      35.472  31.948  29.922  1.00  0.00    -0.200 F 
ATOM     77  C   UNL A   1      36.414  31.384  32.012  1.00  0.00     0.200 A 
ATOM     78  F   UNL A   1      37.407  30.831  34.082  1.00  0.00    -0.200 F 
ATOM     79  F   UNL A   1      35.300  31.787  32.640  1.00  0.00    -0.200 F 
ENDBRANCH  55  69
BRANCH  56  80
ATOM     80  C   UNL A   1      47.026  27.513  25.898  1.00  0.00     0.064 A 
ATOM     81  C   UNL A   1      47.103  27.686  24.510  1.00  0.00     0.173 A 
ATOM     82  C   UNL A   1      48.133  26.947  26.549  1.00  0.00     0.173 A 
ATOM     83  F   UNL A   1      46.061  28.202  23.841  1.00  0.00    -0.203 F 
ATOM     84  C   UNL A   1      48.243  27.311  23.802  1.00  0.00     0.198 A 
ATOM     85  C   UNL A   1      49.281  26.595  25.844  1.00  0.00     0.198 A 
ATOM     86  F   UNL A   1      48.109  26.761  27.877  1.00  0.00    -0.203 F 
ATOM     87  F   UNL A   1      48.283  27.465  22.472  1.00  0.00    -0.200 F 
ATOM     88  C   UNL A   1      49.335  26.775  24.470  1.00  0.00     0.200 A 
ATOM     89  F   UNL A   1      50.338  26.091  26.495  1.00  0.00    -0.200 F 
ATOM     90  F   UNL A   1      50.437  26.432  23.790  1.00  0.00    -0.200 F 
ENDBRANCH  56  80
BRANCH  68  91
ATOM     91  C   UNL A   1      45.044  33.574  28.738  1.00  0.00     0.064 A 
ATOM     92  C   UNL A   1      44.845  34.572  27.775  1.00  0.00     0.173 A 
ATOM     93  C   UNL A   1      45.857  33.871  29.841  1.00  0.00     0.173 A 
ATOM     94  F   UNL A   1      44.087  34.328  26.695  1.00  0.00    -0.203 F 
ATOM     95  C   UNL A   1      45.451  35.818  27.904  1.00  0.00     0.198 A 
ATOM     96  C   UNL A   1      46.441  35.127  29.980  1.00  0.00     0.198 A 
ATOM     97  F   UNL A   1      46.071  32.949  30.792  1.00  0.00    -0.203 F 
ATOM     98  F   UNL A   1      45.278  36.747  26.953  1.00  0.00    -0.200 F 
ATOM     99  C   UNL A   1      46.242  36.097  29.009  1.00  0.00     0.200 A 
ATOM    100  F   UNL A   1      47.196  35.397  31.054  1.00  0.00    -0.200 F 
ATOM    101  F   UNL A   1      46.818  37.300  29.136  1.00  0.00    -0.200 F 
ENDBRANCH  68  91
ENDBRANCH  42  43
ENDBRANCH  35  37
ENDBRANCH  34  35
ENDBRANCH  33  34
ENDBRANCH   1  33
TORSDOF 16
ENDMDL
MODEL 3
REMARK VINA RESULT:     -13.4      1.108      2.114
REMARK SMILES COc1ccccc1C(=O)N1[C@@H](C(=O)OCCOC(=O)c2ccc(-c3c4nc(c(-c5c(F)c(F)c(F)c(F)c5F)c5ccc([nH]5)c(-c5c(F)c(F)c(F)c(F)c5F)c5nc(c(-c6c(F)c(F)c(F)c(F)c6F)c6ccc3[nH]6)C=C5)C=C4)cc2)COC12CC[NH+](Cc1ccccc1)CC2
REMARK SMILES IDX 16 1 15 2 13 3 14 4 12 5 11 6 86 7 84 8 85 9 87 10 98 11
REMARK SMILES IDX 88 12 97 13 89 14 9 16 10 17 8 18 3 19 4 20 5 21 7 22 6 23
REMARK SMILES IDX 2 24 1 25 90 26 91 27 92 28 96 29 93 30 95 31 94 32 17 33
REMARK SMILES IDX 18 34 19 35 20 36 21 37 22 38 83 39 23 40 82 41 24 42 25 43
REMARK SMILES IDX 26 44 76 45 27 46 81 47 75 48 77 49 28 50 80 51 74 52 73 53
REMARK SMILES IDX 29 55 61 56 41 57 60 58 42 59 45 60 59 61 78 62 43 63 44 64
REMARK SMILES IDX 58 66 79 67 46 68 30 69 31 70 39 71 32 72 33 73 37 74 40 75
REMARK SMILES IDX 34 76 35 77 38 78 36 79 62 80 63 81 71 82 64 83 65 84 69 85
REMARK SMILES IDX 72 86 66 87 67 88 70 89 68 90 47 91 48 92 56 93 49 94 50 95
REMARK SMILES IDX 54 96 57 97 51 98 52 99 55 100 53 101
REMARK H PARENT 89 15 77 54 45 65
REMARK Flexibility Score: inf
ROOT
ATOM      1  C   UNL A   1      32.499  29.235  24.666  1.00  0.00     0.274 C 
ENDROOT
BRANCH   1   2
ATOM      2  O   UNL A   1      31.475  28.275  24.352  1.00  0.00    -0.460 OA
BRANCH   2   3
ATOM      3  C   UNL A   1      31.882  27.130  23.743  1.00  0.00     0.331 C 
ATOM      4  O   UNL A   1      32.331  27.083  22.602  1.00  0.00    -0.250 OA
BRANCH   3   5
ATOM      5  C   UNL A   1      31.612  25.886  24.578  1.00  0.00     0.224 C 
ATOM      6  N   UNL A   1      32.661  24.914  24.322  1.00  0.00    -0.293 N 
ATOM      7  C   UNL A   1      32.028  23.615  24.068  1.00  0.00     0.155 C 
ATOM      8  C   UNL A   1      30.314  25.161  24.316  1.00  0.00     0.200 C 
ATOM      9  O   UNL A   1      30.691  23.963  23.617  1.00  0.00    -0.352 OA
ATOM     10  C   UNL A   1      32.689  22.849  22.926  1.00  0.00     0.120 C 
ATOM     11  C   UNL A   1      31.878  22.748  25.333  1.00  0.00     0.120 C 
ATOM     12  C   UNL A   1      32.129  21.455  22.729  1.00  0.00     0.267 C 
ATOM     13  C   UNL A   1      31.413  21.320  25.022  1.00  0.00     0.267 C 
ATOM     14  N   UNL A   1      32.144  20.658  23.948  1.00  0.00    -0.331 N 
ATOM     15  H   UNL A   1      31.602  19.814  23.760  1.00  0.00     0.348 HD
BRANCH   6  16
ATOM     16  C   UNL A   1      33.830  25.065  25.059  1.00  0.00     0.260 C 
ATOM     17  O   UNL A   1      34.036  26.127  25.653  1.00  0.00    -0.269 OA
BRANCH  16  18
ATOM     18  C   UNL A   1      34.930  24.034  25.009  1.00  0.00     0.082 A 
ATOM     19  C   UNL A   1      35.347  23.165  26.026  1.00  0.00     0.131 A 
ATOM     20  C   UNL A   1      36.470  22.335  25.854  1.00  0.00     0.047 A 
ATOM     21  C   UNL A   1      37.140  22.285  24.636  1.00  0.00     0.004 A 
ATOM     22  C   UNL A   1      35.609  23.937  23.773  1.00  0.00     0.018 A 
ATOM     23  C   UNL A   1      36.692  23.070  23.585  1.00  0.00     0.001 A 
BRANCH  19  24
ATOM     24  O   UNL A   1      34.779  23.114  27.264  1.00  0.00    -0.496 OA
ATOM     25  C   UNL A   1      34.293  21.813  27.571  1.00  0.00     0.278 C 
ENDBRANCH  19  24
ENDBRANCH  16  18
ENDBRANCH   6  16
BRANCH  14  26
ATOM     26  C   UNL A   1      33.413  19.991  24.275  1.00  0.00     0.299 C 
BRANCH  26  27
ATOM     27  C   UNL A   1      33.412  18.504  24.564  1.00  0.00     0.006 A 
ATOM     28  C   UNL A   1      32.531  17.941  25.498  1.00  0.00     0.009 A 
ATOM     29  C   UNL A   1      34.312  17.653  23.900  1.00  0.00     0.009 A 
ATOM     30  C   UNL A   1      32.517  16.561  25.718  1.00  0.00     0.001 A 
ATOM     31  C   UNL A   1      34.264  16.271  24.088  1.00  0.00     0.001 A 
ATOM     32  C   UNL A   1      33.362  15.724  24.993  1.00  0.00     0.000 A 
ENDBRANCH  26  27
ENDBRANCH  14  26
ENDBRANCH   3   5
ENDBRANCH   2   3
ENDBRANCH   1   2
BRANCH   1  33
ATOM     33  C   UNL A   1      32.019  30.229  25.723  1.00  0.00     0.275 C 
BRANCH  33  34
ATOM     34  O   UNL A   1      32.816  30.159  26.918  1.00  0.00    -0.458 OA
BRANCH  34  35
ATOM     35  C   UNL A   1      33.452  31.303  27.251  1.00  0.00     0.338 C 
ATOM     36  O   UNL A   1      32.982  32.434  27.287  1.00  0.00    -0.246 OA
BRANCH  35  37
ATOM     37  C   UNL A   1      34.798  30.999  27.747  1.00  0.00     0.060 A 
ATOM     38  C   UNL A   1      35.097  29.663  28.039  1.00  0.00     0.016 A 
ATOM     39  C   UNL A   1      35.722  32.011  28.001  1.00  0.00     0.016 A 
ATOM     40  C   UNL A   1      36.315  29.329  28.610  1.00  0.00     0.010 A 
ATOM     41  C   UNL A   1      36.943  31.679  28.586  1.00  0.00     0.010 A 
ATOM     42  C   UNL A   1      37.229  30.341  28.913  1.00  0.00    -0.014 A 
BRANCH  42  43
ATOM     43  C   UNL A   1      38.432  30.018  29.702  1.00  0.00     0.031 A 
ATOM     44  C   UNL A   1      39.429  29.061  29.128  1.00  0.00     0.074 A 
ATOM     45  C   UNL A   1      38.621  30.583  30.905  1.00  0.00     0.049 A 
ATOM     46  N   UNL A   1      40.462  28.497  29.694  1.00  0.00    -0.248 NA
ATOM     47  C   UNL A   1      39.227  28.682  27.720  1.00  0.00     0.031 C 
ATOM     48  C   UNL A   1      37.746  31.584  31.512  1.00  0.00     0.029 A 
ATOM     49  N   UNL A   1      39.605  30.379  31.835  1.00  0.00    -0.354 N 
ATOM     50  C   UNL A   1      41.010  27.666  28.727  1.00  0.00     0.074 A 
ATOM     51  C   UNL A   1      40.196  27.797  27.538  1.00  0.00     0.031 C 
ATOM     52  C   UNL A   1      38.219  31.891  32.730  1.00  0.00     0.029 A 
ATOM     53  C   UNL A   1      39.396  31.069  33.002  1.00  0.00     0.049 A 
ATOM     54  H   UNL A   1      40.383  29.795  31.683  1.00  0.00     0.167 HD
ATOM     55  C   UNL A   1      42.093  26.863  28.834  1.00  0.00     0.037 A 
ATOM     56  C   UNL A   1      40.058  31.003  34.171  1.00  0.00     0.037 A 
ATOM     57  C   UNL A   1      42.896  26.764  30.024  1.00  0.00     0.049 A 
ATOM     58  C   UNL A   1      41.230  30.068  34.286  1.00  0.00     0.074 A 
ATOM     59  C   UNL A   1      44.020  25.992  30.250  1.00  0.00     0.029 A 
ATOM     60  N   UNL A   1      42.652  27.472  31.194  1.00  0.00    -0.354 N 
ATOM     61  N   UNL A   1      41.731  29.256  33.385  1.00  0.00    -0.248 NA
ATOM     62  C   UNL A   1      41.924  30.033  35.579  1.00  0.00     0.031 C 
ATOM     63  C   UNL A   1      44.431  26.202  31.572  1.00  0.00     0.029 A 
ATOM     64  C   UNL A   1      43.592  27.139  32.154  1.00  0.00     0.049 A 
ATOM     65  H   UNL A   1      41.917  28.114  31.322  1.00  0.00     0.167 HD
ATOM     66  C   UNL A   1      42.806  28.624  33.993  1.00  0.00     0.074 A 
ATOM     67  C   UNL A   1      42.892  29.157  35.339  1.00  0.00     0.031 C 
ATOM     68  C   UNL A   1      43.646  27.688  33.486  1.00  0.00     0.037 A 
BRANCH  55  69
ATOM     69  C   UNL A   1      42.424  25.996  27.654  1.00  0.00     0.064 A 
ATOM     70  C   UNL A   1      41.800  24.758  27.442  1.00  0.00     0.173 A 
ATOM     71  C   UNL A   1      43.400  26.405  26.733  1.00  0.00     0.173 A 
ATOM     72  F   UNL A   1      40.876  24.310  28.305  1.00  0.00    -0.203 F 
ATOM     73  C   UNL A   1      42.168  23.944  26.373  1.00  0.00     0.198 A 
ATOM     74  C   UNL A   1      43.746  25.602  25.650  1.00  0.00     0.198 A 
ATOM     75  F   UNL A   1      44.029  27.579  26.891  1.00  0.00    -0.203 F 
ATOM     76  F   UNL A   1      41.604  22.737  26.225  1.00  0.00    -0.200 F 
ATOM     77  C   UNL A   1      43.138  24.368  25.476  1.00  0.00     0.200 A 
ATOM     78  F   UNL A   1      44.679  26.016  24.781  1.00  0.00    -0.200 F 
ATOM     79  F   UNL A   1      43.497  23.581  24.452  1.00  0.00    -0.200 F 
ENDBRANCH  55  69
BRANCH  56  80
ATOM     80  C   UNL A   1      39.595  31.823  35.317  1.00  0.00     0.064 A 
ATOM     81  C   UNL A   1      40.053  33.134  35.502  1.00  0.00     0.173 A 
ATOM     82  C   UNL A   1      38.644  31.329  36.224  1.00  0.00     0.173 A 
ATOM     83  F   UNL A   1      40.978  33.642  34.674  1.00  0.00    -0.203 F 
ATOM     84  C   UNL A   1      39.578  33.921  36.549  1.00  0.00     0.198 A 
ATOM     85  C   UNL A   1      38.152  32.125  37.256  1.00  0.00     0.198 A 
ATOM     86  F   UNL A   1      38.174  30.081  36.090  1.00  0.00    -0.203 F 
ATOM     87  F   UNL A   1      40.049  35.163  36.718  1.00  0.00    -0.200 F 
ATOM     88  C   UNL A   1      38.620  33.419  37.419  1.00  0.00     0.200 A 
ATOM     89  F   UNL A   1      37.217  31.641  38.085  1.00  0.00    -0.200 F 
ATOM     90  F   UNL A   1      38.151  34.183  38.414  1.00  0.00    -0.200 F 
ENDBRANCH  56  80
BRANCH  68  91
ATOM     91  C   UNL A   1      44.743  27.202  34.385  1.00  0.00     0.064 A 
ATOM     92  C   UNL A   1      44.579  26.069  35.194  1.00  0.00     0.173 A 
ATOM     93  C   UNL A   1      45.987  27.850  34.398  1.00  0.00     0.173 A 
ATOM     94  F   UNL A   1      43.402  25.426  35.225  1.00  0.00    -0.203 F 
ATOM     95  C   UNL A   1      45.618  25.610  35.998  1.00  0.00     0.198 A 
ATOM     96  C   UNL A   1      47.032  27.373  35.185  1.00  0.00     0.198 A 
ATOM     97  F   UNL A   1      46.193  28.935  33.637  1.00  0.00    -0.203 F 
ATOM     98  F   UNL A   1      45.429  24.547  36.791  1.00  0.00    -0.200 F 
ATOM     99  C   UNL A   1      46.845  26.258  35.987  1.00  0.00     0.200 A 
ATOM    100  F   UNL A   1      48.219  27.994  35.165  1.00  0.00    -0.200 F 
ATOM    101  F   UNL A   1      47.847  25.810  36.757  1.00  0.00    -0.200 F 
ENDBRANCH  68  91
ENDBRANCH  42  43
ENDBRANCH  35  37
ENDBRANCH  34  35
ENDBRANCH  33  34
ENDBRANCH   1  33
TORSDOF 16
ENDMDL
