MODEL 1
REMARK VINA RESULT:     -13.0      0.000      0.000
REMARK SMILES Cc1c(CC(=O)OCCOC(=O)c2ccc(-c3c4nc(c(-c5c(F)c(F)c(F)c(F)c5F)c5ccc([nH]5)c(-c5c(F)c(F)c(F)c(F)c5F)c5nc(c(-c6c(F)c(F)c(F)c(F)c6F)c6ccc3[nH]6)C=C5)C=C4)cc2)cc(-c2ccc(S(C)(=O)=O)cc2)n1-c1cccc(F)c1
REMARK SMILES IDX 8 1 7 2 5 3 6 4 4 5 3 6 1 7 2 8 88 9 76 10 77 11 89 12 90 13
REMARK SMILES IDX 95 14 91 15 93 16 92 17 94 18 78 19 79 20 87 21 80 22 86 23
REMARK SMILES IDX 81 24 82 25 83 26 84 27 85 28 9 29 10 30 11 31 12 32 13 33
REMARK SMILES IDX 14 34 75 35 15 36 74 37 16 38 17 39 18 40 68 41 19 42 73 43
REMARK SMILES IDX 67 44 69 45 20 46 72 47 66 48 65 49 21 51 53 52 33 53 52 54
REMARK SMILES IDX 34 55 37 56 51 57 70 58 35 59 36 60 50 62 71 63 38 64 22 65
REMARK SMILES IDX 23 66 31 67 24 68 25 69 29 70 32 71 26 72 27 73 30 74 28 75
REMARK SMILES IDX 54 76 55 77 63 78 56 79 57 80 61 81 64 82 58 83 59 84 62 85
REMARK SMILES IDX 60 86 39 87 40 88 48 89 41 90 42 91 46 92 49 93 43 94 44 95
REMARK SMILES IDX 47 96 45 97
REMARK H PARENT 69 50 37 61
REMARK Flexibility Score: inf
ROOT
ATOM      1  C   UNL A   1      31.538  28.925  25.969  1.00  0.00     0.274 C 
ENDROOT
BRANCH   1   2
ATOM      2  O   UNL A   1      30.918  28.776  24.662  1.00  0.00    -0.462 OA
BRANCH   2   3
ATOM      3  C   UNL A   1      30.597  27.515  24.261  1.00  0.00     0.310 C 
ATOM      4  O   UNL A   1      30.313  27.227  23.100  1.00  0.00    -0.252 OA
BRANCH   3   5
ATOM      5  C   UNL A   1      30.666  26.443  25.343  1.00  0.00     0.160 C 
BRANCH   5   6
ATOM      6  C   UNL A   1      31.644  25.305  25.199  1.00  0.00    -0.015 A 
ATOM      7  C   UNL A   1      33.866  26.605  24.897  1.00  0.00     0.065 C 
ATOM      8  C   UNL A   1      33.017  25.382  25.016  1.00  0.00     0.024 A 
ATOM      9  N   UNL A   1      33.522  24.096  24.867  1.00  0.00    -0.313 N 
ATOM     10  C   UNL A   1      31.307  23.925  25.053  1.00  0.00     0.033 A 
ATOM     11  C   UNL A   1      32.463  23.194  24.823  1.00  0.00     0.053 A 
BRANCH   9  12
ATOM     12  C   UNL A   1      34.897  23.770  24.752  1.00  0.00     0.049 A 
ATOM     13  C   UNL A   1      35.396  23.233  23.558  1.00  0.00     0.027 A 
ATOM     14  C   UNL A   1      35.737  23.975  25.850  1.00  0.00     0.065 A 
ATOM     15  C   UNL A   1      36.750  22.912  23.461  1.00  0.00     0.005 A 
ATOM     16  C   UNL A   1      37.075  23.622  25.742  1.00  0.00     0.125 A 
ATOM     17  C   UNL A   1      37.590  23.100  24.559  1.00  0.00     0.039 A 
ATOM     18  F   UNL A   1      37.882  23.777  26.800  1.00  0.00    -0.207 F 
ENDBRANCH   9  12
BRANCH  11  19
ATOM     19  C   UNL A   1      32.605  21.738  24.675  1.00  0.00    -0.001 A 
ATOM     20  C   UNL A   1      32.325  21.114  23.449  1.00  0.00     0.011 A 
ATOM     21  C   UNL A   1      33.027  20.950  25.756  1.00  0.00     0.011 A 
ATOM     22  C   UNL A   1      32.454  19.730  23.303  1.00  0.00     0.021 A 
ATOM     23  C   UNL A   1      33.153  19.562  25.620  1.00  0.00     0.021 A 
ATOM     24  C   UNL A   1      32.863  18.959  24.393  1.00  0.00     0.067 A 
BRANCH  24  25
ATOM     25  S   UNL A   1      33.093  17.208  24.176  1.00  0.00     0.175 S 
ATOM     26  C   UNL A   1      34.779  16.915  24.642  1.00  0.00     0.163 C 
ATOM     27  O   UNL A   1      32.236  16.547  25.131  1.00  0.00    -0.224 OA
ATOM     28  O   UNL A   1      32.985  16.924  22.750  1.00  0.00    -0.224 OA
ENDBRANCH  24  25
ENDBRANCH  11  19
ENDBRANCH   5   6
ENDBRANCH   3   5
ENDBRANCH   2   3
ENDBRANCH   1   2
BRANCH   1  29
ATOM     29  C   UNL A   1      32.519  30.129  25.981  1.00  0.00     0.275 C 
BRANCH  29  30
ATOM     30  O   UNL A   1      33.893  29.936  26.483  1.00  0.00    -0.458 OA
BRANCH  30  31
ATOM     31  C   UNL A   1      34.328  30.702  27.528  1.00  0.00     0.338 C 
ATOM     32  O   UNL A   1      33.694  31.643  27.986  1.00  0.00    -0.246 OA
BRANCH  31  33
ATOM     33  C   UNL A   1      35.686  30.274  28.111  1.00  0.00     0.060 A 
ATOM     34  C   UNL A   1      36.766  30.079  27.259  1.00  0.00     0.016 A 
ATOM     35  C   UNL A   1      35.897  29.842  29.439  1.00  0.00     0.016 A 
ATOM     36  C   UNL A   1      38.014  29.535  27.732  1.00  0.00     0.010 A 
ATOM     37  C   UNL A   1      37.153  29.224  29.899  1.00  0.00     0.010 A 
ATOM     38  C   UNL A   1      38.275  29.051  29.063  1.00  0.00    -0.014 A 
BRANCH  38  39
ATOM     39  C   UNL A   1      39.498  27.996  29.239  1.00  0.00     0.031 A 
ATOM     40  C   UNL A   1      40.052  28.369  30.577  1.00  0.00     0.074 A 
ATOM     41  C   UNL A   1      40.198  26.964  28.595  1.00  0.00     0.049 A 
ATOM     42  N   UNL A   1      40.517  29.566  30.817  1.00  0.00    -0.248 NA
ATOM     43  C   UNL A   1      39.747  27.571  31.768  1.00  0.00     0.031 C 
ATOM     44  C   UNL A   1      40.004  26.454  27.227  1.00  0.00     0.029 A 
ATOM     45  N   UNL A   1      41.264  26.086  29.017  1.00  0.00    -0.354 N 
ATOM     46  C   UNL A   1      40.816  29.589  32.161  1.00  0.00     0.074 A 
ATOM     47  C   UNL A   1      40.105  28.443  32.715  1.00  0.00     0.031 C 
ATOM     48  C   UNL A   1      40.760  25.341  26.978  1.00  0.00     0.029 A 
ATOM     49  C   UNL A   1      41.604  24.996  28.123  1.00  0.00     0.049 A 
ATOM     50  H   UNL A   1      41.736  26.220  29.870  1.00  0.00     0.167 HD
ATOM     51  C   UNL A   1      42.077  29.990  32.491  1.00  0.00     0.037 A 
ATOM     52  C   UNL A   1      42.517  23.943  28.230  1.00  0.00     0.037 A 
ATOM     53  C   UNL A   1      42.960  28.876  32.696  1.00  0.00     0.049 A 
ATOM     54  C   UNL A   1      43.521  24.320  29.232  1.00  0.00     0.074 A 
ATOM     55  C   UNL A   1      42.840  27.701  33.407  1.00  0.00     0.029 A 
ATOM     56  N   UNL A   1      43.950  28.677  31.758  1.00  0.00    -0.354 N 
ATOM     57  N   UNL A   1      44.496  25.128  28.954  1.00  0.00    -0.248 NA
ATOM     58  C   UNL A   1      43.565  23.714  30.559  1.00  0.00     0.031 C 
ATOM     59  C   UNL A   1      43.362  26.714  32.547  1.00  0.00     0.029 A 
ATOM     60  C   UNL A   1      44.124  27.328  31.561  1.00  0.00     0.049 A 
ATOM     61  H   UNL A   1      44.455  29.389  31.301  1.00  0.00     0.167 HD
ATOM     62  C   UNL A   1      44.891  25.541  30.186  1.00  0.00     0.074 A 
ATOM     63  C   UNL A   1      44.531  24.466  31.090  1.00  0.00     0.031 C 
ATOM     64  C   UNL A   1      44.821  26.880  30.385  1.00  0.00     0.037 A 
BRANCH  51  65
ATOM     65  C   UNL A   1      42.523  31.283  31.889  1.00  0.00     0.064 A 
ATOM     66  C   UNL A   1      42.550  32.422  32.699  1.00  0.00     0.173 A 
ATOM     67  C   UNL A   1      42.884  31.436  30.537  1.00  0.00     0.173 A 
ATOM     68  F   UNL A   1      42.287  32.321  34.011  1.00  0.00    -0.203 F 
ATOM     69  C   UNL A   1      42.867  33.670  32.169  1.00  0.00     0.198 A 
ATOM     70  C   UNL A   1      43.143  32.690  29.997  1.00  0.00     0.198 A 
ATOM     71  F   UNL A   1      43.052  30.366  29.743  1.00  0.00    -0.203 F 
ATOM     72  F   UNL A   1      42.921  34.743  32.969  1.00  0.00    -0.200 F 
ATOM     73  C   UNL A   1      43.130  33.809  30.813  1.00  0.00     0.200 A 
ATOM     74  F   UNL A   1      43.426  32.808  28.693  1.00  0.00    -0.200 F 
ATOM     75  F   UNL A   1      43.405  35.014  30.298  1.00  0.00    -0.200 F 
ENDBRANCH  51  65
BRANCH  52  76
ATOM     76  C   UNL A   1      42.957  22.586  27.599  1.00  0.00     0.064 A 
ATOM     77  C   UNL A   1      42.067  21.452  27.562  1.00  0.00     0.173 A 
ATOM     78  C   UNL A   1      44.006  22.495  26.675  1.00  0.00     0.173 A 
ATOM     79  F   UNL A   1      41.024  21.356  28.398  1.00  0.00    -0.203 F 
ATOM     80  C   UNL A   1      42.153  20.410  26.620  1.00  0.00     0.198 A 
ATOM     81  C   UNL A   1      44.113  21.422  25.749  1.00  0.00     0.198 A 
ATOM     82  F   UNL A   1      44.897  23.489  26.580  1.00  0.00    -0.203 F 
ATOM     83  F   UNL A   1      41.203  19.461  26.568  1.00  0.00    -0.200 F 
ATOM     84  C   UNL A   1      43.171  20.405  25.698  1.00  0.00     0.200 A 
ATOM     85  F   UNL A   1      45.104  21.417  24.846  1.00  0.00    -0.200 F 
ATOM     86  F   UNL A   1      43.224  19.454  24.751  1.00  0.00    -0.200 F 
ENDBRANCH  52  76
BRANCH  64  87
ATOM     87  C   UNL A   1      45.329  27.753  29.254  1.00  0.00     0.064 A 
ATOM     88  C   UNL A   1      44.605  28.175  28.113  1.00  0.00     0.173 A 
ATOM     89  C   UNL A   1      46.686  28.100  29.285  1.00  0.00     0.173 A 
ATOM     90  F   UNL A   1      43.279  28.007  28.009  1.00  0.00    -0.203 F 
ATOM     91  C   UNL A   1      45.232  28.812  27.037  1.00  0.00     0.198 A 
ATOM     92  C   UNL A   1      47.298  28.783  28.234  1.00  0.00     0.198 A 
ATOM     93  F   UNL A   1      47.430  27.783  30.356  1.00  0.00    -0.203 F 
ATOM     94  F   UNL A   1      44.528  29.132  25.940  1.00  0.00    -0.200 F 
ATOM     95  C   UNL A   1      46.579  29.114  27.100  1.00  0.00     0.200 A 
ATOM     96  F   UNL A   1      48.592  29.117  28.327  1.00  0.00    -0.200 F 
ATOM     97  F   UNL A   1      47.180  29.740  26.077  1.00  0.00    -0.200 F 
ENDBRANCH  64  87
ENDBRANCH  38  39
ENDBRANCH  31  33
ENDBRANCH  30  31
ENDBRANCH  29  30
ENDBRANCH   1  29
TORSDOF 15
ENDMDL
MODEL 2
REMARK VINA RESULT:     -12.5      3.924      9.127
REMARK SMILES Cc1c(CC(=O)OCCOC(=O)c2ccc(-c3c4nc(c(-c5c(F)c(F)c(F)c(F)c5F)c5ccc([nH]5)c(-c5c(F)c(F)c(F)c(F)c5F)c5nc(c(-c6c(F)c(F)c(F)c(F)c6F)c6ccc3[nH]6)C=C5)C=C4)cc2)cc(-c2ccc(S(C)(=O)=O)cc2)n1-c1cccc(F)c1
REMARK SMILES IDX 8 1 7 2 5 3 6 4 4 5 3 6 1 7 2 8 88 9 76 10 77 11 89 12 90 13
REMARK SMILES IDX 95 14 91 15 93 16 92 17 94 18 78 19 79 20 87 21 80 22 86 23
REMARK SMILES IDX 81 24 82 25 83 26 84 27 85 28 9 29 10 30 11 31 12 32 13 33
REMARK SMILES IDX 14 34 75 35 15 36 74 37 16 38 17 39 18 40 68 41 19 42 73 43
REMARK SMILES IDX 67 44 69 45 20 46 72 47 66 48 65 49 21 51 53 52 33 53 52 54
REMARK SMILES IDX 34 55 37 56 51 57 70 58 35 59 36 60 50 62 71 63 38 64 22 65
REMARK SMILES IDX 23 66 31 67 24 68 25 69 29 70 32 71 26 72 27 73 30 74 28 75
REMARK SMILES IDX 54 76 55 77 63 78 56 79 57 80 61 81 64 82 58 83 59 84 62 85
REMARK SMILES IDX 60 86 39 87 40 88 48 89 41 90 42 91 46 92 49 93 43 94 44 95
REMARK SMILES IDX 47 96 45 97
REMARK H PARENT 69 50 37 61
REMARK Flexibility Score: inf
ROOT
ATOM      1  C   UNL A   1      42.077  19.937  26.521  1.00  0.00     0.274 C 
ENDROOT
BRANCH   1   2
ATOM      2  O   UNL A   1      40.673  20.198  26.242  1.00  0.00    -0.462 OA
BRANCH   2   3
ATOM      3  C   UNL A   1      40.132  21.335  26.760  1.00  0.00     0.310 C 
ATOM      4  O   UNL A   1      40.165  21.614  27.957  1.00  0.00    -0.252 OA
BRANCH   3   5
ATOM      5  C   UNL A   1      39.520  22.293  25.746  1.00  0.00     0.160 C 
BRANCH   5   6
ATOM      6  C   UNL A   1      38.021  22.379  25.616  1.00  0.00    -0.015 A 
ATOM      7  C   UNL A   1      37.471  20.010  24.719  1.00  0.00     0.065 C 
ATOM      8  C   UNL A   1      37.147  21.393  25.183  1.00  0.00     0.024 A 
ATOM      9  N   UNL A   1      35.859  21.915  25.156  1.00  0.00    -0.313 N 
ATOM     10  C   UNL A   1      37.235  23.564  25.758  1.00  0.00     0.033 A 
ATOM     11  C   UNL A   1      35.914  23.275  25.447  1.00  0.00     0.053 A 
BRANCH   9  12
ATOM     12  C   UNL A   1      34.688  21.176  24.853  1.00  0.00     0.049 A 
ATOM     13  C   UNL A   1      33.899  21.528  23.750  1.00  0.00     0.027 A 
ATOM     14  C   UNL A   1      34.326  20.109  25.680  1.00  0.00     0.065 A 
ATOM     15  C   UNL A   1      32.746  20.795  23.467  1.00  0.00     0.005 A 
ATOM     16  C   UNL A   1      33.161  19.411  25.397  1.00  0.00     0.125 A 
ATOM     17  C   UNL A   1      32.372  19.739  24.298  1.00  0.00     0.039 A 
ATOM     18  F   UNL A   1      32.782  18.411  26.205  1.00  0.00    -0.207 F 
ENDBRANCH   9  12
BRANCH  11  19
ATOM     19  C   UNL A   1      34.747  24.168  25.513  1.00  0.00    -0.001 A 
ATOM     20  C   UNL A   1      33.776  24.000  26.512  1.00  0.00     0.011 A 
ATOM     21  C   UNL A   1      34.591  25.204  24.582  1.00  0.00     0.011 A 
ATOM     22  C   UNL A   1      32.663  24.844  26.578  1.00  0.00     0.021 A 
ATOM     23  C   UNL A   1      33.476  26.050  24.637  1.00  0.00     0.021 A 
ATOM     24  C   UNL A   1      32.515  25.862  25.635  1.00  0.00     0.067 A 
BRANCH  24  25
ATOM     25  S   UNL A   1      31.133  26.974  25.771  1.00  0.00     0.175 S 
ATOM     26  C   UNL A   1      29.852  26.218  24.805  1.00  0.00     0.163 C 
ATOM     27  O   UNL A   1      30.722  26.970  27.155  1.00  0.00    -0.224 OA
ATOM     28  O   UNL A   1      31.500  28.216  25.102  1.00  0.00    -0.224 OA
ENDBRANCH  24  25
ENDBRANCH  11  19
ENDBRANCH   5   6
ENDBRANCH   3   5
ENDBRANCH   2   3
ENDBRANCH   1   2
BRANCH   1  29
ATOM     29  C   UNL A   1      42.988  20.915  25.731  1.00  0.00     0.275 C 
BRANCH  29  30
ATOM     30  O   UNL A   1      43.493  22.130  26.397  1.00  0.00    -0.458 OA
BRANCH  30  31
ATOM     31  C   UNL A   1      43.386  23.331  25.752  1.00  0.00     0.338 C 
ATOM     32  O   UNL A   1      44.012  23.611  24.739  1.00  0.00    -0.246 OA
BRANCH  31  33
ATOM     33  C   UNL A   1      42.387  24.311  26.391  1.00  0.00     0.060 A 
ATOM     34  C   UNL A   1      41.917  25.389  25.650  1.00  0.00     0.016 A 
ATOM     35  C   UNL A   1      42.053  24.348  27.762  1.00  0.00     0.016 A 
ATOM     36  C   UNL A   1      41.101  26.417  26.244  1.00  0.00     0.010 A 
ATOM     37  C   UNL A   1      41.276  25.439  28.377  1.00  0.00     0.010 A 
ATOM     38  C   UNL A   1      40.755  26.521  27.639  1.00  0.00    -0.014 A 
BRANCH  38  39
ATOM     39  C   UNL A   1      40.330  27.991  28.186  1.00  0.00     0.031 A 
ATOM     40  C   UNL A   1      41.629  28.733  28.153  1.00  0.00     0.074 A 
ATOM     41  C   UNL A   1      39.256  28.738  28.693  1.00  0.00     0.049 A 
ATOM     42  N   UNL A   1      42.664  28.332  28.840  1.00  0.00    -0.248 NA
ATOM     43  C   UNL A   1      41.927  29.681  27.076  1.00  0.00     0.031 C 
ATOM     44  C   UNL A   1      37.888  28.274  28.986  1.00  0.00     0.029 A 
ATOM     45  N   UNL A   1      39.109  30.127  29.061  1.00  0.00    -0.354 N 
ATOM     46  C   UNL A   1      43.701  29.162  28.473  1.00  0.00     0.074 A 
ATOM     47  C   UNL A   1      43.248  29.788  27.237  1.00  0.00     0.031 C 
ATOM     48  C   UNL A   1      37.055  29.305  29.328  1.00  0.00     0.029 A 
ATOM     49  C   UNL A   1      37.768  30.582  29.369  1.00  0.00     0.049 A 
ATOM     50  H   UNL A   1      39.882  30.735  29.100  1.00  0.00     0.167 HD
ATOM     51  C   UNL A   1      44.368  29.777  29.490  1.00  0.00     0.037 A 
ATOM     52  C   UNL A   1      37.254  31.841  29.695  1.00  0.00     0.037 A 
ATOM     53  C   UNL A   1      43.883  31.108  29.727  1.00  0.00     0.049 A 
ATOM     54  C   UNL A   1      38.366  32.665  30.185  1.00  0.00     0.074 A 
ATOM     55  C   UNL A   1      43.600  32.167  28.889  1.00  0.00     0.029 A 
ATOM     56  N   UNL A   1      43.188  31.325  30.896  1.00  0.00    -0.354 N 
ATOM     57  N   UNL A   1      38.827  32.547  31.391  1.00  0.00    -0.248 NA
ATOM     58  C   UNL A   1      38.936  33.754  29.397  1.00  0.00     0.031 C 
ATOM     59  C   UNL A   1      42.375  32.675  29.366  1.00  0.00     0.029 A 
ATOM     60  C   UNL A   1      42.161  32.208  30.656  1.00  0.00     0.049 A 
ATOM     61  H   UNL A   1      43.394  30.916  31.767  1.00  0.00     0.167 HD
ATOM     62  C   UNL A   1      40.054  33.119  31.291  1.00  0.00     0.074 A 
ATOM     63  C   UNL A   1      39.950  34.074  30.204  1.00  0.00     0.031 C 
ATOM     64  C   UNL A   1      41.088  32.303  31.610  1.00  0.00     0.037 A 
BRANCH  51  65
ATOM     65  C   UNL A   1      44.851  28.880  30.583  1.00  0.00     0.064 A 
ATOM     66  C   UNL A   1      46.226  28.799  30.823  1.00  0.00     0.173 A 
ATOM     67  C   UNL A   1      44.004  28.076  31.369  1.00  0.00     0.173 A 
ATOM     68  F   UNL A   1      47.073  29.597  30.154  1.00  0.00    -0.203 F 
ATOM     69  C   UNL A   1      46.737  27.910  31.765  1.00  0.00     0.198 A 
ATOM     70  C   UNL A   1      44.519  27.148  32.267  1.00  0.00     0.198 A 
ATOM     71  F   UNL A   1      42.671  28.227  31.321  1.00  0.00    -0.203 F 
ATOM     72  F   UNL A   1      48.055  27.873  32.003  1.00  0.00    -0.200 F 
ATOM     73  C   UNL A   1      45.887  27.063  32.462  1.00  0.00     0.200 A 
ATOM     74  F   UNL A   1      43.687  26.356  32.957  1.00  0.00    -0.200 F 
ATOM     75  F   UNL A   1      46.382  26.187  33.346  1.00  0.00    -0.200 F 
ENDBRANCH  51  65
BRANCH  52  76
ATOM     76  C   UNL A   1      35.938  32.660  29.870  1.00  0.00     0.064 A 
ATOM     77  C   UNL A   1      35.380  32.915  31.174  1.00  0.00     0.173 A 
ATOM     78  C   UNL A   1      35.469  33.541  28.886  1.00  0.00     0.173 A 
ATOM     79  F   UNL A   1      35.693  32.149  32.229  1.00  0.00    -0.203 F 
ATOM     80  C   UNL A   1      34.544  34.005  31.477  1.00  0.00     0.198 A 
ATOM     81  C   UNL A   1      34.595  34.620  29.187  1.00  0.00     0.198 A 
ATOM     82  F   UNL A   1      35.921  33.438  27.631  1.00  0.00    -0.203 F 
ATOM     83  F   UNL A   1      34.177  34.247  32.747  1.00  0.00    -0.200 F 
ATOM     84  C   UNL A   1      34.164  34.872  30.482  1.00  0.00     0.200 A 
ATOM     85  F   UNL A   1      34.225  35.469  28.217  1.00  0.00    -0.200 F 
ATOM     86  F   UNL A   1      33.423  35.954  30.771  1.00  0.00    -0.200 F 
ENDBRANCH  52  76
BRANCH  64  87
ATOM     87  C   UNL A   1      40.910  31.450  32.851  1.00  0.00     0.064 A 
ATOM     88  C   UNL A   1      41.070  31.860  34.196  1.00  0.00     0.173 A 
ATOM     89  C   UNL A   1      40.658  30.086  32.649  1.00  0.00     0.173 A 
ATOM     90  F   UNL A   1      41.202  33.150  34.536  1.00  0.00    -0.203 F 
ATOM     91  C   UNL A   1      41.075  30.941  35.250  1.00  0.00     0.198 A 
ATOM     92  C   UNL A   1      40.611  29.180  33.706  1.00  0.00     0.198 A 
ATOM     93  F   UNL A   1      40.443  29.626  31.407  1.00  0.00    -0.203 F 
ATOM     94  F   UNL A   1      41.302  31.357  36.506  1.00  0.00    -0.200 F 
ATOM     95  C   UNL A   1      40.846  29.601  35.003  1.00  0.00     0.200 A 
ATOM     96  F   UNL A   1      40.337  27.891  33.461  1.00  0.00    -0.200 F 
ATOM     97  F   UNL A   1      40.834  28.719  36.013  1.00  0.00    -0.200 F 
ENDBRANCH  64  87
ENDBRANCH  38  39
ENDBRANCH  31  33
ENDBRANCH  30  31
ENDBRANCH  29  30
ENDBRANCH   1  29
TORSDOF 15
ENDMDL
MODEL 3
REMARK VINA RESULT:     -12.4      3.785      9.022
REMARK SMILES Cc1c(CC(=O)OCCOC(=O)c2ccc(-c3c4nc(c(-c5c(F)c(F)c(F)c(F)c5F)c5ccc([nH]5)c(-c5c(F)c(F)c(F)c(F)c5F)c5nc(c(-c6c(F)c(F)c(F)c(F)c6F)c6ccc3[nH]6)C=C5)C=C4)cc2)cc(-c2ccc(S(C)(=O)=O)cc2)n1-c1cccc(F)c1
REMARK SMILES IDX 8 1 7 2 5 3 6 4 4 5 3 6 1 7 2 8 88 9 76 10 77 11 89 12 90 13
REMARK SMILES IDX 95 14 91 15 93 16 92 17 94 18 78 19 79 20 87 21 80 22 86 23
REMARK SMILES IDX 81 24 82 25 83 26 84 27 85 28 9 29 10 30 11 31 12 32 13 33
REMARK SMILES IDX 14 34 75 35 15 36 74 37 16 38 17 39 18 40 68 41 19 42 73 43
REMARK SMILES IDX 67 44 69 45 20 46 72 47 66 48 65 49 21 51 53 52 33 53 52 54
REMARK SMILES IDX 34 55 37 56 51 57 70 58 35 59 36 60 50 62 71 63 38 64 22 65
REMARK SMILES IDX 23 66 31 67 24 68 25 69 29 70 32 71 26 72 27 73 30 74 28 75
REMARK SMILES IDX 54 76 55 77 63 78 56 79 57 80 61 81 64 82 58 83 59 84 62 85
REMARK SMILES IDX 60 86 39 87 40 88 48 89 41 90 42 91 46 92 49 93 43 94 44 95
REMARK SMILES IDX 47 96 45 97
REMARK H PARENT 69 50 37 61
REMARK Flexibility Score: inf
ROOT
ATOM      1  C   UNL A   1      42.113  19.808  26.360  1.00  0.00     0.274 C 
ENDROOT
BRANCH   1   2
ATOM      2  O   UNL A   1      40.702  20.090  26.141  1.00  0.00    -0.462 OA
BRANCH   2   3
ATOM      3  C   UNL A   1      40.180  21.187  26.755  1.00  0.00     0.310 C 
ATOM      4  O   UNL A   1      40.244  21.377  27.968  1.00  0.00    -0.252 OA
BRANCH   3   5
ATOM      5  C   UNL A   1      39.546  22.220  25.830  1.00  0.00     0.160 C 
BRANCH   5   6
ATOM      6  C   UNL A   1      38.045  22.310  25.736  1.00  0.00    -0.015 A 
ATOM      7  C   UNL A   1      37.484  20.016  24.665  1.00  0.00     0.065 C 
ATOM      8  C   UNL A   1      37.165  21.357  25.242  1.00  0.00     0.024 A 
ATOM      9  N   UNL A   1      35.876  21.875  25.281  1.00  0.00    -0.313 N 
ATOM     10  C   UNL A   1      37.259  23.476  25.985  1.00  0.00     0.033 A 
ATOM     11  C   UNL A   1      35.933  23.208  25.677  1.00  0.00     0.053 A 
BRANCH   9  12
ATOM     12  C   UNL A   1      34.701  21.158  24.942  1.00  0.00     0.049 A 
ATOM     13  C   UNL A   1      33.965  21.510  23.803  1.00  0.00     0.027 A 
ATOM     14  C   UNL A   1      34.282  20.112  25.769  1.00  0.00     0.065 A 
ATOM     15  C   UNL A   1      32.807  20.799  23.485  1.00  0.00     0.005 A 
ATOM     16  C   UNL A   1      33.113  19.437  25.451  1.00  0.00     0.125 A 
ATOM     17  C   UNL A   1      32.376  19.765  24.316  1.00  0.00     0.039 A 
ATOM     18  F   UNL A   1      32.679  18.458  26.258  1.00  0.00    -0.207 F 
ENDBRANCH   9  12
BRANCH  11  19
ATOM     19  C   UNL A   1      34.766  24.089  25.835  1.00  0.00    -0.001 A 
ATOM     20  C   UNL A   1      33.657  23.676  26.590  1.00  0.00     0.011 A 
ATOM     21  C   UNL A   1      34.746  25.357  25.238  1.00  0.00     0.011 A 
ATOM     22  C   UNL A   1      32.543  24.507  26.741  1.00  0.00     0.021 A 
ATOM     23  C   UNL A   1      33.632  26.194  25.379  1.00  0.00     0.021 A 
ATOM     24  C   UNL A   1      32.534  25.762  26.129  1.00  0.00     0.067 A 
BRANCH  24  25
ATOM     25  S   UNL A   1      31.142  26.839  26.387  1.00  0.00     0.175 S 
ATOM     26  C   UNL A   1      31.098  27.869  24.943  1.00  0.00     0.163 C 
ATOM     27  O   UNL A   1      29.960  26.010  26.390  1.00  0.00    -0.224 OA
ATOM     28  O   UNL A   1      31.457  27.700  27.520  1.00  0.00    -0.224 OA
ENDBRANCH  24  25
ENDBRANCH  11  19
ENDBRANCH   5   6
ENDBRANCH   3   5
ENDBRANCH   2   3
ENDBRANCH   1   2
BRANCH   1  29
ATOM     29  C   UNL A   1      43.003  20.737  25.491  1.00  0.00     0.275 C 
BRANCH  29  30
ATOM     30  O   UNL A   1      43.610  21.935  26.102  1.00  0.00    -0.458 OA
BRANCH  30  31
ATOM     31  C   UNL A   1      43.391  23.154  25.522  1.00  0.00     0.338 C 
ATOM     32  O   UNL A   1      43.859  23.481  24.440  1.00  0.00    -0.246 OA
BRANCH  31  33
ATOM     33  C   UNL A   1      42.482  24.093  26.334  1.00  0.00     0.060 A 
ATOM     34  C   UNL A   1      41.923  25.206  25.718  1.00  0.00     0.016 A 
ATOM     35  C   UNL A   1      42.324  24.054  27.736  1.00  0.00     0.016 A 
ATOM     36  C   UNL A   1      41.189  26.196  26.465  1.00  0.00     0.010 A 
ATOM     37  C   UNL A   1      41.631  25.105  28.503  1.00  0.00     0.010 A 
ATOM     38  C   UNL A   1      41.023  26.222  27.896  1.00  0.00    -0.014 A 
BRANCH  38  39
ATOM     39  C   UNL A   1      40.672  27.658  28.572  1.00  0.00     0.031 A 
ATOM     40  C   UNL A   1      41.891  28.466  28.259  1.00  0.00     0.074 A 
ATOM     41  C   UNL A   1      39.713  28.339  29.337  1.00  0.00     0.049 A 
ATOM     42  N   UNL A   1      43.076  28.106  28.673  1.00  0.00    -0.248 NA
ATOM     43  C   UNL A   1      41.885  29.449  27.171  1.00  0.00     0.031 C 
ATOM     44  C   UNL A   1      38.475  27.801  29.927  1.00  0.00     0.029 A 
ATOM     45  N   UNL A   1      39.594  29.712  29.771  1.00  0.00    -0.354 N 
ATOM     46  C   UNL A   1      43.959  28.995  28.099  1.00  0.00     0.074 A 
ATOM     47  C   UNL A   1      43.201  29.620  27.023  1.00  0.00     0.031 C 
ATOM     48  C   UNL A   1      37.699  28.781  30.485  1.00  0.00     0.029 A 
ATOM     49  C   UNL A   1      38.343  30.092  30.397  1.00  0.00     0.049 A 
ATOM     50  H   UNL A   1      40.327  30.357  29.647  1.00  0.00     0.167 HD
ATOM     51  C   UNL A   1      44.817  29.624  28.951  1.00  0.00     0.037 A 
ATOM     52  C   UNL A   1      37.863  31.316  30.872  1.00  0.00     0.037 A 
ATOM     53  C   UNL A   1      44.341  30.923  29.334  1.00  0.00     0.049 A 
ATOM     54  C   UNL A   1      39.020  32.187  31.114  1.00  0.00     0.074 A 
ATOM     55  C   UNL A   1      43.822  31.982  28.619  1.00  0.00     0.029 A 
ATOM     56  N   UNL A   1      43.930  31.083  30.640  1.00  0.00    -0.354 N 
ATOM     57  N   UNL A   1      39.756  32.070  32.175  1.00  0.00    -0.248 NA
ATOM     58  C   UNL A   1      39.340  33.318  30.248  1.00  0.00     0.031 C 
ATOM     59  C   UNL A   1      42.721  32.418  29.383  1.00  0.00     0.029 A 
ATOM     60  C   UNL A   1      42.837  31.916  30.673  1.00  0.00     0.049 A 
ATOM     61  H   UNL A   1      44.354  30.668  31.426  1.00  0.00     0.167 HD
ATOM     62  C   UNL A   1      40.898  32.706  31.809  1.00  0.00     0.074 A 
ATOM     63  C   UNL A   1      40.499  33.674  30.806  1.00  0.00     0.031 C 
ATOM     64  C   UNL A   1      42.014  31.938  31.853  1.00  0.00     0.037 A 
BRANCH  51  65
ATOM     65  C   UNL A   1      45.583  28.732  29.874  1.00  0.00     0.064 A 
ATOM     66  C   UNL A   1      46.957  28.581  29.669  1.00  0.00     0.173 A 
ATOM     67  C   UNL A   1      44.997  27.999  30.923  1.00  0.00     0.173 A 
ATOM     68  F   UNL A   1      47.583  29.311  28.732  1.00  0.00    -0.203 F 
ATOM     69  C   UNL A   1      47.703  27.691  30.439  1.00  0.00     0.198 A 
ATOM     70  C   UNL A   1      45.729  27.070  31.651  1.00  0.00     0.198 A 
ATOM     71  F   UNL A   1      43.725  28.223  31.293  1.00  0.00    -0.203 F 
ATOM     72  F   UNL A   1      49.025  27.587  30.249  1.00  0.00    -0.200 F 
ATOM     73  C   UNL A   1      47.083  26.913  31.406  1.00  0.00     0.200 A 
ATOM     74  F   UNL A   1      45.126  26.345  32.604  1.00  0.00    -0.200 F 
ATOM     75  F   UNL A   1      47.794  26.036  32.126  1.00  0.00    -0.200 F 
ENDBRANCH  51  65
BRANCH  52  76
ATOM     76  C   UNL A   1      36.589  32.063  31.373  1.00  0.00     0.064 A 
ATOM     77  C   UNL A   1      36.316  32.220  32.781  1.00  0.00     0.173 A 
ATOM     78  C   UNL A   1      35.891  32.975  30.570  1.00  0.00     0.173 A 
ATOM     79  F   UNL A   1      36.873  31.413  33.694  1.00  0.00    -0.203 F 
ATOM     80  C   UNL A   1      35.529  33.253  33.322  1.00  0.00     0.198 A 
ATOM     81  C   UNL A   1      35.067  33.994  31.118  1.00  0.00     0.198 A 
ATOM     82  F   UNL A   1      36.067  32.962  29.243  1.00  0.00    -0.203 F 
ATOM     83  F   UNL A   1      35.435  33.407  34.654  1.00  0.00    -0.200 F 
ATOM     84  C   UNL A   1      34.916  34.155  32.488  1.00  0.00     0.200 A 
ATOM     85  F   UNL A   1      34.471  34.878  30.304  1.00  0.00    -0.200 F 
ATOM     86  F   UNL A   1      34.219  35.184  32.995  1.00  0.00    -0.200 F 
ENDBRANCH  52  76
BRANCH  64  87
ATOM     87  C   UNL A   1      42.171  31.054  33.075  1.00  0.00     0.064 A 
ATOM     88  C   UNL A   1      41.696  29.729  33.234  1.00  0.00     0.173 A 
ATOM     89  C   UNL A   1      42.759  31.636  34.206  1.00  0.00     0.173 A 
ATOM     90  F   UNL A   1      41.216  29.018  32.205  1.00  0.00    -0.203 F 
ATOM     91  C   UNL A   1      41.723  29.081  34.473  1.00  0.00     0.198 A 
ATOM     92  C   UNL A   1      42.833  30.968  35.427  1.00  0.00     0.198 A 
ATOM     93  F   UNL A   1      43.281  32.870  34.123  1.00  0.00    -0.203 F 
ATOM     94  F   UNL A   1      41.197  27.854  34.603  1.00  0.00    -0.200 F 
ATOM     95  C   UNL A   1      42.291  29.703  35.568  1.00  0.00     0.200 A 
ATOM     96  F   UNL A   1      43.432  31.560  36.469  1.00  0.00    -0.200 F 
ATOM     97  F   UNL A   1      42.334  29.078  36.754  1.00  0.00    -0.200 F 
ENDBRANCH  64  87
ENDBRANCH  38  39
ENDBRANCH  31  33
ENDBRANCH  30  31
ENDBRANCH  29  30
ENDBRANCH   1  29
TORSDOF 15
ENDMDL
