MODEL 1
REMARK VINA RESULT:     -10.9      0.000      0.000
REMARK SMILES CCC[C@H](C)NC(=O)C[NH+]1CC(n2cc(C(=O)OCCOC(=O)c3ccc(-c4c5nc(c(-c6c(F)c(F)c(F)c(F)c6F)c6ccc([nH]6)c(-c6c(F)c(F)c(F)c(F)c6F)c6nc(c(-c7c(F)c(F)c(F)c(F)c7F)c7ccc4[nH]7)C=C6)C=C5)cc3)nn2)C1
REMARK SMILES IDX 16 1 17 2 15 3 13 4 14 5 88 6 87 7 12 8 10 9 11 10 89 11
REMARK SMILES IDX 9 13 7 14 6 15 8 17 4 18 5 19 3 20 2 21 1 22 18 23 19 24
REMARK SMILES IDX 20 25 21 26 22 27 23 28 24 29 25 30 86 31 26 32 85 33 27 34
REMARK SMILES IDX 28 35 29 36 79 37 30 38 84 39 78 40 80 41 31 42 83 43 77 44
REMARK SMILES IDX 76 45 32 47 64 48 44 49 63 50 45 51 48 52 62 53 81 54 46 55
REMARK SMILES IDX 47 56 61 58 82 59 49 60 33 61 34 62 42 63 35 64 36 65 40 66
REMARK SMILES IDX 43 67 37 68 38 69 41 70 39 71 65 72 66 73 74 74 67 75 68 76
REMARK SMILES IDX 72 77 75 78 69 79 70 80 73 81 71 82 50 83 51 84 59 85 52 86
REMARK SMILES IDX 53 87 57 88 60 89 54 90 55 91 58 92 56 93
REMARK H PARENT 10 12 6 16 80 46 48 57
REMARK Flexibility Score: inf
ROOT
ATOM      1  C   UNL A   1      40.849  21.451  27.085  1.00  0.00     0.360 C 
ATOM      2  O   UNL A   1      41.149  21.520  28.254  1.00  0.00    -0.244 OA
ENDROOT
BRANCH   1   3
ATOM      3  C   UNL A   1      39.624  22.011  26.521  1.00  0.00     0.190 A 
ATOM      4  N   UNL A   1      37.812  22.412  25.403  1.00  0.00    -0.237 N 
ATOM      5  C   UNL A   1      38.750  21.444  25.616  1.00  0.00     0.147 A 
ATOM      6  N   UNL A   1      38.105  23.528  26.086  1.00  0.00    -0.066 NA
ATOM      7  N   UNL A   1      39.209  23.297  26.784  1.00  0.00    -0.123 NA
BRANCH   4   8
ATOM      8  C   UNL A   1      36.627  22.222  24.626  1.00  0.00     0.218 C 
ATOM      9  N   UNL A   1      34.597  21.749  24.907  1.00  0.00    -0.323 N 
ATOM     10  C   UNL A   1      35.374  23.004  25.067  1.00  0.00     0.296 C 
ATOM     11  C   UNL A   1      35.852  20.975  25.091  1.00  0.00     0.296 C 
ATOM     12  H   UNL A   1      33.986  21.662  24.095  1.00  0.00     0.348 HD
BRANCH   9  13
ATOM     13  C   UNL A   1      33.643  21.422  25.990  1.00  0.00     0.363 C 
BRANCH  13  14
ATOM     14  C   UNL A   1      32.295  20.822  25.588  1.00  0.00     0.275 C 
ATOM     15  N   UNL A   1      32.213  19.515  25.178  1.00  0.00    -0.349 N 
ATOM     16  H   UNL A   1      31.374  19.271  24.725  1.00  0.00     0.163 HD
ATOM     17  O   UNL A   1      31.265  21.499  25.570  1.00  0.00    -0.268 OA
BRANCH  15  18
ATOM     18  C   UNL A   1      33.184  18.431  25.313  1.00  0.00     0.079 C 
ATOM     19  C   UNL A   1      32.453  17.145  25.717  1.00  0.00     0.031 C 
BRANCH  18  20
ATOM     20  C   UNL A   1      33.949  18.160  24.006  1.00  0.00     0.024 C 
BRANCH  20  21
ATOM     21  C   UNL A   1      33.228  17.313  22.957  1.00  0.00    -0.001 C 
ATOM     22  C   UNL A   1      32.352  18.112  22.008  1.00  0.00     0.004 C 
ENDBRANCH  20  21
ENDBRANCH  18  20
ENDBRANCH  15  18
ENDBRANCH  13  14
ENDBRANCH   9  13
ENDBRANCH   4   8
ENDBRANCH   1   3
BRANCH   1  23
ATOM     23  O   UNL A   1      41.666  20.929  26.104  1.00  0.00    -0.457 OA
BRANCH  23  24
ATOM     24  C   UNL A   1      41.838  19.501  26.134  1.00  0.00     0.275 C 
BRANCH  24  25
ATOM     25  C   UNL A   1      43.132  19.098  25.437  1.00  0.00     0.275 C 
BRANCH  25  26
ATOM     26  O   UNL A   1      44.107  20.133  25.558  1.00  0.00    -0.458 OA
BRANCH  26  27
ATOM     27  C   UNL A   1      44.520  20.673  24.390  1.00  0.00     0.338 C 
ATOM     28  O   UNL A   1      44.756  20.078  23.350  1.00  0.00    -0.246 OA
BRANCH  27  29
ATOM     29  C   UNL A   1      44.868  22.080  24.600  1.00  0.00     0.060 A 
ATOM     30  C   UNL A   1      46.003  22.344  25.376  1.00  0.00     0.016 A 
ATOM     31  C   UNL A   1      43.878  23.042  24.374  1.00  0.00     0.016 A 
ATOM     32  C   UNL A   1      46.031  23.500  26.123  1.00  0.00     0.010 A 
ATOM     33  C   UNL A   1      43.884  24.170  25.150  1.00  0.00     0.010 A 
ATOM     34  C   UNL A   1      44.920  24.342  26.071  1.00  0.00    -0.014 A 
BRANCH  34  35
ATOM     35  C   UNL A   1      44.822  25.432  27.016  1.00  0.00     0.031 A 
ATOM     36  C   UNL A   1      45.836  26.496  26.833  1.00  0.00     0.074 A 
ATOM     37  C   UNL A   1      43.741  25.523  27.816  1.00  0.00     0.049 A 
ATOM     38  N   UNL A   1      46.644  27.001  27.705  1.00  0.00    -0.248 NA
ATOM     39  C   UNL A   1      46.046  26.997  25.461  1.00  0.00     0.031 C 
ATOM     40  C   UNL A   1      42.535  24.685  27.793  1.00  0.00     0.029 A 
ATOM     41  N   UNL A   1      43.424  26.484  28.721  1.00  0.00    -0.354 N 
ATOM     42  C   UNL A   1      47.349  27.993  27.028  1.00  0.00     0.074 A 
ATOM     43  C   UNL A   1      47.073  27.823  25.630  1.00  0.00     0.031 C 
ATOM     44  C   UNL A   1      41.543  25.320  28.458  1.00  0.00     0.029 A 
ATOM     45  C   UNL A   1      42.073  26.548  29.026  1.00  0.00     0.049 A 
ATOM     46  H   UNL A   1      44.093  27.082  29.125  1.00  0.00     0.167 HD
ATOM     47  C   UNL A   1      47.905  29.045  27.685  1.00  0.00     0.037 A 
ATOM     48  C   UNL A   1      41.435  27.604  29.591  1.00  0.00     0.037 A 
ATOM     49  C   UNL A   1      48.120  28.743  29.075  1.00  0.00     0.049 A 
ATOM     50  C   UNL A   1      42.476  28.495  30.175  1.00  0.00     0.074 A 
ATOM     51  C   UNL A   1      48.831  27.764  29.743  1.00  0.00     0.029 A 
ATOM     52  N   UNL A   1      47.267  29.279  30.008  1.00  0.00    -0.354 N 
ATOM     53  N   UNL A   1      43.207  28.189  31.212  1.00  0.00    -0.248 NA
ATOM     54  C   UNL A   1      43.020  29.541  29.318  1.00  0.00     0.031 C 
ATOM     55  C   UNL A   1      48.030  27.429  30.873  1.00  0.00     0.029 A 
ATOM     56  C   UNL A   1      46.907  28.258  30.849  1.00  0.00     0.049 A 
ATOM     57  H   UNL A   1      46.971  30.216  30.061  1.00  0.00     0.167 HD
ATOM     58  C   UNL A   1      44.467  28.697  30.923  1.00  0.00     0.074 A 
ATOM     59  C   UNL A   1      44.271  29.587  29.783  1.00  0.00     0.031 C 
ATOM     60  C   UNL A   1      45.597  28.131  31.439  1.00  0.00     0.037 A 
BRANCH  47  61
ATOM     61  C   UNL A   1      47.915  30.451  27.137  1.00  0.00     0.064 A 
ATOM     62  C   UNL A   1      49.114  31.187  27.168  1.00  0.00     0.173 A 
ATOM     63  C   UNL A   1      46.749  31.200  26.853  1.00  0.00     0.173 A 
ATOM     64  F   UNL A   1      50.279  30.583  27.448  1.00  0.00    -0.203 F 
ATOM     65  C   UNL A   1      49.131  32.575  27.007  1.00  0.00     0.198 A 
ATOM     66  C   UNL A   1      46.780  32.575  26.631  1.00  0.00     0.198 A 
ATOM     67  F   UNL A   1      45.523  30.666  26.890  1.00  0.00    -0.203 F 
ATOM     68  F   UNL A   1      50.277  33.247  27.178  1.00  0.00    -0.200 F 
ATOM     69  C   UNL A   1      47.964  33.267  26.743  1.00  0.00     0.200 A 
ATOM     70  F   UNL A   1      45.633  33.227  26.393  1.00  0.00    -0.200 F 
ATOM     71  F   UNL A   1      47.968  34.603  26.650  1.00  0.00    -0.200 F 
ENDBRANCH  47  61
BRANCH  48  72
ATOM     72  C   UNL A   1      40.039  28.050  29.354  1.00  0.00     0.064 A 
ATOM     73  C   UNL A   1      39.104  28.096  30.400  1.00  0.00     0.173 A 
ATOM     74  C   UNL A   1      39.650  28.663  28.144  1.00  0.00     0.173 A 
ATOM     75  F   UNL A   1      39.411  27.587  31.601  1.00  0.00    -0.203 F 
ATOM     76  C   UNL A   1      37.860  28.719  30.246  1.00  0.00     0.198 A 
ATOM     77  C   UNL A   1      38.404  29.269  27.987  1.00  0.00     0.198 A 
ATOM     78  F   UNL A   1      40.504  28.769  27.116  1.00  0.00    -0.203 F 
ATOM     79  F   UNL A   1      37.015  28.790  31.283  1.00  0.00    -0.200 F 
ATOM     80  C   UNL A   1      37.512  29.306  29.039  1.00  0.00     0.200 A 
ATOM     81  F   UNL A   1      38.098  29.864  26.825  1.00  0.00    -0.200 F 
ATOM     82  F   UNL A   1      36.340  29.943  28.905  1.00  0.00    -0.200 F 
ENDBRANCH  48  72
BRANCH  60  83
ATOM     83  C   UNL A   1      45.444  27.092  32.512  1.00  0.00     0.064 A 
ATOM     84  C   UNL A   1      45.268  25.723  32.248  1.00  0.00     0.173 A 
ATOM     85  C   UNL A   1      45.664  27.468  33.844  1.00  0.00     0.173 A 
ATOM     86  F   UNL A   1      45.163  25.272  30.993  1.00  0.00    -0.203 F 
ATOM     87  C   UNL A   1      45.268  24.782  33.275  1.00  0.00     0.198 A 
ATOM     88  C   UNL A   1      45.703  26.521  34.864  1.00  0.00     0.198 A 
ATOM     89  F   UNL A   1      45.900  28.754  34.149  1.00  0.00    -0.203 F 
ATOM     90  F   UNL A   1      45.091  23.482  32.994  1.00  0.00    -0.200 F 
ATOM     91  C   UNL A   1      45.496  25.180  34.581  1.00  0.00     0.200 A 
ATOM     92  F   UNL A   1      45.975  26.905  36.118  1.00  0.00    -0.200 F 
ATOM     93  F   UNL A   1      45.546  24.270  35.563  1.00  0.00    -0.200 F 
ENDBRANCH  60  83
ENDBRANCH  34  35
ENDBRANCH  27  29
ENDBRANCH  26  27
ENDBRANCH  25  26
ENDBRANCH  24  25
ENDBRANCH  23  24
ENDBRANCH   1  23
TORSDOF 17
ENDMDL
MODEL 2
REMARK VINA RESULT:     -10.7      5.725     10.567
REMARK SMILES CCC[C@H](C)NC(=O)C[NH+]1CC(n2cc(C(=O)OCCOC(=O)c3ccc(-c4c5nc(c(-c6c(F)c(F)c(F)c(F)c6F)c6ccc([nH]6)c(-c6c(F)c(F)c(F)c(F)c6F)c6nc(c(-c7c(F)c(F)c(F)c(F)c7F)c7ccc4[nH]7)C=C6)C=C5)cc3)nn2)C1
REMARK SMILES IDX 16 1 17 2 15 3 13 4 14 5 88 6 87 7 12 8 10 9 11 10 89 11
REMARK SMILES IDX 9 13 7 14 6 15 8 17 4 18 5 19 3 20 2 21 1 22 18 23 19 24
REMARK SMILES IDX 20 25 21 26 22 27 23 28 24 29 25 30 86 31 26 32 85 33 27 34
REMARK SMILES IDX 28 35 29 36 79 37 30 38 84 39 78 40 80 41 31 42 83 43 77 44
REMARK SMILES IDX 76 45 32 47 64 48 44 49 63 50 45 51 48 52 62 53 81 54 46 55
REMARK SMILES IDX 47 56 61 58 82 59 49 60 33 61 34 62 42 63 35 64 36 65 40 66
REMARK SMILES IDX 43 67 37 68 38 69 41 70 39 71 65 72 66 73 74 74 67 75 68 76
REMARK SMILES IDX 72 77 75 78 69 79 70 80 73 81 71 82 50 83 51 84 59 85 52 86
REMARK SMILES IDX 53 87 57 88 60 89 54 90 55 91 58 92 56 93
REMARK H PARENT 10 12 6 16 80 46 48 57
REMARK Flexibility Score: inf
ROOT
ATOM      1  C   UNL A   1      34.685  32.899  27.977  1.00  0.00     0.360 C 
ATOM      2  O   UNL A   1      35.652  33.410  27.461  1.00  0.00    -0.244 OA
ENDROOT
BRANCH   1   3
ATOM      3  C   UNL A   1      34.192  31.565  27.647  1.00  0.00     0.190 A 
ATOM      4  N   UNL A   1      33.011  29.830  27.111  1.00  0.00    -0.237 N 
ATOM      5  C   UNL A   1      32.933  31.187  27.228  1.00  0.00     0.147 A 
ATOM      6  N   UNL A   1      34.219  29.381  27.481  1.00  0.00    -0.066 NA
ATOM      7  N   UNL A   1      34.959  30.433  27.805  1.00  0.00    -0.123 NA
BRANCH   4   8
ATOM      8  C   UNL A   1      31.969  29.011  26.575  1.00  0.00     0.218 C 
ATOM      9  N   UNL A   1      31.470  26.974  26.411  1.00  0.00    -0.323 N 
ATOM     10  C   UNL A   1      31.360  27.955  27.519  1.00  0.00     0.296 C 
ATOM     11  C   UNL A   1      32.547  27.804  25.813  1.00  0.00     0.296 C 
ATOM     12  H   UNL A   1      30.617  26.706  25.920  1.00  0.00     0.348 HD
BRANCH   9  13
ATOM     13  C   UNL A   1      32.002  25.639  26.762  1.00  0.00     0.363 C 
BRANCH  13  14
ATOM     14  C   UNL A   1      31.197  24.417  26.318  1.00  0.00     0.275 C 
ATOM     15  N   UNL A   1      31.230  24.004  25.010  1.00  0.00    -0.349 N 
ATOM     16  H   UNL A   1      30.525  23.367  24.754  1.00  0.00     0.163 HD
ATOM     17  O   UNL A   1      30.464  23.806  27.098  1.00  0.00    -0.268 OA
BRANCH  15  18
ATOM     18  C   UNL A   1      32.157  24.367  23.939  1.00  0.00     0.079 C 
ATOM     19  C   UNL A   1      33.105  23.192  23.670  1.00  0.00     0.031 C 
BRANCH  18  20
ATOM     20  C   UNL A   1      31.432  24.712  22.625  1.00  0.00     0.024 C 
BRANCH  20  21
ATOM     21  C   UNL A   1      31.677  26.111  22.060  1.00  0.00    -0.001 C 
ATOM     22  C   UNL A   1      33.128  26.398  21.716  1.00  0.00     0.004 C 
ENDBRANCH  20  21
ENDBRANCH  18  20
ENDBRANCH  15  18
ENDBRANCH  13  14
ENDBRANCH   9  13
ENDBRANCH   4   8
ENDBRANCH   1   3
BRANCH   1  23
ATOM     23  O   UNL A   1      33.975  33.459  29.018  1.00  0.00    -0.457 OA
BRANCH  23  24
ATOM     24  C   UNL A   1      34.186  34.867  29.228  1.00  0.00     0.275 C 
BRANCH  24  25
ATOM     25  C   UNL A   1      33.038  35.472  30.026  1.00  0.00     0.275 C 
BRANCH  25  26
ATOM     26  O   UNL A   1      33.475  35.830  31.337  1.00  0.00    -0.458 OA
BRANCH  26  27
ATOM     27  C   UNL A   1      33.118  34.972  32.318  1.00  0.00     0.338 C 
ATOM     28  O   UNL A   1      32.002  34.822  32.789  1.00  0.00    -0.246 OA
BRANCH  27  29
ATOM     29  C   UNL A   1      34.320  34.383  32.912  1.00  0.00     0.060 A 
ATOM     30  C   UNL A   1      35.370  35.257  33.218  1.00  0.00     0.016 A 
ATOM     31  C   UNL A   1      34.512  33.004  32.773  1.00  0.00     0.016 A 
ATOM     32  C   UNL A   1      36.660  34.779  33.154  1.00  0.00     0.010 A 
ATOM     33  C   UNL A   1      35.795  32.538  32.665  1.00  0.00     0.010 A 
ATOM     34  C   UNL A   1      36.848  33.449  32.777  1.00  0.00    -0.014 A 
BRANCH  34  35
ATOM     35  C   UNL A   1      38.186  32.990  32.474  1.00  0.00     0.031 A 
ATOM     36  C   UNL A   1      39.095  32.933  33.642  1.00  0.00     0.074 A 
ATOM     37  C   UNL A   1      38.448  32.458  31.263  1.00  0.00     0.049 A 
ATOM     38  N   UNL A   1      40.271  33.449  33.777  1.00  0.00    -0.248 NA
ATOM     39  C   UNL A   1      38.576  32.295  34.867  1.00  0.00     0.031 C 
ATOM     40  C   UNL A   1      37.493  32.168  30.186  1.00  0.00     0.029 A 
ATOM     41  N   UNL A   1      39.603  31.919  30.797  1.00  0.00    -0.354 N 
ATOM     42  C   UNL A   1      40.704  33.062  35.043  1.00  0.00     0.074 A 
ATOM     43  C   UNL A   1      39.565  32.518  35.727  1.00  0.00     0.031 C 
ATOM     44  C   UNL A   1      38.058  31.300  29.317  1.00  0.00     0.029 A 
ATOM     45  C   UNL A   1      39.431  31.055  29.727  1.00  0.00     0.049 A 
ATOM     46  H   UNL A   1      40.484  32.124  31.183  1.00  0.00     0.167 HD
ATOM     47  C   UNL A   1      42.025  32.980  35.349  1.00  0.00     0.037 A 
ATOM     48  C   UNL A   1      40.322  30.122  29.308  1.00  0.00     0.037 A 
ATOM     49  C   UNL A   1      42.822  33.786  34.463  1.00  0.00     0.049 A 
ATOM     50  C   UNL A   1      41.637  30.451  29.924  1.00  0.00     0.074 A 
ATOM     51  C   UNL A   1      42.832  35.130  34.141  1.00  0.00     0.029 A 
ATOM     52  N   UNL A   1      43.543  33.165  33.473  1.00  0.00    -0.354 N 
ATOM     53  N   UNL A   1      42.355  31.495  29.610  1.00  0.00    -0.248 NA
ATOM     54  C   UNL A   1      41.935  29.859  31.222  1.00  0.00     0.031 C 
ATOM     55  C   UNL A   1      43.116  35.175  32.746  1.00  0.00     0.029 A 
ATOM     56  C   UNL A   1      43.308  33.862  32.316  1.00  0.00     0.049 A 
ATOM     57  H   UNL A   1      44.117  32.373  33.576  1.00  0.00     0.167 HD
ATOM     58  C   UNL A   1      42.894  31.931  30.813  1.00  0.00     0.074 A 
ATOM     59  C   UNL A   1      42.667  30.840  31.756  1.00  0.00     0.031 C 
ATOM     60  C   UNL A   1      43.212  33.244  31.016  1.00  0.00     0.037 A 
BRANCH  47  61
ATOM     61  C   UNL A   1      42.606  31.892  36.219  1.00  0.00     0.064 A 
ATOM     62  C   UNL A   1      43.464  32.248  37.276  1.00  0.00     0.173 A 
ATOM     63  C   UNL A   1      42.592  30.517  35.886  1.00  0.00     0.173 A 
ATOM     64  F   UNL A   1      43.576  33.528  37.662  1.00  0.00    -0.203 F 
ATOM     65  C   UNL A   1      44.299  31.314  37.894  1.00  0.00     0.198 A 
ATOM     66  C   UNL A   1      43.379  29.579  36.549  1.00  0.00     0.198 A 
ATOM     67  F   UNL A   1      41.909  30.037  34.841  1.00  0.00    -0.203 F 
ATOM     68  F   UNL A   1      45.194  31.725  38.803  1.00  0.00    -0.200 F 
ATOM     69  C   UNL A   1      44.258  29.982  37.528  1.00  0.00     0.200 A 
ATOM     70  F   UNL A   1      43.335  28.295  36.164  1.00  0.00    -0.200 F 
ATOM     71  F   UNL A   1      45.100  29.097  38.076  1.00  0.00    -0.200 F 
ENDBRANCH  47  61
BRANCH  48  72
ATOM     72  C   UNL A   1      40.029  28.798  28.703  1.00  0.00     0.064 A 
ATOM     73  C   UNL A   1      40.551  28.441  27.450  1.00  0.00     0.173 A 
ATOM     74  C   UNL A   1      39.420  27.762  29.441  1.00  0.00     0.173 A 
ATOM     75  F   UNL A   1      41.195  29.349  26.704  1.00  0.00    -0.203 F 
ATOM     76  C   UNL A   1      40.472  27.128  26.968  1.00  0.00     0.198 A 
ATOM     77  C   UNL A   1      39.327  26.458  28.954  1.00  0.00     0.198 A 
ATOM     78  F   UNL A   1      38.982  27.968  30.691  1.00  0.00    -0.203 F 
ATOM     79  F   UNL A   1      41.029  26.813  25.792  1.00  0.00    -0.200 F 
ATOM     80  C   UNL A   1      39.861  26.138  27.722  1.00  0.00     0.200 A 
ATOM     81  F   UNL A   1      38.765  25.505  29.711  1.00  0.00    -0.200 F 
ATOM     82  F   UNL A   1      39.826  24.872  27.282  1.00  0.00    -0.200 F 
ENDBRANCH  48  72
BRANCH  60  83
ATOM     83  C   UNL A   1      43.185  34.171  29.835  1.00  0.00     0.064 A 
ATOM     84  C   UNL A   1      44.289  34.383  28.991  1.00  0.00     0.173 A 
ATOM     85  C   UNL A   1      41.958  34.718  29.441  1.00  0.00     0.173 A 
ATOM     86  F   UNL A   1      45.468  33.802  29.238  1.00  0.00    -0.203 F 
ATOM     87  C   UNL A   1      44.175  35.145  27.830  1.00  0.00     0.198 A 
ATOM     88  C   UNL A   1      41.837  35.447  28.260  1.00  0.00     0.198 A 
ATOM     89  F   UNL A   1      40.856  34.496  30.175  1.00  0.00    -0.203 F 
ATOM     90  F   UNL A   1      45.246  35.338  27.045  1.00  0.00    -0.200 F 
ATOM     91  C   UNL A   1      42.948  35.668  27.460  1.00  0.00     0.200 A 
ATOM     92  F   UNL A   1      40.638  35.906  27.881  1.00  0.00    -0.200 F 
ATOM     93  F   UNL A   1      42.827  36.359  26.318  1.00  0.00    -0.200 F 
ENDBRANCH  60  83
ENDBRANCH  34  35
ENDBRANCH  27  29
ENDBRANCH  26  27
ENDBRANCH  25  26
ENDBRANCH  24  25
ENDBRANCH  23  24
ENDBRANCH   1  23
TORSDOF 17
ENDMDL
MODEL 3
REMARK VINA RESULT:     -10.6      5.490     11.476
REMARK SMILES CCC[C@H](C)NC(=O)C[NH+]1CC(n2cc(C(=O)OCCOC(=O)c3ccc(-c4c5nc(c(-c6c(F)c(F)c(F)c(F)c6F)c6ccc([nH]6)c(-c6c(F)c(F)c(F)c(F)c6F)c6nc(c(-c7c(F)c(F)c(F)c(F)c7F)c7ccc4[nH]7)C=C6)C=C5)cc3)nn2)C1
REMARK SMILES IDX 16 1 17 2 15 3 13 4 14 5 88 6 87 7 12 8 10 9 11 10 89 11
REMARK SMILES IDX 9 13 7 14 6 15 8 17 4 18 5 19 3 20 2 21 1 22 18 23 19 24
REMARK SMILES IDX 20 25 21 26 22 27 23 28 24 29 25 30 86 31 26 32 85 33 27 34
REMARK SMILES IDX 28 35 29 36 79 37 30 38 84 39 78 40 80 41 31 42 83 43 77 44
REMARK SMILES IDX 76 45 32 47 64 48 44 49 63 50 45 51 48 52 62 53 81 54 46 55
REMARK SMILES IDX 47 56 61 58 82 59 49 60 33 61 34 62 42 63 35 64 36 65 40 66
REMARK SMILES IDX 43 67 37 68 38 69 41 70 39 71 65 72 66 73 74 74 67 75 68 76
REMARK SMILES IDX 72 77 75 78 69 79 70 80 73 81 71 82 50 83 51 84 59 85 52 86
REMARK SMILES IDX 53 87 57 88 60 89 54 90 55 91 58 92 56 93
REMARK H PARENT 10 12 6 16 80 46 48 57
REMARK Flexibility Score: inf
ROOT
ATOM      1  C   UNL A   1      33.506  36.636  28.958  1.00  0.00     0.360 C 
ATOM      2  O   UNL A   1      32.946  37.592  28.476  1.00  0.00    -0.244 OA
ENDROOT
BRANCH   1   3
ATOM      3  C   UNL A   1      33.329  36.194  30.338  1.00  0.00     0.190 A 
ATOM      4  N   UNL A   1      33.450  35.219  32.269  1.00  0.00    -0.237 N 
ATOM      5  C   UNL A   1      34.081  35.291  31.061  1.00  0.00     0.147 A 
ATOM      6  N   UNL A   1      32.349  35.984  32.285  1.00  0.00    -0.066 NA
ATOM      7  N   UNL A   1      32.264  36.596  31.112  1.00  0.00    -0.123 NA
BRANCH   4   8
ATOM      8  C   UNL A   1      33.954  34.494  33.394  1.00  0.00     0.218 C 
ATOM      9  N   UNL A   1      35.484  33.124  33.851  1.00  0.00    -0.323 N 
ATOM     10  C   UNL A   1      35.467  34.597  33.666  1.00  0.00     0.296 C 
ATOM     11  C   UNL A   1      34.254  33.030  33.022  1.00  0.00     0.296 C 
ATOM     12  H   UNL A   1      35.561  32.760  34.800  1.00  0.00     0.348 HD
BRANCH   9  13
ATOM     13  C   UNL A   1      36.588  32.390  33.195  1.00  0.00     0.363 C 
BRANCH  13  14
ATOM     14  C   UNL A   1      37.799  32.020  34.052  1.00  0.00     0.275 C 
ATOM     15  N   UNL A   1      39.071  32.257  33.592  1.00  0.00    -0.349 N 
ATOM     16  H   UNL A   1      39.786  31.794  34.084  1.00  0.00     0.163 HD
ATOM     17  O   UNL A   1      37.674  31.459  35.142  1.00  0.00    -0.268 OA
BRANCH  15  18
ATOM     18  C   UNL A   1      39.522  33.094  32.482  1.00  0.00     0.079 C 
ATOM     19  C   UNL A   1      39.106  34.547  32.742  1.00  0.00     0.031 C 
BRANCH  18  20
ATOM     20  C   UNL A   1      41.049  33.055  32.298  1.00  0.00     0.024 C 
BRANCH  20  21
ATOM     21  C   UNL A   1      41.565  33.138  30.861  1.00  0.00    -0.001 C 
ATOM     22  C   UNL A   1      42.652  34.177  30.649  1.00  0.00     0.004 C 
ENDBRANCH  20  21
ENDBRANCH  18  20
ENDBRANCH  15  18
ENDBRANCH  13  14
ENDBRANCH   9  13
ENDBRANCH   4   8
ENDBRANCH   1   3
BRANCH   1  23
ATOM     23  O   UNL A   1      34.310  35.769  28.247  1.00  0.00    -0.457 OA
BRANCH  23  24
ATOM     24  C   UNL A   1      33.799  34.433  28.092  1.00  0.00     0.275 C 
BRANCH  24  25
ATOM     25  C   UNL A   1      34.938  33.427  27.983  1.00  0.00     0.275 C 
BRANCH  25  26
ATOM     26  O   UNL A   1      34.617  32.231  28.692  1.00  0.00    -0.458 OA
BRANCH  26  27
ATOM     27  C   UNL A   1      35.243  31.116  28.253  1.00  0.00     0.338 C 
ATOM     28  O   UNL A   1      34.892  30.393  27.335  1.00  0.00    -0.246 OA
BRANCH  27  29
ATOM     29  C   UNL A   1      36.311  30.756  29.188  1.00  0.00     0.060 A 
ATOM     30  C   UNL A   1      37.289  31.727  29.439  1.00  0.00     0.016 A 
ATOM     31  C   UNL A   1      36.520  29.399  29.455  1.00  0.00     0.016 A 
ATOM     32  C   UNL A   1      38.566  31.307  29.737  1.00  0.00     0.010 A 
ATOM     33  C   UNL A   1      37.798  28.979  29.708  1.00  0.00     0.010 A 
ATOM     34  C   UNL A   1      38.816  29.935  29.765  1.00  0.00    -0.014 A 
BRANCH  34  35
ATOM     35  C   UNL A   1      40.184  29.474  29.841  1.00  0.00     0.031 A 
ATOM     36  C   UNL A   1      40.682  29.253  31.218  1.00  0.00     0.074 A 
ATOM     37  C   UNL A   1      40.816  29.079  28.717  1.00  0.00     0.049 A 
ATOM     38  N   UNL A   1      41.753  29.714  31.774  1.00  0.00    -0.248 NA
ATOM     39  C   UNL A   1      39.811  28.493  32.135  1.00  0.00     0.031 C 
ATOM     40  C   UNL A   1      40.249  28.946  27.370  1.00  0.00     0.029 A 
ATOM     41  N   UNL A   1      42.064  28.563  28.573  1.00  0.00    -0.354 N 
ATOM     42  C   UNL A   1      41.771  29.169  33.056  1.00  0.00     0.074 A 
ATOM     43  C   UNL A   1      40.480  28.583  33.280  1.00  0.00     0.031 C 
ATOM     44  C   UNL A   1      41.064  28.168  26.622  1.00  0.00     0.029 A 
ATOM     45  C   UNL A   1      42.241  27.835  27.407  1.00  0.00     0.049 A 
ATOM     46  H   UNL A   1      42.778  28.694  29.237  1.00  0.00     0.167 HD
ATOM     47  C   UNL A   1      42.931  29.011  33.746  1.00  0.00     0.037 A 
ATOM     48  C   UNL A   1      43.226  26.931  27.177  1.00  0.00     0.037 A 
ATOM     49  C   UNL A   1      43.958  29.890  33.256  1.00  0.00     0.049 A 
ATOM     50  C   UNL A   1      44.280  27.145  28.207  1.00  0.00     0.074 A 
ATOM     51  C   UNL A   1      44.059  31.262  33.118  1.00  0.00     0.029 A 
ATOM     52  N   UNL A   1      44.958  29.368  32.473  1.00  0.00    -0.354 N 
ATOM     53  N   UNL A   1      45.052  28.197  28.261  1.00  0.00    -0.248 NA
ATOM     54  C   UNL A   1      44.161  26.397  29.452  1.00  0.00     0.031 C 
ATOM     55  C   UNL A   1      44.765  31.461  31.896  1.00  0.00     0.029 A 
ATOM     56  C   UNL A   1      45.092  30.201  31.393  1.00  0.00     0.049 A 
ATOM     57  H   UNL A   1      45.478  28.551  32.653  1.00  0.00     0.167 HD
ATOM     58  C   UNL A   1      45.184  28.473  29.616  1.00  0.00     0.074 A 
ATOM     59  C   UNL A   1      44.682  27.286  30.302  1.00  0.00     0.031 C 
ATOM     60  C   UNL A   1      45.412  29.742  30.063  1.00  0.00     0.037 A 
BRANCH  47  61
ATOM     61  C   UNL A   1      43.219  27.812  34.616  1.00  0.00     0.064 A 
ATOM     62  C   UNL A   1      43.357  26.548  34.012  1.00  0.00     0.173 A 
ATOM     63  C   UNL A   1      43.077  27.800  36.023  1.00  0.00     0.173 A 
ATOM     64  F   UNL A   1      43.476  26.437  32.680  1.00  0.00    -0.203 F 
ATOM     65  C   UNL A   1      43.278  25.365  34.751  1.00  0.00     0.198 A 
ATOM     66  C   UNL A   1      43.063  26.620  36.763  1.00  0.00     0.198 A 
ATOM     67  F   UNL A   1      42.833  28.908  36.731  1.00  0.00    -0.203 F 
ATOM     68  F   UNL A   1      43.281  24.186  34.116  1.00  0.00    -0.200 F 
ATOM     69  C   UNL A   1      43.128  25.402  36.125  1.00  0.00     0.200 A 
ATOM     70  F   UNL A   1      42.899  26.681  38.092  1.00  0.00    -0.200 F 
ATOM     71  F   UNL A   1      42.990  24.271  36.828  1.00  0.00    -0.200 F 
ENDBRANCH  47  61
BRANCH  48  72
ATOM     72  C   UNL A   1      43.147  25.696  26.356  1.00  0.00     0.064 A 
ATOM     73  C   UNL A   1      44.151  25.375  25.429  1.00  0.00     0.173 A 
ATOM     74  C   UNL A   1      42.202  24.684  26.625  1.00  0.00     0.173 A 
ATOM     75  F   UNL A   1      45.122  26.257  25.155  1.00  0.00    -0.203 F 
ATOM     76  C   UNL A   1      44.208  24.119  24.814  1.00  0.00     0.198 A 
ATOM     77  C   UNL A   1      42.250  23.439  26.000  1.00  0.00     0.198 A 
ATOM     78  F   UNL A   1      41.264  24.847  27.569  1.00  0.00    -0.203 F 
ATOM     79  F   UNL A   1      45.213  23.829  23.976  1.00  0.00    -0.200 F 
ATOM     80  C   UNL A   1      43.258  23.151  25.101  1.00  0.00     0.200 A 
ATOM     81  F   UNL A   1      41.344  22.502  26.315  1.00  0.00    -0.200 F 
ATOM     82  F   UNL A   1      43.338  21.933  24.548  1.00  0.00    -0.200 F 
ENDBRANCH  48  72
BRANCH  60  83
ATOM     83  C   UNL A   1      45.750  30.801  29.053  1.00  0.00     0.064 A 
ATOM     84  C   UNL A   1      47.048  31.018  28.562  1.00  0.00     0.173 A 
ATOM     85  C   UNL A   1      44.701  31.493  28.433  1.00  0.00     0.173 A 
ATOM     86  F   UNL A   1      48.087  30.315  29.025  1.00  0.00    -0.203 F 
ATOM     87  C   UNL A   1      47.288  31.919  27.526  1.00  0.00     0.198 A 
ATOM     88  C   UNL A   1      44.939  32.363  27.372  1.00  0.00     0.198 A 
ATOM     89  F   UNL A   1      43.433  31.279  28.819  1.00  0.00    -0.203 F 
ATOM     90  F   UNL A   1      48.539  32.112  27.080  1.00  0.00    -0.200 F 
ATOM     91  C   UNL A   1      46.233  32.583  26.926  1.00  0.00     0.200 A 
ATOM     92  F   UNL A   1      43.909  32.963  26.760  1.00  0.00    -0.200 F 
ATOM     93  F   UNL A   1      46.457  33.412  25.896  1.00  0.00    -0.200 F 
ENDBRANCH  60  83
ENDBRANCH  34  35
ENDBRANCH  27  29
ENDBRANCH  26  27
ENDBRANCH  25  26
ENDBRANCH  24  25
ENDBRANCH  23  24
ENDBRANCH   1  23
TORSDOF 17
ENDMDL
