MODEL 1
REMARK VINA RESULT:     -13.9      0.000      0.000
REMARK SMILES CS(=O)(=O)c1ccc(C2=NN(c3ccc(C(=O)OCCOC(=O)c4ccc(-c5c6nc(c(-c7c(F)c(F)c(F)c(F)c7F)c7ccc([nH]7)c(-c7c(F)c(F)c(F)c(F)c7F)c7nc(c(-c8c(F)c(F)c(F)c(F)c8F)c8ccc5[nH]8)C=C7)C=C6)cc4)cc3)[C@H](c3ccc(F)cc3)C2)cc1
REMARK SMILES IDX 19 1 18 2 16 3 17 4 15 5 12 6 13 7 88 8 14 9 87 10 11 11
REMARK SMILES IDX 9 12 10 13 97 14 89 15 8 16 5 17 6 18 99 19 7 20 98 21 2 22
REMARK SMILES IDX 1 23 3 24 4 25 90 26 91 27 96 28 92 29 95 30 93 31 94 32
REMARK SMILES IDX 20 33 21 34 22 35 23 36 24 37 25 38 86 39 26 40 85 41 27 42
REMARK SMILES IDX 28 43 29 44 79 45 30 46 84 47 78 48 80 49 31 50 83 51 77 52
REMARK SMILES IDX 76 53 32 55 64 56 44 57 63 58 45 59 48 60 62 61 81 62 46 63
REMARK SMILES IDX 47 64 61 66 82 67 49 68 33 69 34 70 42 71 35 72 36 73 40 74
REMARK SMILES IDX 43 75 37 76 38 77 41 78 39 79 65 80 66 81 74 82 67 83 68 84
REMARK SMILES IDX 72 85 75 86 69 87 70 88 73 89 71 90 50 91 51 92 59 93 52 94
REMARK SMILES IDX 53 95 57 96 60 97 54 98 55 99 58 100 56 101
REMARK H PARENT 80 54 48 65
REMARK Flexibility Score: inf
ROOT
ATOM      1  C   UNL A   1      41.875  20.664  25.937  1.00  0.00     0.275 C 
ENDROOT
BRANCH   1   2
ATOM      2  O   UNL A   1      40.669  21.308  25.478  1.00  0.00    -0.458 OA
BRANCH   2   3
ATOM      3  C   UNL A   1      39.794  21.669  26.446  1.00  0.00     0.338 C 
ATOM      4  O   UNL A   1      40.026  21.738  27.645  1.00  0.00    -0.246 OA
BRANCH   3   5
ATOM      5  C   UNL A   1      38.484  22.060  25.869  1.00  0.00     0.060 A 
ATOM      6  C   UNL A   1      35.945  22.852  24.963  1.00  0.00     0.060 A 
ATOM      7  C   UNL A   1      36.718  23.719  25.740  1.00  0.00     0.029 A 
ATOM      8  C   UNL A   1      36.484  21.613  24.589  1.00  0.00     0.029 A 
ATOM      9  C   UNL A   1      37.964  23.316  26.214  1.00  0.00     0.018 A 
ATOM     10  C   UNL A   1      37.750  21.216  25.032  1.00  0.00     0.018 A 
BRANCH   6  11
ATOM     11  N   UNL A   1      34.603  23.132  24.700  1.00  0.00    -0.257 N 
ATOM     12  C   UNL A   1      33.024  24.563  24.656  1.00  0.00     0.071 C 
ATOM     13  N   UNL A   1      34.245  24.364  24.261  1.00  0.00    -0.176 NA
ATOM     14  C   UNL A   1      32.438  23.490  25.533  1.00  0.00     0.091 C 
ATOM     15  C   UNL A   1      33.583  22.473  25.525  1.00  0.00     0.144 C 
BRANCH  12  16
ATOM     16  C   UNL A   1      32.249  25.759  24.274  1.00  0.00    -0.002 A 
ATOM     17  C   UNL A   1      30.770  27.981  23.471  1.00  0.00     0.067 A 
ATOM     18  C   UNL A   1      30.915  26.897  22.601  1.00  0.00     0.021 A 
ATOM     19  C   UNL A   1      31.368  27.967  24.735  1.00  0.00     0.021 A 
ATOM     20  C   UNL A   1      31.666  25.791  23.001  1.00  0.00     0.011 A 
ATOM     21  C   UNL A   1      32.098  26.845  25.144  1.00  0.00     0.011 A 
BRANCH  17  22
ATOM     22  S   UNL A   1      29.834  29.399  22.941  1.00  0.00     0.175 S 
ATOM     23  C   UNL A   1      28.161  28.827  22.813  1.00  0.00     0.163 C 
ATOM     24  O   UNL A   1      30.271  29.729  21.597  1.00  0.00    -0.224 OA
ATOM     25  O   UNL A   1      29.904  30.369  24.015  1.00  0.00    -0.224 OA
ENDBRANCH  17  22
ENDBRANCH  12  16
BRANCH  15  26
ATOM     26  C   UNL A   1      33.319  21.083  24.964  1.00  0.00    -0.023 A 
ATOM     27  C   UNL A   1      33.334  19.921  25.752  1.00  0.00     0.009 A 
ATOM     28  C   UNL A   1      32.907  20.973  23.618  1.00  0.00     0.009 A 
ATOM     29  C   UNL A   1      32.953  18.691  25.208  1.00  0.00     0.039 A 
ATOM     30  C   UNL A   1      32.505  19.750  23.084  1.00  0.00     0.039 A 
ATOM     31  C   UNL A   1      32.532  18.619  23.886  1.00  0.00     0.123 A 
ATOM     32  F   UNL A   1      32.130  17.445  23.384  1.00  0.00    -0.207 F 
ENDBRANCH  15  26
ENDBRANCH   6  11
ENDBRANCH   3   5
ENDBRANCH   2   3
ENDBRANCH   1   2
BRANCH   1  33
ATOM     33  C   UNL A   1      43.084  21.570  25.717  1.00  0.00     0.275 C 
BRANCH  33  34
ATOM     34  O   UNL A   1      42.695  22.716  24.937  1.00  0.00    -0.458 OA
BRANCH  34  35
ATOM     35  C   UNL A   1      43.502  23.797  25.030  1.00  0.00     0.338 C 
ATOM     36  O   UNL A   1      44.541  24.010  24.432  1.00  0.00    -0.246 OA
BRANCH  35  37
ATOM     37  C   UNL A   1      42.925  24.747  25.994  1.00  0.00     0.060 A 
ATOM     38  C   UNL A   1      43.405  26.054  26.032  1.00  0.00     0.016 A 
ATOM     39  C   UNL A   1      41.996  24.313  26.938  1.00  0.00     0.016 A 
ATOM     40  C   UNL A   1      43.006  26.921  27.046  1.00  0.00     0.010 A 
ATOM     41  C   UNL A   1      41.540  25.205  27.915  1.00  0.00     0.010 A 
ATOM     42  C   UNL A   1      42.065  26.510  27.999  1.00  0.00    -0.014 A 
BRANCH  42  43
ATOM     43  C   UNL A   1      41.680  27.420  29.114  1.00  0.00     0.031 A 
ATOM     44  C   UNL A   1      42.497  27.453  30.377  1.00  0.00     0.074 A 
ATOM     45  C   UNL A   1      40.613  28.233  28.996  1.00  0.00     0.049 A 
ATOM     46  N   UNL A   1      42.248  28.057  31.513  1.00  0.00    -0.248 NA
ATOM     47  C   UNL A   1      43.754  26.692  30.366  1.00  0.00     0.031 C 
ATOM     48  C   UNL A   1      39.750  28.331  27.820  1.00  0.00     0.029 A 
ATOM     49  N   UNL A   1      40.073  29.134  29.882  1.00  0.00    -0.354 N 
ATOM     50  C   UNL A   1      43.283  27.701  32.368  1.00  0.00     0.074 A 
ATOM     51  C   UNL A   1      44.163  26.827  31.620  1.00  0.00     0.031 C 
ATOM     52  C   UNL A   1      38.805  29.257  28.044  1.00  0.00     0.029 A 
ATOM     53  C   UNL A   1      38.950  29.765  29.405  1.00  0.00     0.049 A 
ATOM     54  H   UNL A   1      40.453  29.311  30.772  1.00  0.00     0.167 HD
ATOM     55  C   UNL A   1      43.480  28.067  33.657  1.00  0.00     0.037 A 
ATOM     56  C   UNL A   1      38.107  30.628  30.004  1.00  0.00     0.037 A 
ATOM     57  C   UNL A   1      42.640  28.986  34.381  1.00  0.00     0.049 A 
ATOM     58  C   UNL A   1      38.351  31.031  31.431  1.00  0.00     0.074 A 
ATOM     59  C   UNL A   1      42.782  29.448  35.678  1.00  0.00     0.029 A 
ATOM     60  N   UNL A   1      41.508  29.597  33.862  1.00  0.00    -0.354 N 
ATOM     61  N   UNL A   1      39.308  30.656  32.243  1.00  0.00    -0.248 NA
ATOM     62  C   UNL A   1      37.387  31.966  32.029  1.00  0.00     0.031 C 
ATOM     63  C   UNL A   1      41.717  30.313  35.955  1.00  0.00     0.029 A 
ATOM     64  C   UNL A   1      40.933  30.421  34.817  1.00  0.00     0.049 A 
ATOM     65  H   UNL A   1      41.164  29.465  32.948  1.00  0.00     0.167 HD
ATOM     66  C   UNL A   1      39.063  31.300  33.447  1.00  0.00     0.074 A 
ATOM     67  C   UNL A   1      37.882  32.117  33.251  1.00  0.00     0.031 C 
ATOM     68  C   UNL A   1      39.749  31.215  34.613  1.00  0.00     0.037 A 
BRANCH  55  69
ATOM     69  C   UNL A   1      44.634  27.437  34.383  1.00  0.00     0.064 A 
ATOM     70  C   UNL A   1      44.503  26.232  35.088  1.00  0.00     0.173 A 
ATOM     71  C   UNL A   1      45.898  28.048  34.356  1.00  0.00     0.173 A 
ATOM     72  F   UNL A   1      43.313  25.615  35.155  1.00  0.00    -0.203 F 
ATOM     73  C   UNL A   1      45.585  25.681  35.769  1.00  0.00     0.198 A 
ATOM     74  C   UNL A   1      46.984  27.479  35.014  1.00  0.00     0.198 A 
ATOM     75  F   UNL A   1      46.079  29.198  33.690  1.00  0.00    -0.203 F 
ATOM     76  F   UNL A   1      45.425  24.557  36.482  1.00  0.00    -0.200 F 
ATOM     77  C   UNL A   1      46.826  26.301  35.728  1.00  0.00     0.200 A 
ATOM     78  F   UNL A   1      48.184  28.075  34.963  1.00  0.00    -0.200 F 
ATOM     79  F   UNL A   1      47.866  25.769  36.384  1.00  0.00    -0.200 F 
ENDBRANCH  55  69
BRANCH  56  80
ATOM     80  C   UNL A   1      36.932  31.136  29.253  1.00  0.00     0.064 A 
ATOM     81  C   UNL A   1      36.891  32.452  28.774  1.00  0.00     0.173 A 
ATOM     82  C   UNL A   1      35.840  30.302  28.968  1.00  0.00     0.173 A 
ATOM     83  F   UNL A   1      37.899  33.294  29.043  1.00  0.00    -0.203 F 
ATOM     84  C   UNL A   1      35.803  32.913  28.034  1.00  0.00     0.198 A 
ATOM     85  C   UNL A   1      34.767  30.755  28.206  1.00  0.00     0.198 A 
ATOM     86  F   UNL A   1      35.832  29.034  29.406  1.00  0.00    -0.203 F 
ATOM     87  F   UNL A   1      35.776  34.183  27.608  1.00  0.00    -0.200 F 
ATOM     88  C   UNL A   1      34.748  32.061  27.741  1.00  0.00     0.200 A 
ATOM     89  F   UNL A   1      33.758  29.924  27.913  1.00  0.00    -0.200 F 
ATOM     90  F   UNL A   1      33.712  32.500  27.014  1.00  0.00    -0.200 F 
ENDBRANCH  56  80
BRANCH  68  91
ATOM     91  C   UNL A   1      39.238  32.026  35.766  1.00  0.00     0.064 A 
ATOM     92  C   UNL A   1      39.650  33.352  35.965  1.00  0.00     0.173 A 
ATOM     93  C   UNL A   1      38.311  31.482  36.667  1.00  0.00     0.173 A 
ATOM     94  F   UNL A   1      40.549  33.911  35.139  1.00  0.00    -0.203 F 
ATOM     95  C   UNL A   1      39.169  34.098  37.037  1.00  0.00     0.198 A 
ATOM     96  C   UNL A   1      37.814  32.238  37.726  1.00  0.00     0.198 A 
ATOM     97  F   UNL A   1      37.885  30.219  36.519  1.00  0.00    -0.203 F 
ATOM     98  F   UNL A   1      39.610  35.348  37.234  1.00  0.00    -0.200 F 
ATOM     99  C   UNL A   1      38.248  33.542  37.913  1.00  0.00     0.200 A 
ATOM    100  F   UNL A   1      36.919  31.703  38.568  1.00  0.00    -0.200 F 
ATOM    101  F   UNL A   1      37.787  34.260  38.947  1.00  0.00    -0.200 F 
ENDBRANCH  68  91
ENDBRANCH  42  43
ENDBRANCH  35  37
ENDBRANCH  34  35
ENDBRANCH  33  34
ENDBRANCH   1  33
TORSDOF 15
ENDMDL
MODEL 2
REMARK VINA RESULT:     -13.8      3.674      8.951
REMARK SMILES CS(=O)(=O)c1ccc(C2=NN(c3ccc(C(=O)OCCOC(=O)c4ccc(-c5c6nc(c(-c7c(F)c(F)c(F)c(F)c7F)c7ccc([nH]7)c(-c7c(F)c(F)c(F)c(F)c7F)c7nc(c(-c8c(F)c(F)c(F)c(F)c8F)c8ccc5[nH]8)C=C7)C=C6)cc4)cc3)[C@H](c3ccc(F)cc3)C2)cc1
REMARK SMILES IDX 19 1 18 2 16 3 17 4 15 5 12 6 13 7 88 8 14 9 87 10 11 11
REMARK SMILES IDX 9 12 10 13 97 14 89 15 8 16 5 17 6 18 99 19 7 20 98 21 2 22
REMARK SMILES IDX 1 23 3 24 4 25 90 26 91 27 96 28 92 29 95 30 93 31 94 32
REMARK SMILES IDX 20 33 21 34 22 35 23 36 24 37 25 38 86 39 26 40 85 41 27 42
REMARK SMILES IDX 28 43 29 44 79 45 30 46 84 47 78 48 80 49 31 50 83 51 77 52
REMARK SMILES IDX 76 53 32 55 64 56 44 57 63 58 45 59 48 60 62 61 81 62 46 63
REMARK SMILES IDX 47 64 61 66 82 67 49 68 33 69 34 70 42 71 35 72 36 73 40 74
REMARK SMILES IDX 43 75 37 76 38 77 41 78 39 79 65 80 66 81 74 82 67 83 68 84
REMARK SMILES IDX 72 85 75 86 69 87 70 88 73 89 71 90 50 91 51 92 59 93 52 94
REMARK SMILES IDX 53 95 57 96 60 97 54 98 55 99 58 100 56 101
REMARK H PARENT 80 54 48 65
REMARK Flexibility Score: inf
ROOT
ATOM      1  C   UNL A   1      31.965  31.819  26.704  1.00  0.00     0.275 C 
ENDROOT
BRANCH   1   2
ATOM      2  O   UNL A   1      32.712  31.166  27.749  1.00  0.00    -0.458 OA
BRANCH   2   3
ATOM      3  C   UNL A   1      33.774  30.431  27.340  1.00  0.00     0.338 C 
ATOM      4  O   UNL A   1      34.952  30.736  27.450  1.00  0.00    -0.246 OA
BRANCH   3   5
ATOM      5  C   UNL A   1      33.341  29.126  26.781  1.00  0.00     0.060 A 
ATOM      6  C   UNL A   1      32.519  26.744  25.538  1.00  0.00     0.060 A 
ATOM      7  C   UNL A   1      33.632  27.440  25.060  1.00  0.00     0.029 A 
ATOM      8  C   UNL A   1      31.864  27.217  26.684  1.00  0.00     0.029 A 
ATOM      9  C   UNL A   1      34.022  28.636  25.657  1.00  0.00     0.018 A 
ATOM     10  C   UNL A   1      32.272  28.399  27.310  1.00  0.00     0.018 A 
BRANCH   6  11
ATOM     11  N   UNL A   1      31.961  25.696  24.804  1.00  0.00    -0.257 N 
ATOM     12  C   UNL A   1      32.177  23.741  23.983  1.00  0.00     0.071 C 
ATOM     13  N   UNL A   1      32.310  24.416  25.085  1.00  0.00    -0.176 NA
ATOM     14  C   UNL A   1      31.813  24.545  22.764  1.00  0.00     0.091 C 
ATOM     15  C   UNL A   1      31.643  25.932  23.390  1.00  0.00     0.144 C 
BRANCH  12  16
ATOM     16  C   UNL A   1      32.365  22.279  23.918  1.00  0.00    -0.002 A 
ATOM     17  C   UNL A   1      32.763  19.520  23.877  1.00  0.00     0.067 A 
ATOM     18  C   UNL A   1      33.183  20.262  24.984  1.00  0.00     0.021 A 
ATOM     19  C   UNL A   1      32.154  20.149  22.785  1.00  0.00     0.021 A 
ATOM     20  C   UNL A   1      32.994  21.645  24.997  1.00  0.00     0.011 A 
ATOM     21  C   UNL A   1      31.942  21.532  22.814  1.00  0.00     0.011 A 
BRANCH  17  22
ATOM     22  S   UNL A   1      33.034  17.761  23.857  1.00  0.00     0.175 S 
ATOM     23  C   UNL A   1      34.711  17.546  24.391  1.00  0.00     0.163 C 
ATOM     24  O   UNL A   1      32.972  17.329  22.474  1.00  0.00    -0.224 OA
ATOM     25  O   UNL A   1      32.159  17.195  24.863  1.00  0.00    -0.224 OA
ENDBRANCH  17  22
ENDBRANCH  12  16
BRANCH  15  26
ATOM     26  C   UNL A   1      30.285  26.613  23.298  1.00  0.00    -0.023 A 
ATOM     27  C   UNL A   1      29.122  26.088  23.883  1.00  0.00     0.009 A 
ATOM     28  C   UNL A   1      30.221  27.897  22.714  1.00  0.00     0.009 A 
ATOM     29  C   UNL A   1      27.934  26.824  23.879  1.00  0.00     0.039 A 
ATOM     30  C   UNL A   1      29.041  28.639  22.733  1.00  0.00     0.039 A 
ATOM     31  C   UNL A   1      27.907  28.094  23.316  1.00  0.00     0.123 A 
ATOM     32  F   UNL A   1      26.775  28.810  23.353  1.00  0.00    -0.207 F 
ENDBRANCH  15  26
ENDBRANCH   6  11
ENDBRANCH   3   5
ENDBRANCH   2   3
ENDBRANCH   1   2
BRANCH   1  33
ATOM     33  C   UNL A   1      31.806  33.307  27.008  1.00  0.00     0.275 C 
BRANCH  33  34
ATOM     34  O   UNL A   1      33.099  33.896  27.236  1.00  0.00    -0.458 OA
BRANCH  34  35
ATOM     35  C   UNL A   1      33.237  34.595  28.385  1.00  0.00     0.338 C 
ATOM     36  O   UNL A   1      32.595  35.559  28.757  1.00  0.00    -0.246 OA
BRANCH  35  37
ATOM     37  C   UNL A   1      34.319  33.998  29.184  1.00  0.00     0.060 A 
ATOM     38  C   UNL A   1      35.642  34.298  28.871  1.00  0.00     0.016 A 
ATOM     39  C   UNL A   1      34.028  33.049  30.164  1.00  0.00     0.016 A 
ATOM     40  C   UNL A   1      36.685  33.614  29.491  1.00  0.00     0.010 A 
ATOM     41  C   UNL A   1      35.076  32.413  30.838  1.00  0.00     0.010 A 
ATOM     42  C   UNL A   1      36.417  32.665  30.486  1.00  0.00    -0.014 A 
BRANCH  42  43
ATOM     43  C   UNL A   1      37.530  31.897  31.109  1.00  0.00     0.031 A 
ATOM     44  C   UNL A   1      37.914  32.150  32.542  1.00  0.00     0.074 A 
ATOM     45  C   UNL A   1      38.190  30.956  30.405  1.00  0.00     0.049 A 
ATOM     46  N   UNL A   1      38.940  31.701  33.220  1.00  0.00    -0.248 NA
ATOM     47  C   UNL A   1      37.032  33.041  33.309  1.00  0.00     0.031 C 
ATOM     48  C   UNL A   1      37.906  30.582  29.020  1.00  0.00     0.029 A 
ATOM     49  N   UNL A   1      39.238  30.143  30.763  1.00  0.00    -0.354 N 
ATOM     50  C   UNL A   1      38.862  32.300  34.470  1.00  0.00     0.074 A 
ATOM     51  C   UNL A   1      37.687  33.147  34.456  1.00  0.00     0.031 C 
ATOM     52  C   UNL A   1      38.740  29.597  28.653  1.00  0.00     0.029 A 
ATOM     53  C   UNL A   1      39.664  29.321  29.748  1.00  0.00     0.049 A 
ATOM     54  H   UNL A   1      39.645  30.149  31.659  1.00  0.00     0.167 HD
ATOM     55  C   UNL A   1      39.693  32.159  35.530  1.00  0.00     0.037 A 
ATOM     56  C   UNL A   1      40.704  28.466  29.690  1.00  0.00     0.037 A 
ATOM     57  C   UNL A   1      40.825  31.268  35.566  1.00  0.00     0.049 A 
ATOM     58  C   UNL A   1      41.607  28.316  30.881  1.00  0.00     0.074 A 
ATOM     59  C   UNL A   1      41.702  31.028  36.609  1.00  0.00     0.029 A 
ATOM     60  N   UNL A   1      41.225  30.459  34.513  1.00  0.00    -0.354 N 
ATOM     61  N   UNL A   1      41.548  28.918  32.042  1.00  0.00    -0.248 NA
ATOM     62  C   UNL A   1      42.730  27.377  30.747  1.00  0.00     0.031 C 
ATOM     63  C   UNL A   1      42.654  30.097  36.176  1.00  0.00     0.029 A 
ATOM     64  C   UNL A   1      42.346  29.728  34.877  1.00  0.00     0.049 A 
ATOM     65  H   UNL A   1      40.778  30.410  33.637  1.00  0.00     0.167 HD
ATOM     66  C   UNL A   1      42.624  28.440  32.776  1.00  0.00     0.074 A 
ATOM     67  C   UNL A   1      43.303  27.471  31.939  1.00  0.00     0.031 C 
ATOM     68  C   UNL A   1      43.020  28.780  34.027  1.00  0.00     0.037 A 
BRANCH  55  69
ATOM     69  C   UNL A   1      39.430  33.021  36.731  1.00  0.00     0.064 A 
ATOM     70  C   UNL A   1      40.097  34.238  36.936  1.00  0.00     0.173 A 
ATOM     71  C   UNL A   1      38.480  32.625  37.685  1.00  0.00     0.173 A 
ATOM     72  F   UNL A   1      41.024  34.655  36.060  1.00  0.00    -0.203 F 
ATOM     73  C   UNL A   1      39.848  35.008  38.069  1.00  0.00     0.198 A 
ATOM     74  C   UNL A   1      38.212  33.412  38.802  1.00  0.00     0.198 A 
ATOM     75  F   UNL A   1      37.808  31.474  37.533  1.00  0.00    -0.203 F 
ATOM     76  F   UNL A   1      40.536  36.141  38.273  1.00  0.00    -0.200 F 
ATOM     77  C   UNL A   1      38.903  34.598  38.999  1.00  0.00     0.200 A 
ATOM     78  F   UNL A   1      37.290  33.018  39.692  1.00  0.00    -0.200 F 
ATOM     79  F   UNL A   1      38.664  35.341  40.088  1.00  0.00    -0.200 F 
ENDBRANCH  55  69
BRANCH  56  80
ATOM     80  C   UNL A   1      40.958  27.717  28.433  1.00  0.00     0.064 A 
ATOM     81  C   UNL A   1      41.805  28.229  27.443  1.00  0.00     0.173 A 
ATOM     82  C   UNL A   1      40.387  26.454  28.217  1.00  0.00     0.173 A 
ATOM     83  F   UNL A   1      42.354  29.443  27.592  1.00  0.00    -0.203 F 
ATOM     84  C   UNL A   1      42.073  27.504  26.282  1.00  0.00     0.198 A 
ATOM     85  C   UNL A   1      40.676  25.719  27.071  1.00  0.00     0.198 A 
ATOM     86  F   UNL A   1      39.568  25.921  29.136  1.00  0.00    -0.203 F 
ATOM     87  F   UNL A   1      42.866  28.027  25.337  1.00  0.00    -0.200 F 
ATOM     88  C   UNL A   1      41.518  26.246  26.102  1.00  0.00     0.200 A 
ATOM     89  F   UNL A   1      40.149  24.498  26.909  1.00  0.00    -0.200 F 
ATOM     90  F   UNL A   1      41.791  25.542  24.996  1.00  0.00    -0.200 F 
ENDBRANCH  56  80
BRANCH  68  91
ATOM     91  C   UNL A   1      44.244  28.099  34.565  1.00  0.00     0.064 A 
ATOM     92  C   UNL A   1      44.155  26.888  35.267  1.00  0.00     0.173 A 
ATOM     93  C   UNL A   1      45.517  28.649  34.358  1.00  0.00     0.173 A 
ATOM     94  F   UNL A   1      42.957  26.332  35.506  1.00  0.00    -0.203 F 
ATOM     95  C   UNL A   1      45.296  26.262  35.761  1.00  0.00     0.198 A 
ATOM     96  C   UNL A   1      46.659  28.009  34.832  1.00  0.00     0.198 A 
ATOM     97  F   UNL A   1      45.653  29.805  33.690  1.00  0.00    -0.203 F 
ATOM     98  F   UNL A   1      45.185  25.129  36.467  1.00  0.00    -0.200 F 
ATOM     99  C   UNL A   1      46.547  26.821  35.539  1.00  0.00     0.200 A 
ATOM    100  F   UNL A   1      47.866  28.545  34.612  1.00  0.00    -0.200 F 
ATOM    101  F   UNL A   1      47.645  26.219  36.016  1.00  0.00    -0.200 F 
ENDBRANCH  68  91
ENDBRANCH  42  43
ENDBRANCH  35  37
ENDBRANCH  34  35
ENDBRANCH  33  34
ENDBRANCH   1  33
TORSDOF 15
ENDMDL
MODEL 3
REMARK VINA RESULT:     -13.7      3.768      9.348
REMARK SMILES CS(=O)(=O)c1ccc(C2=NN(c3ccc(C(=O)OCCOC(=O)c4ccc(-c5c6nc(c(-c7c(F)c(F)c(F)c(F)c7F)c7ccc([nH]7)c(-c7c(F)c(F)c(F)c(F)c7F)c7nc(c(-c8c(F)c(F)c(F)c(F)c8F)c8ccc5[nH]8)C=C7)C=C6)cc4)cc3)[C@H](c3ccc(F)cc3)C2)cc1
REMARK SMILES IDX 19 1 18 2 16 3 17 4 15 5 12 6 13 7 88 8 14 9 87 10 11 11
REMARK SMILES IDX 9 12 10 13 97 14 89 15 8 16 5 17 6 18 99 19 7 20 98 21 2 22
REMARK SMILES IDX 1 23 3 24 4 25 90 26 91 27 96 28 92 29 95 30 93 31 94 32
REMARK SMILES IDX 20 33 21 34 22 35 23 36 24 37 25 38 86 39 26 40 85 41 27 42
REMARK SMILES IDX 28 43 29 44 79 45 30 46 84 47 78 48 80 49 31 50 83 51 77 52
REMARK SMILES IDX 76 53 32 55 64 56 44 57 63 58 45 59 48 60 62 61 81 62 46 63
REMARK SMILES IDX 47 64 61 66 82 67 49 68 33 69 34 70 42 71 35 72 36 73 40 74
REMARK SMILES IDX 43 75 37 76 38 77 41 78 39 79 65 80 66 81 74 82 67 83 68 84
REMARK SMILES IDX 72 85 75 86 69 87 70 88 73 89 71 90 50 91 51 92 59 93 52 94
REMARK SMILES IDX 53 95 57 96 60 97 54 98 55 99 58 100 56 101
REMARK H PARENT 80 54 48 65
REMARK Flexibility Score: inf
ROOT
ATOM      1  C   UNL A   1      33.154  32.646  27.185  1.00  0.00     0.275 C 
ENDROOT
BRANCH   1   2
ATOM      2  O   UNL A   1      32.806  31.335  27.672  1.00  0.00    -0.458 OA
BRANCH   2   3
ATOM      3  C   UNL A   1      33.798  30.413  27.631  1.00  0.00     0.338 C 
ATOM      4  O   UNL A   1      34.930  30.546  28.071  1.00  0.00    -0.246 OA
BRANCH   3   5
ATOM      5  C   UNL A   1      33.324  29.141  27.031  1.00  0.00     0.060 A 
ATOM      6  C   UNL A   1      32.466  26.813  25.713  1.00  0.00     0.060 A 
ATOM      7  C   UNL A   1      33.719  27.362  25.429  1.00  0.00     0.029 A 
ATOM      8  C   UNL A   1      31.677  27.402  26.712  1.00  0.00     0.029 A 
ATOM      9  C   UNL A   1      34.131  28.533  26.060  1.00  0.00     0.018 A 
ATOM     10  C   UNL A   1      32.102  28.558  27.375  1.00  0.00     0.018 A 
BRANCH   6  11
ATOM     11  N   UNL A   1      31.929  25.802  24.913  1.00  0.00    -0.257 N 
ATOM     12  C   UNL A   1      32.140  23.859  24.064  1.00  0.00     0.071 C 
ATOM     13  N   UNL A   1      32.211  24.504  25.188  1.00  0.00    -0.176 NA
ATOM     14  C   UNL A   1      31.899  24.701  22.841  1.00  0.00     0.091 C 
ATOM     15  C   UNL A   1      31.730  26.080  23.485  1.00  0.00     0.144 C 
BRANCH  12  16
ATOM     16  C   UNL A   1      32.281  22.393  23.978  1.00  0.00    -0.002 A 
ATOM     17  C   UNL A   1      32.570  19.621  23.905  1.00  0.00     0.067 A 
ATOM     18  C   UNL A   1      32.747  20.302  25.112  1.00  0.00     0.021 A 
ATOM     19  C   UNL A   1      32.259  20.316  22.731  1.00  0.00     0.021 A 
ATOM     20  C   UNL A   1      32.614  21.691  25.144  1.00  0.00     0.011 A 
ATOM     21  C   UNL A   1      32.100  21.707  22.772  1.00  0.00     0.011 A 
BRANCH  17  22
ATOM     22  S   UNL A   1      32.769  17.853  23.869  1.00  0.00     0.175 S 
ATOM     23  C   UNL A   1      34.473  17.571  24.271  1.00  0.00     0.163 C 
ATOM     24  O   UNL A   1      32.584  17.424  22.495  1.00  0.00    -0.224 OA
ATOM     25  O   UNL A   1      31.953  17.320  24.941  1.00  0.00    -0.224 OA
ENDBRANCH  17  22
ENDBRANCH  12  16
BRANCH  15  26
ATOM     26  C   UNL A   1      30.408  26.812  23.306  1.00  0.00    -0.023 A 
ATOM     27  C   UNL A   1      29.190  26.332  23.812  1.00  0.00     0.009 A 
ATOM     28  C   UNL A   1      30.431  28.098  22.724  1.00  0.00     0.009 A 
ATOM     29  C   UNL A   1      28.033  27.113  23.732  1.00  0.00     0.039 A 
ATOM     30  C   UNL A   1      29.282  28.885  22.668  1.00  0.00     0.039 A 
ATOM     31  C   UNL A   1      28.092  28.383  23.173  1.00  0.00     0.123 A 
ATOM     32  F   UNL A   1      26.988  29.141  23.138  1.00  0.00    -0.207 F 
ENDBRANCH  15  26
ENDBRANCH   6  11
ENDBRANCH   3   5
ENDBRANCH   2   3
ENDBRANCH   1   2
BRANCH   1  33
ATOM     33  C   UNL A   1      32.160  33.689  27.694  1.00  0.00     0.275 C 
BRANCH  33  34
ATOM     34  O   UNL A   1      32.849  34.923  27.965  1.00  0.00    -0.458 OA
BRANCH  34  35
ATOM     35  C   UNL A   1      33.092  35.192  29.267  1.00  0.00     0.338 C 
ATOM     36  O   UNL A   1      32.478  35.940  30.005  1.00  0.00    -0.246 OA
BRANCH  35  37
ATOM     37  C   UNL A   1      34.256  34.409  29.712  1.00  0.00     0.060 A 
ATOM     38  C   UNL A   1      34.114  33.524  30.778  1.00  0.00     0.016 A 
ATOM     39  C   UNL A   1      35.513  34.639  29.154  1.00  0.00     0.016 A 
ATOM     40  C   UNL A   1      35.232  32.905  31.333  1.00  0.00     0.010 A 
ATOM     41  C   UNL A   1      36.626  33.963  29.665  1.00  0.00     0.010 A 
ATOM     42  C   UNL A   1      36.503  33.113  30.781  1.00  0.00    -0.014 A 
BRANCH  42  43
ATOM     43  C   UNL A   1      37.702  32.494  31.409  1.00  0.00     0.031 A 
ATOM     44  C   UNL A   1      38.487  31.446  30.667  1.00  0.00     0.074 A 
ATOM     45  C   UNL A   1      38.108  32.877  32.635  1.00  0.00     0.049 A 
ATOM     46  N   UNL A   1      39.464  30.682  31.091  1.00  0.00    -0.248 NA
ATOM     47  C   UNL A   1      38.112  31.216  29.264  1.00  0.00     0.031 C 
ATOM     48  C   UNL A   1      37.465  33.901  33.457  1.00  0.00     0.029 A 
ATOM     49  N   UNL A   1      39.162  32.446  33.404  1.00  0.00    -0.354 N 
ATOM     50  C   UNL A   1      39.777  29.843  30.030  1.00  0.00     0.074 A 
ATOM     51  C   UNL A   1      38.886  30.190  28.942  1.00  0.00     0.031 C 
ATOM     52  C   UNL A   1      38.151  34.039  34.602  1.00  0.00     0.029 A 
ATOM     53  C   UNL A   1      39.236  33.063  34.629  1.00  0.00     0.049 A 
ATOM     54  H   UNL A   1      39.803  31.760  33.107  1.00  0.00     0.167 HD
ATOM     55  C   UNL A   1      40.720  28.872  29.969  1.00  0.00     0.037 A 
ATOM     56  C   UNL A   1      40.059  32.847  35.673  1.00  0.00     0.037 A 
ATOM     57  C   UNL A   1      41.649  28.569  31.028  1.00  0.00     0.049 A 
ATOM     58  C   UNL A   1      41.106  31.773  35.580  1.00  0.00     0.074 A 
ATOM     59  C   UNL A   1      42.665  27.629  31.043  1.00  0.00     0.029 A 
ATOM     60  N   UNL A   1      41.683  29.215  32.255  1.00  0.00    -0.354 N 
ATOM     61  N   UNL A   1      41.366  30.957  34.589  1.00  0.00    -0.248 NA
ATOM     62  C   UNL A   1      41.963  31.579  36.759  1.00  0.00     0.031 C 
ATOM     63  C   UNL A   1      43.293  27.683  32.293  1.00  0.00     0.029 A 
ATOM     64  C   UNL A   1      42.695  28.684  33.041  1.00  0.00     0.049 A 
ATOM     65  H   UNL A   1      41.080  29.944  32.527  1.00  0.00     0.167 HD
ATOM     66  C   UNL A   1      42.409  30.151  35.021  1.00  0.00     0.074 A 
ATOM     67  C   UNL A   1      42.756  30.596  36.355  1.00  0.00     0.031 C 
ATOM     68  C   UNL A   1      43.018  29.127  34.373  1.00  0.00     0.037 A 
BRANCH  55  69
ATOM     69  C   UNL A   1      40.767  28.034  28.723  1.00  0.00     0.064 A 
ATOM     70  C   UNL A   1      41.549  28.389  27.615  1.00  0.00     0.173 A 
ATOM     71  C   UNL A   1      40.023  26.846  28.649  1.00  0.00     0.173 A 
ATOM     72  F   UNL A   1      42.267  29.523  27.631  1.00  0.00    -0.203 F 
ATOM     73  C   UNL A   1      41.557  27.605  26.464  1.00  0.00     0.198 A 
ATOM     74  C   UNL A   1      40.057  26.049  27.508  1.00  0.00     0.198 A 
ATOM     75  F   UNL A   1      39.265  26.456  29.685  1.00  0.00    -0.203 F 
ATOM     76  F   UNL A   1      42.269  27.991  25.396  1.00  0.00    -0.200 F 
ATOM     77  C   UNL A   1      40.815  26.433  26.413  1.00  0.00     0.200 A 
ATOM     78  F   UNL A   1      39.348  24.911  27.466  1.00  0.00    -0.200 F 
ATOM     79  F   UNL A   1      40.825  25.679  25.305  1.00  0.00    -0.200 F 
ENDBRANCH  55  69
BRANCH  56  80
ATOM     80  C   UNL A   1      39.891  33.650  36.909  1.00  0.00     0.064 A 
ATOM     81  C   UNL A   1      40.591  34.849  37.096  1.00  0.00     0.173 A 
ATOM     82  C   UNL A   1      38.996  33.252  37.914  1.00  0.00     0.173 A 
ATOM     83  F   UNL A   1      41.477  35.257  36.176  1.00  0.00    -0.203 F 
ATOM     84  C   UNL A   1      40.401  35.621  38.241  1.00  0.00     0.198 A 
ATOM     85  C   UNL A   1      38.786  34.038  39.044  1.00  0.00     0.198 A 
ATOM     86  F   UNL A   1      38.303  32.112  37.782  1.00  0.00    -0.203 F 
ATOM     87  F   UNL A   1      41.101  36.751  38.408  1.00  0.00    -0.200 F 
ATOM     88  C   UNL A   1      39.490  35.221  39.208  1.00  0.00     0.200 A 
ATOM     89  F   UNL A   1      37.894  33.655  39.968  1.00  0.00    -0.200 F 
ATOM     90  F   UNL A   1      39.293  35.974  40.298  1.00  0.00    -0.200 F 
ENDBRANCH  56  80
BRANCH  68  91
ATOM     91  C   UNL A   1      44.121  28.419  35.102  1.00  0.00     0.064 A 
ATOM     92  C   UNL A   1      43.866  27.293  35.898  1.00  0.00     0.173 A 
ATOM     93  C   UNL A   1      45.449  28.857  34.987  1.00  0.00     0.173 A 
ATOM     94  F   UNL A   1      42.609  26.847  36.053  1.00  0.00    -0.203 F 
ATOM     95  C   UNL A   1      44.896  26.642  36.569  1.00  0.00     0.198 A 
ATOM     96  C   UNL A   1      46.481  28.190  35.641  1.00  0.00     0.198 A 
ATOM     97  F   UNL A   1      45.745  29.929  34.237  1.00  0.00    -0.203 F 
ATOM     98  F   UNL A   1      44.623  25.594  37.359  1.00  0.00    -0.200 F 
ATOM     99  C   UNL A   1      46.203  27.088  36.436  1.00  0.00     0.200 A 
ATOM    100  F   UNL A   1      47.744  28.616  35.507  1.00  0.00    -0.200 F 
ATOM    101  F   UNL A   1      47.195  26.461  37.085  1.00  0.00    -0.200 F 
ENDBRANCH  68  91
ENDBRANCH  42  43
ENDBRANCH  35  37
ENDBRANCH  34  35
ENDBRANCH  33  34
ENDBRANCH   1  33
TORSDOF 15
ENDMDL
