MODEL 1
REMARK VINA RESULT:     -13.2      0.000      0.000
REMARK SMILES Cc1c(CC(=O)N[C@H](CO)C(=O)OCCOC(=O)c2ccc(-c3c4nc(c(-c5c(F)c(F)c(F)c(F)c5F)c5ccc([nH]5)c(-c5c(F)c(F)c(F)c(F)c5F)c5nc(c(-c6c(F)c(F)c(F)c(F)c6F)c6ccc3[nH]6)C=C5)C=C4)cc2)cc(-c2ccc(S(C)(=O)=O)cc2)n1-c1ccc(F)cc1
REMARK SMILES IDX 13 1 11 2 12 3 8 4 7 5 5 6 6 7 4 9 3 10 1 11 2 12 94 13
REMARK SMILES IDX 82 14 83 15 95 16 96 17 101 18 97 19 100 20 98 21 99 22
REMARK SMILES IDX 84 23 85 24 93 25 86 26 92 27 87 28 88 29 89 30 90 31 91 32
REMARK SMILES IDX 9 33 10 34 14 36 15 37 16 38 17 39 18 40 19 41 20 42 81 43
REMARK SMILES IDX 21 44 80 45 22 46 23 47 24 48 74 49 25 50 79 51 73 52 75 53
REMARK SMILES IDX 26 54 78 55 72 56 71 57 27 59 59 60 39 61 58 62 40 63 43 64
REMARK SMILES IDX 57 65 76 66 41 67 42 68 56 70 77 71 44 72 28 73 29 74 37 75
REMARK SMILES IDX 30 76 31 77 35 78 38 79 32 80 33 81 36 82 34 83 60 84 61 85
REMARK SMILES IDX 69 86 62 87 63 88 67 89 70 90 64 91 65 92 68 93 66 94 45 95
REMARK SMILES IDX 46 96 54 97 47 98 48 99 52 100 55 101 49 102 50 103 53 104
REMARK SMILES IDX 51 105
REMARK H PARENT 7 8 10 35 75 58 43 69
REMARK Flexibility Score: inf
ROOT
ATOM      1  O   UNL A   1      31.227  29.904  25.583  1.00  0.00    -0.460 OA
ENDROOT
BRANCH   1   2
ATOM      2  C   UNL A   1      31.565  29.385  24.371  1.00  0.00     0.331 C 
ATOM      3  O   UNL A   1      32.721  29.313  23.960  1.00  0.00    -0.250 OA
BRANCH   2   4
ATOM      4  C   UNL A   1      30.361  28.884  23.527  1.00  0.00     0.218 C 
BRANCH   4   5
ATOM      5  N   UNL A   1      30.846  28.092  22.374  1.00  0.00    -0.341 N 
ATOM      6  C   UNL A   1      30.940  26.736  22.230  1.00  0.00     0.225 C 
ATOM      7  O   UNL A   1      31.340  26.301  21.146  1.00  0.00    -0.275 OA
ATOM      8  H   UNL A   1      31.144  28.619  21.599  1.00  0.00     0.164 HD
BRANCH   6   9
ATOM      9  C   UNL A   1      30.541  25.794  23.358  1.00  0.00     0.137 C 
BRANCH   9  10
ATOM     10  C   UNL A   1      31.545  24.705  23.597  1.00  0.00    -0.017 A 
ATOM     11  C   UNL A   1      33.711  26.096  23.893  1.00  0.00     0.065 C 
ATOM     12  C   UNL A   1      32.897  24.840  23.894  1.00  0.00     0.024 A 
ATOM     13  N   UNL A   1      33.425  23.571  24.113  1.00  0.00    -0.314 N 
ATOM     14  C   UNL A   1      31.283  23.312  23.520  1.00  0.00     0.033 A 
ATOM     15  C   UNL A   1      32.434  22.622  23.858  1.00  0.00     0.053 A 
BRANCH  13  16
ATOM     16  C   UNL A   1      34.747  23.280  24.541  1.00  0.00     0.046 A 
ATOM     17  C   UNL A   1      35.119  23.529  25.870  1.00  0.00     0.029 A 
ATOM     18  C   UNL A   1      35.688  22.821  23.608  1.00  0.00     0.029 A 
ATOM     19  C   UNL A   1      36.438  23.313  26.265  1.00  0.00     0.041 A 
ATOM     20  C   UNL A   1      37.008  22.622  24.011  1.00  0.00     0.041 A 
ATOM     21  C   UNL A   1      37.370  22.870  25.332  1.00  0.00     0.123 A 
ATOM     22  F   UNL A   1      38.642  22.687  25.712  1.00  0.00    -0.207 F 
ENDBRANCH  13  16
BRANCH  15  23
ATOM     23  C   UNL A   1      32.586  21.173  24.030  1.00  0.00    -0.001 A 
ATOM     24  C   UNL A   1      32.971  20.631  25.266  1.00  0.00     0.011 A 
ATOM     25  C   UNL A   1      32.347  20.309  22.953  1.00  0.00     0.011 A 
ATOM     26  C   UNL A   1      33.160  19.255  25.414  1.00  0.00     0.021 A 
ATOM     27  C   UNL A   1      32.530  18.931  23.093  1.00  0.00     0.021 A 
ATOM     28  C   UNL A   1      32.952  18.413  24.320  1.00  0.00     0.067 A 
BRANCH  28  29
ATOM     29  S   UNL A   1      33.172  16.663  24.533  1.00  0.00     0.175 S 
ATOM     30  C   UNL A   1      34.695  16.521  25.429  1.00  0.00     0.163 C 
ATOM     31  O   UNL A   1      32.106  16.203  25.391  1.00  0.00    -0.224 OA
ATOM     32  O   UNL A   1      33.392  16.083  23.213  1.00  0.00    -0.224 OA
ENDBRANCH  28  29
ENDBRANCH  15  23
ENDBRANCH   9  10
ENDBRANCH   6   9
ENDBRANCH   4   5
BRANCH   4  33
ATOM     33  C   UNL A   1      29.337  29.955  23.097  1.00  0.00     0.193 C 
BRANCH  33  34
ATOM     34  O   UNL A   1      29.755  31.297  23.362  1.00  0.00    -0.394 OA
ATOM     35  H   UNL A   1      29.813  31.435  24.319  1.00  0.00     0.210 HD
ENDBRANCH  33  34
ENDBRANCH   4  33
ENDBRANCH   2   4
ENDBRANCH   1   2
BRANCH   1  36
ATOM     36  C   UNL A   1      32.232  29.893  26.641  1.00  0.00     0.274 C 
BRANCH  36  37
ATOM     37  C   UNL A   1      32.394  31.307  27.272  1.00  0.00     0.275 C 
BRANCH  37  38
ATOM     38  O   UNL A   1      33.702  31.996  27.199  1.00  0.00    -0.458 OA
BRANCH  38  39
ATOM     39  C   UNL A   1      34.447  32.061  28.350  1.00  0.00     0.338 C 
ATOM     40  O   UNL A   1      33.988  32.501  29.400  1.00  0.00    -0.246 OA
BRANCH  39  41
ATOM     41  C   UNL A   1      35.878  31.474  28.304  1.00  0.00     0.060 A 
ATOM     42  C   UNL A   1      36.013  30.199  27.796  1.00  0.00     0.016 A 
ATOM     43  C   UNL A   1      37.077  31.967  28.876  1.00  0.00     0.016 A 
ATOM     44  C   UNL A   1      37.278  29.509  27.813  1.00  0.00     0.010 A 
ATOM     45  C   UNL A   1      38.377  31.194  28.953  1.00  0.00     0.010 A 
ATOM     46  C   UNL A   1      38.544  29.902  28.420  1.00  0.00    -0.014 A 
BRANCH  46  47
ATOM     47  C   UNL A   1      39.797  28.725  28.507  1.00  0.00     0.031 A 
ATOM     48  C   UNL A   1      40.140  28.781  29.951  1.00  0.00     0.074 A 
ATOM     49  C   UNL A   1      40.740  27.872  27.858  1.00  0.00     0.049 A 
ATOM     50  N   UNL A   1      40.600  29.911  30.403  1.00  0.00    -0.248 NA
ATOM     51  C   UNL A   1      39.618  27.876  30.976  1.00  0.00     0.031 C 
ATOM     52  C   UNL A   1      41.034  27.718  26.416  1.00  0.00     0.029 A 
ATOM     53  N   UNL A   1      41.743  26.918  28.361  1.00  0.00    -0.354 N 
ATOM     54  C   UNL A   1      40.656  29.809  31.764  1.00  0.00     0.074 A 
ATOM     55  C   UNL A   1      39.889  28.603  32.071  1.00  0.00     0.031 C 
ATOM     56  C   UNL A   1      41.927  26.707  26.154  1.00  0.00     0.029 A 
ATOM     57  C   UNL A   1      42.426  26.069  27.379  1.00  0.00     0.049 A 
ATOM     58  H   UNL A   1      41.947  26.852  29.321  1.00  0.00     0.167 HD
ATOM     59  C   UNL A   1      41.803  30.298  32.310  1.00  0.00     0.037 A 
ATOM     60  C   UNL A   1      43.380  25.029  27.502  1.00  0.00     0.037 A 
ATOM     61  C   UNL A   1      42.727  29.231  32.572  1.00  0.00     0.049 A 
ATOM     62  C   UNL A   1      44.157  25.335  28.705  1.00  0.00     0.074 A 
ATOM     63  C   UNL A   1      42.548  27.939  33.029  1.00  0.00     0.029 A 
ATOM     64  N   UNL A   1      43.905  29.238  31.863  1.00  0.00    -0.354 N 
ATOM     65  N   UNL A   1      45.090  26.235  28.680  1.00  0.00    -0.248 NA
ATOM     66  C   UNL A   1      44.085  24.535  29.923  1.00  0.00     0.031 C 
ATOM     67  C   UNL A   1      43.240  27.156  32.086  1.00  0.00     0.029 A 
ATOM     68  C   UNL A   1      44.161  27.961  31.429  1.00  0.00     0.049 A 
ATOM     69  H   UNL A   1      44.470  30.027  31.694  1.00  0.00     0.167 HD
ATOM     70  C   UNL A   1      45.312  26.473  29.994  1.00  0.00     0.074 A 
ATOM     71  C   UNL A   1      44.914  25.257  30.681  1.00  0.00     0.031 C 
ATOM     72  C   UNL A   1      45.095  27.758  30.358  1.00  0.00     0.037 A 
BRANCH  59  73
ATOM     73  C   UNL A   1      42.193  31.646  31.739  1.00  0.00     0.064 A 
ATOM     74  C   UNL A   1      41.930  32.798  32.482  1.00  0.00     0.173 A 
ATOM     75  C   UNL A   1      42.660  31.831  30.416  1.00  0.00     0.173 A 
ATOM     76  F   UNL A   1      41.590  32.703  33.776  1.00  0.00    -0.203 F 
ATOM     77  C   UNL A   1      42.030  34.065  31.904  1.00  0.00     0.198 A 
ATOM     78  C   UNL A   1      42.672  33.085  29.816  1.00  0.00     0.198 A 
ATOM     79  F   UNL A   1      43.116  30.795  29.692  1.00  0.00    -0.203 F 
ATOM     80  F   UNL A   1      41.809  35.159  32.646  1.00  0.00    -0.200 F 
ATOM     81  C   UNL A   1      42.351  34.203  30.560  1.00  0.00     0.200 A 
ATOM     82  F   UNL A   1      42.998  33.205  28.521  1.00  0.00    -0.200 F 
ATOM     83  F   UNL A   1      42.384  35.417  29.993  1.00  0.00    -0.200 F 
ENDBRANCH  59  73
BRANCH  60  84
ATOM     84  C   UNL A   1      44.160  23.811  26.811  1.00  0.00     0.064 A 
ATOM     85  C   UNL A   1      43.616  22.464  26.780  1.00  0.00     0.173 A 
ATOM     86  C   UNL A   1      45.096  24.022  25.784  1.00  0.00     0.173 A 
ATOM     87  F   UNL A   1      42.741  22.041  27.702  1.00  0.00    -0.203 F 
ATOM     88  C   UNL A   1      43.877  21.512  25.768  1.00  0.00     0.198 A 
ATOM     89  C   UNL A   1      45.392  23.040  24.788  1.00  0.00     0.198 A 
ATOM     90  F   UNL A   1      45.679  25.219  25.655  1.00  0.00    -0.203 F 
ATOM     91  F   UNL A   1      43.212  20.343  25.744  1.00  0.00    -0.200 F 
ATOM     92  C   UNL A   1      44.755  21.808  24.757  1.00  0.00     0.200 A 
ATOM     93  F   UNL A   1      46.253  23.328  23.800  1.00  0.00    -0.200 F 
ATOM     94  F   UNL A   1      44.959  20.939  23.753  1.00  0.00    -0.200 F 
ENDBRANCH  60  84
BRANCH  72  95
ATOM     95  C   UNL A   1      45.706  28.831  29.478  1.00  0.00     0.064 A 
ATOM     96  C   UNL A   1      45.223  29.302  28.231  1.00  0.00     0.173 A 
ATOM     97  C   UNL A   1      46.933  29.359  29.899  1.00  0.00     0.173 A 
ATOM     98  F   UNL A   1      44.015  28.966  27.758  1.00  0.00    -0.203 F 
ATOM     99  C   UNL A   1      45.976  30.168  27.432  1.00  0.00     0.198 A 
ATOM    100  C   UNL A   1      47.655  30.264  29.125  1.00  0.00     0.198 A 
ATOM    101  F   UNL A   1      47.437  29.004  31.091  1.00  0.00    -0.203 F 
ATOM    102  F   UNL A   1      45.520  30.539  26.226  1.00  0.00    -0.200 F 
ATOM    103  C   UNL A   1      47.192  30.648  27.881  1.00  0.00     0.200 A 
ATOM    104  F   UNL A   1      48.807  30.762  29.596  1.00  0.00    -0.200 F 
ATOM    105  F   UNL A   1      47.909  31.490  27.125  1.00  0.00    -0.200 F 
ENDBRANCH  72  95
ENDBRANCH  46  47
ENDBRANCH  39  41
ENDBRANCH  38  39
ENDBRANCH  37  38
ENDBRANCH  36  37
ENDBRANCH   1  36
TORSDOF 19
ENDMDL
MODEL 2
REMARK VINA RESULT:     -12.7      1.730      2.157
REMARK SMILES Cc1c(CC(=O)N[C@H](CO)C(=O)OCCOC(=O)c2ccc(-c3c4nc(c(-c5c(F)c(F)c(F)c(F)c5F)c5ccc([nH]5)c(-c5c(F)c(F)c(F)c(F)c5F)c5nc(c(-c6c(F)c(F)c(F)c(F)c6F)c6ccc3[nH]6)C=C5)C=C4)cc2)cc(-c2ccc(S(C)(=O)=O)cc2)n1-c1ccc(F)cc1
REMARK SMILES IDX 13 1 11 2 12 3 8 4 7 5 5 6 6 7 4 9 3 10 1 11 2 12 94 13
REMARK SMILES IDX 82 14 83 15 95 16 96 17 101 18 97 19 100 20 98 21 99 22
REMARK SMILES IDX 84 23 85 24 93 25 86 26 92 27 87 28 88 29 89 30 90 31 91 32
REMARK SMILES IDX 9 33 10 34 14 36 15 37 16 38 17 39 18 40 19 41 20 42 81 43
REMARK SMILES IDX 21 44 80 45 22 46 23 47 24 48 74 49 25 50 79 51 73 52 75 53
REMARK SMILES IDX 26 54 78 55 72 56 71 57 27 59 59 60 39 61 58 62 40 63 43 64
REMARK SMILES IDX 57 65 76 66 41 67 42 68 56 70 77 71 44 72 28 73 29 74 37 75
REMARK SMILES IDX 30 76 31 77 35 78 38 79 32 80 33 81 36 82 34 83 60 84 61 85
REMARK SMILES IDX 69 86 62 87 63 88 67 89 70 90 64 91 65 92 68 93 66 94 45 95
REMARK SMILES IDX 46 96 54 97 47 98 48 99 52 100 55 101 49 102 50 103 53 104
REMARK SMILES IDX 51 105
REMARK H PARENT 7 8 10 35 75 58 43 69
REMARK Flexibility Score: inf
ROOT
ATOM      1  O   UNL A   1      31.025  29.177  24.825  1.00  0.00    -0.460 OA
ENDROOT
BRANCH   1   2
ATOM      2  C   UNL A   1      30.147  29.694  23.922  1.00  0.00     0.331 C 
ATOM      3  O   UNL A   1      30.014  30.898  23.716  1.00  0.00    -0.250 OA
BRANCH   2   4
ATOM      4  C   UNL A   1      29.308  28.633  23.161  1.00  0.00     0.218 C 
BRANCH   4   5
ATOM      5  N   UNL A   1      30.173  27.880  22.225  1.00  0.00    -0.341 N 
ATOM      6  C   UNL A   1      30.728  26.638  22.363  1.00  0.00     0.225 C 
ATOM      7  O   UNL A   1      31.387  26.197  21.417  1.00  0.00    -0.275 OA
ATOM      8  H   UNL A   1      30.379  28.341  21.381  1.00  0.00     0.164 HD
BRANCH   6   9
ATOM      9  C   UNL A   1      30.519  25.818  23.628  1.00  0.00     0.137 C 
BRANCH   9  10
ATOM     10  C   UNL A   1      31.547  24.738  23.805  1.00  0.00    -0.017 A 
ATOM     11  C   UNL A   1      33.692  26.157  24.128  1.00  0.00     0.065 C 
ATOM     12  C   UNL A   1      32.900  24.886  24.087  1.00  0.00     0.024 A 
ATOM     13  N   UNL A   1      33.455  23.620  24.244  1.00  0.00    -0.314 N 
ATOM     14  C   UNL A   1      31.309  23.345  23.673  1.00  0.00     0.033 A 
ATOM     15  C   UNL A   1      32.478  22.664  23.963  1.00  0.00     0.053 A 
BRANCH  13  16
ATOM     16  C   UNL A   1      34.789  23.336  24.639  1.00  0.00     0.046 A 
ATOM     17  C   UNL A   1      35.179  23.542  25.969  1.00  0.00     0.029 A 
ATOM     18  C   UNL A   1      35.721  22.927  23.674  1.00  0.00     0.029 A 
ATOM     19  C   UNL A   1      36.508  23.334  26.334  1.00  0.00     0.041 A 
ATOM     20  C   UNL A   1      37.051  22.737  24.048  1.00  0.00     0.041 A 
ATOM     21  C   UNL A   1      37.431  22.942  25.371  1.00  0.00     0.123 A 
ATOM     22  F   UNL A   1      38.712  22.767  25.723  1.00  0.00    -0.207 F 
ENDBRANCH  13  16
BRANCH  15  23
ATOM     23  C   UNL A   1      32.659  21.211  24.070  1.00  0.00    -0.001 A 
ATOM     24  C   UNL A   1      33.170  20.634  25.243  1.00  0.00     0.011 A 
ATOM     25  C   UNL A   1      32.321  20.381  22.994  1.00  0.00     0.011 A 
ATOM     26  C   UNL A   1      33.384  19.257  25.326  1.00  0.00     0.021 A 
ATOM     27  C   UNL A   1      32.530  19.000  23.069  1.00  0.00     0.021 A 
ATOM     28  C   UNL A   1      33.076  18.449  24.230  1.00  0.00     0.067 A 
BRANCH  28  29
ATOM     29  S   UNL A   1      33.332  16.696  24.361  1.00  0.00     0.175 S 
ATOM     30  C   UNL A   1      34.779  16.540  25.374  1.00  0.00     0.163 C 
ATOM     31  O   UNL A   1      32.213  16.158  25.099  1.00  0.00    -0.224 OA
ATOM     32  O   UNL A   1      33.679  16.200  23.034  1.00  0.00    -0.224 OA
ENDBRANCH  28  29
ENDBRANCH  15  23
ENDBRANCH   9  10
ENDBRANCH   6   9
ENDBRANCH   4   5
BRANCH   4  33
ATOM     33  C   UNL A   1      28.026  29.143  22.471  1.00  0.00     0.193 C 
BRANCH  33  34
ATOM     34  O   UNL A   1      27.156  29.881  23.335  1.00  0.00    -0.394 OA
ATOM     35  H   UNL A   1      26.717  30.582  22.830  1.00  0.00     0.210 HD
ENDBRANCH  33  34
ENDBRANCH   4  33
ENDBRANCH   2   4
ENDBRANCH   1   2
BRANCH   1  36
ATOM     36  C   UNL A   1      32.171  29.991  25.216  1.00  0.00     0.274 C 
BRANCH  36  37
ATOM     37  C   UNL A   1      31.735  31.155  26.155  1.00  0.00     0.275 C 
BRANCH  37  38
ATOM     38  O   UNL A   1      32.392  31.319  27.471  1.00  0.00    -0.458 OA
BRANCH  38  39
ATOM     39  C   UNL A   1      33.671  31.816  27.481  1.00  0.00     0.338 C 
ATOM     40  O   UNL A   1      33.913  32.999  27.256  1.00  0.00    -0.246 OA
BRANCH  39  41
ATOM     41  C   UNL A   1      34.809  30.844  27.875  1.00  0.00     0.060 A 
ATOM     42  C   UNL A   1      36.005  31.409  28.262  1.00  0.00     0.016 A 
ATOM     43  C   UNL A   1      34.889  29.437  27.726  1.00  0.00     0.016 A 
ATOM     44  C   UNL A   1      37.168  30.603  28.538  1.00  0.00     0.010 A 
ATOM     45  C   UNL A   1      36.143  28.616  27.945  1.00  0.00     0.010 A 
ATOM     46  C   UNL A   1      37.367  29.168  28.364  1.00  0.00    -0.014 A 
BRANCH  46  47
ATOM     47  C   UNL A   1      38.967  28.552  28.518  1.00  0.00     0.031 A 
ATOM     48  C   UNL A   1      39.108  28.493  29.996  1.00  0.00     0.074 A 
ATOM     49  C   UNL A   1      40.233  28.239  27.938  1.00  0.00     0.049 A 
ATOM     50  N   UNL A   1      39.032  29.621  30.640  1.00  0.00    -0.248 NA
ATOM     51  C   UNL A   1      38.883  27.301  30.815  1.00  0.00     0.031 C 
ATOM     52  C   UNL A   1      40.712  28.449  26.554  1.00  0.00     0.029 A 
ATOM     53  N   UNL A   1      41.474  27.664  28.485  1.00  0.00    -0.354 N 
ATOM     54  C   UNL A   1      38.982  29.323  31.972  1.00  0.00     0.074 A 
ATOM     55  C   UNL A   1      38.729  27.884  32.014  1.00  0.00     0.031 C 
ATOM     56  C   UNL A   1      41.955  27.907  26.327  1.00  0.00     0.029 A 
ATOM     57  C   UNL A   1      42.536  27.311  27.536  1.00  0.00     0.049 A 
ATOM     58  H   UNL A   1      41.586  27.521  29.452  1.00  0.00     0.167 HD
ATOM     59  C   UNL A   1      39.778  30.110  32.747  1.00  0.00     0.037 A 
ATOM     60  C   UNL A   1      43.804  26.702  27.693  1.00  0.00     0.037 A 
ATOM     61  C   UNL A   1      41.016  29.442  33.032  1.00  0.00     0.049 A 
ATOM     62  C   UNL A   1      44.268  27.073  29.032  1.00  0.00     0.074 A 
ATOM     63  C   UNL A   1      41.317  28.121  33.306  1.00  0.00     0.029 A 
ATOM     64  N   UNL A   1      42.162  30.010  32.527  1.00  0.00    -0.354 N 
ATOM     65  N   UNL A   1      44.765  28.249  29.259  1.00  0.00    -0.248 NA
ATOM     66  C   UNL A   1      44.391  26.115  30.125  1.00  0.00     0.031 C 
ATOM     67  C   UNL A   1      42.357  27.825  32.405  1.00  0.00     0.029 A 
ATOM     68  C   UNL A   1      42.946  29.015  31.999  1.00  0.00     0.049 A 
ATOM     69  H   UNL A   1      42.382  30.970  32.541  1.00  0.00     0.167 HD
ATOM     70  C   UNL A   1      44.735  28.331  30.610  1.00  0.00     0.074 A 
ATOM     71  C   UNL A   1      44.783  26.959  31.083  1.00  0.00     0.031 C 
ATOM     72  C   UNL A   1      43.990  29.360  31.076  1.00  0.00     0.037 A 
BRANCH  59  73
ATOM     73  C   UNL A   1      39.659  31.580  32.401  1.00  0.00     0.064 A 
ATOM     74  C   UNL A   1      38.956  32.423  33.263  1.00  0.00     0.173 A 
ATOM     75  C   UNL A   1      40.075  32.130  31.165  1.00  0.00     0.173 A 
ATOM     76  F   UNL A   1      38.626  32.007  34.494  1.00  0.00    -0.203 F 
ATOM     77  C   UNL A   1      38.599  33.716  32.872  1.00  0.00     0.198 A 
ATOM     78  C   UNL A   1      39.642  33.382  30.743  1.00  0.00     0.198 A 
ATOM     79  F   UNL A   1      40.913  31.460  30.357  1.00  0.00    -0.203 F 
ATOM     80  F   UNL A   1      37.957  34.521  33.729  1.00  0.00    -0.200 F 
ATOM     81  C   UNL A   1      38.898  34.173  31.596  1.00  0.00     0.200 A 
ATOM     82  F   UNL A   1      39.951  33.818  29.512  1.00  0.00    -0.200 F 
ATOM     83  F   UNL A   1      38.498  35.391  31.202  1.00  0.00    -0.200 F 
ENDBRANCH  59  73
BRANCH  60  84
ATOM     84  C   UNL A   1      45.071  26.001  27.004  1.00  0.00     0.064 A 
ATOM     85  C   UNL A   1      45.183  24.557  26.882  1.00  0.00     0.173 A 
ATOM     86  C   UNL A   1      45.856  26.670  26.050  1.00  0.00     0.173 A 
ATOM     87  F   UNL A   1      44.551  23.732  27.728  1.00  0.00    -0.203 F 
ATOM     88  C   UNL A   1      45.879  23.886  25.851  1.00  0.00     0.198 A 
ATOM     89  C   UNL A   1      46.596  25.986  25.036  1.00  0.00     0.198 A 
ATOM     90  F   UNL A   1      45.852  28.007  26.008  1.00  0.00    -0.203 F 
ATOM     91  F   UNL A   1      45.803  22.548  25.736  1.00  0.00    -0.200 F 
ATOM     92  C   UNL A   1      46.574  24.605  24.912  1.00  0.00     0.200 A 
ATOM     93  F   UNL A   1      47.278  26.689  24.117  1.00  0.00    -0.200 F 
ATOM     94  F   UNL A   1      47.182  23.983  23.888  1.00  0.00    -0.200 F 
ENDBRANCH  60  84
BRANCH  72  95
ATOM     95  C   UNL A   1      44.214  30.714  30.432  1.00  0.00     0.064 A 
ATOM     96  C   UNL A   1      43.721  31.167  29.183  1.00  0.00     0.173 A 
ATOM     97  C   UNL A   1      45.077  31.590  31.105  1.00  0.00     0.173 A 
ATOM     98  F   UNL A   1      42.805  30.482  28.484  1.00  0.00    -0.203 F 
ATOM     99  C   UNL A   1      44.148  32.373  28.619  1.00  0.00     0.198 A 
ATOM    100  C   UNL A   1      45.458  32.815  30.565  1.00  0.00     0.198 A 
ATOM    101  F   UNL A   1      45.549  31.259  32.317  1.00  0.00    -0.203 F 
ATOM    102  F   UNL A   1      43.715  32.739  27.403  1.00  0.00    -0.200 F 
ATOM    103  C   UNL A   1      45.017  33.196  29.311  1.00  0.00     0.200 A 
ATOM    104  F   UNL A   1      46.258  33.627  31.270  1.00  0.00    -0.200 F 
ATOM    105  F   UNL A   1      45.416  34.360  28.780  1.00  0.00    -0.200 F 
ENDBRANCH  72  95
ENDBRANCH  46  47
ENDBRANCH  39  41
ENDBRANCH  38  39
ENDBRANCH  37  38
ENDBRANCH  36  37
ENDBRANCH   1  36
TORSDOF 19
ENDMDL
MODEL 3
REMARK VINA RESULT:     -12.2      4.370      9.365
REMARK SMILES Cc1c(CC(=O)N[C@H](CO)C(=O)OCCOC(=O)c2ccc(-c3c4nc(c(-c5c(F)c(F)c(F)c(F)c5F)c5ccc([nH]5)c(-c5c(F)c(F)c(F)c(F)c5F)c5nc(c(-c6c(F)c(F)c(F)c(F)c6F)c6ccc3[nH]6)C=C5)C=C4)cc2)cc(-c2ccc(S(C)(=O)=O)cc2)n1-c1ccc(F)cc1
REMARK SMILES IDX 13 1 11 2 12 3 8 4 7 5 5 6 6 7 4 9 3 10 1 11 2 12 94 13
REMARK SMILES IDX 82 14 83 15 95 16 96 17 101 18 97 19 100 20 98 21 99 22
REMARK SMILES IDX 84 23 85 24 93 25 86 26 92 27 87 28 88 29 89 30 90 31 91 32
REMARK SMILES IDX 9 33 10 34 14 36 15 37 16 38 17 39 18 40 19 41 20 42 81 43
REMARK SMILES IDX 21 44 80 45 22 46 23 47 24 48 74 49 25 50 79 51 73 52 75 53
REMARK SMILES IDX 26 54 78 55 72 56 71 57 27 59 59 60 39 61 58 62 40 63 43 64
REMARK SMILES IDX 57 65 76 66 41 67 42 68 56 70 77 71 44 72 28 73 29 74 37 75
REMARK SMILES IDX 30 76 31 77 35 78 38 79 32 80 33 81 36 82 34 83 60 84 61 85
REMARK SMILES IDX 69 86 62 87 63 88 67 89 70 90 64 91 65 92 68 93 66 94 45 95
REMARK SMILES IDX 46 96 54 97 47 98 48 99 52 100 55 101 49 102 50 103 53 104
REMARK SMILES IDX 51 105
REMARK H PARENT 7 8 10 35 75 58 43 69
REMARK Flexibility Score: inf
ROOT
ATOM      1  O   UNL A   1      43.966  19.649  24.511  1.00  0.00    -0.460 OA
ENDROOT
BRANCH   1   2
ATOM      2  C   UNL A   1      43.108  19.034  25.370  1.00  0.00     0.331 C 
ATOM      3  O   UNL A   1      43.134  17.830  25.612  1.00  0.00    -0.250 OA
BRANCH   2   4
ATOM      4  C   UNL A   1      42.071  19.982  26.032  1.00  0.00     0.218 C 
BRANCH   4   5
ATOM      5  N   UNL A   1      42.244  21.359  25.517  1.00  0.00    -0.341 N 
ATOM      6  C   UNL A   1      41.636  22.518  25.914  1.00  0.00     0.225 C 
ATOM      7  O   UNL A   1      41.978  23.565  25.356  1.00  0.00    -0.275 OA
ATOM      8  H   UNL A   1      42.889  21.454  24.781  1.00  0.00     0.164 HD
BRANCH   6   9
ATOM      9  C   UNL A   1      40.594  22.520  27.024  1.00  0.00     0.137 C 
BRANCH   9  10
ATOM     10  C   UNL A   1      39.188  22.407  26.510  1.00  0.00    -0.017 A 
ATOM     11  C   UNL A   1      38.502  24.905  26.415  1.00  0.00     0.065 C 
ATOM     12  C   UNL A   1      38.313  23.437  26.184  1.00  0.00     0.024 A 
ATOM     13  N   UNL A   1      37.147  22.874  25.674  1.00  0.00    -0.314 N 
ATOM     14  C   UNL A   1      38.484  21.193  26.299  1.00  0.00     0.033 A 
ATOM     15  C   UNL A   1      37.240  21.486  25.768  1.00  0.00     0.053 A 
BRANCH  13  16
ATOM     16  C   UNL A   1      36.045  23.587  25.131  1.00  0.00     0.046 A 
ATOM     17  C   UNL A   1      35.105  24.173  25.990  1.00  0.00     0.029 A 
ATOM     18  C   UNL A   1      35.869  23.629  23.741  1.00  0.00     0.029 A 
ATOM     19  C   UNL A   1      33.986  24.806  25.452  1.00  0.00     0.041 A 
ATOM     20  C   UNL A   1      34.737  24.252  23.214  1.00  0.00     0.041 A 
ATOM     21  C   UNL A   1      33.808  24.833  24.073  1.00  0.00     0.123 A 
ATOM     22  F   UNL A   1      32.719  25.422  23.563  1.00  0.00    -0.207 F 
ENDBRANCH  13  16
BRANCH  15  23
ATOM     23  C   UNL A   1      36.233  20.535  25.283  1.00  0.00    -0.001 A 
ATOM     24  C   UNL A   1      34.881  20.901  25.195  1.00  0.00     0.011 A 
ATOM     25  C   UNL A   1      36.615  19.242  24.900  1.00  0.00     0.011 A 
ATOM     26  C   UNL A   1      33.918  19.980  24.777  1.00  0.00     0.021 A 
ATOM     27  C   UNL A   1      35.658  18.315  24.478  1.00  0.00     0.021 A 
ATOM     28  C   UNL A   1      34.312  18.685  24.435  1.00  0.00     0.067 A 
BRANCH  28  29
ATOM     29  S   UNL A   1      33.078  17.533  23.881  1.00  0.00     0.175 S 
ATOM     30  C   UNL A   1      33.611  15.974  24.536  1.00  0.00     0.163 C 
ATOM     31  O   UNL A   1      31.841  17.890  24.534  1.00  0.00    -0.224 OA
ATOM     32  O   UNL A   1      33.175  17.446  22.428  1.00  0.00    -0.224 OA
ENDBRANCH  28  29
ENDBRANCH  15  23
ENDBRANCH   9  10
ENDBRANCH   6   9
ENDBRANCH   4   5
BRANCH   4  33
ATOM     33  C   UNL A   1      42.004  19.951  27.573  1.00  0.00     0.193 C 
BRANCH  33  34
ATOM     34  O   UNL A   1      42.533  18.755  28.153  1.00  0.00    -0.394 OA
ATOM     35  H   UNL A   1      43.315  18.971  28.684  1.00  0.00     0.210 HD
ENDBRANCH  33  34
ENDBRANCH   4  33
ENDBRANCH   2   4
ENDBRANCH   1   2
BRANCH   1  36
ATOM     36  C   UNL A   1      45.341  19.865  24.950  1.00  0.00     0.274 C 
BRANCH  36  37
ATOM     37  C   UNL A   1      45.831  21.294  24.567  1.00  0.00     0.275 C 
BRANCH  37  38
ATOM     38  O   UNL A   1      45.056  22.476  25.005  1.00  0.00    -0.458 OA
BRANCH  38  39
ATOM     39  C   UNL A   1      45.554  23.203  26.057  1.00  0.00     0.338 C 
ATOM     40  O   UNL A   1      46.498  22.808  26.734  1.00  0.00    -0.246 OA
BRANCH  39  41
ATOM     41  C   UNL A   1      44.932  24.597  26.314  1.00  0.00     0.060 A 
ATOM     42  C   UNL A   1      44.514  24.865  27.601  1.00  0.00     0.016 A 
ATOM     43  C   UNL A   1      44.545  25.600  25.391  1.00  0.00     0.016 A 
ATOM     44  C   UNL A   1      43.817  26.082  27.931  1.00  0.00     0.010 A 
ATOM     45  C   UNL A   1      43.743  26.835  25.745  1.00  0.00     0.010 A 
ATOM     46  C   UNL A   1      43.328  27.141  27.054  1.00  0.00    -0.014 A 
BRANCH  46  47
ATOM     47  C   UNL A   1      42.282  28.329  27.731  1.00  0.00     0.031 A 
ATOM     48  C   UNL A   1      43.231  29.450  27.953  1.00  0.00     0.074 A 
ATOM     49  C   UNL A   1      41.028  28.686  28.312  1.00  0.00     0.049 A 
ATOM     50  N   UNL A   1      44.210  29.235  28.783  1.00  0.00    -0.248 NA
ATOM     51  C   UNL A   1      43.436  30.573  27.038  1.00  0.00     0.031 C 
ATOM     52  C   UNL A   1      39.862  27.834  28.635  1.00  0.00     0.029 A 
ATOM     53  N   UNL A   1      40.480  29.958  28.815  1.00  0.00    -0.354 N 
ATOM     54  C   UNL A   1      45.062  30.300  28.686  1.00  0.00     0.074 A 
ATOM     55  C   UNL A   1      44.624  31.008  27.486  1.00  0.00     0.031 C 
ATOM     56  C   UNL A   1      38.776  28.552  29.076  1.00  0.00     0.029 A 
ATOM     57  C   UNL A   1      39.061  29.988  29.185  1.00  0.00     0.049 A 
ATOM     58  H   UNL A   1      41.046  30.758  28.900  1.00  0.00     0.167 HD
ATOM     59  C   UNL A   1      45.502  30.768  29.886  1.00  0.00     0.037 A 
ATOM     60  C   UNL A   1      38.206  31.021  29.639  1.00  0.00     0.037 A 
ATOM     61  C   UNL A   1      44.731  31.908  30.291  1.00  0.00     0.049 A 
ATOM     62  C   UNL A   1      39.058  31.956  30.376  1.00  0.00     0.074 A 
ATOM     63  C   UNL A   1      44.198  32.969  29.583  1.00  0.00     0.029 A 
ATOM     64  N   UNL A   1      43.971  31.774  31.429  1.00  0.00    -0.354 N 
ATOM     65  N   UNL A   1      39.440  31.692  31.587  1.00  0.00    -0.248 NA
ATOM     66  C   UNL A   1      39.362  33.301  29.898  1.00  0.00     0.031 C 
ATOM     67  C   UNL A   1      42.849  32.990  29.984  1.00  0.00     0.029 A 
ATOM     68  C   UNL A   1      42.734  32.323  31.196  1.00  0.00     0.049 A 
ATOM     69  H   UNL A   1      44.264  31.354  32.271  1.00  0.00     0.167 HD
ATOM     70  C   UNL A   1      40.454  32.568  31.779  1.00  0.00     0.074 A 
ATOM     71  C   UNL A   1      40.183  33.678  30.881  1.00  0.00     0.031 C 
ATOM     72  C   UNL A   1      41.639  31.976  32.057  1.00  0.00     0.037 A 
BRANCH  59  73
ATOM     73  C   UNL A   1      45.945  29.659  30.818  1.00  0.00     0.064 A 
ATOM     74  C   UNL A   1      44.979  28.949  31.533  1.00  0.00     0.173 A 
ATOM     75  C   UNL A   1      47.299  29.402  31.142  1.00  0.00     0.173 A 
ATOM     76  F   UNL A   1      43.684  29.058  31.208  1.00  0.00    -0.203 F 
ATOM     77  C   UNL A   1      45.340  28.104  32.585  1.00  0.00     0.198 A 
ATOM     78  C   UNL A   1      47.651  28.632  32.245  1.00  0.00     0.198 A 
ATOM     79  F   UNL A   1      48.296  29.891  30.386  1.00  0.00    -0.203 F 
ATOM     80  F   UNL A   1      44.399  27.404  33.234  1.00  0.00    -0.200 F 
ATOM     81  C   UNL A   1      46.669  27.987  32.971  1.00  0.00     0.200 A 
ATOM     82  F   UNL A   1      48.939  28.516  32.597  1.00  0.00    -0.200 F 
ATOM     83  F   UNL A   1      47.004  27.224  34.021  1.00  0.00    -0.200 F 
ENDBRANCH  59  73
BRANCH  60  84
ATOM     84  C   UNL A   1      36.710  31.518  29.930  1.00  0.00     0.064 A 
ATOM     85  C   UNL A   1      36.127  31.476  31.260  1.00  0.00     0.173 A 
ATOM     86  C   UNL A   1      36.074  32.466  29.109  1.00  0.00     0.173 A 
ATOM     87  F   UNL A   1      36.555  30.606  32.185  1.00  0.00    -0.203 F 
ATOM     88  C   UNL A   1      35.136  32.365  31.736  1.00  0.00     0.198 A 
ATOM     89  C   UNL A   1      35.041  33.333  29.581  1.00  0.00     0.198 A 
ATOM     90  F   UNL A   1      36.503  32.650  27.856  1.00  0.00    -0.203 F 
ATOM     91  F   UNL A   1      34.764  32.343  33.028  1.00  0.00    -0.200 F 
ATOM     92  C   UNL A   1      34.604  33.311  30.897  1.00  0.00     0.200 A 
ATOM     93  F   UNL A   1      34.517  34.258  28.760  1.00  0.00    -0.200 F 
ATOM     94  F   UNL A   1      33.712  34.206  31.355  1.00  0.00    -0.200 F 
ENDBRANCH  60  84
BRANCH  72  95
ATOM     95  C   UNL A   1      41.628  30.884  33.108  1.00  0.00     0.064 A 
ATOM     96  C   UNL A   1      41.274  29.522  32.934  1.00  0.00     0.173 A 
ATOM     97  C   UNL A   1      41.917  31.279  34.421  1.00  0.00     0.173 A 
ATOM     98  F   UNL A   1      41.079  28.983  31.723  1.00  0.00    -0.203 F 
ATOM     99  C   UNL A   1      41.133  28.656  34.022  1.00  0.00     0.198 A 
ATOM    100  C   UNL A   1      41.828  30.399  35.497  1.00  0.00     0.198 A 
ATOM    101  F   UNL A   1      42.310  32.539  34.666  1.00  0.00    -0.203 F 
ATOM    102  F   UNL A   1      40.728  27.391  33.828  1.00  0.00    -0.200 F 
ATOM    103  C   UNL A   1      41.409  29.096  35.303  1.00  0.00     0.200 A 
ATOM    104  F   UNL A   1      42.151  30.825  36.725  1.00  0.00    -0.200 F 
ATOM    105  F   UNL A   1      41.290  28.264  36.346  1.00  0.00    -0.200 F 
ENDBRANCH  72  95
ENDBRANCH  46  47
ENDBRANCH  39  41
ENDBRANCH  38  39
ENDBRANCH  37  38
ENDBRANCH  36  37
ENDBRANCH   1  36
TORSDOF 19
ENDMDL
