MODEL 1
REMARK VINA RESULT:     -11.1      0.000      0.000
REMARK SMILES O=C(OCCOC(=O)[C@@H](CO)NC(=O)[C@H]1CCCc2ccccc21)c1ccc(-c2c3nc(c(-c4c(F)c(F)c(F)c(F)c4F)c4ccc([nH]4)c(-c4c(F)c(F)c(F)c(F)c4F)c4nc(c(-c5c(F)c(F)c(F)c(F)c5F)c5ccc2[nH]5)C=C4)C=C3)cc1
REMARK SMILES IDX 4 1 3 2 2 3 1 4 25 5 26 6 87 7 27 8 86 9 28 10 29 11 30 12
REMARK SMILES IDX 80 13 31 14 85 15 79 16 81 17 32 18 84 19 78 20 77 21 33 23
REMARK SMILES IDX 65 24 45 25 64 26 46 27 49 28 63 29 82 30 47 31 48 32 62 34
REMARK SMILES IDX 83 35 50 36 34 37 35 38 43 39 36 40 37 41 41 42 44 43 38 44
REMARK SMILES IDX 39 45 42 46 40 47 66 48 67 49 75 50 68 51 69 52 73 53 76 54
REMARK SMILES IDX 70 55 71 56 74 57 72 58 51 59 52 60 60 61 53 62 54 63 58 64
REMARK SMILES IDX 61 65 55 66 56 67 59 68 57 69 5 70 6 71 7 72 8 73 9 74 10 75
REMARK SMILES IDX 11 76 12 78 13 79 14 81 15 82 16 83 24 84 17 85 19 86 23 87
REMARK SMILES IDX 18 88 20 89 22 90 21 91
REMARK H PARENT 81 22 49 33 11 77 12 80
REMARK Flexibility Score: inf
ROOT
ATOM      1  C   UNL A   1      39.998  20.270  26.074  1.00  0.00     0.275 C 
ENDROOT
BRANCH   1   2
ATOM      2  O   UNL A   1      40.052  21.704  26.023  1.00  0.00    -0.458 OA
BRANCH   2   3
ATOM      3  C   UNL A   1      39.108  22.634  26.287  1.00  0.00     0.338 C 
ATOM      4  O   UNL A   1      37.968  22.427  25.869  1.00  0.00    -0.246 OA
BRANCH   3   5
ATOM      5  C   UNL A   1      39.377  23.979  26.907  1.00  0.00     0.060 A 
ATOM      6  C   UNL A   1      39.225  24.344  28.248  1.00  0.00     0.016 A 
ATOM      7  C   UNL A   1      39.937  24.934  26.034  1.00  0.00     0.016 A 
ATOM      8  C   UNL A   1      39.708  25.576  28.725  1.00  0.00     0.010 A 
ATOM      9  C   UNL A   1      40.483  26.125  26.516  1.00  0.00     0.010 A 
ATOM     10  C   UNL A   1      40.366  26.462  27.870  1.00  0.00    -0.014 A 
BRANCH  10  11
ATOM     11  C   UNL A   1      40.781  27.812  28.325  1.00  0.00     0.031 A 
ATOM     12  C   UNL A   1      42.257  28.089  28.380  1.00  0.00     0.074 A 
ATOM     13  C   UNL A   1      39.899  28.752  28.721  1.00  0.00     0.049 A 
ATOM     14  N   UNL A   1      42.885  29.197  28.668  1.00  0.00    -0.248 NA
ATOM     15  C   UNL A   1      43.150  26.954  28.082  1.00  0.00     0.031 C 
ATOM     16  C   UNL A   1      38.447  28.601  28.770  1.00  0.00     0.029 A 
ATOM     17  N   UNL A   1      40.103  30.029  29.189  1.00  0.00    -0.354 N 
ATOM     18  C   UNL A   1      44.232  28.895  28.545  1.00  0.00     0.074 A 
ATOM     19  C   UNL A   1      44.340  27.475  28.311  1.00  0.00     0.031 C 
ATOM     20  C   UNL A   1      37.893  29.714  29.281  1.00  0.00     0.029 A 
ATOM     21  C   UNL A   1      38.947  30.681  29.554  1.00  0.00     0.049 A 
ATOM     22  H   UNL A   1      40.995  30.439  29.256  1.00  0.00     0.167 HD
ATOM     23  C   UNL A   1      45.288  29.738  28.536  1.00  0.00     0.037 A 
ATOM     24  C   UNL A   1      38.765  31.930  30.022  1.00  0.00     0.037 A 
ATOM     25  C   UNL A   1      45.174  31.143  28.785  1.00  0.00     0.049 A 
ATOM     26  C   UNL A   1      39.959  32.846  30.089  1.00  0.00     0.074 A 
ATOM     27  C   UNL A   1      46.157  32.111  28.777  1.00  0.00     0.029 A 
ATOM     28  N   UNL A   1      43.981  31.774  29.112  1.00  0.00    -0.354 N 
ATOM     29  N   UNL A   1      41.214  32.593  29.801  1.00  0.00    -0.248 NA
ATOM     30  C   UNL A   1      39.704  34.238  30.482  1.00  0.00     0.031 C 
ATOM     31  C   UNL A   1      45.565  33.326  29.144  1.00  0.00     0.029 A 
ATOM     32  C   UNL A   1      44.205  33.121  29.330  1.00  0.00     0.049 A 
ATOM     33  H   UNL A   1      43.105  31.330  29.179  1.00  0.00     0.167 HD
ATOM     34  C   UNL A   1      41.882  33.804  29.906  1.00  0.00     0.074 A 
ATOM     35  C   UNL A   1      40.895  34.790  30.299  1.00  0.00     0.031 C 
ATOM     36  C   UNL A   1      43.190  34.082  29.679  1.00  0.00     0.037 A 
BRANCH  23  37
ATOM     37  C   UNL A   1      46.616  29.124  28.213  1.00  0.00     0.064 A 
ATOM     38  C   UNL A   1      47.512  28.762  29.236  1.00  0.00     0.173 A 
ATOM     39  C   UNL A   1      47.047  28.997  26.887  1.00  0.00     0.173 A 
ATOM     40  F   UNL A   1      47.158  28.896  30.524  1.00  0.00    -0.203 F 
ATOM     41  C   UNL A   1      48.811  28.360  28.941  1.00  0.00     0.198 A 
ATOM     42  C   UNL A   1      48.338  28.561  26.596  1.00  0.00     0.198 A 
ATOM     43  F   UNL A   1      46.234  29.335  25.876  1.00  0.00    -0.203 F 
ATOM     44  F   UNL A   1      49.678  28.120  29.936  1.00  0.00    -0.200 F 
ATOM     45  C   UNL A   1      49.223  28.262  27.622  1.00  0.00     0.200 A 
ATOM     46  F   UNL A   1      48.738  28.465  25.321  1.00  0.00    -0.200 F 
ATOM     47  F   UNL A   1      50.484  27.903  27.339  1.00  0.00    -0.200 F 
ENDBRANCH  23  37
BRANCH  24  48
ATOM     48  C   UNL A   1      37.401  32.433  30.348  1.00  0.00     0.064 A 
ATOM     49  C   UNL A   1      36.649  33.138  29.397  1.00  0.00     0.173 A 
ATOM     50  C   UNL A   1      36.838  32.263  31.622  1.00  0.00     0.173 A 
ATOM     51  F   UNL A   1      37.152  33.348  28.170  1.00  0.00    -0.203 F 
ATOM     52  C   UNL A   1      35.406  33.684  29.714  1.00  0.00     0.198 A 
ATOM     53  C   UNL A   1      35.583  32.791  31.932  1.00  0.00     0.198 A 
ATOM     54  F   UNL A   1      37.516  31.606  32.573  1.00  0.00    -0.203 F 
ATOM     55  F   UNL A   1      34.740  34.403  28.800  1.00  0.00    -0.200 F 
ATOM     56  C   UNL A   1      34.873  33.509  30.981  1.00  0.00     0.200 A 
ATOM     57  F   UNL A   1      35.070  32.626  33.160  1.00  0.00    -0.200 F 
ATOM     58  F   UNL A   1      33.686  34.050  31.290  1.00  0.00    -0.200 F 
ENDBRANCH  24  48
BRANCH  36  59
ATOM     59  C   UNL A   1      43.615  35.516  29.768  1.00  0.00     0.064 A 
ATOM     60  C   UNL A   1      43.607  36.362  28.652  1.00  0.00     0.173 A 
ATOM     61  C   UNL A   1      43.971  36.062  31.012  1.00  0.00     0.173 A 
ATOM     62  F   UNL A   1      43.287  35.882  27.441  1.00  0.00    -0.203 F 
ATOM     63  C   UNL A   1      43.959  37.703  28.774  1.00  0.00     0.198 A 
ATOM     64  C   UNL A   1      44.288  37.408  31.135  1.00  0.00     0.198 A 
ATOM     65  F   UNL A   1      43.986  35.290  32.110  1.00  0.00    -0.203 F 
ATOM     66  F   UNL A   1      43.986  38.487  27.688  1.00  0.00    -0.200 F 
ATOM     67  C   UNL A   1      44.287  38.227  30.017  1.00  0.00     0.200 A 
ATOM     68  F   UNL A   1      44.587  37.917  32.339  1.00  0.00    -0.200 F 
ATOM     69  F   UNL A   1      44.607  39.523  30.134  1.00  0.00    -0.200 F 
ENDBRANCH  36  59
ENDBRANCH  10  11
ENDBRANCH   3   5
ENDBRANCH   2   3
ENDBRANCH   1   2
BRANCH   1  70
ATOM     70  C   UNL A   1      41.338  19.599  26.388  1.00  0.00     0.274 C 
BRANCH  70  71
ATOM     71  O   UNL A   1      42.285  19.687  25.308  1.00  0.00    -0.460 OA
BRANCH  71  72
ATOM     72  C   UNL A   1      43.543  19.210  25.565  1.00  0.00     0.331 C 
ATOM     73  O   UNL A   1      43.773  18.096  26.034  1.00  0.00    -0.250 OA
BRANCH  72  74
ATOM     74  C   UNL A   1      44.640  20.265  25.338  1.00  0.00     0.218 C 
BRANCH  74  75
ATOM     75  C   UNL A   1      45.988  19.627  25.038  1.00  0.00     0.193 C 
BRANCH  75  76
ATOM     76  O   UNL A   1      46.398  18.817  26.130  1.00  0.00    -0.394 OA
ATOM     77  H   UNL A   1      46.705  19.383  26.855  1.00  0.00     0.210 HD
ENDBRANCH  75  76
ENDBRANCH  74  75
BRANCH  74  78
ATOM     78  N   UNL A   1      44.302  21.184  24.256  1.00  0.00    -0.340 N 
ATOM     79  C   UNL A   1      44.500  22.535  24.240  1.00  0.00     0.228 C 
ATOM     80  H   UNL A   1      43.887  20.788  23.456  1.00  0.00     0.164 HD
ATOM     81  O   UNL A   1      44.924  22.964  23.161  1.00  0.00    -0.274 OA
BRANCH  79  82
ATOM     82  C   UNL A   1      44.047  23.462  25.417  1.00  0.00     0.109 C 
ATOM     83  C   UNL A   1      42.968  22.879  26.352  1.00  0.00     0.018 C 
ATOM     84  C   UNL A   1      45.247  24.022  26.194  1.00  0.00    -0.032 A 
ATOM     85  C   UNL A   1      42.929  23.477  27.748  1.00  0.00     0.006 C 
ATOM     86  C   UNL A   1      45.355  23.920  27.595  1.00  0.00    -0.044 A 
ATOM     87  C   UNL A   1      46.261  24.705  25.497  1.00  0.00     0.005 A 
ATOM     88  C   UNL A   1      44.275  23.274  28.418  1.00  0.00     0.036 C 
ATOM     89  C   UNL A   1      46.491  24.420  28.250  1.00  0.00     0.004 A 
ATOM     90  C   UNL A   1      47.381  25.209  26.157  1.00  0.00     0.000 A 
ATOM     91  C   UNL A   1      47.499  25.059  27.533  1.00  0.00     0.000 A 
ENDBRANCH  79  82
ENDBRANCH  74  78
ENDBRANCH  72  74
ENDBRANCH  71  72
ENDBRANCH  70  71
ENDBRANCH   1  70
TORSDOF 15
ENDMDL
MODEL 2
REMARK VINA RESULT:     -11.0      5.469     12.260
REMARK SMILES O=C(OCCOC(=O)[C@@H](CO)NC(=O)[C@H]1CCCc2ccccc21)c1ccc(-c2c3nc(c(-c4c(F)c(F)c(F)c(F)c4F)c4ccc([nH]4)c(-c4c(F)c(F)c(F)c(F)c4F)c4nc(c(-c5c(F)c(F)c(F)c(F)c5F)c5ccc2[nH]5)C=C4)C=C3)cc1
REMARK SMILES IDX 4 1 3 2 2 3 1 4 25 5 26 6 87 7 27 8 86 9 28 10 29 11 30 12
REMARK SMILES IDX 80 13 31 14 85 15 79 16 81 17 32 18 84 19 78 20 77 21 33 23
REMARK SMILES IDX 65 24 45 25 64 26 46 27 49 28 63 29 82 30 47 31 48 32 62 34
REMARK SMILES IDX 83 35 50 36 34 37 35 38 43 39 36 40 37 41 41 42 44 43 38 44
REMARK SMILES IDX 39 45 42 46 40 47 66 48 67 49 75 50 68 51 69 52 73 53 76 54
REMARK SMILES IDX 70 55 71 56 74 57 72 58 51 59 52 60 60 61 53 62 54 63 58 64
REMARK SMILES IDX 61 65 55 66 56 67 59 68 57 69 5 70 6 71 7 72 8 73 9 74 10 75
REMARK SMILES IDX 11 76 12 78 13 79 14 81 15 82 16 83 24 84 17 85 19 86 23 87
REMARK SMILES IDX 18 88 20 89 22 90 21 91
REMARK H PARENT 81 22 49 33 11 77 12 80
REMARK Flexibility Score: inf
ROOT
ATOM      1  C   UNL A   1      33.343  33.827  28.007  1.00  0.00     0.275 C 
ENDROOT
BRANCH   1   2
ATOM      2  O   UNL A   1      34.454  33.001  27.628  1.00  0.00    -0.458 OA
BRANCH   2   3
ATOM      3  C   UNL A   1      34.598  31.658  27.626  1.00  0.00     0.338 C 
ATOM      4  O   UNL A   1      33.645  30.981  27.237  1.00  0.00    -0.246 OA
BRANCH   3   5
ATOM      5  C   UNL A   1      35.768  30.918  28.216  1.00  0.00     0.060 A 
ATOM      6  C   UNL A   1      35.876  29.544  28.451  1.00  0.00     0.016 A 
ATOM      7  C   UNL A   1      36.908  31.709  28.461  1.00  0.00     0.016 A 
ATOM      8  C   UNL A   1      37.104  28.964  28.817  1.00  0.00     0.010 A 
ATOM      9  C   UNL A   1      38.146  31.131  28.751  1.00  0.00     0.010 A 
ATOM     10  C   UNL A   1      38.253  29.748  28.941  1.00  0.00    -0.014 A 
BRANCH  10  11
ATOM     11  C   UNL A   1      39.530  29.176  29.435  1.00  0.00     0.031 A 
ATOM     12  C   UNL A   1      40.248  29.938  30.513  1.00  0.00     0.074 A 
ATOM     13  C   UNL A   1      40.069  28.048  28.928  1.00  0.00     0.049 A 
ATOM     14  N   UNL A   1      41.334  29.628  31.168  1.00  0.00    -0.248 NA
ATOM     15  C   UNL A   1      39.668  31.239  30.894  1.00  0.00     0.031 C 
ATOM     16  C   UNL A   1      39.510  27.239  27.848  1.00  0.00     0.029 A 
ATOM     17  N   UNL A   1      41.238  27.396  29.243  1.00  0.00    -0.354 N 
ATOM     18  C   UNL A   1      41.534  30.674  32.056  1.00  0.00     0.074 A 
ATOM     19  C   UNL A   1      40.558  31.693  31.756  1.00  0.00     0.031 C 
ATOM     20  C   UNL A   1      40.349  26.230  27.556  1.00  0.00     0.029 A 
ATOM     21  C   UNL A   1      41.488  26.290  28.462  1.00  0.00     0.049 A 
ATOM     22  H   UNL A   1      41.841  27.692  29.962  1.00  0.00     0.167 HD
ATOM     23  C   UNL A   1      42.396  30.745  33.094  1.00  0.00     0.037 A 
ATOM     24  C   UNL A   1      42.506  25.410  28.502  1.00  0.00     0.037 A 
ATOM     25  C   UNL A   1      43.371  29.736  33.377  1.00  0.00     0.049 A 
ATOM     26  C   UNL A   1      43.514  25.539  29.614  1.00  0.00     0.074 A 
ATOM     27  C   UNL A   1      44.283  29.672  34.411  1.00  0.00     0.029 A 
ATOM     28  N   UNL A   1      43.569  28.611  32.587  1.00  0.00    -0.354 N 
ATOM     29  N   UNL A   1      43.592  26.444  30.561  1.00  0.00    -0.248 NA
ATOM     30  C   UNL A   1      44.538  24.489  29.704  1.00  0.00     0.031 C 
ATOM     31  C   UNL A   1      45.065  28.526  34.222  1.00  0.00     0.029 A 
ATOM     32  C   UNL A   1      44.604  27.852  33.099  1.00  0.00     0.049 A 
ATOM     33  H   UNL A   1      43.048  28.387  31.782  1.00  0.00     0.167 HD
ATOM     34  C   UNL A   1      44.621  26.035  31.397  1.00  0.00     0.074 A 
ATOM     35  C   UNL A   1      45.147  24.807  30.837  1.00  0.00     0.031 C 
ATOM     36  C   UNL A   1      45.075  26.612  32.537  1.00  0.00     0.037 A 
BRANCH  23  37
ATOM     37  C   UNL A   1      42.258  31.946  33.981  1.00  0.00     0.064 A 
ATOM     38  C   UNL A   1      43.009  33.111  33.740  1.00  0.00     0.173 A 
ATOM     39  C   UNL A   1      41.466  31.902  35.134  1.00  0.00     0.173 A 
ATOM     40  F   UNL A   1      43.809  33.189  32.664  1.00  0.00    -0.203 F 
ATOM     41  C   UNL A   1      43.022  34.158  34.656  1.00  0.00     0.198 A 
ATOM     42  C   UNL A   1      41.455  32.967  36.032  1.00  0.00     0.198 A 
ATOM     43  F   UNL A   1      40.737  30.812  35.414  1.00  0.00    -0.203 F 
ATOM     44  F   UNL A   1      43.825  35.213  34.454  1.00  0.00    -0.200 F 
ATOM     45  C   UNL A   1      42.246  34.084  35.802  1.00  0.00     0.200 A 
ATOM     46  F   UNL A   1      40.706  32.898  37.140  1.00  0.00    -0.200 F 
ATOM     47  F   UNL A   1      42.281  35.080  36.699  1.00  0.00    -0.200 F 
ENDBRANCH  23  37
BRANCH  24  48
ATOM     48  C   UNL A   1      42.567  24.267  27.549  1.00  0.00     0.064 A 
ATOM     49  C   UNL A   1      42.080  23.003  27.911  1.00  0.00     0.173 A 
ATOM     50  C   UNL A   1      43.149  24.397  26.279  1.00  0.00     0.173 A 
ATOM     51  F   UNL A   1      41.534  22.820  29.123  1.00  0.00    -0.203 F 
ATOM     52  C   UNL A   1      42.204  21.906  27.060  1.00  0.00     0.198 A 
ATOM     53  C   UNL A   1      43.253  23.303  25.417  1.00  0.00     0.198 A 
ATOM     54  F   UNL A   1      43.641  25.580  25.884  1.00  0.00    -0.203 F 
ATOM     55  F   UNL A   1      41.782  20.699  27.460  1.00  0.00    -0.200 F 
ATOM     56  C   UNL A   1      42.789  22.057  25.812  1.00  0.00     0.200 A 
ATOM     57  F   UNL A   1      43.825  23.448  24.213  1.00  0.00    -0.200 F 
ATOM     58  F   UNL A   1      42.924  20.997  25.002  1.00  0.00    -0.200 F 
ENDBRANCH  24  48
BRANCH  36  59
ATOM     59  C   UNL A   1      46.140  25.883  33.300  1.00  0.00     0.064 A 
ATOM     60  C   UNL A   1      45.830  24.967  34.313  1.00  0.00     0.173 A 
ATOM     61  C   UNL A   1      47.489  26.061  32.956  1.00  0.00     0.173 A 
ATOM     62  F   UNL A   1      44.557  24.774  34.685  1.00  0.00    -0.203 F 
ATOM     63  C   UNL A   1      46.838  24.267  34.970  1.00  0.00     0.198 A 
ATOM     64  C   UNL A   1      48.489  25.335  33.591  1.00  0.00     0.198 A 
ATOM     65  F   UNL A   1      47.833  26.923  31.986  1.00  0.00    -0.203 F 
ATOM     66  F   UNL A   1      46.526  23.426  35.966  1.00  0.00    -0.200 F 
ATOM     67  C   UNL A   1      48.164  24.443  34.601  1.00  0.00     0.200 A 
ATOM     68  F   UNL A   1      49.768  25.493  33.220  1.00  0.00    -0.200 F 
ATOM     69  F   UNL A   1      49.130  23.753  35.223  1.00  0.00    -0.200 F 
ENDBRANCH  36  59
ENDBRANCH  10  11
ENDBRANCH   3   5
ENDBRANCH   2   3
ENDBRANCH   1   2
BRANCH   1  70
ATOM     70  C   UNL A   1      33.728  35.079  28.799  1.00  0.00     0.274 C 
BRANCH  70  71
ATOM     71  O   UNL A   1      32.739  35.464  29.771  1.00  0.00    -0.460 OA
BRANCH  71  72
ATOM     72  C   UNL A   1      33.103  36.455  30.644  1.00  0.00     0.331 C 
ATOM     73  O   UNL A   1      32.903  37.654  30.446  1.00  0.00    -0.250 OA
BRANCH  72  74
ATOM     74  C   UNL A   1      33.912  35.929  31.842  1.00  0.00     0.218 C 
BRANCH  74  75
ATOM     75  C   UNL A   1      33.578  36.676  33.125  1.00  0.00     0.193 C 
BRANCH  75  76
ATOM     76  O   UNL A   1      32.172  36.828  33.249  1.00  0.00    -0.394 OA
ATOM     77  H   UNL A   1      31.764  36.787  32.370  1.00  0.00     0.210 HD
ENDBRANCH  75  76
ENDBRANCH  74  75
BRANCH  74  78
ATOM     78  N   UNL A   1      33.705  34.502  32.059  1.00  0.00    -0.340 N 
ATOM     79  C   UNL A   1      34.396  33.698  32.920  1.00  0.00     0.228 C 
ATOM     80  H   UNL A   1      32.994  34.074  31.529  1.00  0.00     0.164 HD
ATOM     81  O   UNL A   1      33.682  32.903  33.542  1.00  0.00    -0.274 OA
BRANCH  79  82
ATOM     82  C   UNL A   1      35.960  33.665  32.963  1.00  0.00     0.109 C 
ATOM     83  C   UNL A   1      36.621  34.575  34.019  1.00  0.00     0.018 C 
ATOM     84  C   UNL A   1      36.497  32.228  33.018  1.00  0.00    -0.032 A 
ATOM     85  C   UNL A   1      38.016  34.158  34.452  1.00  0.00     0.006 C 
ATOM     86  C   UNL A   1      37.424  31.803  33.992  1.00  0.00    -0.044 A 
ATOM     87  C   UNL A   1      36.092  31.302  32.039  1.00  0.00     0.005 A 
ATOM     88  C   UNL A   1      37.964  32.753  35.024  1.00  0.00     0.036 C 
ATOM     89  C   UNL A   1      37.855  30.468  34.015  1.00  0.00     0.004 A 
ATOM     90  C   UNL A   1      36.534  29.980  32.064  1.00  0.00     0.000 A 
ATOM     91  C   UNL A   1      37.410  29.562  33.058  1.00  0.00     0.000 A 
ENDBRANCH  79  82
ENDBRANCH  74  78
ENDBRANCH  72  74
ENDBRANCH  71  72
ENDBRANCH  70  71
ENDBRANCH   1  70
TORSDOF 15
ENDMDL
MODEL 3
REMARK VINA RESULT:     -11.0      1.173      2.235
REMARK SMILES O=C(OCCOC(=O)[C@@H](CO)NC(=O)[C@H]1CCCc2ccccc21)c1ccc(-c2c3nc(c(-c4c(F)c(F)c(F)c(F)c4F)c4ccc([nH]4)c(-c4c(F)c(F)c(F)c(F)c4F)c4nc(c(-c5c(F)c(F)c(F)c(F)c5F)c5ccc2[nH]5)C=C4)C=C3)cc1
REMARK SMILES IDX 4 1 3 2 2 3 1 4 25 5 26 6 87 7 27 8 86 9 28 10 29 11 30 12
REMARK SMILES IDX 80 13 31 14 85 15 79 16 81 17 32 18 84 19 78 20 77 21 33 23
REMARK SMILES IDX 65 24 45 25 64 26 46 27 49 28 63 29 82 30 47 31 48 32 62 34
REMARK SMILES IDX 83 35 50 36 34 37 35 38 43 39 36 40 37 41 41 42 44 43 38 44
REMARK SMILES IDX 39 45 42 46 40 47 66 48 67 49 75 50 68 51 69 52 73 53 76 54
REMARK SMILES IDX 70 55 71 56 74 57 72 58 51 59 52 60 60 61 53 62 54 63 58 64
REMARK SMILES IDX 61 65 55 66 56 67 59 68 57 69 5 70 6 71 7 72 8 73 9 74 10 75
REMARK SMILES IDX 11 76 12 78 13 79 14 81 15 82 16 83 24 84 17 85 19 86 23 87
REMARK SMILES IDX 18 88 20 89 22 90 21 91
REMARK H PARENT 81 22 49 33 11 77 12 80
REMARK Flexibility Score: inf
ROOT
ATOM      1  C   UNL A   1      40.685  21.349  27.474  1.00  0.00     0.275 C 
ENDROOT
BRANCH   1   2
ATOM      2  O   UNL A   1      39.825  21.785  26.410  1.00  0.00    -0.458 OA
BRANCH   2   3
ATOM      3  C   UNL A   1      38.970  22.828  26.335  1.00  0.00     0.338 C 
ATOM      4  O   UNL A   1      38.027  22.739  25.548  1.00  0.00    -0.246 OA
BRANCH   3   5
ATOM      5  C   UNL A   1      39.171  24.155  27.016  1.00  0.00     0.060 A 
ATOM      6  C   UNL A   1      38.901  24.476  28.351  1.00  0.00     0.016 A 
ATOM      7  C   UNL A   1      39.792  25.141  26.224  1.00  0.00     0.016 A 
ATOM      8  C   UNL A   1      39.329  25.697  28.904  1.00  0.00     0.010 A 
ATOM      9  C   UNL A   1      40.283  26.321  26.786  1.00  0.00     0.010 A 
ATOM     10  C   UNL A   1      40.047  26.615  28.135  1.00  0.00    -0.014 A 
BRANCH  10  11
ATOM     11  C   UNL A   1      40.408  27.953  28.665  1.00  0.00     0.031 A 
ATOM     12  C   UNL A   1      41.846  28.174  29.039  1.00  0.00     0.074 A 
ATOM     13  C   UNL A   1      39.500  28.932  28.855  1.00  0.00     0.049 A 
ATOM     14  N   UNL A   1      42.441  29.260  29.453  1.00  0.00    -0.248 NA
ATOM     15  C   UNL A   1      42.735  27.001  28.948  1.00  0.00     0.031 C 
ATOM     16  C   UNL A   1      38.067  28.838  28.586  1.00  0.00     0.029 A 
ATOM     17  N   UNL A   1      39.649  30.206  29.350  1.00  0.00    -0.354 N 
ATOM     18  C   UNL A   1      43.769  28.903  29.629  1.00  0.00     0.074 A 
ATOM     19  C   UNL A   1      43.867  27.478  29.429  1.00  0.00     0.031 C 
ATOM     20  C   UNL A   1      37.460  29.979  28.959  1.00  0.00     0.029 A 
ATOM     21  C   UNL A   1      38.469  30.907  29.452  1.00  0.00     0.049 A 
ATOM     22  H   UNL A   1      40.521  30.582  29.609  1.00  0.00     0.167 HD
ATOM     23  C   UNL A   1      44.835  29.705  29.847  1.00  0.00     0.037 A 
ATOM     24  C   UNL A   1      38.240  32.168  29.864  1.00  0.00     0.037 A 
ATOM     25  C   UNL A   1      44.727  31.116  30.060  1.00  0.00     0.049 A 
ATOM     26  C   UNL A   1      39.427  33.038  30.186  1.00  0.00     0.074 A 
ATOM     27  C   UNL A   1      45.727  32.045  30.263  1.00  0.00     0.029 A 
ATOM     28  N   UNL A   1      43.518  31.798  30.116  1.00  0.00    -0.354 N 
ATOM     29  N   UNL A   1      40.703  32.733  30.180  1.00  0.00    -0.248 NA
ATOM     30  C   UNL A   1      39.149  34.444  30.508  1.00  0.00     0.031 C 
ATOM     31  C   UNL A   1      45.119  33.287  30.486  1.00  0.00     0.029 A 
ATOM     32  C   UNL A   1      43.744  33.137  30.371  1.00  0.00     0.049 A 
ATOM     33  H   UNL A   1      42.632  31.389  29.991  1.00  0.00     0.167 HD
ATOM     34  C   UNL A   1      41.381  33.918  30.424  1.00  0.00     0.074 A 
ATOM     35  C   UNL A   1      40.373  34.946  30.587  1.00  0.00     0.031 C 
ATOM     36  C   UNL A   1      42.717  34.141  30.487  1.00  0.00     0.037 A 
BRANCH  23  37
ATOM     37  C   UNL A   1      46.176  29.035  29.824  1.00  0.00     0.064 A 
ATOM     38  C   UNL A   1      46.934  28.981  28.640  1.00  0.00     0.173 A 
ATOM     39  C   UNL A   1      46.658  28.351  30.945  1.00  0.00     0.173 A 
ATOM     40  F   UNL A   1      46.498  29.594  27.528  1.00  0.00    -0.203 F 
ATOM     41  C   UNL A   1      48.090  28.211  28.565  1.00  0.00     0.198 A 
ATOM     42  C   UNL A   1      47.835  27.609  30.875  1.00  0.00     0.198 A 
ATOM     43  F   UNL A   1      45.970  28.365  32.096  1.00  0.00    -0.203 F 
ATOM     44  F   UNL A   1      48.740  28.092  27.397  1.00  0.00    -0.200 F 
ATOM     45  C   UNL A   1      48.539  27.525  29.682  1.00  0.00     0.200 A 
ATOM     46  F   UNL A   1      48.271  26.944  31.954  1.00  0.00    -0.200 F 
ATOM     47  F   UNL A   1      49.637  26.759  29.601  1.00  0.00    -0.200 F 
ENDBRANCH  23  37
BRANCH  24  48
ATOM     48  C   UNL A   1      36.860  32.728  29.882  1.00  0.00     0.064 A 
ATOM     49  C   UNL A   1      36.326  33.359  28.749  1.00  0.00     0.173 A 
ATOM     50  C   UNL A   1      36.063  32.687  31.036  1.00  0.00     0.173 A 
ATOM     51  F   UNL A   1      37.055  33.445  27.626  1.00  0.00    -0.203 F 
ATOM     52  C   UNL A   1      35.067  33.958  28.777  1.00  0.00     0.198 A 
ATOM     53  C   UNL A   1      34.793  33.268  31.057  1.00  0.00     0.198 A 
ATOM     54  F   UNL A   1      36.527  32.105  32.151  1.00  0.00    -0.203 F 
ATOM     55  F   UNL A   1      34.611  34.605  27.696  1.00  0.00    -0.200 F 
ATOM     56  C   UNL A   1      34.301  33.911  29.931  1.00  0.00     0.200 A 
ATOM     57  F   UNL A   1      34.055  33.228  32.176  1.00  0.00    -0.200 F 
ATOM     58  F   UNL A   1      33.098  34.503  29.963  1.00  0.00    -0.200 F 
ENDBRANCH  24  48
BRANCH  36  59
ATOM     59  C   UNL A   1      43.171  35.559  30.661  1.00  0.00     0.064 A 
ATOM     60  C   UNL A   1      43.448  36.098  31.923  1.00  0.00     0.173 A 
ATOM     61  C   UNL A   1      43.395  36.363  29.532  1.00  0.00     0.173 A 
ATOM     62  F   UNL A   1      43.236  35.372  33.031  1.00  0.00    -0.203 F 
ATOM     63  C   UNL A   1      43.916  37.403  32.051  1.00  0.00     0.198 A 
ATOM     64  C   UNL A   1      43.895  37.652  29.663  1.00  0.00     0.198 A 
ATOM     65  F   UNL A   1      43.150  35.886  28.302  1.00  0.00    -0.203 F 
ATOM     66  F   UNL A   1      44.136  37.916  33.270  1.00  0.00    -0.200 F 
ATOM     67  C   UNL A   1      44.151  38.174  30.921  1.00  0.00     0.200 A 
ATOM     68  F   UNL A   1      44.138  38.388  28.569  1.00  0.00    -0.200 F 
ATOM     69  F   UNL A   1      44.619  39.422  31.047  1.00  0.00    -0.200 F 
ENDBRANCH  36  59
ENDBRANCH  10  11
ENDBRANCH   3   5
ENDBRANCH   2   3
ENDBRANCH   1   2
BRANCH   1  70
ATOM     70  C   UNL A   1      42.049  20.829  27.010  1.00  0.00     0.274 C 
BRANCH  70  71
ATOM     71  O   UNL A   1      41.995  20.136  25.751  1.00  0.00    -0.460 OA
BRANCH  71  72
ATOM     72  C   UNL A   1      43.051  19.311  25.468  1.00  0.00     0.331 C 
ATOM     73  O   UNL A   1      42.990  18.082  25.497  1.00  0.00    -0.250 OA
BRANCH  72  74
ATOM     74  C   UNL A   1      44.365  20.078  25.242  1.00  0.00     0.218 C 
BRANCH  74  75
ATOM     75  C   UNL A   1      45.438  19.197  24.618  1.00  0.00     0.193 C 
BRANCH  75  76
ATOM     76  O   UNL A   1      45.734  18.107  25.478  1.00  0.00    -0.394 OA
ATOM     77  H   UNL A   1      46.582  17.713  25.221  1.00  0.00     0.210 HD
ENDBRANCH  75  76
ENDBRANCH  74  75
BRANCH  74  78
ATOM     78  N   UNL A   1      44.175  21.257  24.404  1.00  0.00    -0.340 N 
ATOM     79  C   UNL A   1      44.770  22.475  24.561  1.00  0.00     0.228 C 
ATOM     80  H   UNL A   1      43.553  21.162  23.646  1.00  0.00     0.164 HD
ATOM     81  O   UNL A   1      45.150  22.985  23.501  1.00  0.00    -0.274 OA
BRANCH  79  82
ATOM     82  C   UNL A   1      44.788  23.228  25.933  1.00  0.00     0.109 C 
ATOM     83  C   UNL A   1      46.028  22.982  26.816  1.00  0.00     0.018 C 
ATOM     84  C   UNL A   1      44.482  24.724  25.765  1.00  0.00    -0.032 A 
ATOM     85  C   UNL A   1      46.331  24.076  27.827  1.00  0.00     0.006 C 
ATOM     86  C   UNL A   1      45.312  25.730  26.299  1.00  0.00    -0.044 A 
ATOM     87  C   UNL A   1      43.310  25.117  25.093  1.00  0.00     0.005 A 
ATOM     88  C   UNL A   1      46.541  25.389  27.096  1.00  0.00     0.036 C 
ATOM     89  C   UNL A   1      45.003  27.082  26.085  1.00  0.00     0.004 A 
ATOM     90  C   UNL A   1      43.005  26.463  24.895  1.00  0.00     0.000 A 
ATOM     91  C   UNL A   1      43.856  27.445  25.385  1.00  0.00     0.000 A 
ENDBRANCH  79  82
ENDBRANCH  74  78
ENDBRANCH  72  74
ENDBRANCH  71  72
ENDBRANCH  70  71
ENDBRANCH   1  70
TORSDOF 15
ENDMDL
