MODEL 1
REMARK VINA RESULT:     -12.2      0.000      0.000
REMARK SMILES O=C(CSCc1nnnn1-c1ccc([N+](=O)[O-])cc1)OCCOC(=O)c1ccc(-c2c3nc(c(-c4c(F)c(F)c(F)c(F)c4F)c4ccc([nH]4)c(-c4c(F)c(F)c(F)c(F)c4F)c4nc(c(-c5c(F)c(F)c(F)c(F)c5F)c5ccc2[nH]5)C=C4)C=C3)cc1
REMARK SMILES IDX 20 1 2 2 1 3 3 4 4 5 5 6 6 7 7 8 10 9 8 10 9 11 11 12 12 13
REMARK SMILES IDX 19 14 13 15 18 16 14 17 15 18 16 19 17 20 21 21 22 22 23 23
REMARK SMILES IDX 24 24 25 25 26 26 27 27 88 28 28 29 87 30 29 31 30 32 31 33
REMARK SMILES IDX 81 34 32 35 86 36 80 37 82 38 33 39 85 40 79 41 78 42 34 44
REMARK SMILES IDX 66 45 46 46 65 47 47 48 50 49 64 50 83 51 48 52 49 53 63 55
REMARK SMILES IDX 84 56 51 57 35 58 36 59 44 60 37 61 38 62 42 63 45 64 39 65
REMARK SMILES IDX 40 66 43 67 41 68 67 69 68 70 76 71 69 72 70 73 74 74 77 75
REMARK SMILES IDX 71 76 72 77 75 78 73 79 52 80 53 81 61 82 54 83 55 84 59 85
REMARK SMILES IDX 62 86 56 87 57 88 60 89 58 90
REMARK H PARENT 82 43 50 54
REMARK Flexibility Score: inf
ROOT
ATOM      1  O   UNL A   1      37.104  22.967  24.791  1.00  0.00    -0.461 OA
ENDROOT
BRANCH   1   2
ATOM      2  C   UNL A   1      36.243  23.281  23.793  1.00  0.00     0.316 C 
ATOM      3  O   UNL A   1      36.495  22.953  22.635  1.00  0.00    -0.251 OA
BRANCH   2   4
ATOM      4  C   UNL A   1      34.937  23.959  24.136  1.00  0.00     0.192 C 
BRANCH   4   5
ATOM      5  S   UNL A   1      33.618  22.745  24.414  1.00  0.00    -0.142 SA
BRANCH   5   6
ATOM      6  C   UNL A   1      32.178  23.794  24.080  1.00  0.00     0.149 C 
BRANCH   6   7
ATOM      7  C   UNL A   1      31.180  23.811  25.178  1.00  0.00     0.166 A 
ATOM      8  N   UNL A   1      30.991  22.867  26.080  1.00  0.00    -0.113 NA
ATOM      9  N   UNL A   1      30.435  24.908  25.557  1.00  0.00    -0.196 N 
ATOM     10  N   UNL A   1      30.208  23.418  27.059  1.00  0.00    -0.023 NA
ATOM     11  N   UNL A   1      29.928  24.684  26.785  1.00  0.00    -0.040 NA
BRANCH   9  12
ATOM     12  C   UNL A   1      30.213  26.117  24.879  1.00  0.00     0.069 A 
ATOM     13  C   UNL A   1      31.158  27.141  24.994  1.00  0.00     0.035 A 
ATOM     14  C   UNL A   1      29.059  26.285  24.105  1.00  0.00     0.035 A 
ATOM     15  C   UNL A   1      30.986  28.315  24.256  1.00  0.00     0.088 A 
ATOM     16  C   UNL A   1      28.871  27.466  23.388  1.00  0.00     0.088 A 
ATOM     17  C   UNL A   1      29.846  28.471  23.451  1.00  0.00     0.269 A 
BRANCH  17  18
ATOM     18  N   UNL A   1      29.673  29.697  22.662  1.00  0.00     0.062 N 
ATOM     19  O   UNL A   1      29.071  30.641  23.192  1.00  0.00    -0.258 OA
ATOM     20  O   UNL A   1      30.146  29.716  21.516  1.00  0.00    -0.258 OA
ENDBRANCH  17  18
ENDBRANCH   9  12
ENDBRANCH   6   7
ENDBRANCH   5   6
ENDBRANCH   4   5
ENDBRANCH   2   4
ENDBRANCH   1   2
BRANCH   1  21
ATOM     21  C   UNL A   1      37.379  21.635  25.276  1.00  0.00     0.274 C 
BRANCH  21  22
ATOM     22  C   UNL A   1      38.795  21.521  25.818  1.00  0.00     0.275 C 
BRANCH  22  23
ATOM     23  O   UNL A   1      39.190  22.752  26.418  1.00  0.00    -0.458 OA
BRANCH  23  24
ATOM     24  C   UNL A   1      40.273  22.738  27.232  1.00  0.00     0.338 C 
ATOM     25  O   UNL A   1      40.733  21.796  27.832  1.00  0.00    -0.246 OA
BRANCH  24  26
ATOM     26  C   UNL A   1      40.769  24.125  27.308  1.00  0.00     0.060 A 
ATOM     27  C   UNL A   1      41.824  24.401  28.179  1.00  0.00     0.016 A 
ATOM     28  C   UNL A   1      40.046  25.151  26.678  1.00  0.00     0.016 A 
ATOM     29  C   UNL A   1      41.985  25.703  28.612  1.00  0.00     0.010 A 
ATOM     30  C   UNL A   1      40.198  26.439  27.116  1.00  0.00     0.010 A 
ATOM     31  C   UNL A   1      41.087  26.674  28.156  1.00  0.00    -0.014 A 
BRANCH  31  32
ATOM     32  C   UNL A   1      41.084  27.985  28.766  1.00  0.00     0.031 A 
ATOM     33  C   UNL A   1      42.242  28.818  28.372  1.00  0.00     0.074 A 
ATOM     34  C   UNL A   1      40.038  28.407  29.507  1.00  0.00     0.049 A 
ATOM     35  N   UNL A   1      43.177  29.276  29.132  1.00  0.00    -0.248 NA
ATOM     36  C   UNL A   1      42.475  29.036  26.933  1.00  0.00     0.031 C 
ATOM     37  C   UNL A   1      38.740  27.758  29.729  1.00  0.00     0.029 A 
ATOM     38  N   UNL A   1      39.901  29.580  30.179  1.00  0.00    -0.354 N 
ATOM     39  C   UNL A   1      44.029  29.991  28.297  1.00  0.00     0.074 A 
ATOM     40  C   UNL A   1      43.643  29.679  26.947  1.00  0.00     0.031 C 
ATOM     41  C   UNL A   1      37.883  28.639  30.297  1.00  0.00     0.029 A 
ATOM     42  C   UNL A   1      38.606  29.857  30.612  1.00  0.00     0.049 A 
ATOM     43  H   UNL A   1      40.657  30.188  30.347  1.00  0.00     0.167 HD
ATOM     44  C   UNL A   1      44.843  30.961  28.792  1.00  0.00     0.037 A 
ATOM     45  C   UNL A   1      38.186  31.038  31.135  1.00  0.00     0.037 A 
ATOM     46  C   UNL A   1      45.039  30.800  30.209  1.00  0.00     0.049 A 
ATOM     47  C   UNL A   1      39.401  31.760  31.605  1.00  0.00     0.074 A 
ATOM     48  C   UNL A   1      45.624  29.819  30.986  1.00  0.00     0.029 A 
ATOM     49  N   UNL A   1      44.233  31.517  31.061  1.00  0.00    -0.354 N 
ATOM     50  N   UNL A   1      40.139  31.345  32.597  1.00  0.00    -0.248 NA
ATOM     51  C   UNL A   1      40.065  32.630  30.645  1.00  0.00     0.031 C 
ATOM     52  C   UNL A   1      44.767  29.685  32.118  1.00  0.00     0.029 A 
ATOM     53  C   UNL A   1      43.763  30.649  32.016  1.00  0.00     0.049 A 
ATOM     54  H   UNL A   1      44.028  32.478  30.998  1.00  0.00     0.167 HD
ATOM     55  C   UNL A   1      41.445  31.544  32.173  1.00  0.00     0.074 A 
ATOM     56  C   UNL A   1      41.336  32.377  30.976  1.00  0.00     0.031 C 
ATOM     57  C   UNL A   1      42.470  30.776  32.646  1.00  0.00     0.037 A 
BRANCH  44  58
ATOM     58  C   UNL A   1      45.177  32.227  28.052  1.00  0.00     0.064 A 
ATOM     59  C   UNL A   1      44.162  33.163  27.784  1.00  0.00     0.173 A 
ATOM     60  C   UNL A   1      46.390  32.425  27.356  1.00  0.00     0.173 A 
ATOM     61  F   UNL A   1      42.960  33.053  28.369  1.00  0.00    -0.203 F 
ATOM     62  C   UNL A   1      44.332  34.186  26.846  1.00  0.00     0.198 A 
ATOM     63  C   UNL A   1      46.575  33.476  26.461  1.00  0.00     0.198 A 
ATOM     64  F   UNL A   1      47.403  31.552  27.424  1.00  0.00    -0.203 F 
ATOM     65  F   UNL A   1      43.302  34.984  26.538  1.00  0.00    -0.200 F 
ATOM     66  C   UNL A   1      45.538  34.339  26.183  1.00  0.00     0.200 A 
ATOM     67  F   UNL A   1      47.743  33.592  25.814  1.00  0.00    -0.200 F 
ATOM     68  F   UNL A   1      45.685  35.283  25.245  1.00  0.00    -0.200 F 
ENDBRANCH  44  58
BRANCH  45  69
ATOM     69  C   UNL A   1      36.900  31.739  30.891  1.00  0.00     0.064 A 
ATOM     70  C   UNL A   1      36.012  32.034  31.940  1.00  0.00     0.173 A 
ATOM     71  C   UNL A   1      36.658  32.395  29.667  1.00  0.00     0.173 A 
ATOM     72  F   UNL A   1      36.203  31.496  33.153  1.00  0.00    -0.203 F 
ATOM     73  C   UNL A   1      34.956  32.942  31.778  1.00  0.00     0.198 A 
ATOM     74  C   UNL A   1      35.606  33.300  29.508  1.00  0.00     0.198 A 
ATOM     75  F   UNL A   1      37.497  32.247  28.633  1.00  0.00    -0.203 F 
ATOM     76  F   UNL A   1      34.164  33.239  32.817  1.00  0.00    -0.200 F 
ATOM     77  C   UNL A   1      34.761  33.582  30.566  1.00  0.00     0.200 A 
ATOM     78  F   UNL A   1      35.457  33.946  28.342  1.00  0.00    -0.200 F 
ATOM     79  F   UNL A   1      33.793  34.498  30.428  1.00  0.00    -0.200 F 
ENDBRANCH  45  69
BRANCH  57  80
ATOM     80  C   UNL A   1      42.171  29.837  33.786  1.00  0.00     0.064 A 
ATOM     81  C   UNL A   1      41.716  28.515  33.625  1.00  0.00     0.173 A 
ATOM     82  C   UNL A   1      42.503  30.243  35.085  1.00  0.00     0.173 A 
ATOM     83  F   UNL A   1      41.471  28.014  32.409  1.00  0.00    -0.203 F 
ATOM     84  C   UNL A   1      41.564  27.659  34.717  1.00  0.00     0.198 A 
ATOM     85  C   UNL A   1      42.385  29.377  36.169  1.00  0.00     0.198 A 
ATOM     86  F   UNL A   1      42.995  31.473  35.296  1.00  0.00    -0.203 F 
ATOM     87  F   UNL A   1      41.120  26.405  34.534  1.00  0.00    -0.200 F 
ATOM     88  C   UNL A   1      41.906  28.090  35.987  1.00  0.00     0.200 A 
ATOM     89  F   UNL A   1      42.765  29.782  37.388  1.00  0.00    -0.200 F 
ATOM     90  F   UNL A   1      41.799  27.257  37.033  1.00  0.00    -0.200 F 
ENDBRANCH  57  80
ENDBRANCH  31  32
ENDBRANCH  24  26
ENDBRANCH  23  24
ENDBRANCH  22  23
ENDBRANCH  21  22
ENDBRANCH   1  21
TORSDOF 16
ENDMDL
MODEL 2
REMARK VINA RESULT:     -12.2      2.455      3.483
REMARK SMILES O=C(CSCc1nnnn1-c1ccc([N+](=O)[O-])cc1)OCCOC(=O)c1ccc(-c2c3nc(c(-c4c(F)c(F)c(F)c(F)c4F)c4ccc([nH]4)c(-c4c(F)c(F)c(F)c(F)c4F)c4nc(c(-c5c(F)c(F)c(F)c(F)c5F)c5ccc2[nH]5)C=C4)C=C3)cc1
REMARK SMILES IDX 20 1 2 2 1 3 3 4 4 5 5 6 6 7 7 8 10 9 8 10 9 11 11 12 12 13
REMARK SMILES IDX 19 14 13 15 18 16 14 17 15 18 16 19 17 20 21 21 22 22 23 23
REMARK SMILES IDX 24 24 25 25 26 26 27 27 88 28 28 29 87 30 29 31 30 32 31 33
REMARK SMILES IDX 81 34 32 35 86 36 80 37 82 38 33 39 85 40 79 41 78 42 34 44
REMARK SMILES IDX 66 45 46 46 65 47 47 48 50 49 64 50 83 51 48 52 49 53 63 55
REMARK SMILES IDX 84 56 51 57 35 58 36 59 44 60 37 61 38 62 42 63 45 64 39 65
REMARK SMILES IDX 40 66 43 67 41 68 67 69 68 70 76 71 69 72 70 73 74 74 77 75
REMARK SMILES IDX 71 76 72 77 75 78 73 79 52 80 53 81 61 82 54 83 55 84 59 85
REMARK SMILES IDX 62 86 56 87 57 88 60 89 58 90
REMARK H PARENT 82 43 50 54
REMARK Flexibility Score: inf
ROOT
ATOM      1  O   UNL A   1      37.423  22.798  24.676  1.00  0.00    -0.461 OA
ENDROOT
BRANCH   1   2
ATOM      2  C   UNL A   1      36.477  23.193  23.791  1.00  0.00     0.316 C 
ATOM      3  O   UNL A   1      36.672  23.071  22.583  1.00  0.00    -0.251 OA
BRANCH   2   4
ATOM      4  C   UNL A   1      35.153  23.703  24.310  1.00  0.00     0.192 C 
BRANCH   4   5
ATOM      5  S   UNL A   1      35.247  24.102  26.077  1.00  0.00    -0.142 SA
BRANCH   5   6
ATOM      6  C   UNL A   1      34.437  22.630  26.755  1.00  0.00     0.149 C 
BRANCH   6   7
ATOM      7  C   UNL A   1      32.966  22.763  26.893  1.00  0.00     0.166 A 
ATOM      8  N   UNL A   1      32.326  23.646  27.634  1.00  0.00    -0.113 NA
ATOM      9  N   UNL A   1      32.033  22.121  26.105  1.00  0.00    -0.196 N 
ATOM     10  N   UNL A   1      31.017  23.612  27.233  1.00  0.00    -0.023 NA
ATOM     11  N   UNL A   1      30.846  22.741  26.250  1.00  0.00    -0.040 NA
BRANCH   9  12
ATOM     12  C   UNL A   1      32.194  21.033  25.234  1.00  0.00     0.069 A 
ATOM     13  C   UNL A   1      32.007  21.230  23.863  1.00  0.00     0.035 A 
ATOM     14  C   UNL A   1      32.533  19.773  25.741  1.00  0.00     0.035 A 
ATOM     15  C   UNL A   1      32.247  20.172  22.982  1.00  0.00     0.088 A 
ATOM     16  C   UNL A   1      32.747  18.708  24.867  1.00  0.00     0.088 A 
ATOM     17  C   UNL A   1      32.623  18.917  23.486  1.00  0.00     0.269 A 
BRANCH  17  18
ATOM     18  N   UNL A   1      32.891  17.809  22.560  1.00  0.00     0.062 N 
ATOM     19  O   UNL A   1      33.812  17.031  22.847  1.00  0.00    -0.258 OA
ATOM     20  O   UNL A   1      32.176  17.716  21.553  1.00  0.00    -0.258 OA
ENDBRANCH  17  18
ENDBRANCH   9  12
ENDBRANCH   6   7
ENDBRANCH   5   6
ENDBRANCH   4   5
ENDBRANCH   2   4
ENDBRANCH   1   2
BRANCH   1  21
ATOM     21  C   UNL A   1      37.767  21.430  24.982  1.00  0.00     0.274 C 
BRANCH  21  22
ATOM     22  C   UNL A   1      38.836  21.353  26.061  1.00  0.00     0.275 C 
BRANCH  22  23
ATOM     23  O   UNL A   1      39.273  22.663  26.413  1.00  0.00    -0.458 OA
BRANCH  23  24
ATOM     24  C   UNL A   1      40.298  22.772  27.291  1.00  0.00     0.338 C 
ATOM     25  O   UNL A   1      40.764  21.907  27.993  1.00  0.00    -0.246 OA
BRANCH  24  26
ATOM     26  C   UNL A   1      40.717  24.186  27.285  1.00  0.00     0.060 A 
ATOM     27  C   UNL A   1      41.822  24.549  28.058  1.00  0.00     0.016 A 
ATOM     28  C   UNL A   1      39.887  25.149  26.688  1.00  0.00     0.016 A 
ATOM     29  C   UNL A   1      41.941  25.872  28.438  1.00  0.00     0.010 A 
ATOM     30  C   UNL A   1      40.000  26.457  27.074  1.00  0.00     0.010 A 
ATOM     31  C   UNL A   1      40.954  26.776  28.030  1.00  0.00    -0.014 A 
BRANCH  31  32
ATOM     32  C   UNL A   1      40.925  28.104  28.600  1.00  0.00     0.031 A 
ATOM     33  C   UNL A   1      42.039  28.964  28.143  1.00  0.00     0.074 A 
ATOM     34  C   UNL A   1      39.889  28.513  29.362  1.00  0.00     0.049 A 
ATOM     35  N   UNL A   1      42.982  29.477  28.858  1.00  0.00    -0.248 NA
ATOM     36  C   UNL A   1      42.219  29.145  26.692  1.00  0.00     0.031 C 
ATOM     37  C   UNL A   1      38.623  27.828  29.647  1.00  0.00     0.029 A 
ATOM     38  N   UNL A   1      39.732  29.702  30.003  1.00  0.00    -0.354 N 
ATOM     39  C   UNL A   1      43.781  30.195  27.974  1.00  0.00     0.074 A 
ATOM     40  C   UNL A   1      43.363  29.828  26.648  1.00  0.00     0.031 C 
ATOM     41  C   UNL A   1      37.753  28.696  30.216  1.00  0.00     0.029 A 
ATOM     42  C   UNL A   1      38.443  29.947  30.470  1.00  0.00     0.049 A 
ATOM     43  H   UNL A   1      40.471  30.340  30.128  1.00  0.00     0.167 HD
ATOM     44  C   UNL A   1      44.576  31.207  28.413  1.00  0.00     0.037 A 
ATOM     45  C   UNL A   1      37.999  31.129  30.971  1.00  0.00     0.037 A 
ATOM     46  C   UNL A   1      44.822  31.097  29.827  1.00  0.00     0.049 A 
ATOM     47  C   UNL A   1      39.202  31.907  31.378  1.00  0.00     0.074 A 
ATOM     48  C   UNL A   1      45.466  30.162  30.613  1.00  0.00     0.029 A 
ATOM     49  N   UNL A   1      44.019  31.812  30.682  1.00  0.00    -0.354 N 
ATOM     50  N   UNL A   1      39.986  31.548  32.358  1.00  0.00    -0.248 NA
ATOM     51  C   UNL A   1      39.804  32.768  30.371  1.00  0.00     0.031 C 
ATOM     52  C   UNL A   1      44.652  30.034  31.776  1.00  0.00     0.029 A 
ATOM     53  C   UNL A   1      43.611  30.959  31.678  1.00  0.00     0.049 A 
ATOM     54  H   UNL A   1      43.779  32.763  30.597  1.00  0.00     0.167 HD
ATOM     55  C   UNL A   1      41.270  31.779  31.885  1.00  0.00     0.074 A 
ATOM     56  C   UNL A   1      41.093  32.569  30.667  1.00  0.00     0.031 C 
ATOM     57  C   UNL A   1      42.335  31.061  32.347  1.00  0.00     0.037 A 
BRANCH  44  58
ATOM     58  C   UNL A   1      44.841  32.459  27.624  1.00  0.00     0.064 A 
ATOM     59  C   UNL A   1      46.045  32.585  26.905  1.00  0.00     0.173 A 
ATOM     60  C   UNL A   1      44.090  33.647  27.771  1.00  0.00     0.173 A 
ATOM     61  F   UNL A   1      46.849  31.527  26.730  1.00  0.00    -0.203 F 
ATOM     62  C   UNL A   1      46.487  33.821  26.422  1.00  0.00     0.198 A 
ATOM     63  C   UNL A   1      44.508  34.865  27.243  1.00  0.00     0.198 A 
ATOM     64  F   UNL A   1      42.984  33.703  28.523  1.00  0.00    -0.203 F 
ATOM     65  F   UNL A   1      47.692  33.915  25.844  1.00  0.00    -0.200 F 
ATOM     66  C   UNL A   1      45.720  34.960  26.594  1.00  0.00     0.200 A 
ATOM     67  F   UNL A   1      43.760  35.960  27.440  1.00  0.00    -0.200 F 
ATOM     68  F   UNL A   1      46.168  36.152  26.181  1.00  0.00    -0.200 F 
ENDBRANCH  44  58
BRANCH  45  69
ATOM     69  C   UNL A   1      36.681  31.778  30.749  1.00  0.00     0.064 A 
ATOM     70  C   UNL A   1      35.821  32.081  31.818  1.00  0.00     0.173 A 
ATOM     71  C   UNL A   1      36.375  32.381  29.512  1.00  0.00     0.173 A 
ATOM     72  F   UNL A   1      36.072  31.593  33.041  1.00  0.00    -0.203 F 
ATOM     73  C   UNL A   1      34.729  32.946  31.662  1.00  0.00     0.198 A 
ATOM     74  C   UNL A   1      35.288  33.244  29.359  1.00  0.00     0.198 A 
ATOM     75  F   UNL A   1      37.183  32.224  28.455  1.00  0.00    -0.203 F 
ATOM     76  F   UNL A   1      33.963  33.255  32.718  1.00  0.00    -0.200 F 
ATOM     77  C   UNL A   1      34.471  33.536  30.436  1.00  0.00     0.200 A 
ATOM     78  F   UNL A   1      35.076  33.842  28.178  1.00  0.00    -0.200 F 
ATOM     79  F   UNL A   1      33.467  34.413  30.301  1.00  0.00    -0.200 F 
ENDBRANCH  45  69
BRANCH  57  80
ATOM     80  C   UNL A   1      42.106  30.149  33.524  1.00  0.00     0.064 A 
ATOM     81  C   UNL A   1      41.727  28.798  33.416  1.00  0.00     0.173 A 
ATOM     82  C   UNL A   1      42.431  30.620  34.802  1.00  0.00     0.173 A 
ATOM     83  F   UNL A   1      41.495  28.240  32.223  1.00  0.00    -0.203 F 
ATOM     84  C   UNL A   1      41.638  27.975  34.540  1.00  0.00     0.198 A 
ATOM     85  C   UNL A   1      42.378  29.788  35.918  1.00  0.00     0.198 A 
ATOM     86  F   UNL A   1      42.854  31.883  34.962  1.00  0.00    -0.203 F 
ATOM     87  F   UNL A   1      41.266  26.692  34.409  1.00  0.00    -0.200 F 
ATOM     88  C   UNL A   1      41.972  28.470  35.789  1.00  0.00     0.200 A 
ATOM     89  F   UNL A   1      42.750  30.259  37.116  1.00  0.00    -0.200 F 
ATOM     90  F   UNL A   1      41.927  27.671  36.865  1.00  0.00    -0.200 F 
ENDBRANCH  57  80
ENDBRANCH  31  32
ENDBRANCH  24  26
ENDBRANCH  23  24
ENDBRANCH  22  23
ENDBRANCH  21  22
ENDBRANCH   1  21
TORSDOF 16
ENDMDL
MODEL 3
REMARK VINA RESULT:     -12.1      4.746      7.452
REMARK SMILES O=C(CSCc1nnnn1-c1ccc([N+](=O)[O-])cc1)OCCOC(=O)c1ccc(-c2c3nc(c(-c4c(F)c(F)c(F)c(F)c4F)c4ccc([nH]4)c(-c4c(F)c(F)c(F)c(F)c4F)c4nc(c(-c5c(F)c(F)c(F)c(F)c5F)c5ccc2[nH]5)C=C4)C=C3)cc1
REMARK SMILES IDX 20 1 2 2 1 3 3 4 4 5 5 6 6 7 7 8 10 9 8 10 9 11 11 12 12 13
REMARK SMILES IDX 19 14 13 15 18 16 14 17 15 18 16 19 17 20 21 21 22 22 23 23
REMARK SMILES IDX 24 24 25 25 26 26 27 27 88 28 28 29 87 30 29 31 30 32 31 33
REMARK SMILES IDX 81 34 32 35 86 36 80 37 82 38 33 39 85 40 79 41 78 42 34 44
REMARK SMILES IDX 66 45 46 46 65 47 47 48 50 49 64 50 83 51 48 52 49 53 63 55
REMARK SMILES IDX 84 56 51 57 35 58 36 59 44 60 37 61 38 62 42 63 45 64 39 65
REMARK SMILES IDX 40 66 43 67 41 68 67 69 68 70 76 71 69 72 70 73 74 74 77 75
REMARK SMILES IDX 71 76 72 77 75 78 73 79 52 80 53 81 61 82 54 83 55 84 59 85
REMARK SMILES IDX 62 86 56 87 57 88 60 89 58 90
REMARK H PARENT 82 43 50 54
REMARK Flexibility Score: inf
ROOT
ATOM      1  O   UNL A   1      43.134  19.922  25.080  1.00  0.00    -0.461 OA
ENDROOT
BRANCH   1   2
ATOM      2  C   UNL A   1      44.380  19.391  25.101  1.00  0.00     0.316 C 
ATOM      3  O   UNL A   1      44.533  18.172  25.048  1.00  0.00    -0.251 OA
BRANCH   2   4
ATOM      4  C   UNL A   1      45.573  20.318  25.106  1.00  0.00     0.192 C 
BRANCH   4   5
ATOM      5  S   UNL A   1      45.194  21.884  24.273  1.00  0.00    -0.142 SA
BRANCH   5   6
ATOM      6  C   UNL A   1      45.628  23.037  25.602  1.00  0.00     0.149 C 
BRANCH   6   7
ATOM      7  C   UNL A   1      46.510  24.149  25.169  1.00  0.00     0.166 A 
ATOM      8  N   UNL A   1      47.106  24.265  23.999  1.00  0.00    -0.113 NA
ATOM      9  N   UNL A   1      46.677  25.340  25.846  1.00  0.00    -0.196 N 
ATOM     10  N   UNL A   1      47.555  25.556  23.920  1.00  0.00    -0.023 NA
ATOM     11  N   UNL A   1      47.230  26.238  25.009  1.00  0.00    -0.040 NA
BRANCH   9  12
ATOM     12  C   UNL A   1      46.326  25.679  27.162  1.00  0.00     0.069 A 
ATOM     13  C   UNL A   1      45.609  26.856  27.390  1.00  0.00     0.035 A 
ATOM     14  C   UNL A   1      46.697  24.844  28.223  1.00  0.00     0.035 A 
ATOM     15  C   UNL A   1      45.185  27.157  28.687  1.00  0.00     0.088 A 
ATOM     16  C   UNL A   1      46.297  25.155  29.522  1.00  0.00     0.088 A 
ATOM     17  C   UNL A   1      45.524  26.303  29.747  1.00  0.00     0.269 A 
BRANCH  17  18
ATOM     18  N   UNL A   1      45.065  26.609  31.107  1.00  0.00     0.062 N 
ATOM     19  O   UNL A   1      45.927  26.808  31.974  1.00  0.00    -0.258 OA
ATOM     20  O   UNL A   1      43.842  26.658  31.304  1.00  0.00    -0.258 OA
ENDBRANCH  17  18
ENDBRANCH   9  12
ENDBRANCH   6   7
ENDBRANCH   5   6
ENDBRANCH   4   5
ENDBRANCH   2   4
ENDBRANCH   1   2
BRANCH   1  21
ATOM     21  C   UNL A   1      42.375  20.329  26.238  1.00  0.00     0.274 C 
BRANCH  21  22
ATOM     22  C   UNL A   1      41.889  21.764  26.109  1.00  0.00     0.275 C 
BRANCH  22  23
ATOM     23  O   UNL A   1      41.057  22.101  27.216  1.00  0.00    -0.458 OA
BRANCH  23  24
ATOM     24  C   UNL A   1      40.060  22.994  27.008  1.00  0.00     0.338 C 
ATOM     25  O   UNL A   1      38.917  22.764  26.693  1.00  0.00    -0.246 OA
BRANCH  24  26
ATOM     26  C   UNL A   1      40.647  24.337  27.179  1.00  0.00     0.060 A 
ATOM     27  C   UNL A   1      41.461  24.564  28.289  1.00  0.00     0.016 A 
ATOM     28  C   UNL A   1      40.209  25.389  26.358  1.00  0.00     0.016 A 
ATOM     29  C   UNL A   1      41.624  25.867  28.719  1.00  0.00     0.010 A 
ATOM     30  C   UNL A   1      40.361  26.679  26.791  1.00  0.00     0.010 A 
ATOM     31  C   UNL A   1      40.969  26.888  28.022  1.00  0.00    -0.014 A 
BRANCH  31  32
ATOM     32  C   UNL A   1      40.930  28.221  28.579  1.00  0.00     0.031 A 
ATOM     33  C   UNL A   1      42.044  29.081  28.121  1.00  0.00     0.074 A 
ATOM     34  C   UNL A   1      39.887  28.632  29.331  1.00  0.00     0.049 A 
ATOM     35  N   UNL A   1      42.980  29.605  28.838  1.00  0.00    -0.248 NA
ATOM     36  C   UNL A   1      42.232  29.250  26.669  1.00  0.00     0.031 C 
ATOM     37  C   UNL A   1      38.622  27.943  29.614  1.00  0.00     0.029 A 
ATOM     38  N   UNL A   1      39.721  29.826  29.959  1.00  0.00    -0.354 N 
ATOM     39  C   UNL A   1      43.780  30.318  27.952  1.00  0.00     0.074 A 
ATOM     40  C   UNL A   1      43.373  29.937  26.627  1.00  0.00     0.031 C 
ATOM     41  C   UNL A   1      37.745  28.813  30.169  1.00  0.00     0.029 A 
ATOM     42  C   UNL A   1      38.428  30.070  30.416  1.00  0.00     0.049 A 
ATOM     43  H   UNL A   1      40.457  30.468  30.083  1.00  0.00     0.167 HD
ATOM     44  C   UNL A   1      44.568  31.338  28.386  1.00  0.00     0.037 A 
ATOM     45  C   UNL A   1      37.975  31.254  30.903  1.00  0.00     0.037 A 
ATOM     46  C   UNL A   1      44.806  31.242  29.803  1.00  0.00     0.049 A 
ATOM     47  C   UNL A   1      39.172  32.041  31.311  1.00  0.00     0.074 A 
ATOM     48  C   UNL A   1      45.449  30.317  30.602  1.00  0.00     0.029 A 
ATOM     49  N   UNL A   1      43.995  31.961  30.647  1.00  0.00    -0.354 N 
ATOM     50  N   UNL A   1      39.951  31.695  32.298  1.00  0.00    -0.248 NA
ATOM     51  C   UNL A   1      39.777  32.896  30.300  1.00  0.00     0.031 C 
ATOM     52  C   UNL A   1      44.628  30.196  31.761  1.00  0.00     0.029 A 
ATOM     53  C   UNL A   1      43.584  31.115  31.648  1.00  0.00     0.049 A 
ATOM     54  H   UNL A   1      43.751  32.910  30.551  1.00  0.00     0.167 HD
ATOM     55  C   UNL A   1      41.237  31.927  31.832  1.00  0.00     0.074 A 
ATOM     56  C   UNL A   1      41.065  32.705  30.606  1.00  0.00     0.031 C 
ATOM     57  C   UNL A   1      42.303  31.218  32.308  1.00  0.00     0.037 A 
BRANCH  44  58
ATOM     58  C   UNL A   1      44.833  32.584  27.588  1.00  0.00     0.064 A 
ATOM     59  C   UNL A   1      46.046  32.714  26.885  1.00  0.00     0.173 A 
ATOM     60  C   UNL A   1      44.069  33.766  27.711  1.00  0.00     0.173 A 
ATOM     61  F   UNL A   1      46.863  31.661  26.733  1.00  0.00    -0.203 F 
ATOM     62  C   UNL A   1      46.484  33.948  26.395  1.00  0.00     0.198 A 
ATOM     63  C   UNL A   1      44.483  34.982  27.176  1.00  0.00     0.198 A 
ATOM     64  F   UNL A   1      42.952  33.820  28.447  1.00  0.00    -0.203 F 
ATOM     65  F   UNL A   1      47.695  34.047  25.833  1.00  0.00    -0.200 F 
ATOM     66  C   UNL A   1      45.703  35.081  26.543  1.00  0.00     0.200 A 
ATOM     67  F   UNL A   1      43.722  36.072  27.350  1.00  0.00    -0.200 F 
ATOM     68  F   UNL A   1      46.146  36.273  26.123  1.00  0.00    -0.200 F 
ENDBRANCH  44  58
BRANCH  45  69
ATOM     69  C   UNL A   1      36.656  31.895  30.666  1.00  0.00     0.064 A 
ATOM     70  C   UNL A   1      35.785  32.198  31.726  1.00  0.00     0.173 A 
ATOM     71  C   UNL A   1      36.358  32.491  29.425  1.00  0.00     0.173 A 
ATOM     72  F   UNL A   1      36.027  31.716  32.954  1.00  0.00    -0.203 F 
ATOM     73  C   UNL A   1      34.690  33.057  31.557  1.00  0.00     0.198 A 
ATOM     74  C   UNL A   1      35.268  33.348  29.258  1.00  0.00     0.198 A 
ATOM     75  F   UNL A   1      37.176  32.334  28.375  1.00  0.00    -0.203 F 
ATOM     76  F   UNL A   1      33.913  33.365  32.604  1.00  0.00    -0.200 F 
ATOM     77  C   UNL A   1      34.440  33.640  30.326  1.00  0.00     0.200 A 
ATOM     78  F   UNL A   1      35.064  33.940  28.073  1.00  0.00    -0.200 F 
ATOM     79  F   UNL A   1      33.433  34.511  30.179  1.00  0.00    -0.200 F 
ENDBRANCH  45  69
BRANCH  57  80
ATOM     80  C   UNL A   1      42.070  30.315  33.491  1.00  0.00     0.064 A 
ATOM     81  C   UNL A   1      41.662  28.972  33.394  1.00  0.00     0.173 A 
ATOM     82  C   UNL A   1      42.421  30.785  34.763  1.00  0.00     0.173 A 
ATOM     83  F   UNL A   1      41.404  28.414  32.206  1.00  0.00    -0.203 F 
ATOM     84  C   UNL A   1      41.571  28.156  34.523  1.00  0.00     0.198 A 
ATOM     85  C   UNL A   1      42.365  29.959  35.883  1.00  0.00     0.198 A 
ATOM     86  F   UNL A   1      42.872  32.040  34.912  1.00  0.00    -0.203 F 
ATOM     87  F   UNL A   1      41.170  26.880  34.402  1.00  0.00    -0.200 F 
ATOM     88  C   UNL A   1      41.930  28.649  35.766  1.00  0.00     0.200 A 
ATOM     89  F   UNL A   1      42.762  30.427  37.074  1.00  0.00    -0.200 F 
ATOM     90  F   UNL A   1      41.883  27.856  36.846  1.00  0.00    -0.200 F 
ENDBRANCH  57  80
ENDBRANCH  31  32
ENDBRANCH  24  26
ENDBRANCH  23  24
ENDBRANCH  22  23
ENDBRANCH  21  22
ENDBRANCH   1  21
TORSDOF 16
ENDMDL
