MODEL 1
REMARK VINA RESULT:     -12.0      0.000      0.000
REMARK SMILES C[C@@H](C(=O)OCCOC(=O)c1ccc(-c2c3nc(c(-c4c(F)c(F)c(F)c(F)c4F)c4ccc([nH]4)c(-c4c(F)c(F)c(F)c(F)c4F)c4nc(c(-c5c(F)c(F)c(F)c(F)c5F)c5ccc2[nH]5)C=C4)C=C3)cc1)c1ccc(C[C@H]2CCC[C@@H]2O)cc1Br
REMARK SMILES IDX 6 1 5 2 3 3 4 4 2 5 1 6 74 7 75 8 86 9 76 10 85 11 87 12
REMARK SMILES IDX 77 13 78 14 79 15 80 16 83 17 81 18 82 19 84 20 7 22 8 23
REMARK SMILES IDX 9 24 10 25 11 26 12 27 73 28 13 29 72 30 14 31 15 32 16 33
REMARK SMILES IDX 66 34 17 35 71 36 65 37 67 38 18 39 70 40 64 41 63 42 19 44
REMARK SMILES IDX 51 45 31 46 50 47 32 48 35 49 49 50 68 51 33 52 34 53 48 55
REMARK SMILES IDX 69 56 36 57 20 58 21 59 29 60 22 61 23 62 27 63 30 64 24 65
REMARK SMILES IDX 25 66 28 67 26 68 52 69 53 70 61 71 54 72 55 73 59 74 62 75
REMARK SMILES IDX 56 76 57 77 60 78 58 79 37 80 38 81 46 82 39 83 40 84 44 85
REMARK SMILES IDX 47 86 41 87 42 88 45 89 43 90
REMARK H PARENT 84 21 67 43 35 54
REMARK Flexibility Score: inf
ROOT
ATOM      1  C   UNL A   1      31.727  30.280  25.610  1.00  0.00     0.274 C 
ENDROOT
BRANCH   1   2
ATOM      2  O   UNL A   1      32.108  29.082  26.320  1.00  0.00    -0.462 OA
BRANCH   2   3
ATOM      3  C   UNL A   1      33.162  28.376  25.813  1.00  0.00     0.313 C 
ATOM      4  O   UNL A   1      34.320  28.747  25.948  1.00  0.00    -0.252 OA
BRANCH   3   5
ATOM      5  C   UNL A   1      32.695  27.132  25.013  1.00  0.00     0.127 C 
ATOM      6  C   UNL A   1      33.877  26.656  24.138  1.00  0.00     0.025 C 
BRANCH   5   7
ATOM      7  C   UNL A   1      31.406  27.366  24.191  1.00  0.00    -0.020 A 
ATOM      8  C   UNL A   1      31.439  28.158  23.027  1.00  0.00     0.006 A 
ATOM      9  C   UNL A   1      30.143  26.847  24.532  1.00  0.00     0.022 A 
ATOM     10  C   UNL A   1      30.279  28.582  22.376  1.00  0.00     0.004 A 
ATOM     11  C   UNL A   1      28.969  27.342  23.927  1.00  0.00     0.019 A 
ATOM     12  Br  UNL A   1      29.909  25.402  25.751  1.00  0.00    -0.050 Br
ATOM     13  C   UNL A   1      29.025  28.293  22.897  1.00  0.00    -0.047 A 
BRANCH  13  14
ATOM     14  C   UNL A   1      27.765  28.954  22.378  1.00  0.00     0.041 C 
BRANCH  14  15
ATOM     15  C   UNL A   1      27.658  30.502  22.418  1.00  0.00     0.022 C 
ATOM     16  C   UNL A   1      28.314  31.227  23.599  1.00  0.00     0.007 C 
ATOM     17  C   UNL A   1      28.189  31.258  21.199  1.00  0.00     0.117 C 
ATOM     18  C   UNL A   1      28.693  32.624  23.111  1.00  0.00     0.003 C 
ATOM     19  C   UNL A   1      28.205  32.707  21.675  1.00  0.00     0.032 C 
BRANCH  17  20
ATOM     20  O   UNL A   1      27.356  31.090  20.068  1.00  0.00    -0.393 OA
ATOM     21  H   UNL A   1      27.905  30.964  19.278  1.00  0.00     0.210 HD
ENDBRANCH  17  20
ENDBRANCH  14  15
ENDBRANCH  13  14
ENDBRANCH   5   7
ENDBRANCH   3   5
ENDBRANCH   2   3
ENDBRANCH   1   2
BRANCH   1  22
ATOM     22  C   UNL A   1      31.687  31.523  26.509  1.00  0.00     0.275 C 
BRANCH  22  23
ATOM     23  O   UNL A   1      32.692  31.465  27.542  1.00  0.00    -0.458 OA
BRANCH  23  24
ATOM     24  C   UNL A   1      33.464  32.565  27.670  1.00  0.00     0.338 C 
ATOM     25  O   UNL A   1      33.102  33.735  27.613  1.00  0.00    -0.246 OA
BRANCH  24  26
ATOM     26  C   UNL A   1      34.820  32.178  28.091  1.00  0.00     0.060 A 
ATOM     27  C   UNL A   1      34.976  30.870  28.533  1.00  0.00     0.016 A 
ATOM     28  C   UNL A   1      35.904  33.060  28.133  1.00  0.00     0.016 A 
ATOM     29  C   UNL A   1      36.206  30.431  28.999  1.00  0.00     0.010 A 
ATOM     30  C   UNL A   1      37.141  32.620  28.648  1.00  0.00     0.010 A 
ATOM     31  C   UNL A   1      37.295  31.303  29.109  1.00  0.00    -0.014 A 
BRANCH  31  32
ATOM     32  C   UNL A   1      38.504  30.794  29.821  1.00  0.00     0.031 A 
ATOM     33  C   UNL A   1      38.780  31.218  31.242  1.00  0.00     0.074 A 
ATOM     34  C   UNL A   1      39.217  29.773  29.302  1.00  0.00     0.049 A 
ATOM     35  N   UNL A   1      39.658  30.739  32.093  1.00  0.00    -0.248 NA
ATOM     36  C   UNL A   1      37.915  32.267  31.805  1.00  0.00     0.031 C 
ATOM     37  C   UNL A   1      38.971  29.150  28.001  1.00  0.00     0.029 A 
ATOM     38  N   UNL A   1      40.262  29.050  29.825  1.00  0.00    -0.354 N 
ATOM     39  C   UNL A   1      39.413  31.386  33.297  1.00  0.00     0.074 A 
ATOM     40  C   UNL A   1      38.337  32.325  33.061  1.00  0.00     0.031 C 
ATOM     41  C   UNL A   1      39.828  28.130  27.836  1.00  0.00     0.029 A 
ATOM     42  C   UNL A   1      40.723  28.063  28.989  1.00  0.00     0.049 A 
ATOM     43  H   UNL A   1      40.644  29.223  30.717  1.00  0.00     0.167 HD
ATOM     44  C   UNL A   1      40.011  31.203  34.498  1.00  0.00     0.037 A 
ATOM     45  C   UNL A   1      41.771  27.225  29.116  1.00  0.00     0.037 A 
ATOM     46  C   UNL A   1      41.123  30.325  34.743  1.00  0.00     0.049 A 
ATOM     47  C   UNL A   1      42.615  27.271  30.362  1.00  0.00     0.074 A 
ATOM     48  C   UNL A   1      41.827  30.130  35.920  1.00  0.00     0.029 A 
ATOM     49  N   UNL A   1      41.718  29.519  33.786  1.00  0.00    -0.354 N 
ATOM     50  N   UNL A   1      42.388  27.895  31.492  1.00  0.00    -0.248 NA
ATOM     51  C   UNL A   1      43.875  26.513  30.341  1.00  0.00     0.031 C 
ATOM     52  C   UNL A   1      42.889  29.257  35.657  1.00  0.00     0.029 A 
ATOM     53  C   UNL A   1      42.819  28.874  34.328  1.00  0.00     0.049 A 
ATOM     54  H   UNL A   1      41.405  29.420  32.858  1.00  0.00     0.167 HD
ATOM     55  C   UNL A   1      43.463  27.591  32.318  1.00  0.00     0.074 A 
ATOM     56  C   UNL A   1      44.334  26.714  31.569  1.00  0.00     0.031 C 
ATOM     57  C   UNL A   1      43.698  28.008  33.586  1.00  0.00     0.037 A 
BRANCH  44  58
ATOM     58  C   UNL A   1      39.491  32.005  35.651  1.00  0.00     0.064 A 
ATOM     59  C   UNL A   1      38.504  31.492  36.505  1.00  0.00     0.173 A 
ATOM     60  C   UNL A   1      40.015  33.274  35.929  1.00  0.00     0.173 A 
ATOM     61  F   UNL A   1      37.969  30.285  36.272  1.00  0.00    -0.203 F 
ATOM     62  C   UNL A   1      38.050  32.232  37.595  1.00  0.00     0.198 A 
ATOM     63  C   UNL A   1      39.569  34.005  37.027  1.00  0.00     0.198 A 
ATOM     64  F   UNL A   1      40.963  33.801  35.140  1.00  0.00    -0.203 F 
ATOM     65  F   UNL A   1      37.091  31.736  38.387  1.00  0.00    -0.200 F 
ATOM     66  C   UNL A   1      38.587  33.484  37.857  1.00  0.00     0.200 A 
ATOM     67  F   UNL A   1      40.091  35.213  37.282  1.00  0.00    -0.200 F 
ATOM     68  F   UNL A   1      38.152  34.194  38.907  1.00  0.00    -0.200 F 
ENDBRANCH  44  58
BRANCH  45  69
ATOM     69  C   UNL A   1      42.143  26.319  27.996  1.00  0.00     0.064 A 
ATOM     70  C   UNL A   1      43.083  26.697  27.028  1.00  0.00     0.173 A 
ATOM     71  C   UNL A   1      41.514  25.072  27.841  1.00  0.00     0.173 A 
ATOM     72  F   UNL A   1      43.682  27.894  27.107  1.00  0.00    -0.203 F 
ATOM     73  C   UNL A   1      43.371  25.867  25.944  1.00  0.00     0.198 A 
ATOM     74  C   UNL A   1      41.825  24.232  26.777  1.00  0.00     0.198 A 
ATOM     75  F   UNL A   1      40.588  24.674  28.726  1.00  0.00    -0.203 F 
ATOM     76  F   UNL A   1      44.233  26.275  25.002  1.00  0.00    -0.200 F 
ATOM     77  C   UNL A   1      42.747  24.634  25.824  1.00  0.00     0.200 A 
ATOM     78  F   UNL A   1      41.222  23.042  26.668  1.00  0.00    -0.200 F 
ATOM     79  F   UNL A   1      43.021  23.840  24.780  1.00  0.00    -0.200 F 
ENDBRANCH  45  69
BRANCH  57  80
ATOM     80  C   UNL A   1      44.950  27.522  34.258  1.00  0.00     0.064 A 
ATOM     81  C   UNL A   1      44.979  26.304  34.953  1.00  0.00     0.173 A 
ATOM     82  C   UNL A   1      46.142  28.256  34.172  1.00  0.00     0.173 A 
ATOM     83  F   UNL A   1      43.863  25.572  35.079  1.00  0.00    -0.203 F 
ATOM     84  C   UNL A   1      46.152  25.849  35.553  1.00  0.00     0.198 A 
ATOM     85  C   UNL A   1      47.319  27.785  34.748  1.00  0.00     0.198 A 
ATOM     86  F   UNL A   1      46.171  29.426  33.516  1.00  0.00    -0.203 F 
ATOM     87  F   UNL A   1      46.146  24.701  36.246  1.00  0.00    -0.200 F 
ATOM     88  C   UNL A   1      47.322  26.584  35.442  1.00  0.00     0.200 A 
ATOM     89  F   UNL A   1      48.453  28.491  34.629  1.00  0.00    -0.200 F 
ATOM     90  F   UNL A   1      48.451  26.140  36.011  1.00  0.00    -0.200 F 
ENDBRANCH  57  80
ENDBRANCH  31  32
ENDBRANCH  24  26
ENDBRANCH  23  24
ENDBRANCH  22  23
ENDBRANCH   1  22
TORSDOF 15
ENDMDL
MODEL 2
REMARK VINA RESULT:     -12.0      1.667      4.020
REMARK SMILES C[C@@H](C(=O)OCCOC(=O)c1ccc(-c2c3nc(c(-c4c(F)c(F)c(F)c(F)c4F)c4ccc([nH]4)c(-c4c(F)c(F)c(F)c(F)c4F)c4nc(c(-c5c(F)c(F)c(F)c(F)c5F)c5ccc2[nH]5)C=C4)C=C3)cc1)c1ccc(C[C@H]2CCC[C@@H]2O)cc1Br
REMARK SMILES IDX 6 1 5 2 3 3 4 4 2 5 1 6 74 7 75 8 86 9 76 10 85 11 87 12
REMARK SMILES IDX 77 13 78 14 79 15 80 16 83 17 81 18 82 19 84 20 7 22 8 23
REMARK SMILES IDX 9 24 10 25 11 26 12 27 73 28 13 29 72 30 14 31 15 32 16 33
REMARK SMILES IDX 66 34 17 35 71 36 65 37 67 38 18 39 70 40 64 41 63 42 19 44
REMARK SMILES IDX 51 45 31 46 50 47 32 48 35 49 49 50 68 51 33 52 34 53 48 55
REMARK SMILES IDX 69 56 36 57 20 58 21 59 29 60 22 61 23 62 27 63 30 64 24 65
REMARK SMILES IDX 25 66 28 67 26 68 52 69 53 70 61 71 54 72 55 73 59 74 62 75
REMARK SMILES IDX 56 76 57 77 60 78 58 79 37 80 38 81 46 82 39 83 40 84 44 85
REMARK SMILES IDX 47 86 41 87 42 88 45 89 43 90
REMARK H PARENT 84 21 67 43 35 54
REMARK Flexibility Score: inf
ROOT
ATOM      1  C   UNL A   1      30.989  31.394  25.728  1.00  0.00     0.274 C 
ENDROOT
BRANCH   1   2
ATOM      2  O   UNL A   1      31.930  30.310  25.563  1.00  0.00    -0.462 OA
BRANCH   2   3
ATOM      3  C   UNL A   1      31.409  29.084  25.260  1.00  0.00     0.313 C 
ATOM      4  O   UNL A   1      30.650  28.913  24.316  1.00  0.00    -0.252 OA
BRANCH   3   5
ATOM      5  C   UNL A   1      31.839  28.003  26.286  1.00  0.00     0.127 C 
ATOM      6  C   UNL A   1      32.821  28.658  27.285  1.00  0.00     0.025 C 
BRANCH   5   7
ATOM      7  C   UNL A   1      32.418  26.723  25.640  1.00  0.00    -0.020 A 
ATOM      8  C   UNL A   1      33.811  26.536  25.558  1.00  0.00     0.006 A 
ATOM      9  C   UNL A   1      31.637  25.692  25.084  1.00  0.00     0.022 A 
ATOM     10  C   UNL A   1      34.387  25.517  24.796  1.00  0.00     0.004 A 
ATOM     11  C   UNL A   1      32.216  24.715  24.247  1.00  0.00     0.019 A 
ATOM     12  Br  UNL A   1      29.785  25.472  25.469  1.00  0.00    -0.050 Br
ATOM     13  C   UNL A   1      33.600  24.677  24.021  1.00  0.00    -0.047 A 
BRANCH  13  14
ATOM     14  C   UNL A   1      34.193  23.747  22.983  1.00  0.00     0.041 C 
BRANCH  14  15
ATOM     15  C   UNL A   1      35.114  22.589  23.451  1.00  0.00     0.022 C 
ATOM     16  C   UNL A   1      36.618  22.874  23.547  1.00  0.00     0.007 C 
ATOM     17  C   UNL A   1      34.787  21.957  24.804  1.00  0.00     0.117 C 
ATOM     18  C   UNL A   1      37.183  21.941  24.615  1.00  0.00     0.003 C 
ATOM     19  C   UNL A   1      36.013  21.093  25.085  1.00  0.00     0.032 C 
BRANCH  17  20
ATOM     20  O   UNL A   1      33.604  21.181  24.755  1.00  0.00    -0.393 OA
ATOM     21  H   UNL A   1      33.835  20.247  24.633  1.00  0.00     0.210 HD
ENDBRANCH  17  20
ENDBRANCH  14  15
ENDBRANCH  13  14
ENDBRANCH   5   7
ENDBRANCH   3   5
ENDBRANCH   2   3
ENDBRANCH   1   2
BRANCH   1  22
ATOM     22  C   UNL A   1      31.458  32.444  26.742  1.00  0.00     0.275 C 
BRANCH  22  23
ATOM     23  O   UNL A   1      32.739  32.103  27.309  1.00  0.00    -0.458 OA
BRANCH  23  24
ATOM     24  C   UNL A   1      33.458  33.136  27.799  1.00  0.00     0.338 C 
ATOM     25  O   UNL A   1      33.054  34.267  28.048  1.00  0.00    -0.246 OA
BRANCH  24  26
ATOM     26  C   UNL A   1      34.798  32.672  28.192  1.00  0.00     0.060 A 
ATOM     27  C   UNL A   1      34.881  31.370  28.670  1.00  0.00     0.016 A 
ATOM     28  C   UNL A   1      35.938  33.481  28.174  1.00  0.00     0.016 A 
ATOM     29  C   UNL A   1      36.094  30.864  29.113  1.00  0.00     0.010 A 
ATOM     30  C   UNL A   1      37.159  32.974  28.666  1.00  0.00     0.010 A 
ATOM     31  C   UNL A   1      37.240  31.664  29.164  1.00  0.00    -0.014 A 
BRANCH  31  32
ATOM     32  C   UNL A   1      38.435  31.097  29.856  1.00  0.00     0.031 A 
ATOM     33  C   UNL A   1      38.723  31.461  31.291  1.00  0.00     0.074 A 
ATOM     34  C   UNL A   1      39.119  30.076  29.299  1.00  0.00     0.049 A 
ATOM     35  N   UNL A   1      39.587  30.928  32.123  1.00  0.00    -0.248 NA
ATOM     36  C   UNL A   1      37.887  32.512  31.892  1.00  0.00     0.031 C 
ATOM     37  C   UNL A   1      38.857  29.508  27.976  1.00  0.00     0.029 A 
ATOM     38  N   UNL A   1      40.144  29.306  29.795  1.00  0.00    -0.354 N 
ATOM     39  C   UNL A   1      39.360  31.537  33.349  1.00  0.00     0.074 A 
ATOM     40  C   UNL A   1      38.311  32.514  33.149  1.00  0.00     0.031 C 
ATOM     41  C   UNL A   1      39.685  28.471  27.774  1.00  0.00     0.029 A 
ATOM     42  C   UNL A   1      40.578  28.338  28.923  1.00  0.00     0.049 A 
ATOM     43  H   UNL A   1      40.531  29.437  30.692  1.00  0.00     0.167 HD
ATOM     44  C   UNL A   1      39.953  31.295  34.542  1.00  0.00     0.037 A 
ATOM     45  C   UNL A   1      41.603  27.467  29.018  1.00  0.00     0.037 A 
ATOM     46  C   UNL A   1      41.041  30.378  34.754  1.00  0.00     0.049 A 
ATOM     47  C   UNL A   1      42.448  27.445  30.264  1.00  0.00     0.074 A 
ATOM     48  C   UNL A   1      41.739  30.121  35.923  1.00  0.00     0.029 A 
ATOM     49  N   UNL A   1      41.613  29.592  33.768  1.00  0.00    -0.354 N 
ATOM     50  N   UNL A   1      42.238  28.033  31.416  1.00  0.00    -0.248 NA
ATOM     51  C   UNL A   1      43.687  26.654  30.214  1.00  0.00     0.031 C 
ATOM     52  C   UNL A   1      42.777  29.230  35.627  1.00  0.00     0.029 A 
ATOM     53  C   UNL A   1      42.696  28.897  34.285  1.00  0.00     0.049 A 
ATOM     54  H   UNL A   1      41.298  29.535  32.838  1.00  0.00     0.167 HD
ATOM     55  C   UNL A   1      43.304  27.671  32.230  1.00  0.00     0.074 A 
ATOM     56  C   UNL A   1      44.151  26.797  31.448  1.00  0.00     0.031 C 
ATOM     57  C   UNL A   1      43.551  28.035  33.512  1.00  0.00     0.037 A 
BRANCH  44  58
ATOM     58  C   UNL A   1      39.456  32.068  35.724  1.00  0.00     0.064 A 
ATOM     59  C   UNL A   1      38.475  31.540  36.577  1.00  0.00     0.173 A 
ATOM     60  C   UNL A   1      39.994  33.325  36.031  1.00  0.00     0.173 A 
ATOM     61  F   UNL A   1      37.927  30.344  36.317  1.00  0.00    -0.203 F 
ATOM     62  C   UNL A   1      38.043  32.253  37.693  1.00  0.00     0.198 A 
ATOM     63  C   UNL A   1      39.570  34.028  37.154  1.00  0.00     0.198 A 
ATOM     64  F   UNL A   1      40.936  33.865  35.244  1.00  0.00    -0.203 F 
ATOM     65  F   UNL A   1      37.090  31.743  38.484  1.00  0.00    -0.200 F 
ATOM     66  C   UNL A   1      38.593  33.492  37.983  1.00  0.00     0.200 A 
ATOM     67  F   UNL A   1      40.105  35.224  37.436  1.00  0.00    -0.200 F 
ATOM     68  F   UNL A   1      38.179  34.176  39.058  1.00  0.00    -0.200 F 
ENDBRANCH  44  58
BRANCH  45  69
ATOM     69  C   UNL A   1      41.950  26.592  27.866  1.00  0.00     0.064 A 
ATOM     70  C   UNL A   1      41.389  25.317  27.718  1.00  0.00     0.173 A 
ATOM     71  C   UNL A   1      42.902  27.000  26.917  1.00  0.00     0.173 A 
ATOM     72  F   UNL A   1      40.506  24.864  28.620  1.00  0.00    -0.203 F 
ATOM     73  C   UNL A   1      41.776  24.479  26.672  1.00  0.00     0.198 A 
ATOM     74  C   UNL A   1      43.263  26.175  25.855  1.00  0.00     0.198 A 
ATOM     75  F   UNL A   1      43.488  28.201  27.026  1.00  0.00    -0.203 F 
ATOM     76  F   UNL A   1      41.266  23.243  26.583  1.00  0.00    -0.200 F 
ATOM     77  C   UNL A   1      42.706  24.912  25.739  1.00  0.00     0.200 A 
ATOM     78  F   UNL A   1      44.160  26.600  24.956  1.00  0.00    -0.200 F 
ATOM     79  F   UNL A   1      43.080  24.105  24.736  1.00  0.00    -0.200 F 
ENDBRANCH  45  69
BRANCH  57  80
ATOM     80  C   UNL A   1      44.789  27.490  34.164  1.00  0.00     0.064 A 
ATOM     81  C   UNL A   1      45.982  28.228  34.196  1.00  0.00     0.173 A 
ATOM     82  C   UNL A   1      44.775  26.240  34.799  1.00  0.00     0.173 A 
ATOM     83  F   UNL A   1      46.053  29.422  33.589  1.00  0.00    -0.203 F 
ATOM     84  C   UNL A   1      47.119  27.725  34.825  1.00  0.00     0.198 A 
ATOM     85  C   UNL A   1      45.905  25.753  35.452  1.00  0.00     0.198 A 
ATOM     86  F   UNL A   1      43.660  25.494  34.802  1.00  0.00    -0.203 F 
ATOM     87  F   UNL A   1      48.259  28.431  34.808  1.00  0.00    -0.200 F 
ATOM     88  C   UNL A   1      47.078  26.494  35.460  1.00  0.00     0.200 A 
ATOM     89  F   UNL A   1      45.859  24.567  36.076  1.00  0.00    -0.200 F 
ATOM     90  F   UNL A   1      48.169  26.016  36.072  1.00  0.00    -0.200 F 
ENDBRANCH  57  80
ENDBRANCH  31  32
ENDBRANCH  24  26
ENDBRANCH  23  24
ENDBRANCH  22  23
ENDBRANCH   1  22
TORSDOF 15
ENDMDL
MODEL 3
REMARK VINA RESULT:     -11.9      0.872      7.476
REMARK SMILES C[C@@H](C(=O)OCCOC(=O)c1ccc(-c2c3nc(c(-c4c(F)c(F)c(F)c(F)c4F)c4ccc([nH]4)c(-c4c(F)c(F)c(F)c(F)c4F)c4nc(c(-c5c(F)c(F)c(F)c(F)c5F)c5ccc2[nH]5)C=C4)C=C3)cc1)c1ccc(C[C@H]2CCC[C@@H]2O)cc1Br
REMARK SMILES IDX 6 1 5 2 3 3 4 4 2 5 1 6 74 7 75 8 86 9 76 10 85 11 87 12
REMARK SMILES IDX 77 13 78 14 79 15 80 16 83 17 81 18 82 19 84 20 7 22 8 23
REMARK SMILES IDX 9 24 10 25 11 26 12 27 73 28 13 29 72 30 14 31 15 32 16 33
REMARK SMILES IDX 66 34 17 35 71 36 65 37 67 38 18 39 70 40 64 41 63 42 19 44
REMARK SMILES IDX 51 45 31 46 50 47 32 48 35 49 49 50 68 51 33 52 34 53 48 55
REMARK SMILES IDX 69 56 36 57 20 58 21 59 29 60 22 61 23 62 27 63 30 64 24 65
REMARK SMILES IDX 25 66 28 67 26 68 52 69 53 70 61 71 54 72 55 73 59 74 62 75
REMARK SMILES IDX 56 76 57 77 60 78 58 79 37 80 38 81 46 82 39 83 40 84 44 85
REMARK SMILES IDX 47 86 41 87 42 88 45 89 43 90
REMARK H PARENT 84 21 67 43 35 54
REMARK Flexibility Score: inf
ROOT
ATOM      1  C   UNL A   1      31.795  28.721  27.189  1.00  0.00     0.274 C 
ENDROOT
BRANCH   1   2
ATOM      2  O   UNL A   1      31.804  27.575  26.310  1.00  0.00    -0.462 OA
BRANCH   2   3
ATOM      3  C   UNL A   1      33.012  27.208  25.790  1.00  0.00     0.313 C 
ATOM      4  O   UNL A   1      33.981  26.969  26.497  1.00  0.00    -0.252 OA
BRANCH   3   5
ATOM      5  C   UNL A   1      33.000  27.213  24.239  1.00  0.00     0.127 C 
ATOM      6  C   UNL A   1      34.142  28.137  23.756  1.00  0.00     0.025 C 
BRANCH   5   7
ATOM      7  C   UNL A   1      31.632  27.593  23.625  1.00  0.00    -0.020 A 
ATOM      8  C   UNL A   1      31.462  28.833  22.980  1.00  0.00     0.006 A 
ATOM      9  C   UNL A   1      30.486  26.776  23.676  1.00  0.00     0.022 A 
ATOM     10  C   UNL A   1      30.207  29.317  22.607  1.00  0.00     0.004 A 
ATOM     11  C   UNL A   1      29.211  27.300  23.379  1.00  0.00     0.019 A 
ATOM     12  Br  UNL A   1      30.557  24.913  24.060  1.00  0.00    -0.050 Br
ATOM     13  C   UNL A   1      29.051  28.618  22.926  1.00  0.00    -0.047 A 
BRANCH  13  14
ATOM     14  C   UNL A   1      27.673  29.230  22.784  1.00  0.00     0.041 C 
BRANCH  14  15
ATOM     15  C   UNL A   1      27.552  30.755  22.517  1.00  0.00     0.022 C 
ATOM     16  C   UNL A   1      28.108  31.706  23.583  1.00  0.00     0.007 C 
ATOM     17  C   UNL A   1      28.172  31.275  21.220  1.00  0.00     0.117 C 
ATOM     18  C   UNL A   1      28.514  32.992  22.867  1.00  0.00     0.003 C 
ATOM     19  C   UNL A   1      28.140  32.789  21.409  1.00  0.00     0.032 C 
BRANCH  17  20
ATOM     20  O   UNL A   1      27.432  30.876  20.082  1.00  0.00    -0.393 OA
ATOM     21  H   UNL A   1      28.026  30.806  19.318  1.00  0.00     0.210 HD
ENDBRANCH  17  20
ENDBRANCH  14  15
ENDBRANCH  13  14
ENDBRANCH   5   7
ENDBRANCH   3   5
ENDBRANCH   2   3
ENDBRANCH   1   2
BRANCH   1  22
ATOM     22  C   UNL A   1      31.862  30.055  26.434  1.00  0.00     0.275 C 
BRANCH  22  23
ATOM     23  O   UNL A   1      33.220  30.518  26.291  1.00  0.00    -0.458 OA
BRANCH  23  24
ATOM     24  C   UNL A   1      33.604  31.484  27.153  1.00  0.00     0.338 C 
ATOM     25  O   UNL A   1      32.952  32.459  27.511  1.00  0.00    -0.246 OA
BRANCH  24  26
ATOM     26  C   UNL A   1      34.881  31.113  27.785  1.00  0.00     0.060 A 
ATOM     27  C   UNL A   1      34.966  29.818  28.281  1.00  0.00     0.016 A 
ATOM     28  C   UNL A   1      35.946  32.000  27.965  1.00  0.00     0.016 A 
ATOM     29  C   UNL A   1      36.112  29.397  28.939  1.00  0.00     0.010 A 
ATOM     30  C   UNL A   1      37.092  31.578  28.672  1.00  0.00     0.010 A 
ATOM     31  C   UNL A   1      37.173  30.274  29.188  1.00  0.00    -0.014 A 
BRANCH  31  32
ATOM     32  C   UNL A   1      38.260  29.790  30.088  1.00  0.00     0.031 A 
ATOM     33  C   UNL A   1      39.317  28.851  29.562  1.00  0.00     0.074 A 
ATOM     34  C   UNL A   1      38.453  30.370  31.291  1.00  0.00     0.049 A 
ATOM     35  N   UNL A   1      40.444  28.477  30.121  1.00  0.00    -0.248 NA
ATOM     36  C   UNL A   1      39.118  28.317  28.205  1.00  0.00     0.031 C 
ATOM     37  C   UNL A   1      37.601  31.409  31.871  1.00  0.00     0.029 A 
ATOM     38  N   UNL A   1      39.453  30.203  32.219  1.00  0.00    -0.354 N 
ATOM     39  C   UNL A   1      41.107  27.715  29.168  1.00  0.00     0.074 A 
ATOM     40  C   UNL A   1      40.241  27.638  28.011  1.00  0.00     0.031 C 
ATOM     41  C   UNL A   1      38.124  31.796  33.046  1.00  0.00     0.029 A 
ATOM     42  C   UNL A   1      39.311  30.994  33.332  1.00  0.00     0.049 A 
ATOM     43  H   UNL A   1      40.201  29.573  32.096  1.00  0.00     0.167 HD
ATOM     44  C   UNL A   1      42.334  27.147  29.236  1.00  0.00     0.037 A 
ATOM     45  C   UNL A   1      40.030  31.043  34.471  1.00  0.00     0.037 A 
ATOM     46  C   UNL A   1      43.186  27.153  30.396  1.00  0.00     0.049 A 
ATOM     47  C   UNL A   1      41.231  30.149  34.632  1.00  0.00     0.074 A 
ATOM     48  C   UNL A   1      44.419  26.546  30.566  1.00  0.00     0.029 A 
ATOM     49  N   UNL A   1      42.878  27.771  31.596  1.00  0.00    -0.354 N 
ATOM     50  N   UNL A   1      41.845  29.419  33.734  1.00  0.00    -0.248 NA
ATOM     51  C   UNL A   1      41.826  30.069  35.975  1.00  0.00     0.031 C 
ATOM     52  C   UNL A   1      44.825  26.740  31.891  1.00  0.00     0.029 A 
ATOM     53  C   UNL A   1      43.866  27.506  32.532  1.00  0.00     0.049 A 
ATOM     54  H   UNL A   1      42.076  28.317  31.761  1.00  0.00     0.167 HD
ATOM     55  C   UNL A   1      42.905  28.811  34.395  1.00  0.00     0.074 A 
ATOM     56  C   UNL A   1      42.862  29.269  35.767  1.00  0.00     0.031 C 
ATOM     57  C   UNL A   1      43.826  27.949  33.901  1.00  0.00     0.037 A 
BRANCH  44  58
ATOM     58  C   UNL A   1      42.825  26.428  28.018  1.00  0.00     0.064 A 
ATOM     59  C   UNL A   1      42.525  25.074  27.804  1.00  0.00     0.173 A 
ATOM     60  C   UNL A   1      43.559  27.107  27.037  1.00  0.00     0.173 A 
ATOM     61  F   UNL A   1      41.831  24.383  28.720  1.00  0.00    -0.203 F 
ATOM     62  C   UNL A   1      42.957  24.422  26.652  1.00  0.00     0.198 A 
ATOM     63  C   UNL A   1      43.978  26.456  25.880  1.00  0.00     0.198 A 
ATOM     64  F   UNL A   1      43.865  28.403  27.201  1.00  0.00    -0.203 F 
ATOM     65  F   UNL A   1      42.681  23.124  26.474  1.00  0.00    -0.200 F 
ATOM     66  C   UNL A   1      43.678  25.115  25.690  1.00  0.00     0.200 A 
ATOM     67  F   UNL A   1      44.670  27.127  24.950  1.00  0.00    -0.200 F 
ATOM     68  F   UNL A   1      44.091  24.488  24.580  1.00  0.00    -0.200 F 
ENDBRANCH  44  58
BRANCH  45  69
ATOM     69  C   UNL A   1      39.589  31.911  35.596  1.00  0.00     0.064 A 
ATOM     70  C   UNL A   1      38.604  31.495  36.501  1.00  0.00     0.173 A 
ATOM     71  C   UNL A   1      40.109  33.207  35.748  1.00  0.00     0.173 A 
ATOM     72  F   UNL A   1      38.046  30.282  36.374  1.00  0.00    -0.203 F 
ATOM     73  C   UNL A   1      38.150  32.346  37.509  1.00  0.00     0.198 A 
ATOM     74  C   UNL A   1      39.678  34.043  36.774  1.00  0.00     0.198 A 
ATOM     75  F   UNL A   1      41.036  33.664  34.893  1.00  0.00    -0.203 F 
ATOM     76  F   UNL A   1      37.168  31.945  38.328  1.00  0.00    -0.200 F 
ATOM     77  C   UNL A   1      38.692  33.615  37.648  1.00  0.00     0.200 A 
ATOM     78  F   UNL A   1      40.208  35.266  36.905  1.00  0.00    -0.200 F 
ATOM     79  F   UNL A   1      38.252  34.433  38.614  1.00  0.00    -0.200 F 
ENDBRANCH  45  69
BRANCH  57  80
ATOM     80  C   UNL A   1      44.877  27.437  34.845  1.00  0.00     0.064 A 
ATOM     81  C   UNL A   1      46.058  28.156  35.081  1.00  0.00     0.173 A 
ATOM     82  C   UNL A   1      44.686  26.240  35.551  1.00  0.00     0.173 A 
ATOM     83  F   UNL A   1      46.297  29.298  34.419  1.00  0.00    -0.203 F 
ATOM     84  C   UNL A   1      47.017  27.686  35.976  1.00  0.00     0.198 A 
ATOM     85  C   UNL A   1      45.633  25.788  36.467  1.00  0.00     0.198 A 
ATOM     86  F   UNL A   1      43.573  25.515  35.366  1.00  0.00    -0.203 F 
ATOM     87  F   UNL A   1      48.156  28.370  36.156  1.00  0.00    -0.200 F 
ATOM     88  C   UNL A   1      46.800  26.508  36.675  1.00  0.00     0.200 A 
ATOM     89  F   UNL A   1      45.415  24.655  37.150  1.00  0.00    -0.200 F 
ATOM     90  F   UNL A   1      47.718  26.062  37.543  1.00  0.00    -0.200 F 
ENDBRANCH  57  80
ENDBRANCH  31  32
ENDBRANCH  24  26
ENDBRANCH  23  24
ENDBRANCH  22  23
ENDBRANCH   1  22
TORSDOF 15
ENDMDL
