MODEL 1
REMARK VINA RESULT:     -11.9      0.000      0.000
REMARK SMILES C[NH2+][C@@]1(C(=O)OCCOC(=O)c2ccc(-c3c4nc(c(-c5c(F)c(F)c(F)c(F)c5F)c5ccc([nH]5)c(-c5c(F)c(F)c(F)c(F)c5F)c5nc(c(-c6c(F)c(F)c(F)c(F)c6F)c6ccc3[nH]6)C=C5)C=C4)cc2)CC[C@H](SC2CCOCC2)C1
REMARK SMILES IDX 7 1 6 2 4 3 5 4 3 5 75 6 85 7 76 8 77 9 2 10 1 11 78 14
REMARK SMILES IDX 79 15 80 16 84 17 81 18 83 19 82 20 8 21 9 22 10 23 11 24
REMARK SMILES IDX 12 25 13 26 74 27 14 28 73 29 15 30 16 31 17 32 67 33 18 34
REMARK SMILES IDX 72 35 66 36 68 37 19 38 71 39 65 40 64 41 20 43 52 44 32 45
REMARK SMILES IDX 51 46 33 47 36 48 50 49 69 50 34 51 35 52 49 54 70 55 37 56
REMARK SMILES IDX 21 57 22 58 30 59 23 60 24 61 28 62 31 63 25 64 26 65 29 66
REMARK SMILES IDX 27 67 53 68 54 69 62 70 55 71 56 72 60 73 63 74 57 75 58 76
REMARK SMILES IDX 61 77 59 78 38 79 39 80 47 81 40 82 41 83 45 84 48 85 42 86
REMARK SMILES IDX 43 87 46 88 44 89
REMARK H PARENT 2 12 2 13 68 42 36 53
REMARK Flexibility Score: inf
ROOT
ATOM      1  C   UNL A   1      31.944  28.410  27.053  1.00  0.00     0.274 C 
ENDROOT
BRANCH   1   2
ATOM      2  O   UNL A   1      32.360  27.505  26.010  1.00  0.00    -0.457 OA
BRANCH   2   3
ATOM      3  C   UNL A   1      31.400  26.867  25.297  1.00  0.00     0.368 C 
ATOM      4  O   UNL A   1      30.324  26.494  25.759  1.00  0.00    -0.245 OA
BRANCH   3   5
ATOM      5  C   UNL A   1      31.810  26.612  23.813  1.00  0.00     0.195 C 
ATOM      6  C   UNL A   1      32.743  27.754  23.394  1.00  0.00     0.082 C 
ATOM      7  C   UNL A   1      30.668  26.744  22.789  1.00  0.00     0.095 C 
ATOM      8  C   UNL A   1      31.783  28.900  23.104  1.00  0.00     0.022 C 
ATOM      9  C   UNL A   1      30.563  28.246  22.450  1.00  0.00     0.054 C 
BRANCH   5  10
ATOM     10  N   UNL A   1      32.586  25.347  23.738  1.00  0.00    -0.335 N 
ATOM     11  C   UNL A   1      34.030  25.515  23.739  1.00  0.00     0.331 C 
ATOM     12  H   UNL A   1      32.333  24.773  24.543  1.00  0.00     0.347 HD
ATOM     13  H   UNL A   1      32.348  24.918  22.844  1.00  0.00     0.347 HD
ENDBRANCH   5  10
BRANCH   9  14
ATOM     14  S   UNL A   1      28.953  28.922  23.003  1.00  0.00    -0.155 SA
BRANCH  14  15
ATOM     15  C   UNL A   1      28.943  30.633  22.347  1.00  0.00     0.051 C 
ATOM     16  C   UNL A   1      28.700  31.704  23.407  1.00  0.00     0.043 C 
ATOM     17  C   UNL A   1      28.014  30.821  21.149  1.00  0.00     0.043 C 
ATOM     18  C   UNL A   1      28.776  33.081  22.760  1.00  0.00     0.161 C 
ATOM     19  C   UNL A   1      28.120  32.251  20.636  1.00  0.00     0.161 C 
ATOM     20  O   UNL A   1      27.844  33.181  21.684  1.00  0.00    -0.381 OA
ENDBRANCH  14  15
ENDBRANCH   9  14
ENDBRANCH   3   5
ENDBRANCH   2   3
ENDBRANCH   1   2
BRANCH   1  21
ATOM     21  C   UNL A   1      31.697  29.793  26.467  1.00  0.00     0.275 C 
BRANCH  21  22
ATOM     22  O   UNL A   1      32.975  30.403  26.230  1.00  0.00    -0.458 OA
BRANCH  22  23
ATOM     23  C   UNL A   1      33.323  31.416  27.050  1.00  0.00     0.338 C 
ATOM     24  O   UNL A   1      32.682  32.424  27.307  1.00  0.00    -0.246 OA
BRANCH  23  25
ATOM     25  C   UNL A   1      34.632  31.110  27.653  1.00  0.00     0.060 A 
ATOM     26  C   UNL A   1      34.958  29.794  27.984  1.00  0.00     0.016 A 
ATOM     27  C   UNL A   1      35.499  32.147  27.991  1.00  0.00     0.016 A 
ATOM     28  C   UNL A   1      36.099  29.518  28.729  1.00  0.00     0.010 A 
ATOM     29  C   UNL A   1      36.698  31.855  28.649  1.00  0.00     0.010 A 
ATOM     30  C   UNL A   1      36.997  30.542  29.055  1.00  0.00    -0.014 A 
BRANCH  30  31
ATOM     31  C   UNL A   1      38.217  30.254  29.854  1.00  0.00     0.031 A 
ATOM     32  C   UNL A   1      39.313  29.404  29.269  1.00  0.00     0.074 A 
ATOM     33  C   UNL A   1      38.361  30.750  31.099  1.00  0.00     0.049 A 
ATOM     34  N   UNL A   1      40.320  28.821  29.868  1.00  0.00    -0.248 NA
ATOM     35  C   UNL A   1      39.257  29.162  27.818  1.00  0.00     0.031 C 
ATOM     36  C   UNL A   1      37.416  31.640  31.775  1.00  0.00     0.029 A 
ATOM     37  N   UNL A   1      39.368  30.578  32.018  1.00  0.00    -0.354 N 
ATOM     38  C   UNL A   1      40.965  28.080  28.888  1.00  0.00     0.074 A 
ATOM     39  C   UNL A   1      40.252  28.305  27.648  1.00  0.00     0.031 C 
ATOM     40  C   UNL A   1      37.907  31.972  32.978  1.00  0.00     0.029 A 
ATOM     41  C   UNL A   1      39.149  31.241  33.201  1.00  0.00     0.049 A 
ATOM     42  H   UNL A   1      40.169  30.032  31.844  1.00  0.00     0.167 HD
ATOM     43  C   UNL A   1      42.046  27.275  29.020  1.00  0.00     0.037 A 
ATOM     44  C   UNL A   1      39.841  31.222  34.355  1.00  0.00     0.037 A 
ATOM     45  C   UNL A   1      42.797  27.119  30.238  1.00  0.00     0.049 A 
ATOM     46  C   UNL A   1      41.043  30.332  34.476  1.00  0.00     0.074 A 
ATOM     47  C   UNL A   1      43.906  26.327  30.475  1.00  0.00     0.029 A 
ATOM     48  N   UNL A   1      42.531  27.798  31.417  1.00  0.00    -0.354 N 
ATOM     49  N   UNL A   1      41.578  29.541  33.579  1.00  0.00    -0.248 NA
ATOM     50  C   UNL A   1      41.717  30.305  35.781  1.00  0.00     0.031 C 
ATOM     51  C   UNL A   1      44.304  26.516  31.805  1.00  0.00     0.029 A 
ATOM     52  C   UNL A   1      43.457  27.447  32.385  1.00  0.00     0.049 A 
ATOM     53  H   UNL A   1      41.792  28.436  31.547  1.00  0.00     0.167 HD
ATOM     54  C   UNL A   1      42.643  28.916  34.210  1.00  0.00     0.074 A 
ATOM     55  C   UNL A   1      42.698  29.442  35.559  1.00  0.00     0.031 C 
ATOM     56  C   UNL A   1      43.491  27.979  33.721  1.00  0.00     0.037 A 
BRANCH  43  57
ATOM     57  C   UNL A   1      42.458  26.464  27.828  1.00  0.00     0.064 A 
ATOM     58  C   UNL A   1      43.450  26.898  26.939  1.00  0.00     0.173 A 
ATOM     59  C   UNL A   1      41.871  25.210  27.600  1.00  0.00     0.173 A 
ATOM     60  F   UNL A   1      44.026  28.098  27.105  1.00  0.00    -0.203 F 
ATOM     61  C   UNL A   1      43.828  26.112  25.853  1.00  0.00     0.198 A 
ATOM     62  C   UNL A   1      42.268  24.416  26.527  1.00  0.00     0.198 A 
ATOM     63  F   UNL A   1      40.918  24.749  28.424  1.00  0.00    -0.203 F 
ATOM     64  F   UNL A   1      44.753  26.560  24.993  1.00  0.00    -0.200 F 
ATOM     65  C   UNL A   1      43.243  24.870  25.652  1.00  0.00     0.200 A 
ATOM     66  F   UNL A   1      41.707  23.213  26.341  1.00  0.00    -0.200 F 
ATOM     67  F   UNL A   1      43.615  24.112  24.611  1.00  0.00    -0.200 F 
ENDBRANCH  43  57
BRANCH  44  68
ATOM     68  C   UNL A   1      39.374  32.040  35.503  1.00  0.00     0.064 A 
ATOM     69  C   UNL A   1      38.501  31.503  36.458  1.00  0.00     0.173 A 
ATOM     70  C   UNL A   1      39.809  33.362  35.681  1.00  0.00     0.173 A 
ATOM     71  F   UNL A   1      38.037  30.253  36.314  1.00  0.00    -0.203 F 
ATOM     72  C   UNL A   1      38.081  32.259  37.551  1.00  0.00     0.198 A 
ATOM     73  C   UNL A   1      39.409  34.107  36.788  1.00  0.00     0.198 A 
ATOM     74  F   UNL A   1      40.643  33.919  34.793  1.00  0.00    -0.203 F 
ATOM     75  F   UNL A   1      37.223  31.733  38.436  1.00  0.00    -0.200 F 
ATOM     76  C   UNL A   1      38.543  33.556  37.720  1.00  0.00     0.200 A 
ATOM     77  F   UNL A   1      39.869  35.353  36.955  1.00  0.00    -0.200 F 
ATOM     78  F   UNL A   1      38.150  34.277  38.779  1.00  0.00    -0.200 F 
ENDBRANCH  44  68
BRANCH  56  79
ATOM     79  C   UNL A   1      44.550  27.473  34.649  1.00  0.00     0.064 A 
ATOM     80  C   UNL A   1      45.785  28.128  34.765  1.00  0.00     0.173 A 
ATOM     81  C   UNL A   1      44.321  26.344  35.446  1.00  0.00     0.173 A 
ATOM     82  F   UNL A   1      46.054  29.203  34.010  1.00  0.00    -0.203 F 
ATOM     83  C   UNL A   1      46.762  27.655  35.638  1.00  0.00     0.198 A 
ATOM     84  C   UNL A   1      45.292  25.885  36.330  1.00  0.00     0.198 A 
ATOM     85  F   UNL A   1      43.153  25.689  35.368  1.00  0.00    -0.203 F 
ATOM     86  F   UNL A   1      47.949  28.272  35.709  1.00  0.00    -0.200 F 
ATOM     87  C   UNL A   1      46.512  26.538  36.422  1.00  0.00     0.200 A 
ATOM     88  F   UNL A   1      45.050  24.809  37.090  1.00  0.00    -0.200 F 
ATOM     89  F   UNL A   1      47.455  26.084  37.260  1.00  0.00    -0.200 F 
ENDBRANCH  56  79
ENDBRANCH  30  31
ENDBRANCH  23  25
ENDBRANCH  22  23
ENDBRANCH  21  22
ENDBRANCH   1  21
TORSDOF 14
ENDMDL
MODEL 2
REMARK VINA RESULT:     -11.9      0.318      1.660
REMARK SMILES C[NH2+][C@@]1(C(=O)OCCOC(=O)c2ccc(-c3c4nc(c(-c5c(F)c(F)c(F)c(F)c5F)c5ccc([nH]5)c(-c5c(F)c(F)c(F)c(F)c5F)c5nc(c(-c6c(F)c(F)c(F)c(F)c6F)c6ccc3[nH]6)C=C5)C=C4)cc2)CC[C@H](SC2CCOCC2)C1
REMARK SMILES IDX 7 1 6 2 4 3 5 4 3 5 75 6 85 7 76 8 77 9 2 10 1 11 78 14
REMARK SMILES IDX 79 15 80 16 84 17 81 18 83 19 82 20 8 21 9 22 10 23 11 24
REMARK SMILES IDX 12 25 13 26 74 27 14 28 73 29 15 30 16 31 17 32 67 33 18 34
REMARK SMILES IDX 72 35 66 36 68 37 19 38 71 39 65 40 64 41 20 43 52 44 32 45
REMARK SMILES IDX 51 46 33 47 36 48 50 49 69 50 34 51 35 52 49 54 70 55 37 56
REMARK SMILES IDX 21 57 22 58 30 59 23 60 24 61 28 62 31 63 25 64 26 65 29 66
REMARK SMILES IDX 27 67 53 68 54 69 62 70 55 71 56 72 60 73 63 74 57 75 58 76
REMARK SMILES IDX 61 77 59 78 38 79 39 80 47 81 40 82 41 83 45 84 48 85 42 86
REMARK SMILES IDX 43 87 46 88 44 89
REMARK H PARENT 2 12 2 13 68 42 36 53
REMARK Flexibility Score: inf
ROOT
ATOM      1  C   UNL A   1      32.050  28.092  27.086  1.00  0.00     0.274 C 
ENDROOT
BRANCH   1   2
ATOM      2  O   UNL A   1      32.469  27.330  25.935  1.00  0.00    -0.457 OA
BRANCH   2   3
ATOM      3  C   UNL A   1      31.510  26.778  25.152  1.00  0.00     0.368 C 
ATOM      4  O   UNL A   1      30.411  26.406  25.555  1.00  0.00    -0.245 OA
BRANCH   3   5
ATOM      5  C   UNL A   1      31.954  26.621  23.663  1.00  0.00     0.195 C 
ATOM      6  C   UNL A   1      32.872  27.805  23.334  1.00  0.00     0.082 C 
ATOM      7  C   UNL A   1      30.831  26.795  22.625  1.00  0.00     0.095 C 
ATOM      8  C   UNL A   1      31.895  28.948  23.094  1.00  0.00     0.022 C 
ATOM      9  C   UNL A   1      30.702  28.312  22.376  1.00  0.00     0.054 C 
BRANCH   5  10
ATOM     10  N   UNL A   1      32.757  25.379  23.528  1.00  0.00    -0.335 N 
ATOM     11  C   UNL A   1      32.056  24.262  22.916  1.00  0.00     0.331 C 
ATOM     12  H   UNL A   1      33.574  25.591  22.956  1.00  0.00     0.347 HD
ATOM     13  H   UNL A   1      32.991  25.085  24.476  1.00  0.00     0.347 HD
ENDBRANCH   5  10
BRANCH   9  14
ATOM     14  S   UNL A   1      29.068  28.923  22.936  1.00  0.00    -0.155 SA
BRANCH  14  15
ATOM     15  C   UNL A   1      28.998  30.641  22.302  1.00  0.00     0.051 C 
ATOM     16  C   UNL A   1      28.754  31.692  23.382  1.00  0.00     0.043 C 
ATOM     17  C   UNL A   1      28.034  30.820  21.130  1.00  0.00     0.043 C 
ATOM     18  C   UNL A   1      28.779  33.079  22.751  1.00  0.00     0.161 C 
ATOM     19  C   UNL A   1      28.090  32.258  20.633  1.00  0.00     0.161 C 
ATOM     20  O   UNL A   1      27.817  33.167  21.699  1.00  0.00    -0.381 OA
ENDBRANCH  14  15
ENDBRANCH   9  14
ENDBRANCH   3   5
ENDBRANCH   2   3
ENDBRANCH   1   2
BRANCH   1  21
ATOM     21  C   UNL A   1      31.777  29.533  26.678  1.00  0.00     0.275 C 
BRANCH  21  22
ATOM     22  O   UNL A   1      33.034  30.133  26.328  1.00  0.00    -0.458 OA
BRANCH  22  23
ATOM     23  C   UNL A   1      33.414  31.205  27.053  1.00  0.00     0.338 C 
ATOM     24  O   UNL A   1      32.796  32.244  27.234  1.00  0.00    -0.246 OA
BRANCH  23  25
ATOM     25  C   UNL A   1      34.727  30.925  27.661  1.00  0.00     0.060 A 
ATOM     26  C   UNL A   1      35.079  29.615  27.991  1.00  0.00     0.016 A 
ATOM     27  C   UNL A   1      35.572  31.978  28.003  1.00  0.00     0.016 A 
ATOM     28  C   UNL A   1      36.223  29.361  28.740  1.00  0.00     0.010 A 
ATOM     29  C   UNL A   1      36.774  31.710  28.664  1.00  0.00     0.010 A 
ATOM     30  C   UNL A   1      37.098  30.402  29.070  1.00  0.00    -0.014 A 
BRANCH  30  31
ATOM     31  C   UNL A   1      38.322  30.138  29.873  1.00  0.00     0.031 A 
ATOM     32  C   UNL A   1      39.431  29.301  29.294  1.00  0.00     0.074 A 
ATOM     33  C   UNL A   1      38.456  30.645  31.114  1.00  0.00     0.049 A 
ATOM     34  N   UNL A   1      40.446  28.737  29.899  1.00  0.00    -0.248 NA
ATOM     35  C   UNL A   1      39.380  29.048  27.845  1.00  0.00     0.031 C 
ATOM     36  C   UNL A   1      37.497  31.525  31.783  1.00  0.00     0.029 A 
ATOM     37  N   UNL A   1      39.464  30.494  32.035  1.00  0.00    -0.354 N 
ATOM     38  C   UNL A   1      41.103  27.999  28.925  1.00  0.00     0.074 A 
ATOM     39  C   UNL A   1      40.389  28.205  27.682  1.00  0.00     0.031 C 
ATOM     40  C   UNL A   1      37.981  31.872  32.984  1.00  0.00     0.029 A 
ATOM     41  C   UNL A   1      39.234  31.161  33.213  1.00  0.00     0.049 A 
ATOM     42  H   UNL A   1      40.273  29.959  31.867  1.00  0.00     0.167 HD
ATOM     43  C   UNL A   1      42.196  27.211  29.063  1.00  0.00     0.037 A 
ATOM     44  C   UNL A   1      39.924  31.161  34.369  1.00  0.00     0.037 A 
ATOM     45  C   UNL A   1      42.947  27.074  30.283  1.00  0.00     0.049 A 
ATOM     46  C   UNL A   1      41.139  30.289  34.497  1.00  0.00     0.074 A 
ATOM     47  C   UNL A   1      44.068  26.300  30.528  1.00  0.00     0.029 A 
ATOM     48  N   UNL A   1      42.669  27.757  31.458  1.00  0.00    -0.354 N 
ATOM     49  N   UNL A   1      41.687  29.500  33.607  1.00  0.00    -0.248 NA
ATOM     50  C   UNL A   1      41.812  30.281  35.804  1.00  0.00     0.031 C 
ATOM     51  C   UNL A   1      44.461  26.504  31.856  1.00  0.00     0.029 A 
ATOM     52  C   UNL A   1      43.599  27.426  32.429  1.00  0.00     0.049 A 
ATOM     53  H   UNL A   1      41.920  28.385  31.582  1.00  0.00     0.167 HD
ATOM     54  C   UNL A   1      42.760  28.895  34.243  1.00  0.00     0.074 A 
ATOM     55  C   UNL A   1      42.806  29.431  35.589  1.00  0.00     0.031 C 
ATOM     56  C   UNL A   1      43.623  27.968  33.762  1.00  0.00     0.037 A 
BRANCH  43  57
ATOM     57  C   UNL A   1      42.621  26.398  27.878  1.00  0.00     0.064 A 
ATOM     58  C   UNL A   1      42.067  25.142  27.598  1.00  0.00     0.173 A 
ATOM     59  C   UNL A   1      43.575  26.911  26.985  1.00  0.00     0.173 A 
ATOM     60  F   UNL A   1      41.164  24.603  28.432  1.00  0.00    -0.203 F 
ATOM     61  C   UNL A   1      42.465  24.420  26.476  1.00  0.00     0.198 A 
ATOM     62  C   UNL A   1      43.954  26.197  25.852  1.00  0.00     0.198 A 
ATOM     63  F   UNL A   1      44.134  28.109  27.208  1.00  0.00    -0.203 F 
ATOM     64  F   UNL A   1      41.949  23.205  26.246  1.00  0.00    -0.200 F 
ATOM     65  C   UNL A   1      43.402  24.950  25.601  1.00  0.00     0.200 A 
ATOM     66  F   UNL A   1      44.853  26.715  25.004  1.00  0.00    -0.200 F 
ATOM     67  F   UNL A   1      43.778  24.256  24.517  1.00  0.00    -0.200 F 
ENDBRANCH  43  57
BRANCH  44  68
ATOM     68  C   UNL A   1      39.443  31.979  35.511  1.00  0.00     0.064 A 
ATOM     69  C   UNL A   1      38.552  31.445  36.451  1.00  0.00     0.173 A 
ATOM     70  C   UNL A   1      39.882  33.298  35.698  1.00  0.00     0.173 A 
ATOM     71  F   UNL A   1      38.083  30.198  36.296  1.00  0.00    -0.203 F 
ATOM     72  C   UNL A   1      38.118  32.201  37.538  1.00  0.00     0.198 A 
ATOM     73  C   UNL A   1      39.470  34.043  36.800  1.00  0.00     0.198 A 
ATOM     74  F   UNL A   1      40.734  33.852  34.825  1.00  0.00    -0.203 F 
ATOM     75  F   UNL A   1      37.243  31.679  38.408  1.00  0.00    -0.200 F 
ATOM     76  C   UNL A   1      38.585  33.496  37.716  1.00  0.00     0.200 A 
ATOM     77  F   UNL A   1      39.934  35.287  36.976  1.00  0.00    -0.200 F 
ATOM     78  F   UNL A   1      38.179  34.217  38.771  1.00  0.00    -0.200 F 
ENDBRANCH  44  68
BRANCH  56  79
ATOM     79  C   UNL A   1      44.688  27.484  34.695  1.00  0.00     0.064 A 
ATOM     80  C   UNL A   1      44.494  26.346  35.490  1.00  0.00     0.173 A 
ATOM     81  C   UNL A   1      45.920  28.147  34.774  1.00  0.00     0.173 A 
ATOM     82  F   UNL A   1      43.324  25.691  35.458  1.00  0.00    -0.203 F 
ATOM     83  C   UNL A   1      45.495  25.898  36.349  1.00  0.00     0.198 A 
ATOM     84  C   UNL A   1      46.925  27.686  35.620  1.00  0.00     0.198 A 
ATOM     85  F   UNL A   1      46.150  29.238  34.029  1.00  0.00    -0.203 F 
ATOM     86  F   UNL A   1      45.277  24.830  37.129  1.00  0.00    -0.200 F 
ATOM     87  C   UNL A   1      46.709  26.566  36.409  1.00  0.00     0.200 A 
ATOM     88  F   UNL A   1      48.099  28.328  35.675  1.00  0.00    -0.200 F 
ATOM     89  F   UNL A   1      47.671  26.134  37.238  1.00  0.00    -0.200 F 
ENDBRANCH  56  79
ENDBRANCH  30  31
ENDBRANCH  23  25
ENDBRANCH  22  23
ENDBRANCH  21  22
ENDBRANCH   1  21
TORSDOF 14
ENDMDL
MODEL 3
REMARK VINA RESULT:     -11.5      5.273     10.650
REMARK SMILES C[NH2+][C@@]1(C(=O)OCCOC(=O)c2ccc(-c3c4nc(c(-c5c(F)c(F)c(F)c(F)c5F)c5ccc([nH]5)c(-c5c(F)c(F)c(F)c(F)c5F)c5nc(c(-c6c(F)c(F)c(F)c(F)c6F)c6ccc3[nH]6)C=C5)C=C4)cc2)CC[C@H](SC2CCOCC2)C1
REMARK SMILES IDX 7 1 6 2 4 3 5 4 3 5 75 6 85 7 76 8 77 9 2 10 1 11 78 14
REMARK SMILES IDX 79 15 80 16 84 17 81 18 83 19 82 20 8 21 9 22 10 23 11 24
REMARK SMILES IDX 12 25 13 26 74 27 14 28 73 29 15 30 16 31 17 32 67 33 18 34
REMARK SMILES IDX 72 35 66 36 68 37 19 38 71 39 65 40 64 41 20 43 52 44 32 45
REMARK SMILES IDX 51 46 33 47 36 48 50 49 69 50 34 51 35 52 49 54 70 55 37 56
REMARK SMILES IDX 21 57 22 58 30 59 23 60 24 61 28 62 31 63 25 64 26 65 29 66
REMARK SMILES IDX 27 67 53 68 54 69 62 70 55 71 56 72 60 73 63 74 57 75 58 76
REMARK SMILES IDX 61 77 59 78 38 79 39 80 47 81 40 82 41 83 45 84 48 85 42 86
REMARK SMILES IDX 43 87 46 88 44 89
REMARK H PARENT 2 12 2 13 68 42 36 53
REMARK Flexibility Score: inf
ROOT
ATOM      1  C   UNL A   1      36.645  22.871  23.657  1.00  0.00     0.274 C 
ENDROOT
BRANCH   1   2
ATOM      2  O   UNL A   1      35.663  23.528  24.483  1.00  0.00    -0.457 OA
BRANCH   2   3
ATOM      3  C   UNL A   1      34.360  23.441  24.119  1.00  0.00     0.368 C 
ATOM      4  O   UNL A   1      33.958  23.481  22.958  1.00  0.00    -0.245 OA
BRANCH   3   5
ATOM      5  C   UNL A   1      33.393  23.319  25.338  1.00  0.00     0.195 C 
ATOM      6  C   UNL A   1      34.126  22.523  26.424  1.00  0.00     0.082 C 
ATOM      7  C   UNL A   1      32.145  22.450  25.097  1.00  0.00     0.095 C 
ATOM      8  C   UNL A   1      33.983  21.081  25.957  1.00  0.00     0.022 C 
ATOM      9  C   UNL A   1      32.578  20.991  25.356  1.00  0.00     0.054 C 
BRANCH   5  10
ATOM     10  N   UNL A   1      33.125  24.677  25.878  1.00  0.00    -0.335 N 
ATOM     11  C   UNL A   1      31.984  25.356  25.286  1.00  0.00     0.331 C 
ATOM     12  H   UNL A   1      32.956  24.590  26.881  1.00  0.00     0.347 HD
ATOM     13  H   UNL A   1      33.944  25.241  25.653  1.00  0.00     0.347 HD
ENDBRANCH   5  10
BRANCH   9  14
ATOM     14  S   UNL A   1      32.474  20.002  23.818  1.00  0.00    -0.155 SA
BRANCH  14  15
ATOM     15  C   UNL A   1      33.245  18.402  24.268  1.00  0.00     0.051 C 
ATOM     16  C   UNL A   1      33.478  17.469  23.082  1.00  0.00     0.043 C 
ATOM     17  C   UNL A   1      32.527  17.679  25.407  1.00  0.00     0.043 C 
ATOM     18  C   UNL A   1      34.177  16.205  23.565  1.00  0.00     0.161 C 
ATOM     19  C   UNL A   1      33.273  16.396  25.751  1.00  0.00     0.161 C 
ATOM     20  O   UNL A   1      33.415  15.573  24.593  1.00  0.00    -0.381 OA
ENDBRANCH  14  15
ENDBRANCH   9  14
ENDBRANCH   3   5
ENDBRANCH   2   3
ENDBRANCH   1   2
BRANCH   1  21
ATOM     21  C   UNL A   1      37.034  21.538  24.282  1.00  0.00     0.275 C 
BRANCH  21  22
ATOM     22  O   UNL A   1      37.443  21.792  25.635  1.00  0.00    -0.458 OA
BRANCH  22  23
ATOM     23  C   UNL A   1      38.717  21.482  25.950  1.00  0.00     0.338 C 
ATOM     24  O   UNL A   1      39.287  20.412  25.794  1.00  0.00    -0.246 OA
BRANCH  23  25
ATOM     25  C   UNL A   1      39.375  22.680  26.500  1.00  0.00     0.060 A 
ATOM     26  C   UNL A   1      38.923  23.951  26.143  1.00  0.00     0.016 A 
ATOM     27  C   UNL A   1      40.514  22.544  27.291  1.00  0.00     0.016 A 
ATOM     28  C   UNL A   1      39.652  25.082  26.495  1.00  0.00     0.010 A 
ATOM     29  C   UNL A   1      41.186  23.688  27.731  1.00  0.00     0.010 A 
ATOM     30  C   UNL A   1      40.783  24.969  27.312  1.00  0.00    -0.014 A 
BRANCH  30  31
ATOM     31  C   UNL A   1      41.569  26.174  27.689  1.00  0.00     0.031 A 
ATOM     32  C   UNL A   1      40.951  27.225  28.571  1.00  0.00     0.074 A 
ATOM     33  C   UNL A   1      42.835  26.336  27.256  1.00  0.00     0.049 A 
ATOM     34  N   UNL A   1      41.348  28.451  28.803  1.00  0.00    -0.248 NA
ATOM     35  C   UNL A   1      39.710  26.855  29.269  1.00  0.00     0.031 C 
ATOM     36  C   UNL A   1      43.589  25.375  26.450  1.00  0.00     0.029 A 
ATOM     37  N   UNL A   1      43.715  27.374  27.442  1.00  0.00    -0.354 N 
ATOM     38  C   UNL A   1      40.368  29.020  29.603  1.00  0.00     0.074 A 
ATOM     39  C   UNL A   1      39.367  28.001  29.838  1.00  0.00     0.031 C 
ATOM     40  C   UNL A   1      44.829  25.845  26.250  1.00  0.00     0.029 A 
ATOM     41  C   UNL A   1      44.927  27.182  26.825  1.00  0.00     0.049 A 
ATOM     42  H   UNL A   1      43.498  28.178  27.967  1.00  0.00     0.167 HD
ATOM     43  C   UNL A   1      40.306  30.285  30.083  1.00  0.00     0.037 A 
ATOM     44  C   UNL A   1      45.981  28.008  26.689  1.00  0.00     0.037 A 
ATOM     45  C   UNL A   1      41.342  31.269  29.911  1.00  0.00     0.049 A 
ATOM     46  C   UNL A   1      45.896  29.402  27.239  1.00  0.00     0.074 A 
ATOM     47  C   UNL A   1      41.376  32.578  30.357  1.00  0.00     0.029 A 
ATOM     48  N   UNL A   1      42.547  31.036  29.265  1.00  0.00    -0.354 N 
ATOM     49  N   UNL A   1      44.915  29.974  27.892  1.00  0.00    -0.248 NA
ATOM     50  C   UNL A   1      47.052  30.278  27.001  1.00  0.00     0.031 C 
ATOM     51  C   UNL A   1      42.597  33.143  29.967  1.00  0.00     0.029 A 
ATOM     52  C   UNL A   1      43.333  32.175  29.303  1.00  0.00     0.049 A 
ATOM     53  H   UNL A   1      42.805  30.185  28.841  1.00  0.00     0.167 HD
ATOM     54  C   UNL A   1      45.327  31.275  28.136  1.00  0.00     0.074 A 
ATOM     55  C   UNL A   1      46.663  31.401  27.587  1.00  0.00     0.031 C 
ATOM     56  C   UNL A   1      44.656  32.280  28.747  1.00  0.00     0.037 A 
BRANCH  43  57
ATOM     57  C   UNL A   1      39.057  30.695  30.802  1.00  0.00     0.064 A 
ATOM     58  C   UNL A   1      38.929  30.586  32.194  1.00  0.00     0.173 A 
ATOM     59  C   UNL A   1      37.984  31.244  30.083  1.00  0.00     0.173 A 
ATOM     60  F   UNL A   1      39.920  30.050  32.922  1.00  0.00    -0.203 F 
ATOM     61  C   UNL A   1      37.764  30.997  32.837  1.00  0.00     0.198 A 
ATOM     62  C   UNL A   1      36.830  31.676  30.732  1.00  0.00     0.198 A 
ATOM     63  F   UNL A   1      38.058  31.371  28.750  1.00  0.00    -0.203 F 
ATOM     64  F   UNL A   1      37.648  30.852  34.165  1.00  0.00    -0.200 F 
ATOM     65  C   UNL A   1      36.720  31.547  32.108  1.00  0.00     0.200 A 
ATOM     66  F   UNL A   1      35.827  32.215  30.027  1.00  0.00    -0.200 F 
ATOM     67  F   UNL A   1      35.604  31.950  32.732  1.00  0.00    -0.200 F 
ENDBRANCH  43  57
BRANCH  44  68
ATOM     68  C   UNL A   1      47.186  27.546  25.954  1.00  0.00     0.064 A 
ATOM     69  C   UNL A   1      47.276  27.688  24.563  1.00  0.00     0.173 A 
ATOM     70  C   UNL A   1      48.276  26.977  26.627  1.00  0.00     0.173 A 
ATOM     71  F   UNL A   1      46.246  28.200  23.874  1.00  0.00    -0.203 F 
ATOM     72  C   UNL A   1      48.415  27.279  23.873  1.00  0.00     0.198 A 
ATOM     73  C   UNL A   1      49.425  26.593  25.940  1.00  0.00     0.198 A 
ATOM     74  F   UNL A   1      48.236  26.819  27.958  1.00  0.00    -0.203 F 
ATOM     75  F   UNL A   1      48.466  27.399  22.539  1.00  0.00    -0.200 F 
ATOM     76  C   UNL A   1      49.492  26.741  24.563  1.00  0.00     0.200 A 
ATOM     77  F   UNL A   1      50.468  26.088  26.611  1.00  0.00    -0.200 F 
ATOM     78  F   UNL A   1      50.593  26.361  23.900  1.00  0.00    -0.200 F 
ENDBRANCH  44  68
BRANCH  56  79
ATOM     79  C   UNL A   1      45.359  33.596  28.859  1.00  0.00     0.064 A 
ATOM     80  C   UNL A   1      46.198  33.880  29.946  1.00  0.00     0.173 A 
ATOM     81  C   UNL A   1      45.216  34.568  27.860  1.00  0.00     0.173 A 
ATOM     82  F   UNL A   1      46.352  32.986  30.933  1.00  0.00    -0.203 F 
ATOM     83  C   UNL A   1      46.856  35.104  30.037  1.00  0.00     0.198 A 
ATOM     84  C   UNL A   1      45.888  35.783  27.945  1.00  0.00     0.198 A 
ATOM     85  F   UNL A   1      44.425  34.337  26.801  1.00  0.00    -0.203 F 
ATOM     86  F   UNL A   1      47.624  35.372  31.102  1.00  0.00    -0.200 F 
ATOM     87  C   UNL A   1      46.704  36.051  29.034  1.00  0.00     0.200 A 
ATOM     88  F   UNL A   1      45.746  36.696  26.975  1.00  0.00    -0.200 F 
ATOM     89  F   UNL A   1      47.337  37.230  29.125  1.00  0.00    -0.200 F 
ENDBRANCH  56  79
ENDBRANCH  30  31
ENDBRANCH  23  25
ENDBRANCH  22  23
ENDBRANCH  21  22
ENDBRANCH   1  21
TORSDOF 14
ENDMDL
