MODEL 1
REMARK VINA RESULT:     -11.6      0.000      0.000
REMARK SMILES Cc1nn(-c2cccc(C(=O)OCCOC(=O)c3ccc(-c4c5nc(c(-c6c(F)c(F)c(F)c(F)c6F)c6ccc([nH]6)c(-c6c(F)c(F)c(F)c(F)c6F)c6nc(c(-c7c(F)c(F)c(F)c(F)c7F)c7ccc4[nH]7)C=C6)C=C5)cc3)c2)c(C)c1Cl
REMARK SMILES IDX 14 1 13 2 12 3 10 4 11 5 9 6 5 7 6 8 81 9 7 10 8 11 4 12
REMARK SMILES IDX 1 13 2 14 3 15 84 16 82 17 85 18 83 19 15 20 16 21 17 22
REMARK SMILES IDX 18 23 19 24 80 25 20 26 79 27 21 28 22 29 23 30 73 31 24 32
REMARK SMILES IDX 78 33 72 34 74 35 25 36 77 37 71 38 70 39 26 41 58 42 38 43
REMARK SMILES IDX 57 44 39 45 42 46 56 47 75 48 40 49 41 50 55 52 76 53 43 54
REMARK SMILES IDX 27 55 28 56 36 57 29 58 30 59 34 60 37 61 31 62 32 63 35 64
REMARK SMILES IDX 33 65 59 66 60 67 68 68 61 69 62 70 66 71 69 72 63 73 64 74
REMARK SMILES IDX 67 75 65 76 44 77 45 78 53 79 46 80 47 81 51 82 54 83 48 84
REMARK SMILES IDX 49 85 52 86 50 87
REMARK H PARENT 74 40 42 51
REMARK Flexibility Score: inf
ROOT
ATOM      1  C   UNL A   1      40.783  19.861  26.891  1.00  0.00     0.275 C 
ENDROOT
BRANCH   1   2
ATOM      2  C   UNL A   1      42.236  19.617  26.508  1.00  0.00     0.275 C 
BRANCH   2   3
ATOM      3  O   UNL A   1      42.619  20.441  25.396  1.00  0.00    -0.458 OA
BRANCH   3   4
ATOM      4  C   UNL A   1      43.949  20.708  25.273  1.00  0.00     0.338 C 
ATOM      5  O   UNL A   1      44.815  19.931  24.943  1.00  0.00    -0.246 OA
BRANCH   4   6
ATOM      6  C   UNL A   1      44.181  22.159  25.517  1.00  0.00     0.062 A 
ATOM      7  C   UNL A   1      45.403  23.965  26.569  1.00  0.00     0.066 A 
ATOM      8  C   UNL A   1      44.520  24.899  26.021  1.00  0.00     0.028 A 
ATOM      9  C   UNL A   1      45.204  22.597  26.358  1.00  0.00     0.044 A 
ATOM     10  C   UNL A   1      43.501  24.461  25.170  1.00  0.00     0.003 A 
ATOM     11  C   UNL A   1      43.342  23.096  24.902  1.00  0.00     0.016 A 
BRANCH   7  12
ATOM     12  N   UNL A   1      46.532  24.395  27.309  1.00  0.00    -0.236 N 
ATOM     13  C   UNL A   1      49.982  25.237  27.371  1.00  0.00     0.070 C 
ATOM     14  C   UNL A   1      48.551  24.977  27.660  1.00  0.00     0.079 A 
ATOM     15  N   UNL A   1      47.780  24.318  26.783  1.00  0.00    -0.171 NA
ATOM     16  C   UNL A   1      47.831  25.326  28.821  1.00  0.00     0.085 A 
ATOM     17  C   UNL A   1      46.544  24.890  28.604  1.00  0.00     0.060 A 
ATOM     18  Cl  UNL A   1      48.458  26.068  30.212  1.00  0.00    -0.080 Cl
ATOM     19  C   UNL A   1      45.382  24.829  29.531  1.00  0.00     0.068 C 
ENDBRANCH   7  12
ENDBRANCH   4   6
ENDBRANCH   3   4
ENDBRANCH   2   3
ENDBRANCH   1   2
BRANCH   1  20
ATOM     20  O   UNL A   1      40.606  21.130  27.521  1.00  0.00    -0.458 OA
BRANCH  20  21
ATOM     21  C   UNL A   1      39.805  21.988  26.852  1.00  0.00     0.338 C 
ATOM     22  O   UNL A   1      38.973  21.719  26.001  1.00  0.00    -0.246 OA
BRANCH  21  23
ATOM     23  C   UNL A   1      40.261  23.359  27.106  1.00  0.00     0.060 A 
ATOM     24  C   UNL A   1      41.339  23.531  27.977  1.00  0.00     0.016 A 
ATOM     25  C   UNL A   1      39.473  24.443  26.689  1.00  0.00     0.016 A 
ATOM     26  C   UNL A   1      41.551  24.781  28.525  1.00  0.00     0.010 A 
ATOM     27  C   UNL A   1      39.680  25.687  27.242  1.00  0.00     0.010 A 
ATOM     28  C   UNL A   1      40.684  25.833  28.194  1.00  0.00    -0.014 A 
BRANCH  28  29
ATOM     29  C   UNL A   1      40.985  27.148  28.732  1.00  0.00     0.031 A 
ATOM     30  C   UNL A   1      42.207  27.728  28.130  1.00  0.00     0.074 A 
ATOM     31  C   UNL A   1      40.195  27.814  29.595  1.00  0.00     0.049 A 
ATOM     32  N   UNL A   1      43.324  27.978  28.725  1.00  0.00    -0.248 NA
ATOM     33  C   UNL A   1      42.252  27.892  26.667  1.00  0.00     0.031 C 
ATOM     34  C   UNL A   1      38.845  27.452  30.032  1.00  0.00     0.029 A 
ATOM     35  N   UNL A   1      40.399  29.022  30.195  1.00  0.00    -0.354 N 
ATOM     36  C   UNL A   1      44.150  28.525  27.751  1.00  0.00     0.074 A 
ATOM     37  C   UNL A   1      43.513  28.288  26.483  1.00  0.00     0.031 C 
ATOM     38  C   UNL A   1      38.272  28.518  30.637  1.00  0.00     0.029 A 
ATOM     39  C   UNL A   1      39.253  29.584  30.745  1.00  0.00     0.049 A 
ATOM     40  H   UNL A   1      41.281  29.457  30.235  1.00  0.00     0.167 HD
ATOM     41  C   UNL A   1      45.130  29.396  28.106  1.00  0.00     0.037 A 
ATOM     42  C   UNL A   1      39.115  30.856  31.198  1.00  0.00     0.037 A 
ATOM     43  C   UNL A   1      45.450  29.267  29.506  1.00  0.00     0.049 A 
ATOM     44  C   UNL A   1      40.473  31.371  31.486  1.00  0.00     0.074 A 
ATOM     45  C   UNL A   1      45.970  28.281  30.318  1.00  0.00     0.029 A 
ATOM     46  N   UNL A   1      44.843  30.175  30.332  1.00  0.00    -0.354 N 
ATOM     47  N   UNL A   1      41.219  30.954  32.468  1.00  0.00    -0.248 NA
ATOM     48  C   UNL A   1      41.167  32.133  30.458  1.00  0.00     0.031 C 
ATOM     49  C   UNL A   1      45.347  28.464  31.591  1.00  0.00     0.029 A 
ATOM     50  C   UNL A   1      44.516  29.582  31.519  1.00  0.00     0.049 A 
ATOM     51  H   UNL A   1      44.666  31.116  30.102  1.00  0.00     0.167 HD
ATOM     52  C   UNL A   1      42.503  30.984  31.958  1.00  0.00     0.074 A 
ATOM     53  C   UNL A   1      42.429  31.878  30.809  1.00  0.00     0.031 C 
ATOM     54  C   UNL A   1      43.414  30.039  32.337  1.00  0.00     0.037 A 
BRANCH  41  55
ATOM     55  C   UNL A   1      45.402  30.674  27.342  1.00  0.00     0.064 A 
ATOM     56  C   UNL A   1      46.731  30.990  26.996  1.00  0.00     0.173 A 
ATOM     57  C   UNL A   1      44.479  31.740  27.243  1.00  0.00     0.173 A 
ATOM     58  F   UNL A   1      47.699  30.066  27.099  1.00  0.00    -0.203 F 
ATOM     59  C   UNL A   1      47.112  32.288  26.642  1.00  0.00     0.198 A 
ATOM     60  C   UNL A   1      44.853  33.018  26.835  1.00  0.00     0.198 A 
ATOM     61  F   UNL A   1      43.210  31.631  27.653  1.00  0.00    -0.203 F 
ATOM     62  F   UNL A   1      48.406  32.572  26.450  1.00  0.00    -0.200 F 
ATOM     63  C   UNL A   1      46.173  33.301  26.564  1.00  0.00     0.200 A 
ATOM     64  F   UNL A   1      43.932  33.993  26.801  1.00  0.00    -0.200 F 
ATOM     65  F   UNL A   1      46.544  34.557  26.287  1.00  0.00    -0.200 F 
ENDBRANCH  41  55
BRANCH  42  66
ATOM     66  C   UNL A   1      37.939  31.759  31.147  1.00  0.00     0.064 A 
ATOM     67  C   UNL A   1      37.445  32.225  29.914  1.00  0.00     0.173 A 
ATOM     68  C   UNL A   1      37.093  31.928  32.258  1.00  0.00     0.173 A 
ATOM     69  F   UNL A   1      38.168  32.075  28.794  1.00  0.00    -0.203 F 
ATOM     70  C   UNL A   1      36.163  32.773  29.793  1.00  0.00     0.198 A 
ATOM     71  C   UNL A   1      35.819  32.484  32.139  1.00  0.00     0.198 A 
ATOM     72  F   UNL A   1      37.443  31.464  33.466  1.00  0.00    -0.203 F 
ATOM     73  F   UNL A   1      35.698  33.127  28.587  1.00  0.00    -0.200 F 
ATOM     74  C   UNL A   1      35.346  32.888  30.904  1.00  0.00     0.200 A 
ATOM     75  F   UNL A   1      35.024  32.559  33.216  1.00  0.00    -0.200 F 
ATOM     76  F   UNL A   1      34.092  33.342  30.778  1.00  0.00    -0.200 F 
ENDBRANCH  42  66
BRANCH  54  77
ATOM     77  C   UNL A   1      43.146  29.311  33.625  1.00  0.00     0.064 A 
ATOM     78  C   UNL A   1      43.574  29.736  34.896  1.00  0.00     0.173 A 
ATOM     79  C   UNL A   1      42.374  28.143  33.562  1.00  0.00     0.173 A 
ATOM     80  F   UNL A   1      44.230  30.892  35.057  1.00  0.00    -0.203 F 
ATOM     81  C   UNL A   1      43.297  28.982  36.036  1.00  0.00     0.198 A 
ATOM     82  C   UNL A   1      42.061  27.418  34.706  1.00  0.00     0.198 A 
ATOM     83  F   UNL A   1      41.898  27.714  32.382  1.00  0.00    -0.203 F 
ATOM     84  F   UNL A   1      43.753  29.382  37.233  1.00  0.00    -0.200 F 
ATOM     85  C   UNL A   1      42.539  27.827  35.940  1.00  0.00     0.200 A 
ATOM     86  F   UNL A   1      41.288  26.329  34.613  1.00  0.00    -0.200 F 
ATOM     87  F   UNL A   1      42.253  27.115  37.040  1.00  0.00    -0.200 F 
ENDBRANCH  54  77
ENDBRANCH  28  29
ENDBRANCH  21  23
ENDBRANCH  20  21
ENDBRANCH   1  20
TORSDOF 12
ENDMDL
MODEL 2
REMARK VINA RESULT:     -11.5      0.344      1.201
REMARK SMILES Cc1nn(-c2cccc(C(=O)OCCOC(=O)c3ccc(-c4c5nc(c(-c6c(F)c(F)c(F)c(F)c6F)c6ccc([nH]6)c(-c6c(F)c(F)c(F)c(F)c6F)c6nc(c(-c7c(F)c(F)c(F)c(F)c7F)c7ccc4[nH]7)C=C6)C=C5)cc3)c2)c(C)c1Cl
REMARK SMILES IDX 14 1 13 2 12 3 10 4 11 5 9 6 5 7 6 8 81 9 7 10 8 11 4 12
REMARK SMILES IDX 1 13 2 14 3 15 84 16 82 17 85 18 83 19 15 20 16 21 17 22
REMARK SMILES IDX 18 23 19 24 80 25 20 26 79 27 21 28 22 29 23 30 73 31 24 32
REMARK SMILES IDX 78 33 72 34 74 35 25 36 77 37 71 38 70 39 26 41 58 42 38 43
REMARK SMILES IDX 57 44 39 45 42 46 56 47 75 48 40 49 41 50 55 52 76 53 43 54
REMARK SMILES IDX 27 55 28 56 36 57 29 58 30 59 34 60 37 61 31 62 32 63 35 64
REMARK SMILES IDX 33 65 59 66 60 67 68 68 61 69 62 70 66 71 69 72 63 73 64 74
REMARK SMILES IDX 67 75 65 76 44 77 45 78 53 79 46 80 47 81 51 82 54 83 48 84
REMARK SMILES IDX 49 85 52 86 50 87
REMARK H PARENT 74 40 42 51
REMARK Flexibility Score: inf
ROOT
ATOM      1  C   UNL A   1      41.025  19.698  26.957  1.00  0.00     0.275 C 
ENDROOT
BRANCH   1   2
ATOM      2  C   UNL A   1      42.334  19.427  26.230  1.00  0.00     0.275 C 
BRANCH   2   3
ATOM      3  O   UNL A   1      42.683  20.527  25.376  1.00  0.00    -0.458 OA
BRANCH   3   4
ATOM      4  C   UNL A   1      44.014  20.786  25.241  1.00  0.00     0.338 C 
ATOM      5  O   UNL A   1      44.871  20.004  24.898  1.00  0.00    -0.246 OA
BRANCH   4   6
ATOM      6  C   UNL A   1      44.258  22.234  25.487  1.00  0.00     0.062 A 
ATOM      7  C   UNL A   1      45.467  24.027  26.578  1.00  0.00     0.066 A 
ATOM      8  C   UNL A   1      44.620  24.971  25.992  1.00  0.00     0.028 A 
ATOM      9  C   UNL A   1      45.255  22.661  26.365  1.00  0.00     0.044 A 
ATOM     10  C   UNL A   1      43.628  24.544  25.104  1.00  0.00     0.003 A 
ATOM     11  C   UNL A   1      43.459  23.181  24.836  1.00  0.00     0.016 A 
BRANCH   7  12
ATOM     12  N   UNL A   1      46.573  24.443  27.359  1.00  0.00    -0.236 N 
ATOM     13  C   UNL A   1      50.020  25.279  27.542  1.00  0.00     0.070 C 
ATOM     14  C   UNL A   1      48.580  25.017  27.782  1.00  0.00     0.079 A 
ATOM     15  N   UNL A   1      47.837  24.373  26.871  1.00  0.00    -0.171 NA
ATOM     16  C   UNL A   1      47.825  25.348  28.926  1.00  0.00     0.085 A 
ATOM     17  C   UNL A   1      46.545  24.918  28.663  1.00  0.00     0.060 A 
ATOM     18  Cl  UNL A   1      48.410  26.067  30.347  1.00  0.00    -0.080 Cl
ATOM     19  C   UNL A   1      45.355  24.842  29.552  1.00  0.00     0.068 C 
ENDBRANCH   7  12
ENDBRANCH   4   6
ENDBRANCH   3   4
ENDBRANCH   2   3
ENDBRANCH   1   2
BRANCH   1  20
ATOM     20  O   UNL A   1      40.978  21.021  27.493  1.00  0.00    -0.458 OA
BRANCH  20  21
ATOM     21  C   UNL A   1      40.088  21.843  26.895  1.00  0.00     0.338 C 
ATOM     22  O   UNL A   1      39.217  21.540  26.096  1.00  0.00    -0.246 OA
BRANCH  21  23
ATOM     23  C   UNL A   1      40.484  23.233  27.143  1.00  0.00     0.060 A 
ATOM     24  C   UNL A   1      41.555  23.455  28.012  1.00  0.00     0.016 A 
ATOM     25  C   UNL A   1      39.650  24.280  26.724  1.00  0.00     0.016 A 
ATOM     26  C   UNL A   1      41.714  24.714  28.554  1.00  0.00     0.010 A 
ATOM     27  C   UNL A   1      39.804  25.534  27.273  1.00  0.00     0.010 A 
ATOM     28  C   UNL A   1      40.802  25.727  28.222  1.00  0.00    -0.014 A 
BRANCH  28  29
ATOM     29  C   UNL A   1      41.046  27.056  28.755  1.00  0.00     0.031 A 
ATOM     30  C   UNL A   1      42.236  27.689  28.143  1.00  0.00     0.074 A 
ATOM     31  C   UNL A   1      40.233  27.687  29.622  1.00  0.00     0.049 A 
ATOM     32  N   UNL A   1      43.345  27.991  28.729  1.00  0.00    -0.248 NA
ATOM     33  C   UNL A   1      42.263  27.852  26.679  1.00  0.00     0.031 C 
ATOM     34  C   UNL A   1      38.904  27.264  30.070  1.00  0.00     0.029 A 
ATOM     35  N   UNL A   1      40.386  28.904  30.219  1.00  0.00    -0.354 N 
ATOM     36  C   UNL A   1      44.137  28.573  27.748  1.00  0.00     0.074 A 
ATOM     37  C   UNL A   1      43.503  28.304  26.486  1.00  0.00     0.031 C 
ATOM     38  C   UNL A   1      38.287  28.305  30.677  1.00  0.00     0.029 A 
ATOM     39  C   UNL A   1      39.219  29.415  30.776  1.00  0.00     0.049 A 
ATOM     40  H   UNL A   1      41.247  29.380  30.252  1.00  0.00     0.167 HD
ATOM     41  C   UNL A   1      45.080  29.489  28.095  1.00  0.00     0.037 A 
ATOM     42  C   UNL A   1      39.027  30.680  31.227  1.00  0.00     0.037 A 
ATOM     43  C   UNL A   1      45.415  29.378  29.492  1.00  0.00     0.049 A 
ATOM     44  C   UNL A   1      40.361  31.258  31.504  1.00  0.00     0.074 A 
ATOM     45  C   UNL A   1      45.986  28.419  30.303  1.00  0.00     0.029 A 
ATOM     46  N   UNL A   1      44.773  30.259  30.321  1.00  0.00    -0.354 N 
ATOM     47  N   UNL A   1      41.133  30.877  32.482  1.00  0.00    -0.248 NA
ATOM     48  C   UNL A   1      41.012  32.047  30.470  1.00  0.00     0.031 C 
ATOM     49  C   UNL A   1      45.364  28.576  31.579  1.00  0.00     0.029 A 
ATOM     50  C   UNL A   1      44.482  29.655  31.512  1.00  0.00     0.049 A 
ATOM     51  H   UNL A   1      44.552  31.191  30.091  1.00  0.00     0.167 HD
ATOM     52  C   UNL A   1      42.411  30.965  31.962  1.00  0.00     0.074 A 
ATOM     53  C   UNL A   1      42.288  31.852  30.812  1.00  0.00     0.031 C 
ATOM     54  C   UNL A   1      43.367  30.063  32.336  1.00  0.00     0.037 A 
BRANCH  41  55
ATOM     55  C   UNL A   1      45.288  30.776  27.326  1.00  0.00     0.064 A 
ATOM     56  C   UNL A   1      46.595  31.140  26.949  1.00  0.00     0.173 A 
ATOM     57  C   UNL A   1      44.324  31.808  27.250  1.00  0.00     0.173 A 
ATOM     58  F   UNL A   1      47.598  30.251  27.027  1.00  0.00    -0.203 F 
ATOM     59  C   UNL A   1      46.921  32.451  26.587  1.00  0.00     0.198 A 
ATOM     60  C   UNL A   1      44.642  33.099  26.835  1.00  0.00     0.198 A 
ATOM     61  F   UNL A   1      43.070  31.654  27.690  1.00  0.00    -0.203 F 
ATOM     62  F   UNL A   1      48.199  32.781  26.365  1.00  0.00    -0.200 F 
ATOM     63  C   UNL A   1      45.945  33.429  26.533  1.00  0.00     0.200 A 
ATOM     64  F   UNL A   1      43.687  34.040  26.824  1.00  0.00    -0.200 F 
ATOM     65  F   UNL A   1      46.264  34.698  26.249  1.00  0.00    -0.200 F 
ENDBRANCH  41  55
BRANCH  42  66
ATOM     66  C   UNL A   1      37.810  31.528  31.182  1.00  0.00     0.064 A 
ATOM     67  C   UNL A   1      37.133  31.875  32.366  1.00  0.00     0.173 A 
ATOM     68  C   UNL A   1      37.471  32.267  30.034  1.00  0.00     0.173 A 
ATOM     69  F   UNL A   1      37.416  31.247  33.518  1.00  0.00    -0.203 F 
ATOM     70  C   UNL A   1      36.217  32.932  32.409  1.00  0.00     0.198 A 
ATOM     71  C   UNL A   1      36.550  33.315  30.075  1.00  0.00     0.198 A 
ATOM     72  F   UNL A   1      38.101  32.057  28.870  1.00  0.00    -0.203 F 
ATOM     73  F   UNL A   1      35.658  33.285  33.575  1.00  0.00    -0.200 F 
ATOM     74  C   UNL A   1      35.939  33.661  31.266  1.00  0.00     0.200 A 
ATOM     75  F   UNL A   1      36.314  34.034  28.969  1.00  0.00    -0.200 F 
ATOM     76  F   UNL A   1      35.121  34.720  31.320  1.00  0.00    -0.200 F 
ENDBRANCH  42  66
BRANCH  54  77
ATOM     77  C   UNL A   1      43.141  29.327  33.627  1.00  0.00     0.064 A 
ATOM     78  C   UNL A   1      43.539  29.784  34.897  1.00  0.00     0.173 A 
ATOM     79  C   UNL A   1      42.444  28.113  33.569  1.00  0.00     0.173 A 
ATOM     80  F   UNL A   1      44.122  30.979  35.054  1.00  0.00    -0.203 F 
ATOM     81  C   UNL A   1      43.307  29.021  36.041  1.00  0.00     0.198 A 
ATOM     82  C   UNL A   1      42.173  27.376  34.717  1.00  0.00     0.198 A 
ATOM     83  F   UNL A   1      41.997  27.649  32.391  1.00  0.00    -0.203 F 
ATOM     84  F   UNL A   1      43.734  29.454  37.237  1.00  0.00    -0.200 F 
ATOM     85  C   UNL A   1      42.623  27.820  35.950  1.00  0.00     0.200 A 
ATOM     86  F   UNL A   1      41.470  26.240  34.628  1.00  0.00    -0.200 F 
ATOM     87  F   UNL A   1      42.379  27.097  37.052  1.00  0.00    -0.200 F 
ENDBRANCH  54  77
ENDBRANCH  28  29
ENDBRANCH  21  23
ENDBRANCH  20  21
ENDBRANCH   1  20
TORSDOF 12
ENDMDL
MODEL 3
REMARK VINA RESULT:     -11.3      3.392      5.737
REMARK SMILES Cc1nn(-c2cccc(C(=O)OCCOC(=O)c3ccc(-c4c5nc(c(-c6c(F)c(F)c(F)c(F)c6F)c6ccc([nH]6)c(-c6c(F)c(F)c(F)c(F)c6F)c6nc(c(-c7c(F)c(F)c(F)c(F)c7F)c7ccc4[nH]7)C=C6)C=C5)cc3)c2)c(C)c1Cl
REMARK SMILES IDX 14 1 13 2 12 3 10 4 11 5 9 6 5 7 6 8 81 9 7 10 8 11 4 12
REMARK SMILES IDX 1 13 2 14 3 15 84 16 82 17 85 18 83 19 15 20 16 21 17 22
REMARK SMILES IDX 18 23 19 24 80 25 20 26 79 27 21 28 22 29 23 30 73 31 24 32
REMARK SMILES IDX 78 33 72 34 74 35 25 36 77 37 71 38 70 39 26 41 58 42 38 43
REMARK SMILES IDX 57 44 39 45 42 46 56 47 75 48 40 49 41 50 55 52 76 53 43 54
REMARK SMILES IDX 27 55 28 56 36 57 29 58 30 59 34 60 37 61 31 62 32 63 35 64
REMARK SMILES IDX 33 65 59 66 60 67 68 68 61 69 62 70 66 71 69 72 63 73 64 74
REMARK SMILES IDX 67 75 65 76 44 77 45 78 53 79 46 80 47 81 51 82 54 83 48 84
REMARK SMILES IDX 49 85 52 86 50 87
REMARK H PARENT 74 40 42 51
REMARK Flexibility Score: inf
ROOT
ATOM      1  C   UNL A   1      43.062  19.214  25.838  1.00  0.00     0.275 C 
ENDROOT
BRANCH   1   2
ATOM      2  C   UNL A   1      41.883  19.562  26.736  1.00  0.00     0.275 C 
BRANCH   2   3
ATOM      3  O   UNL A   1      41.084  20.602  26.154  1.00  0.00    -0.458 OA
BRANCH   3   4
ATOM      4  C   UNL A   1      39.821  20.253  25.779  1.00  0.00     0.338 C 
ATOM      5  O   UNL A   1      39.429  19.143  25.504  1.00  0.00    -0.246 OA
BRANCH   4   6
ATOM      6  C   UNL A   1      38.941  21.453  25.851  1.00  0.00     0.062 A 
ATOM      7  C   UNL A   1      36.845  22.577  25.397  1.00  0.00     0.066 A 
ATOM      8  C   UNL A   1      37.353  23.766  25.927  1.00  0.00     0.028 A 
ATOM      9  C   UNL A   1      37.653  21.439  25.314  1.00  0.00     0.044 A 
ATOM     10  C   UNL A   1      38.639  23.777  26.474  1.00  0.00     0.003 A 
ATOM     11  C   UNL A   1      39.425  22.619  26.455  1.00  0.00     0.016 A 
BRANCH   7  12
ATOM     12  N   UNL A   1      35.494  22.499  24.976  1.00  0.00    -0.236 N 
ATOM     13  C   UNL A   1      33.109  22.748  22.357  1.00  0.00     0.070 C 
ATOM     14  C   UNL A   1      33.845  22.554  23.629  1.00  0.00     0.079 A 
ATOM     15  N   UNL A   1      35.115  22.962  23.759  1.00  0.00    -0.171 NA
ATOM     16  C   UNL A   1      33.361  21.982  24.824  1.00  0.00     0.085 A 
ATOM     17  C   UNL A   1      34.419  22.008  25.703  1.00  0.00     0.060 A 
ATOM     18  Cl  UNL A   1      31.779  21.443  25.115  1.00  0.00    -0.080 Cl
ATOM     19  C   UNL A   1      34.468  21.697  27.157  1.00  0.00     0.068 C 
ENDBRANCH   7  12
ENDBRANCH   4   6
ENDBRANCH   3   4
ENDBRANCH   2   3
ENDBRANCH   1   2
BRANCH   1  20
ATOM     20  O   UNL A   1      43.323  20.243  24.882  1.00  0.00    -0.458 OA
BRANCH  20  21
ATOM     21  C   UNL A   1      44.561  20.778  24.950  1.00  0.00     0.338 C 
ATOM     22  O   UNL A   1      45.629  20.189  24.902  1.00  0.00    -0.246 OA
BRANCH  21  23
ATOM     23  C   UNL A   1      44.450  22.183  25.359  1.00  0.00     0.060 A 
ATOM     24  C   UNL A   1      45.285  22.624  26.388  1.00  0.00     0.016 A 
ATOM     25  C   UNL A   1      43.371  22.956  24.905  1.00  0.00     0.016 A 
ATOM     26  C   UNL A   1      44.961  23.795  27.043  1.00  0.00     0.010 A 
ATOM     27  C   UNL A   1      43.044  24.120  25.565  1.00  0.00     0.010 A 
ATOM     28  C   UNL A   1      43.811  24.502  26.661  1.00  0.00    -0.014 A 
BRANCH  28  29
ATOM     29  C   UNL A   1      43.546  25.767  27.324  1.00  0.00     0.031 A 
ATOM     30  C   UNL A   1      44.531  26.807  26.951  1.00  0.00     0.074 A 
ATOM     31  C   UNL A   1      42.474  26.005  28.102  1.00  0.00     0.049 A 
ATOM     32  N   UNL A   1      45.403  27.364  27.721  1.00  0.00    -0.248 NA
ATOM     33  C   UNL A   1      44.680  27.145  25.525  1.00  0.00     0.031 C 
ATOM     34  C   UNL A   1      41.309  25.140  28.308  1.00  0.00     0.029 A 
ATOM     35  N   UNL A   1      42.152  27.128  28.806  1.00  0.00    -0.354 N 
ATOM     36  C   UNL A   1      46.077  28.277  26.920  1.00  0.00     0.074 A 
ATOM     37  C   UNL A   1      45.720  27.979  25.558  1.00  0.00     0.031 C 
ATOM     38  C   UNL A   1      40.321  25.857  28.891  1.00  0.00     0.029 A 
ATOM     39  C   UNL A   1      40.824  27.181  29.215  1.00  0.00     0.049 A 
ATOM     40  H   UNL A   1      42.802  27.840  29.006  1.00  0.00     0.167 HD
ATOM     41  C   UNL A   1      46.623  29.391  27.474  1.00  0.00     0.037 A 
ATOM     42  C   UNL A   1      40.179  28.260  29.726  1.00  0.00     0.037 A 
ATOM     43  C   UNL A   1      46.805  29.222  28.894  1.00  0.00     0.049 A 
ATOM     44  C   UNL A   1      41.211  29.185  30.247  1.00  0.00     0.074 A 
ATOM     45  C   UNL A   1      47.553  28.396  29.707  1.00  0.00     0.029 A 
ATOM     46  N   UNL A   1      45.817  29.753  29.679  1.00  0.00    -0.354 N 
ATOM     47  N   UNL A   1      41.941  28.948  31.299  1.00  0.00    -0.248 NA
ATOM     48  C   UNL A   1      41.691  30.257  29.387  1.00  0.00     0.031 C 
ATOM     49  C   UNL A   1      46.765  28.198  30.882  1.00  0.00     0.029 A 
ATOM     50  C   UNL A   1      45.596  28.950  30.762  1.00  0.00     0.049 A 
ATOM     51  H   UNL A   1      45.336  30.591  29.489  1.00  0.00     0.167 HD
ATOM     52  C   UNL A   1      43.174  29.489  30.989  1.00  0.00     0.074 A 
ATOM     53  C   UNL A   1      42.910  30.426  29.904  1.00  0.00     0.031 C 
ATOM     54  C   UNL A   1      44.318  28.890  31.436  1.00  0.00     0.037 A 
BRANCH  41  55
ATOM     55  C   UNL A   1      46.494  30.762  26.846  1.00  0.00     0.064 A 
ATOM     56  C   UNL A   1      47.622  31.605  26.815  1.00  0.00     0.173 A 
ATOM     57  C   UNL A   1      45.255  31.395  26.593  1.00  0.00     0.173 A 
ATOM     58  F   UNL A   1      48.842  31.118  27.087  1.00  0.00    -0.203 F 
ATOM     59  C   UNL A   1      47.507  32.984  26.611  1.00  0.00     0.198 A 
ATOM     60  C   UNL A   1      45.151  32.760  26.335  1.00  0.00     0.198 A 
ATOM     61  F   UNL A   1      44.085  30.757  26.709  1.00  0.00    -0.203 F 
ATOM     62  F   UNL A   1      48.589  33.765  26.721  1.00  0.00    -0.200 F 
ATOM     63  C   UNL A   1      46.272  33.560  26.374  1.00  0.00     0.200 A 
ATOM     64  F   UNL A   1      43.940  33.303  26.142  1.00  0.00    -0.200 F 
ATOM     65  F   UNL A   1      46.151  34.886  26.241  1.00  0.00    -0.200 F 
ENDBRANCH  41  55
BRANCH  42  66
ATOM     66  C   UNL A   1      38.768  28.688  29.561  1.00  0.00     0.064 A 
ATOM     67  C   UNL A   1      37.952  28.922  30.684  1.00  0.00     0.173 A 
ATOM     68  C   UNL A   1      38.288  29.177  28.332  1.00  0.00     0.173 A 
ATOM     69  F   UNL A   1      38.346  28.521  31.902  1.00  0.00    -0.203 F 
ATOM     70  C   UNL A   1      36.760  29.647  30.591  1.00  0.00     0.198 A 
ATOM     71  C   UNL A   1      37.094  29.893  28.238  1.00  0.00     0.198 A 
ATOM     72  F   UNL A   1      39.017  29.061  27.213  1.00  0.00    -0.203 F 
ATOM     73  F   UNL A   1      36.055  29.921  31.698  1.00  0.00    -0.200 F 
ATOM     74  C   UNL A   1      36.340  30.146  29.369  1.00  0.00     0.200 A 
ATOM     75  F   UNL A   1      36.714  30.398  27.056  1.00  0.00    -0.200 F 
ATOM     76  F   UNL A   1      35.239  30.905  29.290  1.00  0.00    -0.200 F 
ENDBRANCH  42  66
BRANCH  54  77
ATOM     77  C   UNL A   1      44.189  27.970  32.617  1.00  0.00     0.064 A 
ATOM     78  C   UNL A   1      43.979  26.581  32.540  1.00  0.00     0.173 A 
ATOM     79  C   UNL A   1      44.334  28.529  33.894  1.00  0.00     0.173 A 
ATOM     80  F   UNL A   1      43.929  25.951  31.359  1.00  0.00    -0.203 F 
ATOM     81  C   UNL A   1      43.850  25.808  33.693  1.00  0.00     0.198 A 
ATOM     82  C   UNL A   1      44.251  27.747  35.042  1.00  0.00     0.198 A 
ATOM     83  F   UNL A   1      44.584  29.841  34.030  1.00  0.00    -0.203 F 
ATOM     84  F   UNL A   1      43.605  24.492  33.597  1.00  0.00    -0.200 F 
ATOM     85  C   UNL A   1      43.989  26.391  34.942  1.00  0.00     0.200 A 
ATOM     86  F   UNL A   1      44.434  28.309  36.244  1.00  0.00    -0.200 F 
ATOM     87  F   UNL A   1      43.888  25.644  36.050  1.00  0.00    -0.200 F 
ENDBRANCH  54  77
ENDBRANCH  28  29
ENDBRANCH  21  23
ENDBRANCH  20  21
ENDBRANCH   1  20
TORSDOF 12
ENDMDL
