MODEL 1
REMARK VINA RESULT:     -12.1      0.000      0.000
REMARK SMILES Cc1cc(=O)cc(C)n1C[C@H]1CCCC[C@@H]1C(=O)OCCOC(=O)c1ccc(-c2c3nc(c(-c4c(F)c(F)c(F)c(F)c4F)c4ccc([nH]4)c(-c4c(F)c(F)c(F)c(F)c4F)c4nc(c(-c5c(F)c(F)c(F)c(F)c5F)c5ccc2[nH]5)C=C4)C=C3)cc1
REMARK SMILES IDX 20 1 19 2 17 3 18 4 16 5 11 6 12 7 13 8 15 9 14 10 10 11
REMARK SMILES IDX 9 12 1 13 2 14 3 15 4 16 7 17 5 18 6 19 8 20 21 21 22 22
REMARK SMILES IDX 23 23 24 24 25 25 26 26 87 27 27 28 86 29 28 30 29 31 30 32
REMARK SMILES IDX 80 33 31 34 85 35 79 36 81 37 32 38 84 39 78 40 77 41 33 43
REMARK SMILES IDX 65 44 45 45 64 46 46 47 49 48 63 49 82 50 47 51 48 52 62 54
REMARK SMILES IDX 83 55 50 56 34 57 35 58 43 59 36 60 37 61 41 62 44 63 38 64
REMARK SMILES IDX 39 65 42 66 40 67 66 68 67 69 75 70 68 71 69 72 73 73 76 74
REMARK SMILES IDX 70 75 71 76 74 77 72 78 51 79 52 80 60 81 53 82 54 83 58 84
REMARK SMILES IDX 61 85 55 86 56 87 59 88 57 89
REMARK H PARENT 81 42 49 53
REMARK Flexibility Score: inf
ROOT
ATOM      1  C   UNL A   1      31.067  29.916  24.664  1.00  0.00     0.274 C 
ENDROOT
BRANCH   1   2
ATOM      2  O   UNL A   1      32.195  29.232  24.072  1.00  0.00    -0.462 OA
BRANCH   2   3
ATOM      3  C   UNL A   1      31.943  27.941  23.710  1.00  0.00     0.309 C 
ATOM      4  O   UNL A   1      30.880  27.571  23.229  1.00  0.00    -0.252 OA
BRANCH   3   5
ATOM      5  C   UNL A   1      33.108  27.003  24.062  1.00  0.00     0.104 C 
ATOM      6  C   UNL A   1      32.719  25.493  24.037  1.00  0.00     0.023 C 
ATOM      7  C   UNL A   1      31.682  25.209  25.139  1.00  0.00     0.006 C 
ATOM      8  C   UNL A   1      32.157  25.644  26.528  1.00  0.00     0.000 C 
ATOM      9  C   UNL A   1      33.643  27.414  25.438  1.00  0.00     0.016 C 
ATOM     10  C   UNL A   1      32.666  27.083  26.569  1.00  0.00     0.001 C 
BRANCH   6  11
ATOM     11  C   UNL A   1      33.964  24.560  24.164  1.00  0.00     0.126 C 
BRANCH  11  12
ATOM     12  N   UNL A   1      33.603  23.120  24.382  1.00  0.00    -0.349 N 
ATOM     13  C   UNL A   1      32.923  22.915  21.938  1.00  0.00     0.064 C 
ATOM     14  C   UNL A   1      32.979  22.371  23.345  1.00  0.00     0.018 A 
ATOM     15  C   UNL A   1      32.482  21.134  23.538  1.00  0.00     0.073 A 
ATOM     16  C   UNL A   1      32.589  20.502  24.860  1.00  0.00     0.182 A 
ATOM     17  C   UNL A   1      33.873  22.440  25.603  1.00  0.00     0.018 A 
ATOM     18  O   UNL A   1      32.095  19.406  25.086  1.00  0.00    -0.290 OA
ATOM     19  C   UNL A   1      33.382  21.214  25.871  1.00  0.00     0.073 A 
ATOM     20  C   UNL A   1      34.814  22.995  26.648  1.00  0.00     0.064 C 
ENDBRANCH  11  12
ENDBRANCH   6  11
ENDBRANCH   3   5
ENDBRANCH   2   3
ENDBRANCH   1   2
BRANCH   1  21
ATOM     21  C   UNL A   1      31.417  30.514  26.027  1.00  0.00     0.275 C 
BRANCH  21  22
ATOM     22  O   UNL A   1      32.834  30.734  26.117  1.00  0.00    -0.458 OA
BRANCH  22  23
ATOM     23  C   UNL A   1      33.236  31.617  27.061  1.00  0.00     0.338 C 
ATOM     24  O   UNL A   1      32.612  32.575  27.481  1.00  0.00    -0.246 OA
BRANCH  23  25
ATOM     25  C   UNL A   1      34.570  31.241  27.585  1.00  0.00     0.060 A 
ATOM     26  C   UNL A   1      34.867  29.914  27.885  1.00  0.00     0.016 A 
ATOM     27  C   UNL A   1      35.488  32.240  27.911  1.00  0.00     0.016 A 
ATOM     28  C   UNL A   1      36.009  29.594  28.620  1.00  0.00     0.010 A 
ATOM     29  C   UNL A   1      36.690  31.902  28.547  1.00  0.00     0.010 A 
ATOM     30  C   UNL A   1      36.943  30.581  28.957  1.00  0.00    -0.014 A 
BRANCH  30  31
ATOM     31  C   UNL A   1      38.137  30.251  29.791  1.00  0.00     0.031 A 
ATOM     32  C   UNL A   1      39.251  29.417  29.211  1.00  0.00     0.074 A 
ATOM     33  C   UNL A   1      38.260  30.713  31.051  1.00  0.00     0.049 A 
ATOM     34  N   UNL A   1      40.244  28.816  29.818  1.00  0.00    -0.248 NA
ATOM     35  C   UNL A   1      39.229  29.208  27.754  1.00  0.00     0.031 C 
ATOM     36  C   UNL A   1      37.306  31.585  31.736  1.00  0.00     0.029 A 
ATOM     37  N   UNL A   1      39.257  30.526  31.978  1.00  0.00    -0.354 N 
ATOM     38  C   UNL A   1      40.934  28.128  28.829  1.00  0.00     0.074 A 
ATOM     39  C   UNL A   1      40.235  28.362  27.584  1.00  0.00     0.031 C 
ATOM     40  C   UNL A   1      37.791  31.907  32.945  1.00  0.00     0.029 A 
ATOM     41  C   UNL A   1      39.040  31.185  33.164  1.00  0.00     0.049 A 
ATOM     42  H   UNL A   1      40.053  29.970  31.809  1.00  0.00     0.167 HD
ATOM     43  C   UNL A   1      42.050  27.369  28.949  1.00  0.00     0.037 A 
ATOM     44  C   UNL A   1      39.744  31.181  34.313  1.00  0.00     0.037 A 
ATOM     45  C   UNL A   1      42.795  27.204  30.169  1.00  0.00     0.049 A 
ATOM     46  C   UNL A   1      40.955  30.300  34.439  1.00  0.00     0.074 A 
ATOM     47  C   UNL A   1      43.918  26.428  30.398  1.00  0.00     0.029 A 
ATOM     48  N   UNL A   1      42.518  27.867  31.355  1.00  0.00    -0.354 N 
ATOM     49  N   UNL A   1      41.518  29.537  33.536  1.00  0.00    -0.248 NA
ATOM     50  C   UNL A   1      41.604  30.248  35.758  1.00  0.00     0.031 C 
ATOM     51  C   UNL A   1      44.304  26.600  31.731  1.00  0.00     0.029 A 
ATOM     52  C   UNL A   1      43.439  27.505  32.323  1.00  0.00     0.049 A 
ATOM     53  H   UNL A   1      41.776  28.501  31.487  1.00  0.00     0.167 HD
ATOM     54  C   UNL A   1      42.582  28.915  34.171  1.00  0.00     0.074 A 
ATOM     55  C   UNL A   1      42.603  29.405  35.534  1.00  0.00     0.031 C 
ATOM     56  C   UNL A   1      43.452  28.004  33.673  1.00  0.00     0.037 A 
BRANCH  43  57
ATOM     57  C   UNL A   1      42.520  26.624  27.737  1.00  0.00     0.064 A 
ATOM     58  C   UNL A   1      43.462  27.165  26.851  1.00  0.00     0.173 A 
ATOM     59  C   UNL A   1      42.057  25.322  27.491  1.00  0.00     0.173 A 
ATOM     60  F   UNL A   1      43.921  28.412  27.028  1.00  0.00    -0.203 F 
ATOM     61  C   UNL A   1      43.912  26.433  25.754  1.00  0.00     0.198 A 
ATOM     62  C   UNL A   1      42.527  24.584  26.408  1.00  0.00     0.198 A 
ATOM     63  F   UNL A   1      41.157  24.757  28.311  1.00  0.00    -0.203 F 
ATOM     64  F   UNL A   1      44.787  26.981  24.898  1.00  0.00    -0.200 F 
ATOM     65  C   UNL A   1      43.452  25.141  25.539  1.00  0.00     0.200 A 
ATOM     66  F   UNL A   1      42.089  23.334  26.208  1.00  0.00    -0.200 F 
ATOM     67  F   UNL A   1      43.895  24.436  24.489  1.00  0.00    -0.200 F 
ENDBRANCH  43  57
BRANCH  44  68
ATOM     68  C   UNL A   1      39.292  32.015  35.457  1.00  0.00     0.064 A 
ATOM     69  C   UNL A   1      38.444  31.483  36.437  1.00  0.00     0.173 A 
ATOM     70  C   UNL A   1      39.706  33.347  35.602  1.00  0.00     0.173 A 
ATOM     71  F   UNL A   1      37.998  30.223  36.327  1.00  0.00    -0.203 F 
ATOM     72  C   UNL A   1      38.028  32.253  37.522  1.00  0.00     0.198 A 
ATOM     73  C   UNL A   1      39.312  34.106  36.701  1.00  0.00     0.198 A 
ATOM     74  F   UNL A   1      40.514  33.904  34.688  1.00  0.00    -0.203 F 
ATOM     75  F   UNL A   1      37.194  31.731  38.430  1.00  0.00    -0.200 F 
ATOM     76  C   UNL A   1      38.470  33.561  37.658  1.00  0.00     0.200 A 
ATOM     77  F   UNL A   1      39.753  35.365  36.837  1.00  0.00    -0.200 F 
ATOM     78  F   UNL A   1      38.083  34.295  38.709  1.00  0.00    -0.200 F 
ENDBRANCH  44  68
BRANCH  56  79
ATOM     79  C   UNL A   1      44.504  27.475  34.598  1.00  0.00     0.064 A 
ATOM     80  C   UNL A   1      44.295  26.301  35.336  1.00  0.00     0.173 A 
ATOM     81  C   UNL A   1      45.754  28.102  34.693  1.00  0.00     0.173 A 
ATOM     82  F   UNL A   1      43.110  25.673  35.286  1.00  0.00    -0.203 F 
ATOM     83  C   UNL A   1      45.301  25.777  36.142  1.00  0.00     0.198 A 
ATOM     84  C   UNL A   1      46.764  27.565  35.486  1.00  0.00     0.198 A 
ATOM     85  F   UNL A   1      46.002  29.226  34.002  1.00  0.00    -0.203 F 
ATOM     86  F   UNL A   1      45.074  24.666  36.857  1.00  0.00    -0.200 F 
ATOM     87  C   UNL A   1      46.536  26.404  36.210  1.00  0.00     0.200 A 
ATOM     88  F   UNL A   1      47.960  28.168  35.545  1.00  0.00    -0.200 F 
ATOM     89  F   UNL A   1      47.508  25.892  36.978  1.00  0.00    -0.200 F 
ENDBRANCH  56  79
ENDBRANCH  30  31
ENDBRANCH  23  25
ENDBRANCH  22  23
ENDBRANCH  21  22
ENDBRANCH   1  21
TORSDOF 13
ENDMDL
MODEL 2
REMARK VINA RESULT:     -12.1      4.154      9.765
REMARK SMILES Cc1cc(=O)cc(C)n1C[C@H]1CCCC[C@@H]1C(=O)OCCOC(=O)c1ccc(-c2c3nc(c(-c4c(F)c(F)c(F)c(F)c4F)c4ccc([nH]4)c(-c4c(F)c(F)c(F)c(F)c4F)c4nc(c(-c5c(F)c(F)c(F)c(F)c5F)c5ccc2[nH]5)C=C4)C=C3)cc1
REMARK SMILES IDX 20 1 19 2 17 3 18 4 16 5 11 6 12 7 13 8 15 9 14 10 10 11
REMARK SMILES IDX 9 12 1 13 2 14 3 15 4 16 7 17 5 18 6 19 8 20 21 21 22 22
REMARK SMILES IDX 23 23 24 24 25 25 26 26 87 27 27 28 86 29 28 30 29 31 30 32
REMARK SMILES IDX 80 33 31 34 85 35 79 36 81 37 32 38 84 39 78 40 77 41 33 43
REMARK SMILES IDX 65 44 45 45 64 46 46 47 49 48 63 49 82 50 47 51 48 52 62 54
REMARK SMILES IDX 83 55 50 56 34 57 35 58 43 59 36 60 37 61 41 62 44 63 38 64
REMARK SMILES IDX 39 65 42 66 40 67 66 68 67 69 75 70 68 71 69 72 73 73 76 74
REMARK SMILES IDX 70 75 71 76 74 77 72 78 51 79 52 80 60 81 53 82 54 83 58 84
REMARK SMILES IDX 61 85 55 86 56 87 59 88 57 89
REMARK H PARENT 81 42 49 53
REMARK Flexibility Score: inf
ROOT
ATOM      1  C   UNL A   1      35.222  20.421  25.082  1.00  0.00     0.274 C 
ENDROOT
BRANCH   1   2
ATOM      2  O   UNL A   1      34.863  21.419  26.065  1.00  0.00    -0.462 OA
BRANCH   2   3
ATOM      3  C   UNL A   1      33.674  22.043  25.823  1.00  0.00     0.309 C 
ATOM      4  O   UNL A   1      32.688  21.469  25.380  1.00  0.00    -0.252 OA
BRANCH   3   5
ATOM      5  C   UNL A   1      33.752  23.556  26.083  1.00  0.00     0.104 C 
ATOM      6  C   UNL A   1      32.706  24.380  25.270  1.00  0.00     0.023 C 
ATOM      7  C   UNL A   1      33.008  24.256  23.765  1.00  0.00     0.006 C 
ATOM      8  C   UNL A   1      34.440  24.663  23.411  1.00  0.00     0.000 C 
ATOM      9  C   UNL A   1      35.181  24.014  25.770  1.00  0.00     0.016 C 
ATOM     10  C   UNL A   1      35.495  23.970  24.273  1.00  0.00     0.001 C 
BRANCH   6  11
ATOM     11  C   UNL A   1      32.648  25.872  25.725  1.00  0.00     0.126 C 
BRANCH  11  12
ATOM     12  N   UNL A   1      31.875  26.747  24.781  1.00  0.00    -0.349 N 
ATOM     13  C   UNL A   1      29.694  25.756  25.642  1.00  0.00     0.064 C 
ATOM     14  C   UNL A   1      30.466  26.593  24.651  1.00  0.00     0.018 A 
ATOM     15  C   UNL A   1      29.749  27.228  23.704  1.00  0.00     0.073 A 
ATOM     16  C   UNL A   1      30.422  28.136  22.764  1.00  0.00     0.182 A 
ATOM     17  C   UNL A   1      32.494  27.763  23.998  1.00  0.00     0.018 A 
ATOM     18  O   UNL A   1      29.811  28.681  21.855  1.00  0.00    -0.290 OA
ATOM     19  C   UNL A   1      31.841  28.415  23.016  1.00  0.00     0.073 A 
ATOM     20  C   UNL A   1      33.894  28.257  24.276  1.00  0.00     0.064 C 
ENDBRANCH  11  12
ENDBRANCH   6  11
ENDBRANCH   3   5
ENDBRANCH   2   3
ENDBRANCH   1   2
BRANCH   1  21
ATOM     21  C   UNL A   1      36.737  20.236  24.989  1.00  0.00     0.275 C 
BRANCH  21  22
ATOM     22  O   UNL A   1      37.406  21.370  25.563  1.00  0.00    -0.458 OA
BRANCH  22  23
ATOM     23  C   UNL A   1      38.701  21.180  25.908  1.00  0.00     0.338 C 
ATOM     24  O   UNL A   1      39.367  20.175  25.731  1.00  0.00    -0.246 OA
BRANCH  23  25
ATOM     25  C   UNL A   1      39.260  22.411  26.516  1.00  0.00     0.060 A 
ATOM     26  C   UNL A   1      38.743  23.662  26.189  1.00  0.00     0.016 A 
ATOM     27  C   UNL A   1      40.401  22.327  27.315  1.00  0.00     0.016 A 
ATOM     28  C   UNL A   1      39.428  24.824  26.544  1.00  0.00     0.010 A 
ATOM     29  C   UNL A   1      41.022  23.498  27.767  1.00  0.00     0.010 A 
ATOM     30  C   UNL A   1      40.575  24.763  27.346  1.00  0.00    -0.014 A 
BRANCH  30  31
ATOM     31  C   UNL A   1      41.341  25.999  27.680  1.00  0.00     0.031 A 
ATOM     32  C   UNL A   1      40.719  27.053  28.561  1.00  0.00     0.074 A 
ATOM     33  C   UNL A   1      42.601  26.184  27.237  1.00  0.00     0.049 A 
ATOM     34  N   UNL A   1      41.097  28.289  28.775  1.00  0.00    -0.248 NA
ATOM     35  C   UNL A   1      39.490  26.674  29.276  1.00  0.00     0.031 C 
ATOM     36  C   UNL A   1      43.369  25.235  26.433  1.00  0.00     0.029 A 
ATOM     37  N   UNL A   1      43.467  27.236  27.419  1.00  0.00    -0.354 N 
ATOM     38  C   UNL A   1      40.135  28.842  29.609  1.00  0.00     0.074 A 
ATOM     39  C   UNL A   1      39.140  27.818  29.845  1.00  0.00     0.031 C 
ATOM     40  C   UNL A   1      44.607  25.715  26.245  1.00  0.00     0.029 A 
ATOM     41  C   UNL A   1      44.692  27.051  26.827  1.00  0.00     0.049 A 
ATOM     42  H   UNL A   1      43.232  28.046  27.927  1.00  0.00     0.167 HD
ATOM     43  C   UNL A   1      40.086  30.091  30.131  1.00  0.00     0.037 A 
ATOM     44  C   UNL A   1      45.753  27.876  26.727  1.00  0.00     0.037 A 
ATOM     45  C   UNL A   1      41.116  31.083  29.969  1.00  0.00     0.049 A 
ATOM     46  C   UNL A   1      45.663  29.272  27.276  1.00  0.00     0.074 A 
ATOM     47  C   UNL A   1      41.142  32.388  30.430  1.00  0.00     0.029 A 
ATOM     48  N   UNL A   1      42.327  30.860  29.331  1.00  0.00    -0.354 N 
ATOM     49  N   UNL A   1      44.686  29.836  27.940  1.00  0.00    -0.248 NA
ATOM     50  C   UNL A   1      46.808  30.160  27.024  1.00  0.00     0.031 C 
ATOM     51  C   UNL A   1      42.357  32.964  30.047  1.00  0.00     0.029 A 
ATOM     52  C   UNL A   1      43.100  32.009  29.373  1.00  0.00     0.049 A 
ATOM     53  H   UNL A   1      42.597  30.011  28.912  1.00  0.00     0.167 HD
ATOM     54  C   UNL A   1      45.092  31.139  28.185  1.00  0.00     0.074 A 
ATOM     55  C   UNL A   1      46.417  31.279  27.618  1.00  0.00     0.031 C 
ATOM     56  C   UNL A   1      44.418  32.134  28.809  1.00  0.00     0.037 A 
BRANCH  43  57
ATOM     57  C   UNL A   1      38.860  30.477  30.902  1.00  0.00     0.064 A 
ATOM     58  C   UNL A   1      38.799  30.382  32.299  1.00  0.00     0.173 A 
ATOM     59  C   UNL A   1      37.746  31.004  30.229  1.00  0.00     0.173 A 
ATOM     60  F   UNL A   1      39.828  29.866  32.988  1.00  0.00    -0.203 F 
ATOM     61  C   UNL A   1      37.661  30.787  32.993  1.00  0.00     0.198 A 
ATOM     62  C   UNL A   1      36.620  31.431  30.928  1.00  0.00     0.198 A 
ATOM     63  F   UNL A   1      37.754  31.120  28.892  1.00  0.00    -0.203 F 
ATOM     64  F   UNL A   1      37.608  30.654  34.327  1.00  0.00    -0.200 F 
ATOM     65  C   UNL A   1      36.577  31.319  32.309  1.00  0.00     0.200 A 
ATOM     66  F   UNL A   1      35.579  31.953  30.266  1.00  0.00    -0.200 F 
ATOM     67  F   UNL A   1      35.489  31.717  32.980  1.00  0.00    -0.200 F 
ENDBRANCH  43  57
BRANCH  44  68
ATOM     68  C   UNL A   1      46.985  27.411  26.037  1.00  0.00     0.064 A 
ATOM     69  C   UNL A   1      47.996  26.751  26.749  1.00  0.00     0.173 A 
ATOM     70  C   UNL A   1      47.172  27.602  24.661  1.00  0.00     0.173 A 
ATOM     71  F   UNL A   1      47.876  26.571  28.072  1.00  0.00    -0.203 F 
ATOM     72  C   UNL A   1      49.147  26.298  26.108  1.00  0.00     0.198 A 
ATOM     73  C   UNL A   1      48.310  27.124  24.016  1.00  0.00     0.198 A 
ATOM     74  F   UNL A   1      46.235  28.232  23.935  1.00  0.00    -0.203 F 
ATOM     75  F   UNL A   1      50.112  25.696  26.815  1.00  0.00    -0.200 F 
ATOM     76  C   UNL A   1      49.299  26.476  24.740  1.00  0.00     0.200 A 
ATOM     77  F   UNL A   1      48.446  27.285  22.693  1.00  0.00    -0.200 F 
ATOM     78  F   UNL A   1      50.399  26.025  24.122  1.00  0.00    -0.200 F 
ENDBRANCH  44  68
BRANCH  56  79
ATOM     79  C   UNL A   1      45.095  33.465  28.918  1.00  0.00     0.064 A 
ATOM     80  C   UNL A   1      45.967  33.748  29.978  1.00  0.00     0.173 A 
ATOM     81  C   UNL A   1      44.928  34.436  27.920  1.00  0.00     0.173 A 
ATOM     82  F   UNL A   1      46.148  32.855  30.962  1.00  0.00    -0.203 F 
ATOM     83  C   UNL A   1      46.645  34.963  30.038  1.00  0.00     0.198 A 
ATOM     84  C   UNL A   1      45.621  35.642  27.974  1.00  0.00     0.198 A 
ATOM     85  F   UNL A   1      44.106  34.208  26.885  1.00  0.00    -0.203 F 
ATOM     86  F   UNL A   1      47.458  35.224  31.071  1.00  0.00    -0.200 F 
ATOM     87  C   UNL A   1      46.479  35.904  29.033  1.00  0.00     0.200 A 
ATOM     88  F   UNL A   1      45.466  36.548  26.998  1.00  0.00    -0.200 F 
ATOM     89  F   UNL A   1      47.142  37.068  29.086  1.00  0.00    -0.200 F 
ENDBRANCH  56  79
ENDBRANCH  30  31
ENDBRANCH  23  25
ENDBRANCH  22  23
ENDBRANCH  21  22
ENDBRANCH   1  21
TORSDOF 13
ENDMDL
MODEL 3
REMARK VINA RESULT:     -12.0      0.715      2.253
REMARK SMILES Cc1cc(=O)cc(C)n1C[C@H]1CCCC[C@@H]1C(=O)OCCOC(=O)c1ccc(-c2c3nc(c(-c4c(F)c(F)c(F)c(F)c4F)c4ccc([nH]4)c(-c4c(F)c(F)c(F)c(F)c4F)c4nc(c(-c5c(F)c(F)c(F)c(F)c5F)c5ccc2[nH]5)C=C4)C=C3)cc1
REMARK SMILES IDX 20 1 19 2 17 3 18 4 16 5 11 6 12 7 13 8 15 9 14 10 10 11
REMARK SMILES IDX 9 12 1 13 2 14 3 15 4 16 7 17 5 18 6 19 8 20 21 21 22 22
REMARK SMILES IDX 23 23 24 24 25 25 26 26 87 27 27 28 86 29 28 30 29 31 30 32
REMARK SMILES IDX 80 33 31 34 85 35 79 36 81 37 32 38 84 39 78 40 77 41 33 43
REMARK SMILES IDX 65 44 45 45 64 46 46 47 49 48 63 49 82 50 47 51 48 52 62 54
REMARK SMILES IDX 83 55 50 56 34 57 35 58 43 59 36 60 37 61 41 62 44 63 38 64
REMARK SMILES IDX 39 65 42 66 40 67 66 68 67 69 75 70 68 71 69 72 73 73 76 74
REMARK SMILES IDX 70 75 71 76 74 77 72 78 51 79 52 80 60 81 53 82 54 83 58 84
REMARK SMILES IDX 61 85 55 86 56 87 59 88 57 89
REMARK H PARENT 81 42 49 53
REMARK Flexibility Score: inf
ROOT
ATOM      1  C   UNL A   1      31.670  28.491  27.269  1.00  0.00     0.274 C 
ENDROOT
BRANCH   1   2
ATOM      2  O   UNL A   1      32.309  27.312  26.727  1.00  0.00    -0.462 OA
BRANCH   2   3
ATOM      3  C   UNL A   1      31.451  26.418  26.158  1.00  0.00     0.309 C 
ATOM      4  O   UNL A   1      30.287  26.279  26.514  1.00  0.00    -0.252 OA
BRANCH   3   5
ATOM      5  C   UNL A   1      32.139  25.553  25.091  1.00  0.00     0.104 C 
ATOM      6  C   UNL A   1      33.690  25.716  25.065  1.00  0.00     0.023 C 
ATOM      7  C   UNL A   1      34.051  27.154  24.650  1.00  0.00     0.006 C 
ATOM      8  C   UNL A   1      33.421  27.564  23.317  1.00  0.00     0.000 C 
ATOM      9  C   UNL A   1      31.523  25.903  23.732  1.00  0.00     0.016 C 
ATOM     10  C   UNL A   1      31.917  27.303  23.254  1.00  0.00     0.001 C 
BRANCH   6  11
ATOM     11  C   UNL A   1      34.380  24.661  24.144  1.00  0.00     0.126 C 
BRANCH  11  12
ATOM     12  N   UNL A   1      33.875  23.265  24.365  1.00  0.00    -0.349 N 
ATOM     13  C   UNL A   1      33.142  23.138  21.930  1.00  0.00     0.064 C 
ATOM     14  C   UNL A   1      33.162  22.587  23.336  1.00  0.00     0.018 A 
ATOM     15  C   UNL A   1      32.544  21.407  23.534  1.00  0.00     0.073 A 
ATOM     16  C   UNL A   1      32.604  20.764  24.854  1.00  0.00     0.182 A 
ATOM     17  C   UNL A   1      34.091  22.557  25.581  1.00  0.00     0.018 A 
ATOM     18  O   UNL A   1      32.003  19.724  25.085  1.00  0.00    -0.290 OA
ATOM     19  C   UNL A   1      33.480  21.387  25.855  1.00  0.00     0.073 A 
ATOM     20  C   UNL A   1      35.099  23.009  26.613  1.00  0.00     0.064 C 
ENDBRANCH  11  12
ENDBRANCH   6  11
ENDBRANCH   3   5
ENDBRANCH   2   3
ENDBRANCH   1   2
BRANCH   1  21
ATOM     21  C   UNL A   1      31.680  29.651  26.273  1.00  0.00     0.275 C 
BRANCH  21  22
ATOM     22  O   UNL A   1      33.021  30.137  26.099  1.00  0.00    -0.458 OA
BRANCH  22  23
ATOM     23  C   UNL A   1      33.410  31.116  26.948  1.00  0.00     0.338 C 
ATOM     24  O   UNL A   1      32.763  32.092  27.286  1.00  0.00    -0.246 OA
BRANCH  23  25
ATOM     25  C   UNL A   1      34.761  30.830  27.484  1.00  0.00     0.060 A 
ATOM     26  C   UNL A   1      35.184  29.518  27.678  1.00  0.00     0.016 A 
ATOM     27  C   UNL A   1      35.563  31.882  27.928  1.00  0.00     0.016 A 
ATOM     28  C   UNL A   1      36.333  29.248  28.422  1.00  0.00     0.010 A 
ATOM     29  C   UNL A   1      36.776  31.610  28.574  1.00  0.00     0.010 A 
ATOM     30  C   UNL A   1      37.153  30.288  28.876  1.00  0.00    -0.014 A 
BRANCH  30  31
ATOM     31  C   UNL A   1      38.351  30.006  29.719  1.00  0.00     0.031 A 
ATOM     32  C   UNL A   1      39.475  29.164  29.170  1.00  0.00     0.074 A 
ATOM     33  C   UNL A   1      38.471  30.517  30.961  1.00  0.00     0.049 A 
ATOM     34  N   UNL A   1      40.476  28.600  29.797  1.00  0.00    -0.248 NA
ATOM     35  C   UNL A   1      39.453  28.900  27.721  1.00  0.00     0.031 C 
ATOM     36  C   UNL A   1      37.507  31.402  31.614  1.00  0.00     0.029 A 
ATOM     37  N   UNL A   1      39.472  30.377  31.893  1.00  0.00    -0.354 N 
ATOM     38  C   UNL A   1      41.173  27.883  28.833  1.00  0.00     0.074 A 
ATOM     39  C   UNL A   1      40.470  28.061  27.581  1.00  0.00     0.031 C 
ATOM     40  C   UNL A   1      37.990  31.776  32.809  1.00  0.00     0.029 A 
ATOM     41  C   UNL A   1      39.248  31.078  33.052  1.00  0.00     0.049 A 
ATOM     42  H   UNL A   1      40.274  29.825  31.743  1.00  0.00     0.167 HD
ATOM     43  C   UNL A   1      42.299  27.143  28.980  1.00  0.00     0.037 A 
ATOM     44  C   UNL A   1      39.953  31.127  34.199  1.00  0.00     0.037 A 
ATOM     45  C   UNL A   1      43.048  27.033  30.203  1.00  0.00     0.049 A 
ATOM     46  C   UNL A   1      41.176  30.266  34.356  1.00  0.00     0.074 A 
ATOM     47  C   UNL A   1      44.181  26.281  30.460  1.00  0.00     0.029 A 
ATOM     48  N   UNL A   1      42.764  27.737  31.364  1.00  0.00    -0.354 N 
ATOM     49  N   UNL A   1      41.747  29.476  33.483  1.00  0.00    -0.248 NA
ATOM     50  C   UNL A   1      41.827  30.272  35.675  1.00  0.00     0.031 C 
ATOM     51  C   UNL A   1      44.567  26.508  31.785  1.00  0.00     0.029 A 
ATOM     52  C   UNL A   1      43.691  27.424  32.344  1.00  0.00     0.049 A 
ATOM     53  H   UNL A   1      42.015  28.367  31.474  1.00  0.00     0.167 HD
ATOM     54  C   UNL A   1      42.820  28.892  34.139  1.00  0.00     0.074 A 
ATOM     55  C   UNL A   1      42.837  29.434  35.481  1.00  0.00     0.031 C 
ATOM     56  C   UNL A   1      43.700  27.974  33.673  1.00  0.00     0.037 A 
BRANCH  43  57
ATOM     57  C   UNL A   1      42.777  26.358  27.796  1.00  0.00     0.064 A 
ATOM     58  C   UNL A   1      42.320  25.060  27.530  1.00  0.00     0.173 A 
ATOM     59  C   UNL A   1      43.669  26.942  26.882  1.00  0.00     0.173 A 
ATOM     60  F   UNL A   1      41.485  24.448  28.382  1.00  0.00    -0.203 F 
ATOM     61  C   UNL A   1      42.750  24.370  26.398  1.00  0.00     0.198 A 
ATOM     62  C   UNL A   1      44.076  26.260  25.740  1.00  0.00     0.198 A 
ATOM     63  F   UNL A   1      44.133  28.184  27.088  1.00  0.00    -0.203 F 
ATOM     64  F   UNL A   1      42.330  23.116  26.180  1.00  0.00    -0.200 F 
ATOM     65  C   UNL A   1      43.620  24.972  25.501  1.00  0.00     0.200 A 
ATOM     66  F   UNL A   1      44.908  26.847  24.869  1.00  0.00    -0.200 F 
ATOM     67  F   UNL A   1      44.023  24.310  24.408  1.00  0.00    -0.200 F 
ENDBRANCH  43  57
BRANCH  44  68
ATOM     68  C   UNL A   1      39.492  31.998  35.312  1.00  0.00     0.064 A 
ATOM     69  C   UNL A   1      39.895  33.337  35.384  1.00  0.00     0.173 A 
ATOM     70  C   UNL A   1      38.634  31.518  36.311  1.00  0.00     0.173 A 
ATOM     71  F   UNL A   1      40.739  33.834  34.468  1.00  0.00    -0.203 F 
ATOM     72  C   UNL A   1      39.455  34.165  36.414  1.00  0.00     0.198 A 
ATOM     73  C   UNL A   1      38.172  32.354  37.325  1.00  0.00     0.198 A 
ATOM     74  F   UNL A   1      38.222  30.241  36.290  1.00  0.00    -0.203 F 
ATOM     75  F   UNL A   1      39.877  35.435  36.478  1.00  0.00    -0.200 F 
ATOM     76  C   UNL A   1      38.586  33.676  37.379  1.00  0.00     0.200 A 
ATOM     77  F   UNL A   1      37.321  31.881  38.246  1.00  0.00    -0.200 F 
ATOM     78  F   UNL A   1      38.150  34.477  38.360  1.00  0.00    -0.200 F 
ENDBRANCH  44  68
BRANCH  56  79
ATOM     79  C   UNL A   1      44.760  27.493  34.616  1.00  0.00     0.064 A 
ATOM     80  C   UNL A   1      46.010  28.126  34.681  1.00  0.00     0.173 A 
ATOM     81  C   UNL A   1      44.502  26.443  35.508  1.00  0.00     0.173 A 
ATOM     82  F   UNL A   1      46.306  29.127  33.839  1.00  0.00    -0.203 F 
ATOM     83  C   UNL A   1      46.967  27.718  35.605  1.00  0.00     0.198 A 
ATOM     84  C   UNL A   1      45.455  26.050  36.442  1.00  0.00     0.198 A 
ATOM     85  F   UNL A   1      43.319  25.810  35.484  1.00  0.00    -0.203 F 
ATOM     86  F   UNL A   1      48.164  28.320  35.638  1.00  0.00    -0.200 F 
ATOM     87  C   UNL A   1      46.687  26.687  36.490  1.00  0.00     0.200 A 
ATOM     88  F   UNL A   1      45.181  25.059  37.302  1.00  0.00    -0.200 F 
ATOM     89  F   UNL A   1      47.606  26.303  37.387  1.00  0.00    -0.200 F 
ENDBRANCH  56  79
ENDBRANCH  30  31
ENDBRANCH  23  25
ENDBRANCH  22  23
ENDBRANCH  21  22
ENDBRANCH   1  21
TORSDOF 13
ENDMDL
