MODEL 1
REMARK VINA RESULT:     -12.6      0.000      0.000
REMARK SMILES O=C(OCCOC(=O)c1cccc([C@@H]2CCC[N@@H+](Cc3cccc(OCCO)c3)C2)c1)c1ccc(-c2c3nc(c(-c4c(F)c(F)c(F)c(F)c4F)c4ccc([nH]4)c(-c4c(F)c(F)c(F)c(F)c4F)c4nc(c(-c5c(F)c(F)c(F)c(F)c5F)c5ccc2[nH]5)C=C4)C=C3)cc1
REMARK SMILES IDX 7 1 8 2 6 3 5 4 4 5 3 6 2 7 1 8 32 9 33 10 94 11 34 12 93 13
REMARK SMILES IDX 35 14 36 15 37 16 87 17 38 18 92 19 86 20 88 21 39 22 91 23
REMARK SMILES IDX 85 24 84 25 40 27 72 28 52 29 71 30 53 31 56 32 70 33 89 34
REMARK SMILES IDX 54 35 55 36 69 38 90 39 57 40 41 41 42 42 50 43 43 44 44 45
REMARK SMILES IDX 48 46 51 47 45 48 46 49 49 50 47 51 73 52 74 53 82 54 75 55
REMARK SMILES IDX 76 56 80 57 83 58 77 59 78 60 81 61 79 62 58 63 59 64 67 65
REMARK SMILES IDX 60 66 61 67 65 68 68 69 62 70 63 71 66 72 64 73 9 74 10 75
REMARK SMILES IDX 31 76 11 77 13 78 12 79 14 80 15 81 30 82 16 83 18 84 17 85
REMARK SMILES IDX 19 87 20 88 21 89 29 90 22 91 24 92 23 93 25 94 26 95 27 96
REMARK SMILES IDX 28 97
REMARK H PARENT 88 26 56 37 18 86 28 98
REMARK Flexibility Score: inf
ROOT
ATOM      1  C   UNL A   1      34.264  22.809  24.223  1.00  0.00     0.338 C 
ATOM      2  O   UNL A   1      33.832  22.244  23.235  1.00  0.00    -0.246 OA
ENDROOT
BRANCH   1   3
ATOM      3  O   UNL A   1      35.449  22.589  24.852  1.00  0.00    -0.458 OA
BRANCH   3   4
ATOM      4  C   UNL A   1      35.522  21.407  25.649  1.00  0.00     0.275 C 
BRANCH   4   5
ATOM      5  C   UNL A   1      36.457  20.378  25.028  1.00  0.00     0.275 C 
BRANCH   5   6
ATOM      6  O   UNL A   1      37.812  20.845  24.865  1.00  0.00    -0.458 OA
BRANCH   6   7
ATOM      7  C   UNL A   1      38.842  21.030  25.721  1.00  0.00     0.338 C 
ATOM      8  O   UNL A   1      39.490  20.034  26.051  1.00  0.00    -0.246 OA
BRANCH   7   9
ATOM      9  C   UNL A   1      39.285  22.338  26.319  1.00  0.00     0.060 A 
ATOM     10  C   UNL A   1      38.766  23.601  26.045  1.00  0.00     0.016 A 
ATOM     11  C   UNL A   1      40.396  22.284  27.193  1.00  0.00     0.016 A 
ATOM     12  C   UNL A   1      39.332  24.756  26.618  1.00  0.00     0.010 A 
ATOM     13  C   UNL A   1      40.958  23.433  27.777  1.00  0.00     0.010 A 
ATOM     14  C   UNL A   1      40.425  24.689  27.494  1.00  0.00    -0.014 A 
BRANCH  14  15
ATOM     15  C   UNL A   1      41.070  25.958  27.949  1.00  0.00     0.031 A 
ATOM     16  C   UNL A   1      42.381  26.321  27.332  1.00  0.00     0.074 A 
ATOM     17  C   UNL A   1      40.517  26.763  28.879  1.00  0.00     0.049 A 
ATOM     18  N   UNL A   1      43.042  27.443  27.398  1.00  0.00    -0.248 NA
ATOM     19  C   UNL A   1      43.061  25.251  26.586  1.00  0.00     0.031 C 
ATOM     20  C   UNL A   1      39.353  26.391  29.656  1.00  0.00     0.029 A 
ATOM     21  N   UNL A   1      40.792  28.044  29.319  1.00  0.00    -0.354 N 
ATOM     22  C   UNL A   1      44.261  27.183  26.790  1.00  0.00     0.074 A 
ATOM     23  C   UNL A   1      44.212  25.830  26.281  1.00  0.00     0.031 C 
ATOM     24  C   UNL A   1      38.910  27.453  30.343  1.00  0.00     0.029 A 
ATOM     25  C   UNL A   1      39.789  28.589  30.114  1.00  0.00     0.049 A 
ATOM     26  H   UNL A   1      41.619  28.524  29.089  1.00  0.00     0.167 HD
ATOM     27  C   UNL A   1      45.349  27.983  26.753  1.00  0.00     0.037 A 
ATOM     28  C   UNL A   1      39.601  29.864  30.545  1.00  0.00     0.037 A 
ATOM     29  C   UNL A   1      45.368  29.312  27.298  1.00  0.00     0.049 A 
ATOM     30  C   UNL A   1      40.743  30.815  30.233  1.00  0.00     0.074 A 
ATOM     31  C   UNL A   1      46.416  30.210  27.363  1.00  0.00     0.029 A 
ATOM     32  N   UNL A   1      44.270  29.929  27.888  1.00  0.00    -0.354 N 
ATOM     33  N   UNL A   1      41.775  30.640  29.439  1.00  0.00    -0.248 NA
ATOM     34  C   UNL A   1      40.706  32.136  30.874  1.00  0.00     0.031 C 
ATOM     35  C   UNL A   1      45.963  31.353  28.032  1.00  0.00     0.029 A 
ATOM     36  C   UNL A   1      44.623  31.185  28.347  1.00  0.00     0.049 A 
ATOM     37  H   UNL A   1      43.373  29.530  27.966  1.00  0.00     0.167 HD
ATOM     38  C   UNL A   1      42.496  31.825  29.482  1.00  0.00     0.074 A 
ATOM     39  C   UNL A   1      41.699  32.756  30.255  1.00  0.00     0.031 C 
ATOM     40  C   UNL A   1      43.741  32.105  29.020  1.00  0.00     0.037 A 
BRANCH  27  41
ATOM     41  C   UNL A   1      46.619  27.364  26.251  1.00  0.00     0.064 A 
ATOM     42  C   UNL A   1      47.554  26.763  27.106  1.00  0.00     0.173 A 
ATOM     43  C   UNL A   1      46.938  27.452  24.887  1.00  0.00     0.173 A 
ATOM     44  F   UNL A   1      47.316  26.692  28.424  1.00  0.00    -0.203 F 
ATOM     45  C   UNL A   1      48.776  26.305  26.618  1.00  0.00     0.198 A 
ATOM     46  C   UNL A   1      48.148  26.970  24.399  1.00  0.00     0.198 A 
ATOM     47  F   UNL A   1      46.086  28.035  24.030  1.00  0.00    -0.203 F 
ATOM     48  F   UNL A   1      49.687  25.801  27.462  1.00  0.00    -0.200 F 
ATOM     49  C   UNL A   1      49.072  26.407  25.266  1.00  0.00     0.200 A 
ATOM     50  F   UNL A   1      48.431  27.073  23.092  1.00  0.00    -0.200 F 
ATOM     51  F   UNL A   1      50.256  25.984  24.801  1.00  0.00    -0.200 F 
ENDBRANCH  27  41
BRANCH  28  52
ATOM     52  C   UNL A   1      38.285  30.375  31.127  1.00  0.00     0.064 A 
ATOM     53  C   UNL A   1      38.164  30.642  32.510  1.00  0.00     0.173 A 
ATOM     54  C   UNL A   1      37.151  30.711  30.373  1.00  0.00     0.173 A 
ATOM     55  F   UNL A   1      39.164  30.334  33.348  1.00  0.00    -0.203 F 
ATOM     56  C   UNL A   1      37.066  31.298  33.074  1.00  0.00     0.198 A 
ATOM     57  C   UNL A   1      36.071  31.423  30.921  1.00  0.00     0.198 A 
ATOM     58  F   UNL A   1      37.064  30.359  29.084  1.00  0.00    -0.203 F 
ATOM     59  F   UNL A   1      37.048  31.550  34.391  1.00  0.00    -0.200 F 
ATOM     60  C   UNL A   1      36.036  31.731  32.270  1.00  0.00     0.200 A 
ATOM     61  F   UNL A   1      35.072  31.831  30.126  1.00  0.00    -0.200 F 
ATOM     62  F   UNL A   1      35.020  32.435  32.787  1.00  0.00    -0.200 F 
ENDBRANCH  28  52
BRANCH  40  63
ATOM     63  C   UNL A   1      44.282  33.472  29.331  1.00  0.00     0.064 A 
ATOM     64  C   UNL A   1      44.070  34.551  28.458  1.00  0.00     0.173 A 
ATOM     65  C   UNL A   1      44.978  33.717  30.524  1.00  0.00     0.173 A 
ATOM     66  F   UNL A   1      43.408  34.367  27.305  1.00  0.00    -0.203 F 
ATOM     67  C   UNL A   1      44.583  35.812  28.739  1.00  0.00     0.198 A 
ATOM     68  C   UNL A   1      45.454  34.991  30.821  1.00  0.00     0.198 A 
ATOM     69  F   UNL A   1      45.186  32.726  31.403  1.00  0.00    -0.203 F 
ATOM     70  F   UNL A   1      44.429  36.806  27.854  1.00  0.00    -0.200 F 
ATOM     71  C   UNL A   1      45.268  36.033  29.922  1.00  0.00     0.200 A 
ATOM     72  F   UNL A   1      46.097  35.213  31.976  1.00  0.00    -0.200 F 
ATOM     73  F   UNL A   1      45.757  37.250  30.195  1.00  0.00    -0.200 F 
ENDBRANCH  40  63
ENDBRANCH  14  15
ENDBRANCH   7   9
ENDBRANCH   6   7
ENDBRANCH   5   6
ENDBRANCH   4   5
ENDBRANCH   3   4
ENDBRANCH   1   3
BRANCH   1  74
ATOM     74  C   UNL A   1      33.521  23.806  25.014  1.00  0.00     0.060 A 
ATOM     75  C   UNL A   1      32.504  23.410  25.878  1.00  0.00     0.016 A 
ATOM     76  C   UNL A   1      33.906  25.146  24.940  1.00  0.00     0.020 A 
ATOM     77  C   UNL A   1      31.887  24.369  26.679  1.00  0.00     0.001 A 
ATOM     78  C   UNL A   1      33.327  26.118  25.755  1.00  0.00    -0.038 A 
ATOM     79  C   UNL A   1      32.286  25.713  26.609  1.00  0.00     0.004 A 
BRANCH  78  80
ATOM     80  C   UNL A   1      33.892  27.536  25.788  1.00  0.00     0.074 C 
ATOM     81  C   UNL A   1      33.423  28.383  26.980  1.00  0.00     0.020 C 
ATOM     82  C   UNL A   1      33.650  28.301  24.453  1.00  0.00     0.270 C 
ATOM     83  C   UNL A   1      32.063  29.054  26.766  1.00  0.00     0.062 C 
ATOM     84  N   UNL A   1      32.275  28.776  24.335  1.00  0.00    -0.331 N 
ATOM     85  C   UNL A   1      31.909  29.711  25.387  1.00  0.00     0.262 C 
ATOM     86  H   UNL A   1      31.693  27.960  24.527  1.00  0.00     0.348 HD
BRANCH  84  87
ATOM     87  C   UNL A   1      31.801  29.063  22.984  1.00  0.00     0.299 C 
BRANCH  87  88
ATOM     88  C   UNL A   1      30.313  29.083  22.749  1.00  0.00     0.010 A 
ATOM     89  C   UNL A   1      29.496  28.098  23.324  1.00  0.00     0.010 A 
ATOM     90  C   UNL A   1      29.716  30.088  21.981  1.00  0.00     0.056 A 
ATOM     91  C   UNL A   1      28.111  28.124  23.154  1.00  0.00     0.004 A 
ATOM     92  C   UNL A   1      28.321  30.176  21.923  1.00  0.00     0.119 A 
ATOM     93  C   UNL A   1      27.520  29.170  22.456  1.00  0.00     0.046 A 
BRANCH  92  94
ATOM     94  O   UNL A   1      27.653  31.296  21.510  1.00  0.00    -0.491 OA
BRANCH  94  95
ATOM     95  C   UNL A   1      28.478  32.461  21.508  1.00  0.00     0.257 C 
BRANCH  95  96
ATOM     96  C   UNL A   1      28.575  33.247  22.838  1.00  0.00     0.197 C 
BRANCH  96  97
ATOM     97  O   UNL A   1      29.836  33.484  23.436  1.00  0.00    -0.393 OA
ATOM     98  H   UNL A   1      30.459  33.796  22.762  1.00  0.00     0.210 HD
ENDBRANCH  96  97
ENDBRANCH  95  96
ENDBRANCH  94  95
ENDBRANCH  92  94
ENDBRANCH  87  88
ENDBRANCH  84  87
ENDBRANCH  78  80
ENDBRANCH   1  74
TORSDOF 18
ENDMDL
MODEL 2
REMARK VINA RESULT:     -12.2      4.842      7.244
REMARK SMILES O=C(OCCOC(=O)c1cccc([C@@H]2CCC[N@@H+](Cc3cccc(OCCO)c3)C2)c1)c1ccc(-c2c3nc(c(-c4c(F)c(F)c(F)c(F)c4F)c4ccc([nH]4)c(-c4c(F)c(F)c(F)c(F)c4F)c4nc(c(-c5c(F)c(F)c(F)c(F)c5F)c5ccc2[nH]5)C=C4)C=C3)cc1
REMARK SMILES IDX 7 1 8 2 6 3 5 4 4 5 3 6 2 7 1 8 32 9 33 10 94 11 34 12 93 13
REMARK SMILES IDX 35 14 36 15 37 16 87 17 38 18 92 19 86 20 88 21 39 22 91 23
REMARK SMILES IDX 85 24 84 25 40 27 72 28 52 29 71 30 53 31 56 32 70 33 89 34
REMARK SMILES IDX 54 35 55 36 69 38 90 39 57 40 41 41 42 42 50 43 43 44 44 45
REMARK SMILES IDX 48 46 51 47 45 48 46 49 49 50 47 51 73 52 74 53 82 54 75 55
REMARK SMILES IDX 76 56 80 57 83 58 77 59 78 60 81 61 79 62 58 63 59 64 67 65
REMARK SMILES IDX 60 66 61 67 65 68 68 69 62 70 63 71 66 72 64 73 9 74 10 75
REMARK SMILES IDX 31 76 11 77 13 78 12 79 14 80 15 81 30 82 16 83 18 84 17 85
REMARK SMILES IDX 19 87 20 88 21 89 29 90 22 91 24 92 23 93 25 94 26 95 27 96
REMARK SMILES IDX 28 97
REMARK H PARENT 88 26 56 37 18 86 28 98
REMARK Flexibility Score: inf
ROOT
ATOM      1  C   UNL A   1      37.380  21.371  25.206  1.00  0.00     0.338 C 
ATOM      2  O   UNL A   1      37.313  20.168  25.039  1.00  0.00    -0.246 OA
ENDROOT
BRANCH   1   3
ATOM      3  O   UNL A   1      38.501  22.138  25.274  1.00  0.00    -0.458 OA
BRANCH   3   4
ATOM      4  C   UNL A   1      39.500  21.701  26.194  1.00  0.00     0.275 C 
BRANCH   4   5
ATOM      5  C   UNL A   1      40.261  22.880  26.788  1.00  0.00     0.275 C 
BRANCH   5   6
ATOM      6  O   UNL A   1      39.842  24.161  26.274  1.00  0.00    -0.458 OA
BRANCH   6   7
ATOM      7  C   UNL A   1      40.346  25.412  26.368  1.00  0.00     0.338 C 
ATOM      8  O   UNL A   1      41.103  25.787  25.470  1.00  0.00    -0.246 OA
BRANCH   7   9
ATOM      9  C   UNL A   1      40.077  26.405  27.467  1.00  0.00     0.060 A 
ATOM     10  C   UNL A   1      40.518  27.724  27.529  1.00  0.00     0.016 A 
ATOM     11  C   UNL A   1      39.367  25.919  28.591  1.00  0.00     0.016 A 
ATOM     12  C   UNL A   1      40.259  28.521  28.661  1.00  0.00     0.010 A 
ATOM     13  C   UNL A   1      39.097  26.714  29.718  1.00  0.00     0.010 A 
ATOM     14  C   UNL A   1      39.542  28.033  29.763  1.00  0.00    -0.014 A 
BRANCH  14  15
ATOM     15  C   UNL A   1      39.433  28.879  30.990  1.00  0.00     0.031 A 
ATOM     16  C   UNL A   1      40.578  28.851  31.948  1.00  0.00     0.074 A 
ATOM     17  C   UNL A   1      38.354  29.646  31.251  1.00  0.00     0.049 A 
ATOM     18  N   UNL A   1      40.822  29.627  32.966  1.00  0.00    -0.248 NA
ATOM     19  C   UNL A   1      41.550  27.762  31.759  1.00  0.00     0.031 C 
ATOM     20  C   UNL A   1      37.133  29.583  30.477  1.00  0.00     0.029 A 
ATOM     21  N   UNL A   1      38.090  30.638  32.175  1.00  0.00    -0.354 N 
ATOM     22  C   UNL A   1      41.917  29.061  33.601  1.00  0.00     0.074 A 
ATOM     23  C   UNL A   1      42.346  27.933  32.803  1.00  0.00     0.031 C 
ATOM     24  C   UNL A   1      36.321  30.590  30.830  1.00  0.00     0.029 A 
ATOM     25  C   UNL A   1      36.926  31.353  31.910  1.00  0.00     0.049 A 
ATOM     26  H   UNL A   1      38.671  30.822  32.948  1.00  0.00     0.167 HD
ATOM     27  C   UNL A   1      42.446  29.407  34.796  1.00  0.00     0.037 A 
ATOM     28  C   UNL A   1      36.459  32.510  32.451  1.00  0.00     0.037 A 
ATOM     29  C   UNL A   1      41.971  30.518  35.575  1.00  0.00     0.049 A 
ATOM     30  C   UNL A   1      37.258  33.025  33.635  1.00  0.00     0.074 A 
ATOM     31  C   UNL A   1      42.390  30.949  36.818  1.00  0.00     0.029 A 
ATOM     32  N   UNL A   1      40.948  31.370  35.174  1.00  0.00    -0.354 N 
ATOM     33  N   UNL A   1      38.433  32.637  34.075  1.00  0.00    -0.248 NA
ATOM     34  C   UNL A   1      36.672  34.130  34.405  1.00  0.00     0.031 C 
ATOM     35  C   UNL A   1      41.591  32.037  37.189  1.00  0.00     0.029 A 
ATOM     36  C   UNL A   1      40.701  32.308  36.160  1.00  0.00     0.049 A 
ATOM     37  H   UNL A   1      40.470  31.314  34.315  1.00  0.00     0.167 HD
ATOM     38  C   UNL A   1      38.725  33.454  35.158  1.00  0.00     0.074 A 
ATOM     39  C   UNL A   1      37.676  34.453  35.206  1.00  0.00     0.031 C 
ATOM     40  C   UNL A   1      39.703  33.346  36.093  1.00  0.00     0.037 A 
BRANCH  27  41
ATOM     41  C   UNL A   1      43.468  28.475  35.372  1.00  0.00     0.064 A 
ATOM     42  C   UNL A   1      44.838  28.592  35.094  1.00  0.00     0.173 A 
ATOM     43  C   UNL A   1      43.047  27.389  36.157  1.00  0.00     0.173 A 
ATOM     44  F   UNL A   1      45.285  29.587  34.314  1.00  0.00    -0.203 F 
ATOM     45  C   UNL A   1      45.743  27.636  35.551  1.00  0.00     0.198 A 
ATOM     46  C   UNL A   1      43.958  26.452  36.634  1.00  0.00     0.198 A 
ATOM     47  F   UNL A   1      41.747  27.221  36.436  1.00  0.00    -0.203 F 
ATOM     48  F   UNL A   1      47.036  27.725  35.212  1.00  0.00    -0.200 F 
ATOM     49  C   UNL A   1      45.304  26.569  36.321  1.00  0.00     0.200 A 
ATOM     50  F   UNL A   1      43.529  25.420  37.375  1.00  0.00    -0.200 F 
ATOM     51  F   UNL A   1      46.173  25.640  36.743  1.00  0.00    -0.200 F 
ENDBRANCH  27  41
BRANCH  28  52
ATOM     52  C   UNL A   1      35.344  33.346  31.827  1.00  0.00     0.064 A 
ATOM     53  C   UNL A   1      34.198  33.694  32.579  1.00  0.00     0.173 A 
ATOM     54  C   UNL A   1      35.385  33.909  30.544  1.00  0.00     0.173 A 
ATOM     55  F   UNL A   1      34.018  33.192  33.809  1.00  0.00    -0.203 F 
ATOM     56  C   UNL A   1      33.243  34.617  32.142  1.00  0.00     0.198 A 
ATOM     57  C   UNL A   1      34.464  34.883  30.123  1.00  0.00     0.198 A 
ATOM     58  F   UNL A   1      36.325  33.533  29.666  1.00  0.00    -0.203 F 
ATOM     59  F   UNL A   1      32.206  34.923  32.935  1.00  0.00    -0.200 F 
ATOM     60  C   UNL A   1      33.401  35.248  30.930  1.00  0.00     0.200 A 
ATOM     61  F   UNL A   1      34.626  35.482  28.936  1.00  0.00    -0.200 F 
ATOM     62  F   UNL A   1      32.538  36.196  30.540  1.00  0.00    -0.200 F 
ENDBRANCH  28  52
BRANCH  40  63
ATOM     63  C   UNL A   1      39.674  34.345  37.216  1.00  0.00     0.064 A 
ATOM     64  C   UNL A   1      38.932  34.100  38.383  1.00  0.00     0.173 A 
ATOM     65  C   UNL A   1      40.420  35.529  37.146  1.00  0.00     0.173 A 
ATOM     66  F   UNL A   1      38.203  32.979  38.499  1.00  0.00    -0.203 F 
ATOM     67  C   UNL A   1      38.893  35.030  39.415  1.00  0.00     0.198 A 
ATOM     68  C   UNL A   1      40.411  36.439  38.199  1.00  0.00     0.198 A 
ATOM     69  F   UNL A   1      41.164  35.799  36.063  1.00  0.00    -0.203 F 
ATOM     70  F   UNL A   1      38.120  34.806  40.486  1.00  0.00    -0.200 F 
ATOM     71  C   UNL A   1      39.637  36.196  39.326  1.00  0.00     0.200 A 
ATOM     72  F   UNL A   1      41.148  37.556  38.125  1.00  0.00    -0.200 F 
ATOM     73  F   UNL A   1      39.603  37.089  40.323  1.00  0.00    -0.200 F 
ENDBRANCH  40  63
ENDBRANCH  14  15
ENDBRANCH   7   9
ENDBRANCH   6   7
ENDBRANCH   5   6
ENDBRANCH   4   5
ENDBRANCH   3   4
ENDBRANCH   1   3
BRANCH   1  74
ATOM     74  C   UNL A   1      36.227  22.249  25.474  1.00  0.00     0.060 A 
ATOM     75  C   UNL A   1      36.418  23.591  25.790  1.00  0.00     0.016 A 
ATOM     76  C   UNL A   1      34.939  21.731  25.331  1.00  0.00     0.020 A 
ATOM     77  C   UNL A   1      35.302  24.413  25.946  1.00  0.00     0.001 A 
ATOM     78  C   UNL A   1      33.809  22.539  25.448  1.00  0.00    -0.038 A 
ATOM     79  C   UNL A   1      34.010  23.889  25.789  1.00  0.00     0.004 A 
BRANCH  78  80
ATOM     80  C   UNL A   1      32.426  21.991  25.104  1.00  0.00     0.074 C 
ATOM     81  C   UNL A   1      32.172  21.794  23.603  1.00  0.00     0.020 C 
ATOM     82  C   UNL A   1      31.281  22.835  25.740  1.00  0.00     0.270 C 
ATOM     83  C   UNL A   1      31.721  23.066  22.878  1.00  0.00     0.062 C 
ATOM     84  N   UNL A   1      31.046  24.078  25.012  1.00  0.00    -0.331 N 
ATOM     85  C   UNL A   1      30.643  23.857  23.633  1.00  0.00     0.262 C 
ATOM     86  H   UNL A   1      31.965  24.513  24.925  1.00  0.00     0.348 HD
BRANCH  84  87
ATOM     87  C   UNL A   1      30.373  25.144  25.748  1.00  0.00     0.299 C 
BRANCH  87  88
ATOM     88  C   UNL A   1      30.872  26.553  25.561  1.00  0.00     0.010 A 
ATOM     89  C   UNL A   1      30.540  27.269  24.400  1.00  0.00     0.010 A 
ATOM     90  C   UNL A   1      31.648  27.182  26.540  1.00  0.00     0.056 A 
ATOM     91  C   UNL A   1      30.957  28.589  24.227  1.00  0.00     0.004 A 
ATOM     92  C   UNL A   1      31.951  28.541  26.414  1.00  0.00     0.119 A 
ATOM     93  C   UNL A   1      31.660  29.231  25.240  1.00  0.00     0.046 A 
BRANCH  92  94
ATOM     94  O   UNL A   1      32.382  29.318  27.454  1.00  0.00    -0.491 OA
BRANCH  94  95
ATOM     95  C   UNL A   1      32.740  30.638  27.046  1.00  0.00     0.257 C 
BRANCH  95  96
ATOM     96  C   UNL A   1      33.999  31.252  27.706  1.00  0.00     0.197 C 
BRANCH  96  97
ATOM     97  O   UNL A   1      35.290  30.872  27.270  1.00  0.00    -0.393 OA
ATOM     98  H   UNL A   1      35.450  29.944  27.504  1.00  0.00     0.210 HD
ENDBRANCH  96  97
ENDBRANCH  95  96
ENDBRANCH  94  95
ENDBRANCH  92  94
ENDBRANCH  87  88
ENDBRANCH  84  87
ENDBRANCH  78  80
ENDBRANCH   1  74
TORSDOF 18
ENDMDL
MODEL 3
REMARK VINA RESULT:     -12.0      4.644     10.547
REMARK SMILES O=C(OCCOC(=O)c1cccc([C@@H]2CCC[N@@H+](Cc3cccc(OCCO)c3)C2)c1)c1ccc(-c2c3nc(c(-c4c(F)c(F)c(F)c(F)c4F)c4ccc([nH]4)c(-c4c(F)c(F)c(F)c(F)c4F)c4nc(c(-c5c(F)c(F)c(F)c(F)c5F)c5ccc2[nH]5)C=C4)C=C3)cc1
REMARK SMILES IDX 7 1 8 2 6 3 5 4 4 5 3 6 2 7 1 8 32 9 33 10 94 11 34 12 93 13
REMARK SMILES IDX 35 14 36 15 37 16 87 17 38 18 92 19 86 20 88 21 39 22 91 23
REMARK SMILES IDX 85 24 84 25 40 27 72 28 52 29 71 30 53 31 56 32 70 33 89 34
REMARK SMILES IDX 54 35 55 36 69 38 90 39 57 40 41 41 42 42 50 43 43 44 44 45
REMARK SMILES IDX 48 46 51 47 45 48 46 49 49 50 47 51 73 52 74 53 82 54 75 55
REMARK SMILES IDX 76 56 80 57 83 58 77 59 78 60 81 61 79 62 58 63 59 64 67 65
REMARK SMILES IDX 60 66 61 67 65 68 68 69 62 70 63 71 66 72 64 73 9 74 10 75
REMARK SMILES IDX 31 76 11 77 13 78 12 79 14 80 15 81 30 82 16 83 18 84 17 85
REMARK SMILES IDX 19 87 20 88 21 89 29 90 22 91 24 92 23 93 25 94 26 95 27 96
REMARK SMILES IDX 28 97
REMARK H PARENT 88 26 56 37 18 86 28 98
REMARK Flexibility Score: inf
ROOT
ATOM      1  C   UNL A   1      34.413  29.601  27.561  1.00  0.00     0.338 C 
ATOM      2  O   UNL A   1      35.587  29.298  27.662  1.00  0.00    -0.246 OA
ENDROOT
BRANCH   1   3
ATOM      3  O   UNL A   1      33.788  30.690  28.083  1.00  0.00    -0.458 OA
BRANCH   3   4
ATOM      4  C   UNL A   1      33.692  31.825  27.224  1.00  0.00     0.275 C 
BRANCH   4   5
ATOM      5  C   UNL A   1      32.368  32.554  27.416  1.00  0.00     0.275 C 
BRANCH   5   6
ATOM      6  O   UNL A   1      32.515  33.949  27.753  1.00  0.00    -0.458 OA
BRANCH   6   7
ATOM      7  C   UNL A   1      33.124  34.602  28.768  1.00  0.00     0.338 C 
ATOM      8  O   UNL A   1      32.603  35.648  29.161  1.00  0.00    -0.246 OA
BRANCH   7   9
ATOM      9  C   UNL A   1      34.385  34.182  29.474  1.00  0.00     0.060 A 
ATOM     10  C   UNL A   1      35.691  34.507  29.118  1.00  0.00     0.016 A 
ATOM     11  C   UNL A   1      34.226  33.301  30.569  1.00  0.00     0.016 A 
ATOM     12  C   UNL A   1      36.787  33.977  29.824  1.00  0.00     0.010 A 
ATOM     13  C   UNL A   1      35.317  32.777  31.285  1.00  0.00     0.010 A 
ATOM     14  C   UNL A   1      36.618  33.114  30.917  1.00  0.00    -0.014 A 
BRANCH  14  15
ATOM     15  C   UNL A   1      37.819  32.470  31.527  1.00  0.00     0.031 A 
ATOM     16  C   UNL A   1      38.139  32.815  32.944  1.00  0.00     0.074 A 
ATOM     17  C   UNL A   1      38.606  31.608  30.850  1.00  0.00     0.049 A 
ATOM     18  N   UNL A   1      38.989  32.256  33.760  1.00  0.00    -0.248 NA
ATOM     19  C   UNL A   1      37.440  33.988  33.495  1.00  0.00     0.031 C 
ATOM     20  C   UNL A   1      38.477  31.369  29.429  1.00  0.00     0.029 A 
ATOM     21  N   UNL A   1      39.623  30.749  31.222  1.00  0.00    -0.354 N 
ATOM     22  C   UNL A   1      39.004  33.069  34.883  1.00  0.00     0.074 A 
ATOM     23  C   UNL A   1      38.012  34.103  34.684  1.00  0.00     0.031 C 
ATOM     24  C   UNL A   1      39.241  30.327  29.073  1.00  0.00     0.029 A 
ATOM     25  C   UNL A   1      39.978  29.841  30.229  1.00  0.00     0.049 A 
ATOM     26  H   UNL A   1      40.054  30.778  32.106  1.00  0.00     0.167 HD
ATOM     27  C   UNL A   1      39.845  32.998  35.939  1.00  0.00     0.037 A 
ATOM     28  C   UNL A   1      40.761  28.732  30.289  1.00  0.00     0.037 A 
ATOM     29  C   UNL A   1      40.839  31.971  36.086  1.00  0.00     0.049 A 
ATOM     30  C   UNL A   1      41.483  28.534  31.610  1.00  0.00     0.074 A 
ATOM     31  C   UNL A   1      41.780  31.810  37.085  1.00  0.00     0.029 A 
ATOM     32  N   UNL A   1      41.021  30.927  35.185  1.00  0.00    -0.354 N 
ATOM     33  N   UNL A   1      41.302  29.152  32.755  1.00  0.00    -0.248 NA
ATOM     34  C   UNL A   1      42.520  27.494  31.656  1.00  0.00     0.031 C 
ATOM     35  C   UNL A   1      42.561  30.693  36.764  1.00  0.00     0.029 A 
ATOM     36  C   UNL A   1      42.080  30.134  35.589  1.00  0.00     0.049 A 
ATOM     37  H   UNL A   1      40.476  30.776  34.380  1.00  0.00     0.167 HD
ATOM     38  C   UNL A   1      42.190  28.571  33.649  1.00  0.00     0.074 A 
ATOM     39  C   UNL A   1      42.793  27.453  32.951  1.00  0.00     0.031 C 
ATOM     40  C   UNL A   1      42.560  28.967  34.893  1.00  0.00     0.037 A 
BRANCH  27  41
ATOM     41  C   UNL A   1      39.812  34.148  36.900  1.00  0.00     0.064 A 
ATOM     42  C   UNL A   1      40.599  35.296  36.730  1.00  0.00     0.173 A 
ATOM     43  C   UNL A   1      39.029  34.054  38.061  1.00  0.00     0.173 A 
ATOM     44  F   UNL A   1      41.397  35.415  35.658  1.00  0.00    -0.203 F 
ATOM     45  C   UNL A   1      40.630  36.291  37.705  1.00  0.00     0.198 A 
ATOM     46  C   UNL A   1      39.042  35.063  39.020  1.00  0.00     0.198 A 
ATOM     47  F   UNL A   1      38.272  32.969  38.281  1.00  0.00    -0.203 F 
ATOM     48  F   UNL A   1      41.445  37.345  37.559  1.00  0.00    -0.200 F 
ATOM     49  C   UNL A   1      39.852  36.175  38.848  1.00  0.00     0.200 A 
ATOM     50  F   UNL A   1      38.291  34.945  40.124  1.00  0.00    -0.200 F 
ATOM     51  F   UNL A   1      39.898  37.123  39.793  1.00  0.00    -0.200 F 
ENDBRANCH  27  41
BRANCH  28  52
ATOM     52  C   UNL A   1      40.788  27.655  29.206  1.00  0.00     0.064 A 
ATOM     53  C   UNL A   1      39.813  26.631  29.184  1.00  0.00     0.173 A 
ATOM     54  C   UNL A   1      41.675  27.632  28.120  1.00  0.00     0.173 A 
ATOM     55  F   UNL A   1      38.927  26.520  30.183  1.00  0.00    -0.203 F 
ATOM     56  C   UNL A   1      39.656  25.742  28.117  1.00  0.00     0.198 A 
ATOM     57  C   UNL A   1      41.487  26.782  27.018  1.00  0.00     0.198 A 
ATOM     58  F   UNL A   1      42.746  28.436  28.100  1.00  0.00    -0.203 F 
ATOM     59  F   UNL A   1      38.679  24.825  28.156  1.00  0.00    -0.200 F 
ATOM     60  C   UNL A   1      40.467  25.847  27.010  1.00  0.00     0.200 A 
ATOM     61  F   UNL A   1      42.289  26.891  25.950  1.00  0.00    -0.200 F 
ATOM     62  F   UNL A   1      40.270  25.055  25.946  1.00  0.00    -0.200 F 
ENDBRANCH  28  52
BRANCH  40  63
ATOM     63  C   UNL A   1      43.645  28.168  35.559  1.00  0.00     0.064 A 
ATOM     64  C   UNL A   1      45.001  28.443  35.314  1.00  0.00     0.173 A 
ATOM     65  C   UNL A   1      43.334  27.154  36.475  1.00  0.00     0.173 A 
ATOM     66  F   UNL A   1      45.349  29.406  34.447  1.00  0.00    -0.203 F 
ATOM     67  C   UNL A   1      46.003  27.694  35.919  1.00  0.00     0.198 A 
ATOM     68  C   UNL A   1      44.342  26.434  37.110  1.00  0.00     0.198 A 
ATOM     69  F   UNL A   1      42.055  26.868  36.762  1.00  0.00    -0.203 F 
ATOM     70  F   UNL A   1      47.287  27.929  35.612  1.00  0.00    -0.200 F 
ATOM     71  C   UNL A   1      45.675  26.695  36.820  1.00  0.00     0.200 A 
ATOM     72  F   UNL A   1      44.027  25.482  37.999  1.00  0.00    -0.200 F 
ATOM     73  F   UNL A   1      46.643  25.978  37.406  1.00  0.00    -0.200 F 
ENDBRANCH  40  63
ENDBRANCH  14  15
ENDBRANCH   7   9
ENDBRANCH   6   7
ENDBRANCH   5   6
ENDBRANCH   4   5
ENDBRANCH   3   4
ENDBRANCH   1   3
BRANCH   1  74
ATOM     74  C   UNL A   1      33.382  28.768  26.915  1.00  0.00     0.060 A 
ATOM     75  C   UNL A   1      32.297  28.291  27.646  1.00  0.00     0.016 A 
ATOM     76  C   UNL A   1      33.472  28.530  25.543  1.00  0.00     0.020 A 
ATOM     77  C   UNL A   1      31.294  27.586  26.982  1.00  0.00     0.001 A 
ATOM     78  C   UNL A   1      32.466  27.856  24.851  1.00  0.00    -0.038 A 
ATOM     79  C   UNL A   1      31.384  27.359  25.600  1.00  0.00     0.004 A 
BRANCH  78  80
ATOM     80  C   UNL A   1      32.498  27.772  23.327  1.00  0.00     0.074 C 
ATOM     81  C   UNL A   1      31.159  27.390  22.680  1.00  0.00     0.020 C 
ATOM     82  C   UNL A   1      33.633  26.839  22.810  1.00  0.00     0.270 C 
ATOM     83  C   UNL A   1      30.897  25.881  22.642  1.00  0.00     0.062 C 
ATOM     84  N   UNL A   1      33.290  25.428  22.951  1.00  0.00    -0.331 N 
ATOM     85  C   UNL A   1      32.109  25.055  22.190  1.00  0.00     0.262 C 
ATOM     86  H   UNL A   1      32.993  25.321  23.921  1.00  0.00     0.348 HD
BRANCH  84  87
ATOM     87  C   UNL A   1      34.407  24.486  22.965  1.00  0.00     0.299 C 
BRANCH  87  88
ATOM     88  C   UNL A   1      34.529  23.556  24.143  1.00  0.00     0.010 A 
ATOM     89  C   UNL A   1      34.302  24.033  25.443  1.00  0.00     0.010 A 
ATOM     90  C   UNL A   1      34.845  22.204  23.967  1.00  0.00     0.056 A 
ATOM     91  C   UNL A   1      34.368  23.177  26.543  1.00  0.00     0.004 A 
ATOM     92  C   UNL A   1      34.783  21.333  25.060  1.00  0.00     0.119 A 
ATOM     93  C   UNL A   1      34.604  21.821  26.352  1.00  0.00     0.046 A 
BRANCH  92  94
ATOM     94  O   UNL A   1      34.722  19.972  24.936  1.00  0.00    -0.491 OA
BRANCH  94  95
ATOM     95  C   UNL A   1      33.407  19.504  24.638  1.00  0.00     0.257 C 
BRANCH  95  96
ATOM     96  C   UNL A   1      32.991  18.152  25.268  1.00  0.00     0.197 C 
BRANCH  96  97
ATOM     97  O   UNL A   1      32.541  18.099  26.609  1.00  0.00    -0.393 OA
ATOM     98  H   UNL A   1      31.616  17.809  26.628  1.00  0.00     0.210 HD
ENDBRANCH  96  97
ENDBRANCH  95  96
ENDBRANCH  94  95
ENDBRANCH  92  94
ENDBRANCH  87  88
ENDBRANCH  84  87
ENDBRANCH  78  80
ENDBRANCH   1  74
TORSDOF 18
ENDMDL
