MODEL 1
REMARK VINA RESULT:     -11.2      0.000      0.000
REMARK SMILES CC[C@H](C)[C@@H](Nc1ccc(Cl)c(Br)c1)C(=O)OCCOC(=O)c1ccc(-c2c3nc(c(-c4c(F)c(F)c(F)c(F)c4F)c4ccc([nH]4)c(-c4c(F)c(F)c(F)c(F)c4F)c4nc(c(-c5c(F)c(F)c(F)c(F)c5F)c5ccc2[nH]5)C=C4)C=C3)cc1
REMARK SMILES IDX 18 1 17 2 15 3 16 4 5 5 3 6 4 7 2 8 1 9 6 10 7 12 8 13 14 14
REMARK SMILES IDX 9 15 12 16 10 17 13 18 11 19 19 20 20 21 21 22 22 23 23 24
REMARK SMILES IDX 24 25 85 26 25 27 84 28 26 29 27 30 28 31 78 32 29 33 83 34
REMARK SMILES IDX 77 35 79 36 30 37 82 38 76 39 75 40 31 42 63 43 43 44 62 45
REMARK SMILES IDX 44 46 47 47 61 48 80 49 45 50 46 51 60 53 81 54 48 55 32 56
REMARK SMILES IDX 33 57 41 58 34 59 35 60 39 61 42 62 36 63 37 64 40 65 38 66
REMARK SMILES IDX 64 67 65 68 73 69 66 70 67 71 71 72 74 73 68 74 69 75 72 76
REMARK SMILES IDX 70 77 49 78 50 79 58 80 51 81 52 82 56 83 59 84 53 85 54 86
REMARK SMILES IDX 57 87 55 88
REMARK H PARENT 6 11 79 41 47 52
REMARK Flexibility Score: inf
ROOT
ATOM      1  C   UNL A   1      36.055  20.199  24.954  1.00  0.00     0.274 C 
ENDROOT
BRANCH   1   2
ATOM      2  O   UNL A   1      35.092  21.069  25.584  1.00  0.00    -0.461 OA
BRANCH   2   3
ATOM      3  C   UNL A   1      33.807  20.622  25.559  1.00  0.00     0.328 C 
ATOM      4  O   UNL A   1      33.100  20.494  26.556  1.00  0.00    -0.250 OA
BRANCH   3   5
ATOM      5  C   UNL A   1      33.326  20.188  24.157  1.00  0.00     0.192 C 
BRANCH   5   6
ATOM      6  C   UNL A   1      32.748  18.737  24.066  1.00  0.00     0.019 C 
ATOM      7  C   UNL A   1      32.211  18.482  22.641  1.00  0.00     0.010 C 
BRANCH   6   8
ATOM      8  C   UNL A   1      33.761  17.655  24.495  1.00  0.00     0.002 C 
ATOM      9  C   UNL A   1      34.111  16.625  23.426  1.00  0.00     0.004 C 
ENDBRANCH   6   8
ENDBRANCH   5   6
BRANCH   5  10
ATOM     10  N   UNL A   1      32.356  21.133  23.548  1.00  0.00    -0.372 N 
ATOM     11  H   UNL A   1      31.498  20.766  23.234  1.00  0.00     0.161 HD
BRANCH  10  12
ATOM     12  C   UNL A   1      32.567  22.489  23.390  1.00  0.00     0.036 A 
ATOM     13  C   UNL A   1      33.789  23.030  22.986  1.00  0.00     0.027 A 
ATOM     14  C   UNL A   1      31.548  23.372  23.760  1.00  0.00     0.043 A 
ATOM     15  C   UNL A   1      34.014  24.409  23.012  1.00  0.00     0.024 A 
ATOM     16  C   UNL A   1      31.758  24.756  23.783  1.00  0.00     0.038 A 
ATOM     17  C   UNL A   1      33.003  25.276  23.425  1.00  0.00     0.055 A 
ATOM     18  Br  UNL A   1      30.310  25.847  24.347  1.00  0.00    -0.049 Br
ATOM     19  Cl  UNL A   1      33.368  26.962  23.486  1.00  0.00    -0.083 Cl
ENDBRANCH  10  12
ENDBRANCH   5  10
ENDBRANCH   3   5
ENDBRANCH   2   3
ENDBRANCH   1   2
BRANCH   1  20
ATOM     20  C   UNL A   1      37.400  20.883  24.680  1.00  0.00     0.275 C 
BRANCH  20  21
ATOM     21  O   UNL A   1      37.860  21.610  25.835  1.00  0.00    -0.458 OA
BRANCH  21  22
ATOM     22  C   UNL A   1      39.134  21.371  26.222  1.00  0.00     0.338 C 
ATOM     23  O   UNL A   1      39.763  20.332  26.122  1.00  0.00    -0.246 OA
BRANCH  22  24
ATOM     24  C   UNL A   1      39.728  22.617  26.727  1.00  0.00     0.060 A 
ATOM     25  C   UNL A   1      40.752  22.572  27.669  1.00  0.00     0.016 A 
ATOM     26  C   UNL A   1      39.318  23.837  26.182  1.00  0.00     0.016 A 
ATOM     27  C   UNL A   1      41.354  23.765  28.077  1.00  0.00     0.010 A 
ATOM     28  C   UNL A   1      39.920  25.027  26.581  1.00  0.00     0.010 A 
ATOM     29  C   UNL A   1      40.942  24.997  27.534  1.00  0.00    -0.014 A 
BRANCH  29  30
ATOM     30  C   UNL A   1      41.628  26.248  27.922  1.00  0.00     0.031 A 
ATOM     31  C   UNL A   1      43.033  26.520  27.478  1.00  0.00     0.074 A 
ATOM     32  C   UNL A   1      40.963  27.140  28.679  1.00  0.00     0.049 A 
ATOM     33  N   UNL A   1      43.731  27.621  27.594  1.00  0.00    -0.248 NA
ATOM     34  C   UNL A   1      43.753  25.415  26.826  1.00  0.00     0.031 C 
ATOM     35  C   UNL A   1      39.619  26.942  29.223  1.00  0.00     0.029 A 
ATOM     36  N   UNL A   1      41.318  28.394  29.105  1.00  0.00    -0.354 N 
ATOM     37  C   UNL A   1      44.955  27.354  26.996  1.00  0.00     0.074 A 
ATOM     38  C   UNL A   1      44.933  25.969  26.579  1.00  0.00     0.031 C 
ATOM     39  C   UNL A   1      39.243  28.054  29.874  1.00  0.00     0.029 A 
ATOM     40  C   UNL A   1      40.321  29.038  29.795  1.00  0.00     0.049 A 
ATOM     41  H   UNL A   1      42.201  28.794  28.935  1.00  0.00     0.167 HD
ATOM     42  C   UNL A   1      45.986  28.207  26.789  1.00  0.00     0.037 A 
ATOM     43  C   UNL A   1      40.272  30.293  30.279  1.00  0.00     0.037 A 
ATOM     44  C   UNL A   1      46.002  29.580  27.220  1.00  0.00     0.049 A 
ATOM     45  C   UNL A   1      41.442  31.210  30.048  1.00  0.00     0.074 A 
ATOM     46  C   UNL A   1      46.986  30.533  27.030  1.00  0.00     0.029 A 
ATOM     47  N   UNL A   1      44.983  30.192  27.935  1.00  0.00    -0.354 N 
ATOM     48  N   UNL A   1      42.554  30.981  29.396  1.00  0.00    -0.248 NA
ATOM     49  C   UNL A   1      41.340  32.565  30.609  1.00  0.00     0.031 C 
ATOM     50  C   UNL A   1      46.579  31.713  27.660  1.00  0.00     0.029 A 
ATOM     51  C   UNL A   1      45.324  31.507  28.209  1.00  0.00     0.049 A 
ATOM     52  H   UNL A   1      44.142  29.758  28.208  1.00  0.00     0.167 HD
ATOM     53  C   UNL A   1      43.275  32.165  29.445  1.00  0.00     0.074 A 
ATOM     54  C   UNL A   1      42.466  33.118  30.177  1.00  0.00     0.031 C 
ATOM     55  C   UNL A   1      44.500  32.439  28.933  1.00  0.00     0.037 A 
BRANCH  42  56
ATOM     56  C   UNL A   1      47.174  27.699  26.027  1.00  0.00     0.064 A 
ATOM     57  C   UNL A   1      47.201  27.745  24.624  1.00  0.00     0.173 A 
ATOM     58  C   UNL A   1      48.326  27.261  26.693  1.00  0.00     0.173 A 
ATOM     59  F   UNL A   1      46.121  28.153  23.942  1.00  0.00    -0.203 F 
ATOM     60  C   UNL A   1      48.339  27.368  23.918  1.00  0.00     0.198 A 
ATOM     61  C   UNL A   1      49.470  26.902  25.983  1.00  0.00     0.198 A 
ATOM     62  F   UNL A   1      48.353  27.205  28.034  1.00  0.00    -0.203 F 
ATOM     63  F   UNL A   1      48.337  27.406  22.578  1.00  0.00    -0.200 F 
ATOM     64  C   UNL A   1      49.475  26.957  24.597  1.00  0.00     0.200 A 
ATOM     65  F   UNL A   1      50.573  26.519  26.641  1.00  0.00    -0.200 F 
ATOM     66  F   UNL A   1      50.578  26.615  23.916  1.00  0.00    -0.200 F 
ENDBRANCH  42  56
BRANCH  43  67
ATOM     67  C   UNL A   1      39.046  30.774  30.964  1.00  0.00     0.064 A 
ATOM     68  C   UNL A   1      38.002  31.359  30.233  1.00  0.00     0.173 A 
ATOM     69  C   UNL A   1      38.888  30.656  32.352  1.00  0.00     0.173 A 
ATOM     70  F   UNL A   1      38.116  31.507  28.906  1.00  0.00    -0.203 F 
ATOM     71  C   UNL A   1      36.852  31.823  30.868  1.00  0.00     0.198 A 
ATOM     72  C   UNL A   1      37.726  31.099  32.982  1.00  0.00     0.198 A 
ATOM     73  F   UNL A   1      39.856  30.098  33.093  1.00  0.00    -0.203 F 
ATOM     74  F   UNL A   1      35.886  32.413  30.151  1.00  0.00    -0.200 F 
ATOM     75  C   UNL A   1      36.714  31.688  32.241  1.00  0.00     0.200 A 
ATOM     76  F   UNL A   1      37.591  30.956  34.308  1.00  0.00    -0.200 F 
ATOM     77  F   UNL A   1      35.605  32.132  32.851  1.00  0.00    -0.200 F 
ENDBRANCH  43  67
BRANCH  55  78
ATOM     78  C   UNL A   1      45.037  33.824  29.134  1.00  0.00     0.064 A 
ATOM     79  C   UNL A   1      45.853  34.137  30.229  1.00  0.00     0.173 A 
ATOM     80  C   UNL A   1      44.789  34.828  28.186  1.00  0.00     0.173 A 
ATOM     81  F   UNL A   1      46.107  33.213  31.168  1.00  0.00    -0.203 F 
ATOM     82  C   UNL A   1      46.393  35.411  30.376  1.00  0.00     0.198 A 
ATOM     83  C   UNL A   1      45.351  36.095  28.323  1.00  0.00     0.198 A 
ATOM     84  F   UNL A   1      44.020  34.575  27.117  1.00  0.00    -0.203 F 
ATOM     85  F   UNL A   1      47.145  35.699  31.448  1.00  0.00    -0.200 F 
ATOM     86  C   UNL A   1      46.148  36.386  29.420  1.00  0.00     0.200 A 
ATOM     87  F   UNL A   1      45.125  37.031  27.391  1.00  0.00    -0.200 F 
ATOM     88  F   UNL A   1      46.680  37.608  29.556  1.00  0.00    -0.200 F 
ENDBRANCH  55  78
ENDBRANCH  29  30
ENDBRANCH  22  24
ENDBRANCH  21  22
ENDBRANCH  20  21
ENDBRANCH   1  20
TORSDOF 15
ENDMDL
MODEL 2
REMARK VINA RESULT:     -11.1      1.160      2.315
REMARK SMILES CC[C@H](C)[C@@H](Nc1ccc(Cl)c(Br)c1)C(=O)OCCOC(=O)c1ccc(-c2c3nc(c(-c4c(F)c(F)c(F)c(F)c4F)c4ccc([nH]4)c(-c4c(F)c(F)c(F)c(F)c4F)c4nc(c(-c5c(F)c(F)c(F)c(F)c5F)c5ccc2[nH]5)C=C4)C=C3)cc1
REMARK SMILES IDX 18 1 17 2 15 3 16 4 5 5 3 6 4 7 2 8 1 9 6 10 7 12 8 13 14 14
REMARK SMILES IDX 9 15 12 16 10 17 13 18 11 19 19 20 20 21 21 22 22 23 23 24
REMARK SMILES IDX 24 25 85 26 25 27 84 28 26 29 27 30 28 31 78 32 29 33 83 34
REMARK SMILES IDX 77 35 79 36 30 37 82 38 76 39 75 40 31 42 63 43 43 44 62 45
REMARK SMILES IDX 44 46 47 47 61 48 80 49 45 50 46 51 60 53 81 54 48 55 32 56
REMARK SMILES IDX 33 57 41 58 34 59 35 60 39 61 42 62 36 63 37 64 40 65 38 66
REMARK SMILES IDX 64 67 65 68 73 69 66 70 67 71 71 72 74 73 68 74 69 75 72 76
REMARK SMILES IDX 70 77 49 78 50 79 58 80 51 81 52 82 56 83 59 84 53 85 54 86
REMARK SMILES IDX 57 87 55 88
REMARK H PARENT 6 11 79 41 47 52
REMARK Flexibility Score: inf
ROOT
ATOM      1  C   UNL A   1      36.227  20.252  25.001  1.00  0.00     0.274 C 
ENDROOT
BRANCH   1   2
ATOM      2  O   UNL A   1      35.707  21.561  24.688  1.00  0.00    -0.461 OA
BRANCH   2   3
ATOM      3  C   UNL A   1      34.894  22.101  25.636  1.00  0.00     0.328 C 
ATOM      4  O   UNL A   1      34.881  21.751  26.815  1.00  0.00    -0.250 OA
BRANCH   3   5
ATOM      5  C   UNL A   1      33.901  23.145  25.084  1.00  0.00     0.192 C 
BRANCH   5   6
ATOM      6  C   UNL A   1      32.589  22.559  24.462  1.00  0.00     0.019 C 
ATOM      7  C   UNL A   1      32.665  22.644  22.922  1.00  0.00     0.010 C 
BRANCH   6   8
ATOM      8  C   UNL A   1      32.284  21.124  24.939  1.00  0.00     0.002 C 
ATOM      9  C   UNL A   1      32.526  20.026  23.908  1.00  0.00     0.004 C 
ENDBRANCH   6   8
ENDBRANCH   5   6
BRANCH   5  10
ATOM     10  N   UNL A   1      33.539  24.194  26.071  1.00  0.00    -0.372 N 
ATOM     11  H   UNL A   1      33.740  24.017  27.019  1.00  0.00     0.161 HD
BRANCH  10  12
ATOM     12  C   UNL A   1      32.943  25.400  25.759  1.00  0.00     0.036 A 
ATOM     13  C   UNL A   1      31.690  25.781  26.244  1.00  0.00     0.027 A 
ATOM     14  C   UNL A   1      33.567  26.233  24.824  1.00  0.00     0.043 A 
ATOM     15  C   UNL A   1      31.045  26.924  25.763  1.00  0.00     0.024 A 
ATOM     16  C   UNL A   1      32.935  27.385  24.341  1.00  0.00     0.038 A 
ATOM     17  C   UNL A   1      31.660  27.722  24.798  1.00  0.00     0.055 A 
ATOM     18  Br  UNL A   1      33.866  28.408  23.040  1.00  0.00    -0.049 Br
ATOM     19  Cl  UNL A   1      30.783  29.087  24.209  1.00  0.00    -0.083 Cl
ENDBRANCH  10  12
ENDBRANCH   5  10
ENDBRANCH   3   5
ENDBRANCH   2   3
ENDBRANCH   1   2
BRANCH   1  20
ATOM     20  C   UNL A   1      37.759  20.188  24.975  1.00  0.00     0.275 C 
BRANCH  20  21
ATOM     21  O   UNL A   1      38.340  21.339  25.616  1.00  0.00    -0.458 OA
BRANCH  21  22
ATOM     22  C   UNL A   1      39.522  21.140  26.243  1.00  0.00     0.338 C 
ATOM     23  O   UNL A   1      40.144  20.098  26.353  1.00  0.00    -0.246 OA
BRANCH  22  24
ATOM     24  C   UNL A   1      40.038  22.429  26.726  1.00  0.00     0.060 A 
ATOM     25  C   UNL A   1      41.036  22.465  27.696  1.00  0.00     0.016 A 
ATOM     26  C   UNL A   1      39.579  23.611  26.134  1.00  0.00     0.016 A 
ATOM     27  C   UNL A   1      41.563  23.699  28.084  1.00  0.00     0.010 A 
ATOM     28  C   UNL A   1      40.108  24.841  26.513  1.00  0.00     0.010 A 
ATOM     29  C   UNL A   1      41.103  24.892  27.493  1.00  0.00    -0.014 A 
BRANCH  29  30
ATOM     30  C   UNL A   1      41.713  26.187  27.861  1.00  0.00     0.031 A 
ATOM     31  C   UNL A   1      43.106  26.529  27.429  1.00  0.00     0.074 A 
ATOM     32  C   UNL A   1      40.989  27.057  28.591  1.00  0.00     0.049 A 
ATOM     33  N   UNL A   1      43.740  27.670  27.529  1.00  0.00    -0.248 NA
ATOM     34  C   UNL A   1      43.895  25.453  26.811  1.00  0.00     0.031 C 
ATOM     35  C   UNL A   1      39.651  26.795  29.122  1.00  0.00     0.029 A 
ATOM     36  N   UNL A   1      41.267  28.338  28.993  1.00  0.00    -0.354 N 
ATOM     37  C   UNL A   1      44.985  27.460  26.953  1.00  0.00     0.074 A 
ATOM     38  C   UNL A   1      45.046  26.067  26.566  1.00  0.00     0.031 C 
ATOM     39  C   UNL A   1      39.204  27.898  29.744  1.00  0.00     0.029 A 
ATOM     40  C   UNL A   1      40.226  28.939  29.656  1.00  0.00     0.049 A 
ATOM     41  H   UNL A   1      42.128  28.783  28.825  1.00  0.00     0.167 HD
ATOM     42  C   UNL A   1      45.969  28.364  26.739  1.00  0.00     0.037 A 
ATOM     43  C   UNL A   1      40.100  30.199  30.112  1.00  0.00     0.037 A 
ATOM     44  C   UNL A   1      45.901  29.745  27.140  1.00  0.00     0.049 A 
ATOM     45  C   UNL A   1      41.219  31.176  29.875  1.00  0.00     0.074 A 
ATOM     46  C   UNL A   1      46.834  30.748  26.941  1.00  0.00     0.029 A 
ATOM     47  N   UNL A   1      44.840  30.314  27.828  1.00  0.00    -0.354 N 
ATOM     48  N   UNL A   1      42.352  30.996  29.242  1.00  0.00    -0.248 NA
ATOM     49  C   UNL A   1      41.034  32.534  30.404  1.00  0.00     0.031 C 
ATOM     50  C   UNL A   1      46.352  31.917  27.540  1.00  0.00     0.029 A 
ATOM     51  C   UNL A   1      45.103  31.651  28.077  1.00  0.00     0.049 A 
ATOM     52  H   UNL A   1      44.022  29.839  28.100  1.00  0.00     0.167 HD
ATOM     53  C   UNL A   1      43.004  32.220  29.273  1.00  0.00     0.074 A 
ATOM     54  C   UNL A   1      42.133  33.141  29.974  1.00  0.00     0.031 C 
ATOM     55  C   UNL A   1      44.218  32.551  28.770  1.00  0.00     0.037 A 
BRANCH  42  56
ATOM     56  C   UNL A   1      47.193  27.908  26.003  1.00  0.00     0.064 A 
ATOM     57  C   UNL A   1      48.329  27.469  26.701  1.00  0.00     0.173 A 
ATOM     58  C   UNL A   1      47.201  27.809  24.605  1.00  0.00     0.173 A 
ATOM     59  F   UNL A   1      48.371  27.547  28.039  1.00  0.00    -0.203 F 
ATOM     60  C   UNL A   1      49.429  26.951  26.023  1.00  0.00     0.198 A 
ATOM     61  C   UNL A   1      48.296  27.272  23.932  1.00  0.00     0.198 A 
ATOM     62  F   UNL A   1      46.136  28.209  23.892  1.00  0.00    -0.203 F 
ATOM     63  F   UNL A   1      50.509  26.552  26.709  1.00  0.00    -0.200 F 
ATOM     64  C   UNL A   1      49.408  26.843  24.641  1.00  0.00     0.200 A 
ATOM     65  F   UNL A   1      48.269  27.155  22.596  1.00  0.00    -0.200 F 
ATOM     66  F   UNL A   1      50.459  26.324  23.992  1.00  0.00    -0.200 F 
ENDBRANCH  42  56
BRANCH  43  67
ATOM     67  C   UNL A   1      38.840  30.625  30.770  1.00  0.00     0.064 A 
ATOM     68  C   UNL A   1      38.705  30.564  32.165  1.00  0.00     0.173 A 
ATOM     69  C   UNL A   1      37.752  31.107  30.028  1.00  0.00     0.173 A 
ATOM     70  F   UNL A   1      39.713  30.096  32.914  1.00  0.00    -0.203 F 
ATOM     71  C   UNL A   1      37.523  30.952  32.790  1.00  0.00     0.198 A 
ATOM     72  C   UNL A   1      36.579  31.518  30.658  1.00  0.00     0.198 A 
ATOM     73  F   UNL A   1      37.835  31.190  28.692  1.00  0.00    -0.203 F 
ATOM     74  F   UNL A   1      37.407  30.848  34.122  1.00  0.00    -0.200 F 
ATOM     75  C   UNL A   1      36.463  31.433  32.037  1.00  0.00     0.200 A 
ATOM     76  F   UNL A   1      35.561  31.993  29.927  1.00  0.00    -0.200 F 
ATOM     77  F   UNL A   1      35.327  31.810  32.640  1.00  0.00    -0.200 F 
ENDBRANCH  43  67
BRANCH  55  78
ATOM     78  C   UNL A   1      44.675  33.969  28.947  1.00  0.00     0.064 A 
ATOM     79  C   UNL A   1      45.461  34.349  30.042  1.00  0.00     0.173 A 
ATOM     80  C   UNL A   1      44.379  34.937  27.976  1.00  0.00     0.173 A 
ATOM     81  F   UNL A   1      45.759  33.460  31.001  1.00  0.00    -0.203 F 
ATOM     82  C   UNL A   1      45.926  35.655  30.167  1.00  0.00     0.198 A 
ATOM     83  C   UNL A   1      44.867  36.236  28.092  1.00  0.00     0.198 A 
ATOM     84  F   UNL A   1      43.635  34.619  26.907  1.00  0.00    -0.203 F 
ATOM     85  F   UNL A   1      46.650  36.007  31.239  1.00  0.00    -0.200 F 
ATOM     86  C   UNL A   1      45.636  36.595  29.189  1.00  0.00     0.200 A 
ATOM     87  F   UNL A   1      44.596  37.139  27.139  1.00  0.00    -0.200 F 
ATOM     88  F   UNL A   1      46.096  37.848  29.304  1.00  0.00    -0.200 F 
ENDBRANCH  55  78
ENDBRANCH  29  30
ENDBRANCH  22  24
ENDBRANCH  21  22
ENDBRANCH  20  21
ENDBRANCH   1  20
TORSDOF 15
ENDMDL
MODEL 3
REMARK VINA RESULT:     -11.1      4.789      9.960
REMARK SMILES CC[C@H](C)[C@@H](Nc1ccc(Cl)c(Br)c1)C(=O)OCCOC(=O)c1ccc(-c2c3nc(c(-c4c(F)c(F)c(F)c(F)c4F)c4ccc([nH]4)c(-c4c(F)c(F)c(F)c(F)c4F)c4nc(c(-c5c(F)c(F)c(F)c(F)c5F)c5ccc2[nH]5)C=C4)C=C3)cc1
REMARK SMILES IDX 18 1 17 2 15 3 16 4 5 5 3 6 4 7 2 8 1 9 6 10 7 12 8 13 14 14
REMARK SMILES IDX 9 15 12 16 10 17 13 18 11 19 19 20 20 21 21 22 22 23 23 24
REMARK SMILES IDX 24 25 85 26 25 27 84 28 26 29 27 30 28 31 78 32 29 33 83 34
REMARK SMILES IDX 77 35 79 36 30 37 82 38 76 39 75 40 31 42 63 43 43 44 62 45
REMARK SMILES IDX 44 46 47 47 61 48 80 49 45 50 46 51 60 53 81 54 48 55 32 56
REMARK SMILES IDX 33 57 41 58 34 59 35 60 39 61 42 62 36 63 37 64 40 65 38 66
REMARK SMILES IDX 64 67 65 68 73 69 66 70 67 71 71 72 74 73 68 74 69 75 72 76
REMARK SMILES IDX 70 77 49 78 50 79 58 80 51 81 52 82 56 83 59 84 53 85 54 86
REMARK SMILES IDX 57 87 55 88
REMARK H PARENT 6 11 79 41 47 52
REMARK Flexibility Score: inf
ROOT
ATOM      1  C   UNL A   1      31.780  28.686  27.215  1.00  0.00     0.274 C 
ENDROOT
BRANCH   1   2
ATOM      2  O   UNL A   1      32.150  27.744  26.186  1.00  0.00    -0.461 OA
BRANCH   2   3
ATOM      3  C   UNL A   1      31.274  26.719  26.001  1.00  0.00     0.328 C 
ATOM      4  O   UNL A   1      30.503  26.305  26.864  1.00  0.00    -0.250 OA
BRANCH   3   5
ATOM      5  C   UNL A   1      31.392  26.040  24.620  1.00  0.00     0.192 C 
BRANCH   5   6
ATOM      6  C   UNL A   1      30.543  26.691  23.478  1.00  0.00     0.019 C 
ATOM      7  C   UNL A   1      29.051  26.687  23.877  1.00  0.00     0.010 C 
BRANCH   6   8
ATOM      8  C   UNL A   1      31.026  28.106  23.097  1.00  0.00     0.002 C 
ATOM      9  C   UNL A   1      30.091  29.246  23.489  1.00  0.00     0.004 C 
ENDBRANCH   6   8
ENDBRANCH   5   6
BRANCH   5  10
ATOM     10  N   UNL A   1      32.794  25.893  24.154  1.00  0.00    -0.372 N 
ATOM     11  H   UNL A   1      33.190  26.644  23.654  1.00  0.00     0.161 HD
BRANCH  10  12
ATOM     12  C   UNL A   1      33.585  24.781  24.369  1.00  0.00     0.036 A 
ATOM     13  C   UNL A   1      34.337  24.172  23.362  1.00  0.00     0.027 A 
ATOM     14  C   UNL A   1      33.546  24.165  25.623  1.00  0.00     0.043 A 
ATOM     15  C   UNL A   1      34.978  22.949  23.577  1.00  0.00     0.024 A 
ATOM     16  C   UNL A   1      34.191  22.944  25.854  1.00  0.00     0.038 A 
ATOM     17  C   UNL A   1      34.895  22.324  24.821  1.00  0.00     0.055 A 
ATOM     18  Br  UNL A   1      34.026  22.186  27.588  1.00  0.00    -0.049 Br
ATOM     19  Cl  UNL A   1      35.664  20.789  25.000  1.00  0.00    -0.083 Cl
ENDBRANCH  10  12
ENDBRANCH   5  10
ENDBRANCH   3   5
ENDBRANCH   2   3
ENDBRANCH   1   2
BRANCH   1  20
ATOM     20  C   UNL A   1      31.795  30.142  26.734  1.00  0.00     0.275 C 
BRANCH  20  21
ATOM     21  O   UNL A   1      33.138  30.592  26.475  1.00  0.00    -0.458 OA
BRANCH  21  22
ATOM     22  C   UNL A   1      33.598  31.587  27.267  1.00  0.00     0.338 C 
ATOM     23  O   UNL A   1      33.040  32.629  27.559  1.00  0.00    -0.246 OA
BRANCH  22  24
ATOM     24  C   UNL A   1      34.894  31.191  27.839  1.00  0.00     0.060 A 
ATOM     25  C   UNL A   1      35.903  32.134  28.004  1.00  0.00     0.016 A 
ATOM     26  C   UNL A   1      35.064  29.880  28.297  1.00  0.00     0.016 A 
ATOM     27  C   UNL A   1      37.098  31.751  28.619  1.00  0.00     0.010 A 
ATOM     28  C   UNL A   1      36.250  29.498  28.916  1.00  0.00     0.010 A 
ATOM     29  C   UNL A   1      37.275  30.433  29.079  1.00  0.00    -0.014 A 
BRANCH  29  30
ATOM     30  C   UNL A   1      38.516  30.054  29.789  1.00  0.00     0.031 A 
ATOM     31  C   UNL A   1      38.795  30.560  31.171  1.00  0.00     0.074 A 
ATOM     32  C   UNL A   1      39.390  29.239  29.168  1.00  0.00     0.049 A 
ATOM     33  N   UNL A   1      39.749  30.212  31.996  1.00  0.00    -0.248 NA
ATOM     34  C   UNL A   1      37.893  31.597  31.695  1.00  0.00     0.031 C 
ATOM     35  C   UNL A   1      39.249  28.746  27.797  1.00  0.00     0.029 A 
ATOM     36  N   UNL A   1      40.555  28.669  29.613  1.00  0.00    -0.354 N 
ATOM     37  C   UNL A   1      39.540  30.955  33.149  1.00  0.00     0.074 A 
ATOM     38  C   UNL A   1      38.410  31.825  32.895  1.00  0.00     0.031 C 
ATOM     39  C   UNL A   1      40.265  27.911  27.527  1.00  0.00     0.029 A 
ATOM     40  C   UNL A   1      41.127  27.815  28.702  1.00  0.00     0.049 A 
ATOM     41  H   UNL A   1      40.945  28.855  30.498  1.00  0.00     0.167 HD
ATOM     42  C   UNL A   1      40.214  30.887  34.321  1.00  0.00     0.037 A 
ATOM     43  C   UNL A   1      42.207  27.020  28.819  1.00  0.00     0.037 A 
ATOM     44  C   UNL A   1      41.344  30.027  34.556  1.00  0.00     0.049 A 
ATOM     45  C   UNL A   1      42.946  26.980  30.129  1.00  0.00     0.074 A 
ATOM     46  C   UNL A   1      42.075  29.862  35.718  1.00  0.00     0.029 A 
ATOM     47  N   UNL A   1      41.909  29.191  33.604  1.00  0.00    -0.354 N 
ATOM     48  N   UNL A   1      42.682  27.612  31.245  1.00  0.00    -0.248 NA
ATOM     49  C   UNL A   1      44.124  26.104  30.196  1.00  0.00     0.031 C 
ATOM     50  C   UNL A   1      43.106  28.952  35.461  1.00  0.00     0.029 A 
ATOM     51  C   UNL A   1      42.992  28.520  34.149  1.00  0.00     0.049 A 
ATOM     52  H   UNL A   1      41.589  29.089  32.678  1.00  0.00     0.167 HD
ATOM     53  C   UNL A   1      43.643  27.195  32.155  1.00  0.00     0.074 A 
ATOM     54  C   UNL A   1      44.487  26.241  31.465  1.00  0.00     0.031 C 
ATOM     55  C   UNL A   1      43.813  27.570  33.446  1.00  0.00     0.037 A 
BRANCH  42  56
ATOM     56  C   UNL A   1      39.728  31.733  35.459  1.00  0.00     0.064 A 
ATOM     57  C   UNL A   1      40.240  33.024  35.663  1.00  0.00     0.173 A 
ATOM     58  C   UNL A   1      38.682  31.302  36.285  1.00  0.00     0.173 A 
ATOM     59  F   UNL A   1      41.244  33.481  34.901  1.00  0.00    -0.203 F 
ATOM     60  C   UNL A   1      39.722  33.850  36.657  1.00  0.00     0.198 A 
ATOM     61  C   UNL A   1      38.153  32.138  37.266  1.00  0.00     0.198 A 
ATOM     62  F   UNL A   1      38.154  30.078  36.125  1.00  0.00    -0.203 F 
ATOM     63  F   UNL A   1      40.235  35.074  36.844  1.00  0.00    -0.200 F 
ATOM     64  C   UNL A   1      38.673  33.411  37.450  1.00  0.00     0.200 A 
ATOM     65  F   UNL A   1      37.129  31.718  38.022  1.00  0.00    -0.200 F 
ATOM     66  F   UNL A   1      38.161  34.215  38.391  1.00  0.00    -0.200 F 
ENDBRANCH  42  56
BRANCH  43  67
ATOM     67  C   UNL A   1      42.606  26.145  27.688  1.00  0.00     0.064 A 
ATOM     68  C   UNL A   1      42.006  24.891  27.508  1.00  0.00     0.173 A 
ATOM     69  C   UNL A   1      43.584  26.543  26.765  1.00  0.00     0.173 A 
ATOM     70  F   UNL A   1      41.078  24.463  28.375  1.00  0.00    -0.203 F 
ATOM     71  C   UNL A   1      42.383  24.059  26.456  1.00  0.00     0.198 A 
ATOM     72  C   UNL A   1      43.941  25.719  25.699  1.00  0.00     0.198 A 
ATOM     73  F   UNL A   1      44.182  27.736  26.892  1.00  0.00    -0.203 F 
ATOM     74  F   UNL A   1      41.821  22.848  26.329  1.00  0.00    -0.200 F 
ATOM     75  C   UNL A   1      43.346  24.476  25.550  1.00  0.00     0.200 A 
ATOM     76  F   UNL A   1      44.864  26.130  24.818  1.00  0.00    -0.200 F 
ATOM     77  F   UNL A   1      43.705  23.676  24.536  1.00  0.00    -0.200 F 
ENDBRANCH  43  67
BRANCH  55  78
ATOM     78  C   UNL A   1      44.946  26.943  34.203  1.00  0.00     0.064 A 
ATOM     79  C   UNL A   1      46.204  27.556  34.270  1.00  0.00     0.173 A 
ATOM     80  C   UNL A   1      44.749  25.755  34.922  1.00  0.00     0.173 A 
ATOM     81  F   UNL A   1      46.442  28.686  33.587  1.00  0.00    -0.203 F 
ATOM     82  C   UNL A   1      47.232  26.994  35.020  1.00  0.00     0.198 A 
ATOM     83  C   UNL A   1      45.772  25.210  35.693  1.00  0.00     0.198 A 
ATOM     84  F   UNL A   1      43.560  25.136  34.895  1.00  0.00    -0.203 F 
ATOM     85  F   UNL A   1      48.438  27.579  35.045  1.00  0.00    -0.200 F 
ATOM     86  C   UNL A   1      47.013  25.827  35.738  1.00  0.00     0.200 A 
ATOM     87  F   UNL A   1      45.555  24.090  36.396  1.00  0.00    -0.200 F 
ATOM     88  F   UNL A   1      48.000  25.295  36.472  1.00  0.00    -0.200 F 
ENDBRANCH  55  78
ENDBRANCH  29  30
ENDBRANCH  22  24
ENDBRANCH  21  22
ENDBRANCH  20  21
ENDBRANCH   1  20
TORSDOF 15
ENDMDL
