MODEL 1
REMARK VINA RESULT:     -12.1      0.000      0.000
REMARK SMILES C[C@@H]1CCC[C@H](S[C@@H]2CCC[C@]([NH2+]C3CC3)(C(=O)OCCOC(=O)c3ccc(-c4c5nc(c(-c6c(F)c(F)c(F)c(F)c6F)c6ccc([nH]6)c(-c6c(F)c(F)c(F)c(F)c6F)c6nc(c(-c7c(F)c(F)c(F)c(F)c7F)c7ccc4[nH]7)C=C6)C=C5)cc3)C2)C1
REMARK SMILES IDX 20 1 19 2 17 3 18 4 12 5 8 6 9 7 88 8 10 9 11 10 7 11 6 12
REMARK SMILES IDX 1 13 2 14 3 15 89 16 4 17 5 18 13 19 14 22 15 23 16 24 21 25
REMARK SMILES IDX 22 26 23 27 24 28 25 29 26 30 87 31 27 32 86 33 28 34 29 35
REMARK SMILES IDX 30 36 80 37 31 38 85 39 79 40 81 41 32 42 84 43 78 44 77 45
REMARK SMILES IDX 33 47 65 48 45 49 64 50 46 51 49 52 63 53 82 54 47 55 48 56
REMARK SMILES IDX 62 58 83 59 50 60 34 61 35 62 43 63 36 64 37 65 41 66 44 67
REMARK SMILES IDX 38 68 39 69 42 70 40 71 66 72 67 73 75 74 68 75 69 76 73 77
REMARK SMILES IDX 76 78 70 79 71 80 74 81 72 82 51 83 52 84 60 85 53 86 54 87
REMARK SMILES IDX 58 88 61 89 55 90 56 91 59 92 57 93
REMARK H PARENT 13 20 13 21 81 46 49 57
REMARK Flexibility Score: inf
ROOT
ATOM      1  C   UNL A   1      32.871  29.461  24.709  1.00  0.00     0.274 C 
ENDROOT
BRANCH   1   2
ATOM      2  O   UNL A   1      33.046  28.057  24.991  1.00  0.00    -0.457 OA
BRANCH   2   3
ATOM      3  C   UNL A   1      32.810  27.227  23.933  1.00  0.00     0.368 C 
ATOM      4  O   UNL A   1      33.473  27.246  22.900  1.00  0.00    -0.245 OA
BRANCH   3   5
ATOM      5  C   UNL A   1      31.647  26.220  24.186  1.00  0.00     0.195 C 
ATOM      6  C   UNL A   1      31.309  24.048  25.562  1.00  0.00     0.053 C 
ATOM      7  C   UNL A   1      31.215  23.228  24.280  1.00  0.00     0.015 C 
ATOM      8  C   UNL A   1      32.115  25.323  25.357  1.00  0.00     0.095 C 
ATOM      9  C   UNL A   1      30.661  24.080  23.136  1.00  0.00     0.008 C 
ATOM     10  C   UNL A   1      31.518  25.331  22.916  1.00  0.00     0.081 C 
BRANCH   6  11
ATOM     11  S   UNL A   1      31.779  23.138  27.099  1.00  0.00    -0.155 SA
BRANCH  11  12
ATOM     12  C   UNL A   1      33.278  22.065  26.857  1.00  0.00     0.047 C 
ATOM     13  C   UNL A   1      34.911  24.019  24.631  1.00  0.00     0.007 C 
ATOM     14  C   UNL A   1      35.400  22.906  25.548  1.00  0.00    -0.013 C 
ATOM     15  C   UNL A   1      35.414  21.560  24.825  1.00  0.00     0.003 C 
ATOM     16  C   UNL A   1      34.619  22.832  26.871  1.00  0.00     0.017 C 
ATOM     17  C   UNL A   1      34.008  20.994  24.635  1.00  0.00     0.001 C 
ATOM     18  C   UNL A   1      33.280  20.826  25.964  1.00  0.00     0.014 C 
ENDBRANCH  11  12
ENDBRANCH   6  11
BRANCH   5  19
ATOM     19  N   UNL A   1      30.358  26.935  24.266  1.00  0.00    -0.330 N 
ATOM     20  H   UNL A   1      30.531  27.733  24.877  1.00  0.00     0.347 HD
ATOM     21  H   UNL A   1      29.744  26.168  24.535  1.00  0.00     0.347 HD
BRANCH  19  22
ATOM     22  C   UNL A   1      29.621  27.469  23.136  1.00  0.00     0.183 C 
ATOM     23  C   UNL A   1      28.237  28.036  23.134  1.00  0.00     0.071 C 
ATOM     24  C   UNL A   1      29.404  28.967  23.143  1.00  0.00     0.071 C 
ENDBRANCH  19  22
ENDBRANCH   5  19
ENDBRANCH   3   5
ENDBRANCH   2   3
ENDBRANCH   1   2
BRANCH   1  25
ATOM     25  C   UNL A   1      31.859  30.069  25.675  1.00  0.00     0.275 C 
BRANCH  25  26
ATOM     26  O   UNL A   1      32.457  30.118  26.986  1.00  0.00    -0.458 OA
BRANCH  26  27
ATOM     27  C   UNL A   1      33.139  31.251  27.262  1.00  0.00     0.338 C 
ATOM     28  O   UNL A   1      32.710  32.389  27.284  1.00  0.00    -0.246 OA
BRANCH  27  29
ATOM     29  C   UNL A   1      34.536  30.944  27.607  1.00  0.00     0.060 A 
ATOM     30  C   UNL A   1      34.919  29.618  27.774  1.00  0.00     0.016 A 
ATOM     31  C   UNL A   1      35.390  31.975  27.998  1.00  0.00     0.016 A 
ATOM     32  C   UNL A   1      36.109  29.324  28.446  1.00  0.00     0.010 A 
ATOM     33  C   UNL A   1      36.620  31.674  28.595  1.00  0.00     0.010 A 
ATOM     34  C   UNL A   1      36.975  30.343  28.879  1.00  0.00    -0.014 A 
BRANCH  34  35
ATOM     35  C   UNL A   1      38.188  30.033  29.699  1.00  0.00     0.031 A 
ATOM     36  C   UNL A   1      39.333  29.246  29.104  1.00  0.00     0.074 A 
ATOM     37  C   UNL A   1      38.326  30.495  30.959  1.00  0.00     0.049 A 
ATOM     38  N   UNL A   1      40.345  28.667  29.707  1.00  0.00    -0.248 NA
ATOM     39  C   UNL A   1      39.342  29.088  27.642  1.00  0.00     0.031 C 
ATOM     40  C   UNL A   1      37.372  31.352  31.658  1.00  0.00     0.029 A 
ATOM     41  N   UNL A   1      39.348  30.332  31.867  1.00  0.00    -0.354 N 
ATOM     42  C   UNL A   1      41.055  28.007  28.711  1.00  0.00     0.074 A 
ATOM     43  C   UNL A   1      40.387  28.291  27.458  1.00  0.00     0.031 C 
ATOM     44  C   UNL A   1      37.889  31.714  32.842  1.00  0.00     0.029 A 
ATOM     45  C   UNL A   1      39.151  31.009  33.045  1.00  0.00     0.049 A 
ATOM     46  H   UNL A   1      40.144  29.782  31.688  1.00  0.00     0.167 HD
ATOM     47  C   UNL A   1      42.152  27.220  28.838  1.00  0.00     0.037 A 
ATOM     48  C   UNL A   1      39.870  31.025  34.185  1.00  0.00     0.037 A 
ATOM     49  C   UNL A   1      42.866  27.004  30.070  1.00  0.00     0.049 A 
ATOM     50  C   UNL A   1      41.067  30.127  34.318  1.00  0.00     0.074 A 
ATOM     51  C   UNL A   1      43.951  26.177  30.311  1.00  0.00     0.029 A 
ATOM     52  N   UNL A   1      42.592  27.655  31.261  1.00  0.00    -0.354 N 
ATOM     53  N   UNL A   1      41.623  29.351  33.420  1.00  0.00    -0.248 NA
ATOM     54  C   UNL A   1      41.701  30.060  35.643  1.00  0.00     0.031 C 
ATOM     55  C   UNL A   1      44.322  26.316  31.654  1.00  0.00     0.029 A 
ATOM     56  C   UNL A   1      43.485  27.251  32.240  1.00  0.00     0.049 A 
ATOM     57  H   UNL A   1      41.867  28.309  31.393  1.00  0.00     0.167 HD
ATOM     58  C   UNL A   1      42.654  28.692  34.073  1.00  0.00     0.074 A 
ATOM     59  C   UNL A   1      42.674  29.186  35.434  1.00  0.00     0.031 C 
ATOM     60  C   UNL A   1      43.494  27.745  33.591  1.00  0.00     0.037 A 
BRANCH  47  61
ATOM     61  C   UNL A   1      42.613  26.468  27.625  1.00  0.00     0.064 A 
ATOM     62  C   UNL A   1      43.617  26.954  26.778  1.00  0.00     0.173 A 
ATOM     63  C   UNL A   1      42.070  25.204  27.345  1.00  0.00     0.173 A 
ATOM     64  F   UNL A   1      44.159  28.161  26.997  1.00  0.00    -0.203 F 
ATOM     65  C   UNL A   1      44.051  26.207  25.684  1.00  0.00     0.198 A 
ATOM     66  C   UNL A   1      42.520  24.452  26.264  1.00  0.00     0.198 A 
ATOM     67  F   UNL A   1      41.111  24.691  28.132  1.00  0.00    -0.203 F 
ATOM     68  F   UNL A   1      44.993  26.700  24.868  1.00  0.00    -0.200 F 
ATOM     69  C   UNL A   1      43.508  24.955  25.432  1.00  0.00     0.200 A 
ATOM     70  F   UNL A   1      42.001  23.238  26.032  1.00  0.00    -0.200 F 
ATOM     71  F   UNL A   1      43.933  24.235  24.385  1.00  0.00    -0.200 F 
ENDBRANCH  47  61
BRANCH  48  72
ATOM     72  C   UNL A   1      39.429  31.872  35.323  1.00  0.00     0.064 A 
ATOM     73  C   UNL A   1      39.850  33.205  35.432  1.00  0.00     0.173 A 
ATOM     74  C   UNL A   1      38.568  31.377  36.312  1.00  0.00     0.173 A 
ATOM     75  F   UNL A   1      40.702  33.715  34.531  1.00  0.00    -0.203 F 
ATOM     76  C   UNL A   1      39.415  34.012  36.482  1.00  0.00     0.198 A 
ATOM     77  C   UNL A   1      38.108  32.192  37.342  1.00  0.00     0.198 A 
ATOM     78  F   UNL A   1      38.147  30.104  36.260  1.00  0.00    -0.203 F 
ATOM     79  F   UNL A   1      39.852  35.274  36.581  1.00  0.00    -0.200 F 
ATOM     80  C   UNL A   1      38.534  33.509  37.429  1.00  0.00     0.200 A 
ATOM     81  F   UNL A   1      37.245  31.705  38.244  1.00  0.00    -0.200 F 
ATOM     82  F   UNL A   1      38.099  34.291  38.426  1.00  0.00    -0.200 F 
ENDBRANCH  48  72
BRANCH  60  83
ATOM     83  C   UNL A   1      44.504  27.179  34.542  1.00  0.00     0.064 A 
ATOM     84  C   UNL A   1      44.227  26.027  35.291  1.00  0.00     0.173 A 
ATOM     85  C   UNL A   1      45.762  27.778  34.689  1.00  0.00     0.173 A 
ATOM     86  F   UNL A   1      43.029  25.431  35.196  1.00  0.00    -0.203 F 
ATOM     87  C   UNL A   1      45.172  25.502  36.169  1.00  0.00     0.198 A 
ATOM     88  C   UNL A   1      46.712  27.241  35.555  1.00  0.00     0.198 A 
ATOM     89  F   UNL A   1      46.071  28.883  33.993  1.00  0.00    -0.203 F 
ATOM     90  F   UNL A   1      44.876  24.420  36.900  1.00  0.00    -0.200 F 
ATOM     91  C   UNL A   1      46.414  26.107  36.296  1.00  0.00     0.200 A 
ATOM     92  F   UNL A   1      47.912  27.824  35.676  1.00  0.00    -0.200 F 
ATOM     93  F   UNL A   1      47.323  25.601  37.142  1.00  0.00    -0.200 F 
ENDBRANCH  60  83
ENDBRANCH  34  35
ENDBRANCH  27  29
ENDBRANCH  26  27
ENDBRANCH  25  26
ENDBRANCH   1  25
TORSDOF 15
ENDMDL
MODEL 2
REMARK VINA RESULT:     -12.0      1.065      2.121
REMARK SMILES C[C@@H]1CCC[C@H](S[C@@H]2CCC[C@]([NH2+]C3CC3)(C(=O)OCCOC(=O)c3ccc(-c4c5nc(c(-c6c(F)c(F)c(F)c(F)c6F)c6ccc([nH]6)c(-c6c(F)c(F)c(F)c(F)c6F)c6nc(c(-c7c(F)c(F)c(F)c(F)c7F)c7ccc4[nH]7)C=C6)C=C5)cc3)C2)C1
REMARK SMILES IDX 20 1 19 2 17 3 18 4 12 5 8 6 9 7 88 8 10 9 11 10 7 11 6 12
REMARK SMILES IDX 1 13 2 14 3 15 89 16 4 17 5 18 13 19 14 22 15 23 16 24 21 25
REMARK SMILES IDX 22 26 23 27 24 28 25 29 26 30 87 31 27 32 86 33 28 34 29 35
REMARK SMILES IDX 30 36 80 37 31 38 85 39 79 40 81 41 32 42 84 43 78 44 77 45
REMARK SMILES IDX 33 47 65 48 45 49 64 50 46 51 49 52 63 53 82 54 47 55 48 56
REMARK SMILES IDX 62 58 83 59 50 60 34 61 35 62 43 63 36 64 37 65 41 66 44 67
REMARK SMILES IDX 38 68 39 69 42 70 40 71 66 72 67 73 75 74 68 75 69 76 73 77
REMARK SMILES IDX 76 78 70 79 71 80 74 81 72 82 51 83 52 84 60 85 53 86 54 87
REMARK SMILES IDX 58 88 61 89 55 90 56 91 59 92 57 93
REMARK H PARENT 13 20 13 21 81 46 49 57
REMARK Flexibility Score: inf
ROOT
ATOM      1  C   UNL A   1      31.532  29.459  25.191  1.00  0.00     0.274 C 
ENDROOT
BRANCH   1   2
ATOM      2  O   UNL A   1      32.308  28.446  25.865  1.00  0.00    -0.457 OA
BRANCH   2   3
ATOM      3  C   UNL A   1      31.572  27.497  26.512  1.00  0.00     0.368 C 
ATOM      4  O   UNL A   1      31.058  27.675  27.613  1.00  0.00    -0.245 OA
BRANCH   3   5
ATOM      5  C   UNL A   1      31.407  26.179  25.694  1.00  0.00     0.195 C 
ATOM      6  C   UNL A   1      32.652  25.013  23.741  1.00  0.00     0.053 C 
ATOM      7  C   UNL A   1      31.476  25.277  22.808  1.00  0.00     0.015 C 
ATOM      8  C   UNL A   1      32.711  26.027  24.874  1.00  0.00     0.095 C 
ATOM      9  C   UNL A   1      30.166  25.332  23.597  1.00  0.00     0.008 C 
ATOM     10  C   UNL A   1      30.231  26.396  24.698  1.00  0.00     0.081 C 
BRANCH   6  11
ATOM     11  S   UNL A   1      34.296  24.724  22.948  1.00  0.00    -0.155 SA
BRANCH  11  12
ATOM     12  C   UNL A   1      34.961  23.023  23.294  1.00  0.00     0.047 C 
ATOM     13  C   UNL A   1      34.433  22.972  26.634  1.00  0.00     0.007 C 
ATOM     14  C   UNL A   1      34.648  21.850  25.628  1.00  0.00    -0.013 C 
ATOM     15  C   UNL A   1      36.120  21.446  25.556  1.00  0.00     0.003 C 
ATOM     16  C   UNL A   1      34.079  22.174  24.236  1.00  0.00     0.017 C 
ATOM     17  C   UNL A   1      36.964  22.480  24.813  1.00  0.00     0.001 C 
ATOM     18  C   UNL A   1      36.454  22.717  23.397  1.00  0.00     0.014 C 
ENDBRANCH  11  12
ENDBRANCH   6  11
BRANCH   5  19
ATOM     19  N   UNL A   1      30.948  25.085  26.572  1.00  0.00    -0.330 N 
ATOM     20  H   UNL A   1      30.334  25.527  27.255  1.00  0.00     0.347 HD
ATOM     21  H   UNL A   1      31.846  24.677  26.832  1.00  0.00     0.347 HD
BRANCH  19  22
ATOM     22  C   UNL A   1      30.243  23.895  26.134  1.00  0.00     0.183 C 
ATOM     23  C   UNL A   1      30.759  22.490  26.096  1.00  0.00     0.071 C 
ATOM     24  C   UNL A   1      29.877  22.911  27.225  1.00  0.00     0.071 C 
ENDBRANCH  19  22
ENDBRANCH   5  19
ENDBRANCH   3   5
ENDBRANCH   2   3
ENDBRANCH   1   2
BRANCH   1  25
ATOM     25  C   UNL A   1      31.596  30.772  25.965  1.00  0.00     0.275 C 
BRANCH  25  26
ATOM     26  O   UNL A   1      32.524  30.610  27.057  1.00  0.00    -0.458 OA
BRANCH  26  27
ATOM     27  C   UNL A   1      33.279  31.695  27.331  1.00  0.00     0.338 C 
ATOM     28  O   UNL A   1      32.926  32.859  27.354  1.00  0.00    -0.246 OA
BRANCH  27  29
ATOM     29  C   UNL A   1      34.654  31.297  27.675  1.00  0.00     0.060 A 
ATOM     30  C   UNL A   1      34.934  29.956  27.912  1.00  0.00     0.016 A 
ATOM     31  C   UNL A   1      35.593  32.276  27.996  1.00  0.00     0.016 A 
ATOM     32  C   UNL A   1      36.108  29.606  28.584  1.00  0.00     0.010 A 
ATOM     33  C   UNL A   1      36.806  31.912  28.592  1.00  0.00     0.010 A 
ATOM     34  C   UNL A   1      37.059  30.575  28.947  1.00  0.00    -0.014 A 
BRANCH  34  35
ATOM     35  C   UNL A   1      38.259  30.214  29.767  1.00  0.00     0.031 A 
ATOM     36  C   UNL A   1      39.378  29.395  29.167  1.00  0.00     0.074 A 
ATOM     37  C   UNL A   1      38.408  30.658  31.032  1.00  0.00     0.049 A 
ATOM     38  N   UNL A   1      40.367  28.776  29.767  1.00  0.00    -0.248 NA
ATOM     39  C   UNL A   1      39.386  29.253  27.703  1.00  0.00     0.031 C 
ATOM     40  C   UNL A   1      37.481  31.540  31.738  1.00  0.00     0.029 A 
ATOM     41  N   UNL A   1      39.420  30.451  31.941  1.00  0.00    -0.354 N 
ATOM     42  C   UNL A   1      41.058  28.103  28.766  1.00  0.00     0.074 A 
ATOM     43  C   UNL A   1      40.404  28.423  27.514  1.00  0.00     0.031 C 
ATOM     44  C   UNL A   1      38.006  31.871  32.927  1.00  0.00     0.029 A 
ATOM     45  C   UNL A   1      39.243  31.121  33.127  1.00  0.00     0.049 A 
ATOM     46  H   UNL A   1      40.198  29.875  31.759  1.00  0.00     0.167 HD
ATOM     47  C   UNL A   1      42.127  27.278  28.887  1.00  0.00     0.037 A 
ATOM     48  C   UNL A   1      39.958  31.101  34.268  1.00  0.00     0.037 A 
ATOM     49  C   UNL A   1      42.829  27.024  30.119  1.00  0.00     0.049 A 
ATOM     50  C   UNL A   1      41.123  30.161  34.395  1.00  0.00     0.074 A 
ATOM     51  C   UNL A   1      43.884  26.157  30.355  1.00  0.00     0.029 A 
ATOM     52  N   UNL A   1      42.573  27.671  31.317  1.00  0.00    -0.354 N 
ATOM     53  N   UNL A   1      41.655  29.376  33.491  1.00  0.00    -0.248 NA
ATOM     54  C   UNL A   1      41.750  30.058  35.722  1.00  0.00     0.031 C 
ATOM     55  C   UNL A   1      44.255  26.269  31.701  1.00  0.00     0.029 A 
ATOM     56  C   UNL A   1      43.449  27.227  32.294  1.00  0.00     0.049 A 
ATOM     57  H   UNL A   1      41.871  28.348  31.454  1.00  0.00     0.167 HD
ATOM     58  C   UNL A   1      42.661  28.675  34.140  1.00  0.00     0.074 A 
ATOM     59  C   UNL A   1      42.694  29.153  35.506  1.00  0.00     0.031 C 
ATOM     60  C   UNL A   1      43.470  27.705  33.650  1.00  0.00     0.037 A 
BRANCH  47  61
ATOM     61  C   UNL A   1      42.566  26.523  27.668  1.00  0.00     0.064 A 
ATOM     62  C   UNL A   1      43.552  27.010  26.800  1.00  0.00     0.173 A 
ATOM     63  C   UNL A   1      42.021  25.257  27.402  1.00  0.00     0.173 A 
ATOM     64  F   UNL A   1      44.095  28.219  27.005  1.00  0.00    -0.203 F 
ATOM     65  C   UNL A   1      43.967  26.261  25.700  1.00  0.00     0.198 A 
ATOM     66  C   UNL A   1      42.452  24.502  26.315  1.00  0.00     0.198 A 
ATOM     67  F   UNL A   1      41.080  24.743  28.209  1.00  0.00    -0.203 F 
ATOM     68  F   UNL A   1      44.891  26.754  24.864  1.00  0.00    -0.200 F 
ATOM     69  C   UNL A   1      43.422  25.006  25.462  1.00  0.00     0.200 A 
ATOM     70  F   UNL A   1      41.932  23.286  26.096  1.00  0.00    -0.200 F 
ATOM     71  F   UNL A   1      43.829  24.284  24.409  1.00  0.00    -0.200 F 
ENDBRANCH  47  61
BRANCH  48  72
ATOM     72  C   UNL A   1      39.542  31.950  35.415  1.00  0.00     0.064 A 
ATOM     73  C   UNL A   1      40.052  33.246  35.571  1.00  0.00     0.173 A 
ATOM     74  C   UNL A   1      38.616  31.494  36.364  1.00  0.00     0.173 A 
ATOM     75  F   UNL A   1      40.968  33.714  34.709  1.00  0.00    -0.203 F 
ATOM     76  C   UNL A   1      39.643  34.057  36.628  1.00  0.00     0.198 A 
ATOM     77  C   UNL A   1      38.183  32.316  37.401  1.00  0.00     0.198 A 
ATOM     78  F   UNL A   1      38.109  30.256  36.266  1.00  0.00    -0.203 F 
ATOM     79  F   UNL A   1      40.166  35.282  36.772  1.00  0.00    -0.200 F 
ATOM     80  C   UNL A   1      38.699  33.596  37.534  1.00  0.00     0.200 A 
ATOM     81  F   UNL A   1      37.260  31.871  38.263  1.00  0.00    -0.200 F 
ATOM     82  F   UNL A   1      38.289  34.383  38.537  1.00  0.00    -0.200 F 
ENDBRANCH  48  72
BRANCH  60  83
ATOM     83  C   UNL A   1      44.456  27.095  34.598  1.00  0.00     0.064 A 
ATOM     84  C   UNL A   1      45.719  27.671  34.800  1.00  0.00     0.173 A 
ATOM     85  C   UNL A   1      44.131  25.943  35.326  1.00  0.00     0.173 A 
ATOM     86  F   UNL A   1      46.080  28.765  34.112  1.00  0.00    -0.203 F 
ATOM     87  C   UNL A   1      46.629  27.104  35.688  1.00  0.00     0.198 A 
ATOM     88  C   UNL A   1      45.037  25.387  36.226  1.00  0.00     0.198 A 
ATOM     89  F   UNL A   1      42.935  25.357  35.165  1.00  0.00    -0.203 F 
ATOM     90  F   UNL A   1      47.842  27.650  35.842  1.00  0.00    -0.200 F 
ATOM     91  C   UNL A   1      46.285  25.966  36.402  1.00  0.00     0.200 A 
ATOM     92  F   UNL A   1      44.704  24.289  36.918  1.00  0.00    -0.200 F 
ATOM     93  F   UNL A   1      47.162  25.420  37.256  1.00  0.00    -0.200 F 
ENDBRANCH  60  83
ENDBRANCH  34  35
ENDBRANCH  27  29
ENDBRANCH  26  27
ENDBRANCH  25  26
ENDBRANCH   1  25
TORSDOF 15
ENDMDL
MODEL 3
REMARK VINA RESULT:     -11.8      4.393      9.657
REMARK SMILES C[C@@H]1CCC[C@H](S[C@@H]2CCC[C@]([NH2+]C3CC3)(C(=O)OCCOC(=O)c3ccc(-c4c5nc(c(-c6c(F)c(F)c(F)c(F)c6F)c6ccc([nH]6)c(-c6c(F)c(F)c(F)c(F)c6F)c6nc(c(-c7c(F)c(F)c(F)c(F)c7F)c7ccc4[nH]7)C=C6)C=C5)cc3)C2)C1
REMARK SMILES IDX 20 1 19 2 17 3 18 4 12 5 8 6 9 7 88 8 10 9 11 10 7 11 6 12
REMARK SMILES IDX 1 13 2 14 3 15 89 16 4 17 5 18 13 19 14 22 15 23 16 24 21 25
REMARK SMILES IDX 22 26 23 27 24 28 25 29 26 30 87 31 27 32 86 33 28 34 29 35
REMARK SMILES IDX 30 36 80 37 31 38 85 39 79 40 81 41 32 42 84 43 78 44 77 45
REMARK SMILES IDX 33 47 65 48 45 49 64 50 46 51 49 52 63 53 82 54 47 55 48 56
REMARK SMILES IDX 62 58 83 59 50 60 34 61 35 62 43 63 36 64 37 65 41 66 44 67
REMARK SMILES IDX 38 68 39 69 42 70 40 71 66 72 67 73 75 74 68 75 69 76 73 77
REMARK SMILES IDX 76 78 70 79 71 80 74 81 72 82 51 83 52 84 60 85 53 86 54 87
REMARK SMILES IDX 58 88 61 89 55 90 56 91 59 92 57 93
REMARK H PARENT 13 20 13 21 81 46 49 57
REMARK Flexibility Score: inf
ROOT
ATOM      1  C   UNL A   1      36.595  22.490  23.660  1.00  0.00     0.274 C 
ENDROOT
BRANCH   1   2
ATOM      2  O   UNL A   1      35.445  23.010  24.357  1.00  0.00    -0.457 OA
BRANCH   2   3
ATOM      3  C   UNL A   1      34.319  23.131  23.595  1.00  0.00     0.368 C 
ATOM      4  O   UNL A   1      34.342  23.277  22.376  1.00  0.00    -0.245 OA
BRANCH   3   5
ATOM      5  C   UNL A   1      33.000  23.015  24.418  1.00  0.00     0.195 C 
ATOM      6  C   UNL A   1      31.110  24.622  25.173  1.00  0.00     0.053 C 
ATOM      7  C   UNL A   1      31.563  24.505  26.623  1.00  0.00     0.015 C 
ATOM      8  C   UNL A   1      32.251  24.352  24.202  1.00  0.00     0.095 C 
ATOM      9  C   UNL A   1      32.219  23.145  26.873  1.00  0.00     0.008 C 
ATOM     10  C   UNL A   1      33.397  22.919  25.920  1.00  0.00     0.081 C 
BRANCH   6  11
ATOM     11  S   UNL A   1      30.126  26.121  24.727  1.00  0.00    -0.155 SA
BRANCH  11  12
ATOM     12  C   UNL A   1      31.148  27.673  24.749  1.00  0.00     0.047 C 
ATOM     13  C   UNL A   1      33.220  26.920  22.184  1.00  0.00     0.007 C 
ATOM     14  C   UNL A   1      32.855  28.249  22.832  1.00  0.00    -0.013 C 
ATOM     15  C   UNL A   1      33.859  28.628  23.920  1.00  0.00     0.003 C 
ATOM     16  C   UNL A   1      31.409  28.285  23.356  1.00  0.00     0.017 C 
ATOM     17  C   UNL A   1      33.681  27.789  25.184  1.00  0.00     0.001 C 
ATOM     18  C   UNL A   1      32.274  27.914  25.755  1.00  0.00     0.014 C 
ENDBRANCH  11  12
ENDBRANCH   6  11
BRANCH   5  19
ATOM     19  N   UNL A   1      32.329  21.732  24.133  1.00  0.00    -0.330 N 
ATOM     20  H   UNL A   1      31.787  21.895  23.284  1.00  0.00     0.347 HD
ATOM     21  H   UNL A   1      31.886  21.557  25.035  1.00  0.00     0.347 HD
BRANCH  19  22
ATOM     22  C   UNL A   1      32.997  20.461  23.925  1.00  0.00     0.183 C 
ATOM     23  C   UNL A   1      33.954  19.771  24.846  1.00  0.00     0.071 C 
ATOM     24  C   UNL A   1      32.530  19.322  24.806  1.00  0.00     0.071 C 
ENDBRANCH  19  22
ENDBRANCH   5  19
ENDBRANCH   3   5
ENDBRANCH   2   3
ENDBRANCH   1   2
BRANCH   1  25
ATOM     25  C   UNL A   1      37.193  21.318  24.432  1.00  0.00     0.275 C 
BRANCH  25  26
ATOM     26  O   UNL A   1      37.546  21.779  25.753  1.00  0.00    -0.458 OA
BRANCH  26  27
ATOM     27  C   UNL A   1      38.852  21.652  26.073  1.00  0.00     0.338 C 
ATOM     28  O   UNL A   1      39.599  20.731  25.794  1.00  0.00    -0.246 OA
BRANCH  27  29
ATOM     29  C   UNL A   1      39.327  22.842  26.795  1.00  0.00     0.060 A 
ATOM     30  C   UNL A   1      38.780  24.084  26.493  1.00  0.00     0.016 A 
ATOM     31  C   UNL A   1      40.473  22.754  27.585  1.00  0.00     0.016 A 
ATOM     32  C   UNL A   1      39.452  25.246  26.883  1.00  0.00     0.010 A 
ATOM     33  C   UNL A   1      41.095  23.922  28.045  1.00  0.00     0.010 A 
ATOM     34  C   UNL A   1      40.626  25.188  27.654  1.00  0.00    -0.014 A 
BRANCH  34  35
ATOM     35  C   UNL A   1      41.406  26.426  27.971  1.00  0.00     0.031 A 
ATOM     36  C   UNL A   1      40.811  27.501  28.849  1.00  0.00     0.074 A 
ATOM     37  C   UNL A   1      42.675  26.589  27.543  1.00  0.00     0.049 A 
ATOM     38  N   UNL A   1      41.213  28.736  29.038  1.00  0.00    -0.248 NA
ATOM     39  C   UNL A   1      39.606  27.144  29.614  1.00  0.00     0.031 C 
ATOM     40  C   UNL A   1      43.443  25.614  26.773  1.00  0.00     0.029 A 
ATOM     41  N   UNL A   1      43.555  27.631  27.726  1.00  0.00    -0.354 N 
ATOM     42  C   UNL A   1      40.265  29.323  29.869  1.00  0.00     0.074 A 
ATOM     43  C   UNL A   1      39.290  28.300  30.185  1.00  0.00     0.031 C 
ATOM     44  C   UNL A   1      44.701  26.059  26.629  1.00  0.00     0.029 A 
ATOM     45  C   UNL A   1      44.794  27.409  27.178  1.00  0.00     0.049 A 
ATOM     46  H   UNL A   1      43.318  28.459  28.204  1.00  0.00     0.167 HD
ATOM     47  C   UNL A   1      40.206  30.605  30.308  1.00  0.00     0.037 A 
ATOM     48  C   UNL A   1      45.872  28.211  27.076  1.00  0.00     0.037 A 
ATOM     49  C   UNL A   1      41.217  31.601  30.063  1.00  0.00     0.049 A 
ATOM     50  C   UNL A   1      45.781  29.637  27.543  1.00  0.00     0.074 A 
ATOM     51  C   UNL A   1      41.218  32.942  30.413  1.00  0.00     0.029 A 
ATOM     52  N   UNL A   1      42.430  31.353  29.440  1.00  0.00    -0.354 N 
ATOM     53  N   UNL A   1      44.797  30.243  28.160  1.00  0.00    -0.248 NA
ATOM     54  C   UNL A   1      46.928  30.506  27.243  1.00  0.00     0.031 C 
ATOM     55  C   UNL A   1      42.426  33.508  29.987  1.00  0.00     0.029 A 
ATOM     56  C   UNL A   1      43.188  32.512  29.397  1.00  0.00     0.049 A 
ATOM     57  H   UNL A   1      42.711  30.481  29.080  1.00  0.00     0.167 HD
ATOM     58  C   UNL A   1      45.196  31.564  28.305  1.00  0.00     0.074 A 
ATOM     59  C   UNL A   1      46.527  31.665  27.746  1.00  0.00     0.031 C 
ATOM     60  C   UNL A   1      44.508  32.604  28.835  1.00  0.00     0.037 A 
BRANCH  47  61
ATOM     61  C   UNL A   1      38.970  31.033  31.041  1.00  0.00     0.064 A 
ATOM     62  C   UNL A   1      37.834  31.514  30.378  1.00  0.00     0.173 A 
ATOM     63  C   UNL A   1      38.912  30.901  32.438  1.00  0.00     0.173 A 
ATOM     64  F   UNL A   1      37.844  31.668  29.046  1.00  0.00    -0.203 F 
ATOM     65  C   UNL A   1      36.686  31.861  31.090  1.00  0.00     0.198 A 
ATOM     66  C   UNL A   1      37.757  31.230  33.143  1.00  0.00     0.198 A 
ATOM     67  F   UNL A   1      39.972  30.437  33.118  1.00  0.00    -0.203 F 
ATOM     68  F   UNL A   1      35.618  32.346  30.442  1.00  0.00    -0.200 F 
ATOM     69  C   UNL A   1      36.647  31.712  32.469  1.00  0.00     0.200 A 
ATOM     70  F   UNL A   1      37.720  31.073  34.474  1.00  0.00    -0.200 F 
ATOM     71  F   UNL A   1      35.540  32.038  33.150  1.00  0.00    -0.200 F 
ENDBRANCH  47  61
BRANCH  48  72
ATOM     72  C   UNL A   1      47.113  27.703  26.435  1.00  0.00     0.064 A 
ATOM     73  C   UNL A   1      48.152  27.166  27.207  1.00  0.00     0.173 A 
ATOM     74  C   UNL A   1      47.278  27.726  25.043  1.00  0.00     0.173 A 
ATOM     75  F   UNL A   1      48.057  27.154  28.545  1.00  0.00    -0.203 F 
ATOM     76  C   UNL A   1      49.304  26.660  26.608  1.00  0.00     0.198 A 
ATOM     77  C   UNL A   1      48.415  27.191  24.443  1.00  0.00     0.198 A 
ATOM     78  F   UNL A   1      46.318  28.242  24.261  1.00  0.00    -0.203 F 
ATOM     79  F   UNL A   1      50.296  26.177  27.368  1.00  0.00    -0.200 F 
ATOM     80  C   UNL A   1      49.429  26.662  25.226  1.00  0.00     0.200 A 
ATOM     81  F   UNL A   1      48.523  27.181  23.108  1.00  0.00    -0.200 F 
ATOM     82  F   UNL A   1      50.528  26.156  24.649  1.00  0.00    -0.200 F 
ENDBRANCH  48  72
BRANCH  60  83
ATOM     83  C   UNL A   1      45.183  33.941  28.832  1.00  0.00     0.064 A 
ATOM     84  C   UNL A   1      46.043  34.321  29.872  1.00  0.00     0.173 A 
ATOM     85  C   UNL A   1      44.988  34.838  27.773  1.00  0.00     0.173 A 
ATOM     86  F   UNL A   1      46.245  33.501  30.915  1.00  0.00    -0.203 F 
ATOM     87  C   UNL A   1      46.672  35.563  29.860  1.00  0.00     0.198 A 
ATOM     88  C   UNL A   1      45.632  36.073  27.756  1.00  0.00     0.198 A 
ATOM     89  F   UNL A   1      44.173  34.517  26.756  1.00  0.00    -0.203 F 
ATOM     90  F   UNL A   1      47.463  35.921  30.880  1.00  0.00    -0.200 F 
ATOM     91  C   UNL A   1      46.469  36.434  28.801  1.00  0.00     0.200 A 
ATOM     92  F   UNL A   1      45.438  36.914  26.731  1.00  0.00    -0.200 F 
ATOM     93  F   UNL A   1      47.075  37.630  28.791  1.00  0.00    -0.200 F 
ENDBRANCH  60  83
ENDBRANCH  34  35
ENDBRANCH  27  29
ENDBRANCH  26  27
ENDBRANCH  25  26
ENDBRANCH   1  25
TORSDOF 15
ENDMDL
