MODEL 1
REMARK VINA RESULT:     -13.2      0.000      0.000
REMARK SMILES O=C(OCCOC(=O)[C@@H]1C[NH2+]CCN1C(=O)N[C@@H]1CCOC1)c1ccc(-c2c3nc(c(-c4c(F)c(F)c(F)c(F)c4F)c4ccc([nH]4)c(-c4c(F)c(F)c(F)c(F)c4F)c4nc(c(-c5c(F)c(F)c(F)c(F)c5F)c5ccc2[nH]5)C=C4)C=C3)cc1
REMARK SMILES IDX 4 1 3 2 2 3 1 4 23 5 24 6 85 7 25 8 84 9 26 10 27 11 28 12
REMARK SMILES IDX 78 13 29 14 83 15 77 16 79 17 30 18 82 19 76 20 75 21 31 23
REMARK SMILES IDX 63 24 43 25 62 26 44 27 47 28 61 29 80 30 45 31 46 32 60 34
REMARK SMILES IDX 81 35 48 36 32 37 33 38 41 39 34 40 35 41 39 42 42 43 36 44
REMARK SMILES IDX 37 45 40 46 38 47 64 48 65 49 73 50 66 51 67 52 71 53 74 54
REMARK SMILES IDX 68 55 69 56 72 57 70 58 49 59 50 60 58 61 51 62 52 63 56 64
REMARK SMILES IDX 59 65 53 66 54 67 57 68 55 69 5 70 6 71 7 72 8 73 9 74 10 75
REMARK SMILES IDX 14 76 11 77 13 78 12 79 15 82 16 83 17 84 18 86 19 87 22 88
REMARK SMILES IDX 20 89 21 90
REMARK H PARENT 79 22 47 33 11 80 11 81 17 85
REMARK Flexibility Score: inf
ROOT
ATOM      1  C   UNL A   1      32.536  32.873  27.279  1.00  0.00     0.275 C 
ENDROOT
BRANCH   1   2
ATOM      2  O   UNL A   1      32.282  34.202  27.768  1.00  0.00    -0.458 OA
BRANCH   2   3
ATOM      3  C   UNL A   1      32.909  34.885  28.763  1.00  0.00     0.338 C 
ATOM      4  O   UNL A   1      32.530  36.007  29.085  1.00  0.00    -0.246 OA
BRANCH   3   5
ATOM      5  C   UNL A   1      34.178  34.380  29.338  1.00  0.00     0.060 A 
ATOM      6  C   UNL A   1      35.427  34.616  28.765  1.00  0.00     0.016 A 
ATOM      7  C   UNL A   1      34.095  33.668  30.551  1.00  0.00     0.016 A 
ATOM      8  C   UNL A   1      36.590  34.256  29.448  1.00  0.00     0.010 A 
ATOM      9  C   UNL A   1      35.257  33.308  31.243  1.00  0.00     0.010 A 
ATOM     10  C   UNL A   1      36.513  33.589  30.680  1.00  0.00    -0.014 A 
BRANCH  10  11
ATOM     11  C   UNL A   1      37.717  32.847  31.121  1.00  0.00     0.031 A 
ATOM     12  C   UNL A   1      38.238  33.229  32.475  1.00  0.00     0.074 A 
ATOM     13  C   UNL A   1      38.255  31.816  30.444  1.00  0.00     0.049 A 
ATOM     14  N   UNL A   1      39.117  32.625  33.225  1.00  0.00    -0.248 NA
ATOM     15  C   UNL A   1      37.663  34.448  33.076  1.00  0.00     0.031 C 
ATOM     16  C   UNL A   1      37.821  31.342  29.140  1.00  0.00     0.029 A 
ATOM     17  N   UNL A   1      39.279  30.964  30.771  1.00  0.00    -0.354 N 
ATOM     18  C   UNL A   1      39.158  33.363  34.398  1.00  0.00     0.074 A 
ATOM     19  C   UNL A   1      38.288  34.501  34.235  1.00  0.00     0.031 C 
ATOM     20  C   UNL A   1      38.555  30.280  28.771  1.00  0.00     0.029 A 
ATOM     21  C   UNL A   1      39.526  29.999  29.820  1.00  0.00     0.049 A 
ATOM     22  H   UNL A   1      39.791  31.035  31.608  1.00  0.00     0.167 HD
ATOM     23  C   UNL A   1      39.837  33.094  35.532  1.00  0.00     0.037 A 
ATOM     24  C   UNL A   1      40.426  28.997  29.811  1.00  0.00     0.037 A 
ATOM     25  C   UNL A   1      40.753  32.002  35.660  1.00  0.00     0.049 A 
ATOM     26  C   UNL A   1      41.285  28.807  31.035  1.00  0.00     0.074 A 
ATOM     27  C   UNL A   1      41.534  31.654  36.742  1.00  0.00     0.029 A 
ATOM     28  N   UNL A   1      41.036  31.099  34.642  1.00  0.00    -0.354 N 
ATOM     29  N   UNL A   1      41.258  29.459  32.175  1.00  0.00    -0.248 NA
ATOM     30  C   UNL A   1      42.282  27.731  30.984  1.00  0.00     0.031 C 
ATOM     31  C   UNL A   1      42.346  30.584  36.355  1.00  0.00     0.029 A 
ATOM     32  C   UNL A   1      42.013  30.214  35.060  1.00  0.00     0.049 A 
ATOM     33  H   UNL A   1      40.605  31.091  33.757  1.00  0.00     0.167 HD
ATOM     34  C   UNL A   1      42.196  28.842  32.990  1.00  0.00     0.074 A 
ATOM     35  C   UNL A   1      42.769  27.758  32.216  1.00  0.00     0.031 C 
ATOM     36  C   UNL A   1      42.549  29.136  34.267  1.00  0.00     0.037 A 
BRANCH  23  37
ATOM     37  C   UNL A   1      39.628  34.047  36.668  1.00  0.00     0.064 A 
ATOM     38  C   UNL A   1      40.332  35.262  36.746  1.00  0.00     0.173 A 
ATOM     39  C   UNL A   1      38.791  33.699  37.736  1.00  0.00     0.173 A 
ATOM     40  F   UNL A   1      41.178  35.616  35.767  1.00  0.00    -0.203 F 
ATOM     41  C   UNL A   1      40.238  36.069  37.875  1.00  0.00     0.198 A 
ATOM     42  C   UNL A   1      38.675  34.527  38.848  1.00  0.00     0.198 A 
ATOM     43  F   UNL A   1      38.115  32.542  37.716  1.00  0.00    -0.203 F 
ATOM     44  F   UNL A   1      40.984  37.178  37.966  1.00  0.00    -0.200 F 
ATOM     45  C   UNL A   1      39.408  35.702  38.923  1.00  0.00     0.200 A 
ATOM     46  F   UNL A   1      37.872  34.173  39.861  1.00  0.00    -0.200 F 
ATOM     47  F   UNL A   1      39.330  36.473  40.017  1.00  0.00    -0.200 F 
ENDBRANCH  23  37
BRANCH  24  48
ATOM     48  C   UNL A   1      40.554  28.083  28.641  1.00  0.00     0.064 A 
ATOM     49  C   UNL A   1      41.316  28.440  27.517  1.00  0.00     0.173 A 
ATOM     50  C   UNL A   1      39.865  26.861  28.591  1.00  0.00     0.173 A 
ATOM     51  F   UNL A   1      41.980  29.605  27.504  1.00  0.00    -0.203 F 
ATOM     52  C   UNL A   1      41.351  27.634  26.380  1.00  0.00     0.198 A 
ATOM     53  C   UNL A   1      39.923  26.042  27.463  1.00  0.00     0.198 A 
ATOM     54  F   UNL A   1      39.124  26.465  29.637  1.00  0.00    -0.203 F 
ATOM     55  F   UNL A   1      42.036  28.034  25.299  1.00  0.00    -0.200 F 
ATOM     56  C   UNL A   1      40.655  26.435  26.353  1.00  0.00     0.200 A 
ATOM     57  F   UNL A   1      39.253  24.882  27.445  1.00  0.00    -0.200 F 
ATOM     58  F   UNL A   1      40.677  25.669  25.254  1.00  0.00    -0.200 F 
ENDBRANCH  24  48
BRANCH  36  59
ATOM     59  C   UNL A   1      43.556  28.242  34.927  1.00  0.00     0.064 A 
ATOM     60  C   UNL A   1      43.182  27.070  35.599  1.00  0.00     0.173 A 
ATOM     61  C   UNL A   1      44.925  28.535  34.825  1.00  0.00     0.173 A 
ATOM     62  F   UNL A   1      41.885  26.753  35.733  1.00  0.00    -0.203 F 
ATOM     63  C   UNL A   1      44.141  26.238  36.169  1.00  0.00     0.198 A 
ATOM     64  C   UNL A   1      45.882  27.681  35.361  1.00  0.00     0.198 A 
ATOM     65  F   UNL A   1      45.335  29.641  34.184  1.00  0.00    -0.203 F 
ATOM     66  F   UNL A   1      43.759  25.151  36.853  1.00  0.00    -0.200 F 
ATOM     67  C   UNL A   1      45.488  26.538  36.040  1.00  0.00     0.200 A 
ATOM     68  F   UNL A   1      47.184  27.960  35.214  1.00  0.00    -0.200 F 
ATOM     69  F   UNL A   1      46.411  25.726  36.574  1.00  0.00    -0.200 F 
ENDBRANCH  36  59
ENDBRANCH  10  11
ENDBRANCH   3   5
ENDBRANCH   2   3
ENDBRANCH   1   2
BRANCH   1  70
ATOM     70  C   UNL A   1      31.424  32.073  26.545  1.00  0.00     0.274 C 
BRANCH  70  71
ATOM     71  O   UNL A   1      31.754  30.547  26.021  1.00  0.00    -0.460 OA
BRANCH  71  72
ATOM     72  C   UNL A   1      31.945  28.676  25.780  1.00  0.00     0.334 C 
ATOM     73  O   UNL A   1      32.976  27.996  26.010  1.00  0.00    -0.250 OA
BRANCH  72  74
ATOM     74  C   UNL A   1      30.740  27.767  25.302  1.00  0.00     0.252 C 
ATOM     75  C   UNL A   1      31.026  26.325  25.851  1.00  0.00     0.298 C 
ATOM     76  N   UNL A   1      30.747  27.802  23.824  1.00  0.00    -0.300 N 
ATOM     77  N   UNL A   1      30.145  25.290  25.271  1.00  0.00    -0.343 N 
ATOM     78  C   UNL A   1      30.021  26.692  23.185  1.00  0.00     0.183 C 
ATOM     79  C   UNL A   1      30.324  25.315  23.808  1.00  0.00     0.282 C 
ATOM     80  H   UNL A   1      29.172  25.489  25.504  1.00  0.00     0.346 HD
ATOM     81  H   UNL A   1      30.383  24.370  25.642  1.00  0.00     0.346 HD
BRANCH  76  82
ATOM     82  C   UNL A   1      31.261  28.803  23.035  1.00  0.00     0.318 C 
ATOM     83  O   UNL A   1      32.400  28.737  22.565  1.00  0.00    -0.249 OA
ATOM     84  N   UNL A   1      30.556  29.924  22.717  1.00  0.00    -0.333 N 
ATOM     85  H   UNL A   1      31.133  30.647  22.380  1.00  0.00     0.165 HD
BRANCH  84  86
ATOM     86  C   UNL A   1      29.131  30.312  22.758  1.00  0.00     0.112 C 
ATOM     87  C   UNL A   1      28.213  30.590  20.990  1.00  0.00     0.056 C 
ATOM     88  C   UNL A   1      28.979  31.992  23.812  1.00  0.00     0.185 C 
ATOM     89  C   UNL A   1      27.808  32.580  20.877  1.00  0.00     0.162 C 
ATOM     90  O   UNL A   1      28.428  33.346  22.550  1.00  0.00    -0.379 OA
ENDBRANCH  84  86
ENDBRANCH  76  82
ENDBRANCH  72  74
ENDBRANCH  71  72
ENDBRANCH  70  71
ENDBRANCH   1  70
TORSDOF 13
ENDMDL
MODEL 2
REMARK VINA RESULT:     -13.1      0.246      1.648
REMARK SMILES O=C(OCCOC(=O)[C@@H]1C[NH2+]CCN1C(=O)N[C@@H]1CCOC1)c1ccc(-c2c3nc(c(-c4c(F)c(F)c(F)c(F)c4F)c4ccc([nH]4)c(-c4c(F)c(F)c(F)c(F)c4F)c4nc(c(-c5c(F)c(F)c(F)c(F)c5F)c5ccc2[nH]5)C=C4)C=C3)cc1
REMARK SMILES IDX 4 1 3 2 2 3 1 4 23 5 24 6 85 7 25 8 84 9 26 10 27 11 28 12
REMARK SMILES IDX 78 13 29 14 83 15 77 16 79 17 30 18 82 19 76 20 75 21 31 23
REMARK SMILES IDX 63 24 43 25 62 26 44 27 47 28 61 29 80 30 45 31 46 32 60 34
REMARK SMILES IDX 81 35 48 36 32 37 33 38 41 39 34 40 35 41 39 42 42 43 36 44
REMARK SMILES IDX 37 45 40 46 38 47 64 48 65 49 73 50 66 51 67 52 71 53 74 54
REMARK SMILES IDX 68 55 69 56 72 57 70 58 49 59 50 60 58 61 51 62 52 63 56 64
REMARK SMILES IDX 59 65 53 66 54 67 57 68 55 69 5 70 6 71 7 72 8 73 9 74 10 75
REMARK SMILES IDX 14 76 11 77 13 78 12 79 15 82 16 83 17 84 18 86 19 87 22 88
REMARK SMILES IDX 20 89 21 90
REMARK H PARENT 79 22 47 33 11 80 11 81 17 85
REMARK Flexibility Score: inf
ROOT
ATOM      1  C   UNL A   1      32.495  32.855  27.238  1.00  0.00     0.275 C 
ENDROOT
BRANCH   1   2
ATOM      2  O   UNL A   1      32.201  34.151  27.789  1.00  0.00    -0.458 OA
BRANCH   2   3
ATOM      3  C   UNL A   1      32.882  34.857  28.732  1.00  0.00     0.338 C 
ATOM      4  O   UNL A   1      32.540  35.999  29.024  1.00  0.00    -0.246 OA
BRANCH   3   5
ATOM      5  C   UNL A   1      34.163  34.346  29.275  1.00  0.00     0.060 A 
ATOM      6  C   UNL A   1      35.403  34.613  28.696  1.00  0.00     0.016 A 
ATOM      7  C   UNL A   1      34.100  33.593  30.465  1.00  0.00     0.016 A 
ATOM      8  C   UNL A   1      36.576  34.241  29.353  1.00  0.00     0.010 A 
ATOM      9  C   UNL A   1      35.274  33.222  31.131  1.00  0.00     0.010 A 
ATOM     10  C   UNL A   1      36.520  33.534  30.564  1.00  0.00    -0.014 A 
BRANCH  10  11
ATOM     11  C   UNL A   1      37.736  32.789  30.967  1.00  0.00     0.031 A 
ATOM     12  C   UNL A   1      38.289  33.156  32.312  1.00  0.00     0.074 A 
ATOM     13  C   UNL A   1      38.260  31.768  30.263  1.00  0.00     0.049 A 
ATOM     14  N   UNL A   1      39.187  32.544  33.033  1.00  0.00    -0.248 NA
ATOM     15  C   UNL A   1      37.725  34.365  32.941  1.00  0.00     0.031 C 
ATOM     16  C   UNL A   1      37.795  31.309  28.965  1.00  0.00     0.029 A 
ATOM     17  N   UNL A   1      39.293  30.914  30.555  1.00  0.00    -0.354 N 
ATOM     18  C   UNL A   1      39.254  33.268  34.213  1.00  0.00     0.074 A 
ATOM     19  C   UNL A   1      38.378  34.405  34.086  1.00  0.00     0.031 C 
ATOM     20  C   UNL A   1      38.523  30.254  28.564  1.00  0.00     0.029 A 
ATOM     21  C   UNL A   1      39.519  29.963  29.587  1.00  0.00     0.049 A 
ATOM     22  H   UNL A   1      39.826  30.977  31.380  1.00  0.00     0.167 HD
ATOM     23  C   UNL A   1      39.961  32.986  35.328  1.00  0.00     0.037 A 
ATOM     24  C   UNL A   1      40.421  28.963  29.543  1.00  0.00     0.037 A 
ATOM     25  C   UNL A   1      40.883  31.895  35.420  1.00  0.00     0.049 A 
ATOM     26  C   UNL A   1      41.310  28.760  30.744  1.00  0.00     0.074 A 
ATOM     27  C   UNL A   1      41.691  31.536  36.478  1.00  0.00     0.029 A 
ATOM     28  N   UNL A   1      41.143  31.006  34.384  1.00  0.00    -0.354 N 
ATOM     29  N   UNL A   1      41.309  29.397  31.891  1.00  0.00    -0.248 NA
ATOM     30  C   UNL A   1      42.308  27.687  30.655  1.00  0.00     0.031 C 
ATOM     31  C   UNL A   1      42.495  30.472  36.059  1.00  0.00     0.029 A 
ATOM     32  C   UNL A   1      42.132  30.118  34.767  1.00  0.00     0.049 A 
ATOM     33  H   UNL A   1      40.691  31.008  33.510  1.00  0.00     0.167 HD
ATOM     34  C   UNL A   1      42.268  28.772  32.676  1.00  0.00     0.074 A 
ATOM     35  C   UNL A   1      42.824  27.700  31.876  1.00  0.00     0.031 C 
ATOM     36  C   UNL A   1      42.650  29.051  33.948  1.00  0.00     0.037 A 
BRANCH  23  37
ATOM     37  C   UNL A   1      39.778  33.925  36.480  1.00  0.00     0.064 A 
ATOM     38  C   UNL A   1      40.555  35.089  36.610  1.00  0.00     0.173 A 
ATOM     39  C   UNL A   1      38.887  33.608  37.513  1.00  0.00     0.173 A 
ATOM     40  F   UNL A   1      41.453  35.410  35.666  1.00  0.00    -0.203 F 
ATOM     41  C   UNL A   1      40.477  35.874  37.756  1.00  0.00     0.198 A 
ATOM     42  C   UNL A   1      38.788  34.416  38.641  1.00  0.00     0.198 A 
ATOM     43  F   UNL A   1      38.138  32.497  37.444  1.00  0.00    -0.203 F 
ATOM     44  F   UNL A   1      41.290  36.931  37.897  1.00  0.00    -0.200 F 
ATOM     45  C   UNL A   1      39.592  35.539  38.768  1.00  0.00     0.200 A 
ATOM     46  F   UNL A   1      37.932  34.091  39.620  1.00  0.00    -0.200 F 
ATOM     47  F   UNL A   1      39.529  36.287  39.878  1.00  0.00    -0.200 F 
ENDBRANCH  23  37
BRANCH  24  48
ATOM     48  C   UNL A   1      40.523  28.064  28.359  1.00  0.00     0.064 A 
ATOM     49  C   UNL A   1      39.904  26.804  28.346  1.00  0.00     0.173 A 
ATOM     50  C   UNL A   1      41.294  28.416  27.239  1.00  0.00     0.173 A 
ATOM     51  F   UNL A   1      39.171  26.409  29.396  1.00  0.00    -0.203 F 
ATOM     52  C   UNL A   1      40.085  25.919  27.282  1.00  0.00     0.198 A 
ATOM     53  C   UNL A   1      41.452  27.541  26.165  1.00  0.00     0.198 A 
ATOM     54  F   UNL A   1      41.905  29.609  27.194  1.00  0.00    -0.203 F 
ATOM     55  F   UNL A   1      39.534  24.698  27.329  1.00  0.00    -0.200 F 
ATOM     56  C   UNL A   1      40.858  26.288  26.192  1.00  0.00     0.200 A 
ATOM     57  F   UNL A   1      42.195  27.904  25.112  1.00  0.00    -0.200 F 
ATOM     58  F   UNL A   1      41.045  25.431  25.179  1.00  0.00    -0.200 F 
ENDBRANCH  24  48
BRANCH  36  59
ATOM     59  C   UNL A   1      43.675  28.152  34.572  1.00  0.00     0.064 A 
ATOM     60  C   UNL A   1      45.045  28.451  34.539  1.00  0.00     0.173 A 
ATOM     61  C   UNL A   1      43.268  27.005  35.272  1.00  0.00     0.173 A 
ATOM     62  F   UNL A   1      45.485  29.530  33.873  1.00  0.00    -0.203 F 
ATOM     63  C   UNL A   1      45.972  27.619  35.160  1.00  0.00     0.198 A 
ATOM     64  C   UNL A   1      44.193  26.199  35.926  1.00  0.00     0.198 A 
ATOM     65  F   UNL A   1      41.968  26.681  35.341  1.00  0.00    -0.203 F 
ATOM     66  F   UNL A   1      47.280  27.894  35.071  1.00  0.00    -0.200 F 
ATOM     67  C   UNL A   1      45.545  26.502  35.862  1.00  0.00     0.200 A 
ATOM     68  F   UNL A   1      43.776  25.134  36.623  1.00  0.00    -0.200 F 
ATOM     69  F   UNL A   1      46.437  25.713  36.474  1.00  0.00    -0.200 F 
ENDBRANCH  36  59
ENDBRANCH  10  11
ENDBRANCH   3   5
ENDBRANCH   2   3
ENDBRANCH   1   2
BRANCH   1  70
ATOM     70  C   UNL A   1      31.389  32.028  26.526  1.00  0.00     0.274 C 
BRANCH  70  71
ATOM     71  O   UNL A   1      31.728  30.489  26.045  1.00  0.00    -0.460 OA
BRANCH  71  72
ATOM     72  C   UNL A   1      31.911  28.613  25.848  1.00  0.00     0.334 C 
ATOM     73  O   UNL A   1      32.915  27.925  26.156  1.00  0.00    -0.250 OA
BRANCH  72  74
ATOM     74  C   UNL A   1      30.728  27.710  25.306  1.00  0.00     0.252 C 
ATOM     75  C   UNL A   1      31.016  26.251  25.807  1.00  0.00     0.298 C 
ATOM     76  N   UNL A   1      30.772  27.801  23.831  1.00  0.00    -0.300 N 
ATOM     77  N   UNL A   1      30.162  25.230  25.166  1.00  0.00    -0.343 N 
ATOM     78  C   UNL A   1      30.075  26.708  23.132  1.00  0.00     0.183 C 
ATOM     79  C   UNL A   1      30.377  25.312  23.711  1.00  0.00     0.282 C 
ATOM     80  H   UNL A   1      29.181  25.410  25.382  1.00  0.00     0.346 HD
ATOM     81  H   UNL A   1      30.400  24.299  25.509  1.00  0.00     0.346 HD
BRANCH  76  82
ATOM     82  C   UNL A   1      31.295  28.836  23.093  1.00  0.00     0.318 C 
ATOM     83  O   UNL A   1      32.429  28.780  22.611  1.00  0.00    -0.249 OA
ATOM     84  N   UNL A   1      30.604  29.982  22.842  1.00  0.00    -0.333 N 
ATOM     85  H   UNL A   1      31.188  30.714  22.539  1.00  0.00     0.165 HD
BRANCH  84  86
ATOM     86  C   UNL A   1      29.185  30.387  22.915  1.00  0.00     0.112 C 
ATOM     87  C   UNL A   1      28.162  30.436  21.183  1.00  0.00     0.056 C 
ATOM     88  C   UNL A   1      29.100  32.193  23.742  1.00  0.00     0.185 C 
ATOM     89  C   UNL A   1      27.756  32.398  20.829  1.00  0.00     0.162 C 
ATOM     90  O   UNL A   1      28.478  33.373  22.345  1.00  0.00    -0.379 OA
ENDBRANCH  84  86
ENDBRANCH  76  82
ENDBRANCH  72  74
ENDBRANCH  71  72
ENDBRANCH  70  71
ENDBRANCH   1  70
TORSDOF 13
ENDMDL
MODEL 3
REMARK VINA RESULT:     -13.0      1.395      2.191
REMARK SMILES O=C(OCCOC(=O)[C@@H]1C[NH2+]CCN1C(=O)N[C@@H]1CCOC1)c1ccc(-c2c3nc(c(-c4c(F)c(F)c(F)c(F)c4F)c4ccc([nH]4)c(-c4c(F)c(F)c(F)c(F)c4F)c4nc(c(-c5c(F)c(F)c(F)c(F)c5F)c5ccc2[nH]5)C=C4)C=C3)cc1
REMARK SMILES IDX 4 1 3 2 2 3 1 4 23 5 24 6 85 7 25 8 84 9 26 10 27 11 28 12
REMARK SMILES IDX 78 13 29 14 83 15 77 16 79 17 30 18 82 19 76 20 75 21 31 23
REMARK SMILES IDX 63 24 43 25 62 26 44 27 47 28 61 29 80 30 45 31 46 32 60 34
REMARK SMILES IDX 81 35 48 36 32 37 33 38 41 39 34 40 35 41 39 42 42 43 36 44
REMARK SMILES IDX 37 45 40 46 38 47 64 48 65 49 73 50 66 51 67 52 71 53 74 54
REMARK SMILES IDX 68 55 69 56 72 57 70 58 49 59 50 60 58 61 51 62 52 63 56 64
REMARK SMILES IDX 59 65 53 66 54 67 57 68 55 69 5 70 6 71 7 72 8 73 9 74 10 75
REMARK SMILES IDX 14 76 11 77 13 78 12 79 15 82 16 83 17 84 18 86 19 87 22 88
REMARK SMILES IDX 20 89 21 90
REMARK H PARENT 79 22 47 33 11 80 11 81 17 85
REMARK Flexibility Score: inf
ROOT
ATOM      1  C   UNL A   1      32.152  33.077  26.799  1.00  0.00     0.275 C 
ENDROOT
BRANCH   1   2
ATOM      2  O   UNL A   1      32.543  33.451  28.132  1.00  0.00    -0.458 OA
BRANCH   2   3
ATOM      3  C   UNL A   1      33.680  34.068  28.552  1.00  0.00     0.338 C 
ATOM      4  O   UNL A   1      33.791  35.288  28.481  1.00  0.00    -0.246 OA
BRANCH   3   5
ATOM      5  C   UNL A   1      34.879  33.272  28.909  1.00  0.00     0.060 A 
ATOM      6  C   UNL A   1      34.816  32.017  29.513  1.00  0.00     0.016 A 
ATOM      7  C   UNL A   1      36.134  33.815  28.567  1.00  0.00     0.016 A 
ATOM      8  C   UNL A   1      35.974  31.256  29.667  1.00  0.00     0.010 A 
ATOM      9  C   UNL A   1      37.299  33.053  28.715  1.00  0.00     0.010 A 
ATOM     10  C   UNL A   1      37.221  31.772  29.283  1.00  0.00    -0.014 A 
BRANCH  10  11
ATOM     11  C   UNL A   1      38.424  31.136  29.871  1.00  0.00     0.031 A 
ATOM     12  C   UNL A   1      38.695  31.493  31.302  1.00  0.00     0.074 A 
ATOM     13  C   UNL A   1      39.166  30.207  29.242  1.00  0.00     0.049 A 
ATOM     14  N   UNL A   1      39.517  30.942  32.152  1.00  0.00    -0.248 NA
ATOM     15  C   UNL A   1      37.905  32.608  31.858  1.00  0.00     0.031 C 
ATOM     16  C   UNL A   1      38.983  29.765  27.869  1.00  0.00     0.029 A 
ATOM     17  N   UNL A   1      40.221  29.449  29.685  1.00  0.00    -0.354 N 
ATOM     18  C   UNL A   1      39.303  31.612  33.346  1.00  0.00     0.074 A 
ATOM     19  C   UNL A   1      38.344  32.660  33.100  1.00  0.00     0.031 C 
ATOM     20  C   UNL A   1      39.878  28.809  27.572  1.00  0.00     0.029 A 
ATOM     21  C   UNL A   1      40.710  28.571  28.744  1.00  0.00     0.049 A 
ATOM     22  H   UNL A   1      40.594  29.526  30.592  1.00  0.00     0.167 HD
ATOM     23  C   UNL A   1      39.835  31.351  34.558  1.00  0.00     0.037 A 
ATOM     24  C   UNL A   1      41.708  27.671  28.831  1.00  0.00     0.037 A 
ATOM     25  C   UNL A   1      40.839  30.356  34.779  1.00  0.00     0.049 A 
ATOM     26  C   UNL A   1      42.395  27.503  30.162  1.00  0.00     0.074 A 
ATOM     27  C   UNL A   1      41.488  30.031  35.952  1.00  0.00     0.029 A 
ATOM     28  N   UNL A   1      41.367  29.547  33.780  1.00  0.00    -0.354 N 
ATOM     29  N   UNL A   1      42.130  28.082  31.310  1.00  0.00    -0.248 NA
ATOM     30  C   UNL A   1      43.503  26.541  30.219  1.00  0.00     0.031 C 
ATOM     31  C   UNL A   1      42.462  29.075  35.649  1.00  0.00     0.029 A 
ATOM     32  C   UNL A   1      42.365  28.747  34.305  1.00  0.00     0.049 A 
ATOM     33  H   UNL A   1      41.074  29.544  32.841  1.00  0.00     0.167 HD
ATOM     34  C   UNL A   1      43.002  27.521  32.232  1.00  0.00     0.074 A 
ATOM     35  C   UNL A   1      43.799  26.549  31.511  1.00  0.00     0.031 C 
ATOM     36  C   UNL A   1      43.128  27.777  33.559  1.00  0.00     0.037 A 
BRANCH  23  37
ATOM     37  C   UNL A   1      39.357  32.212  35.687  1.00  0.00     0.064 A 
ATOM     38  C   UNL A   1      39.921  33.475  35.937  1.00  0.00     0.173 A 
ATOM     39  C   UNL A   1      38.397  31.728  36.585  1.00  0.00     0.173 A 
ATOM     40  F   UNL A   1      40.875  33.961  35.129  1.00  0.00    -0.203 F 
ATOM     41  C   UNL A   1      39.571  34.200  37.072  1.00  0.00     0.198 A 
ATOM     42  C   UNL A   1      38.025  32.473  37.699  1.00  0.00     0.198 A 
ATOM     43  F   UNL A   1      37.845  30.520  36.400  1.00  0.00    -0.203 F 
ATOM     44  F   UNL A   1      40.184  35.362  37.337  1.00  0.00    -0.200 F 
ATOM     45  C   UNL A   1      38.622  33.700  37.950  1.00  0.00     0.200 A 
ATOM     46  F   UNL A   1      37.108  31.989  38.549  1.00  0.00    -0.200 F 
ATOM     47  F   UNL A   1      38.297  34.392  39.051  1.00  0.00    -0.200 F 
ENDBRANCH  23  37
BRANCH  24  48
ATOM     48  C   UNL A   1      42.107  26.843  27.657  1.00  0.00     0.064 A 
ATOM     49  C   UNL A   1      41.531  25.585  27.424  1.00  0.00     0.173 A 
ATOM     50  C   UNL A   1      43.119  27.263  26.779  1.00  0.00     0.173 A 
ATOM     51  F   UNL A   1      40.573  25.127  28.242  1.00  0.00    -0.203 F 
ATOM     52  C   UNL A   1      41.977  24.765  26.387  1.00  0.00     0.198 A 
ATOM     53  C   UNL A   1      43.546  26.453  25.727  1.00  0.00     0.198 A 
ATOM     54  F   UNL A   1      43.703  28.458  26.950  1.00  0.00    -0.203 F 
ATOM     55  F   UNL A   1      41.452  23.542  26.231  1.00  0.00    -0.200 F 
ATOM     56  C   UNL A   1      42.984  25.199  25.539  1.00  0.00     0.200 A 
ATOM     57  F   UNL A   1      44.515  26.880  24.906  1.00  0.00    -0.200 F 
ATOM     58  F   UNL A   1      43.424  24.403  24.554  1.00  0.00    -0.200 F 
ENDBRANCH  24  48
BRANCH  36  59
ATOM     59  C   UNL A   1      44.122  26.958  34.327  1.00  0.00     0.064 A 
ATOM     60  C   UNL A   1      43.786  25.720  34.891  1.00  0.00     0.173 A 
ATOM     61  C   UNL A   1      45.451  27.395  34.441  1.00  0.00     0.173 A 
ATOM     62  F   UNL A   1      42.526  25.264  34.818  1.00  0.00    -0.203 F 
ATOM     63  C   UNL A   1      44.739  24.961  35.565  1.00  0.00     0.198 A 
ATOM     64  C   UNL A   1      46.409  26.616  35.080  1.00  0.00     0.198 A 
ATOM     65  F   UNL A   1      45.826  28.570  33.910  1.00  0.00    -0.203 F 
ATOM     66  F   UNL A   1      44.383  23.805  36.143  1.00  0.00    -0.200 F 
ATOM     67  C   UNL A   1      46.050  25.404  35.649  1.00  0.00     0.200 A 
ATOM     68  F   UNL A   1      47.681  27.035  35.139  1.00  0.00    -0.200 F 
ATOM     69  F   UNL A   1      46.969  24.664  36.283  1.00  0.00    -0.200 F 
ENDBRANCH  36  59
ENDBRANCH  10  11
ENDBRANCH   3   5
ENDBRANCH   2   3
ENDBRANCH   1   2
BRANCH   1  70
ATOM     70  C   UNL A   1      31.122  31.937  26.566  1.00  0.00     0.274 C 
BRANCH  70  71
ATOM     71  O   UNL A   1      31.671  30.419  26.240  1.00  0.00    -0.460 OA
BRANCH  71  72
ATOM     72  C   UNL A   1      31.904  28.559  25.957  1.00  0.00     0.334 C 
ATOM     73  O   UNL A   1      32.917  27.880  26.257  1.00  0.00    -0.250 OA
BRANCH  72  74
ATOM     74  C   UNL A   1      30.758  27.657  25.341  1.00  0.00     0.252 C 
ATOM     75  C   UNL A   1      31.068  26.182  25.779  1.00  0.00     0.298 C 
ATOM     76  N   UNL A   1      30.837  27.821  23.873  1.00  0.00    -0.300 N 
ATOM     77  N   UNL A   1      30.255  25.174  25.067  1.00  0.00    -0.343 N 
ATOM     78  C   UNL A   1      30.184  26.748  23.104  1.00  0.00     0.183 C 
ATOM     79  C   UNL A   1      30.505  25.332  23.623  1.00  0.00     0.282 C 
ATOM     80  H   UNL A   1      29.266  25.321  25.265  1.00  0.00     0.346 HD
ATOM     81  H   UNL A   1      30.508  24.234  25.370  1.00  0.00     0.346 HD
BRANCH  76  82
ATOM     82  C   UNL A   1      31.353  28.903  23.200  1.00  0.00     0.318 C 
ATOM     83  O   UNL A   1      32.513  28.912  22.782  1.00  0.00    -0.249 OA
ATOM     84  N   UNL A   1      30.627  30.026  22.948  1.00  0.00    -0.333 N 
ATOM     85  H   UNL A   1      31.194  30.793  22.703  1.00  0.00     0.165 HD
BRANCH  84  86
ATOM     86  C   UNL A   1      29.189  30.367  22.954  1.00  0.00     0.112 C 
ATOM     87  C   UNL A   1      28.238  30.331  21.181  1.00  0.00     0.056 C 
ATOM     88  C   UNL A   1      28.989  32.186  23.733  1.00  0.00     0.185 C 
ATOM     89  C   UNL A   1      27.759  32.263  20.763  1.00  0.00     0.162 C 
ATOM     90  O   UNL A   1      28.373  33.304  22.283  1.00  0.00    -0.379 OA
ENDBRANCH  84  86
ENDBRANCH  76  82
ENDBRANCH  72  74
ENDBRANCH  71  72
ENDBRANCH  70  71
ENDBRANCH   1  70
TORSDOF 13
ENDMDL
