MODEL 1
REMARK VINA RESULT:     -11.6      0.000      0.000
REMARK SMILES CC[C@](C)(C(=O)OCCOC(=O)c1ccc(-c2c3nc(c(-c4c(F)c(F)c(F)c(F)c4F)c4ccc([nH]4)c(-c4c(F)c(F)c(F)c(F)c4F)c4nc(c(-c5c(F)c(F)c(F)c(F)c5F)c5ccc2[nH]5)C=C4)C=C3)cc1)n1nnnc1-c1ccco1
REMARK SMILES IDX 8 1 7 2 5 3 6 4 3 5 4 6 2 7 1 8 76 9 77 10 80 11 78 12 79 13
REMARK SMILES IDX 81 14 82 15 85 16 83 17 84 18 9 19 10 20 11 21 12 22 13 23
REMARK SMILES IDX 14 24 75 25 15 26 74 27 16 28 17 29 18 30 68 31 19 32 73 33
REMARK SMILES IDX 67 34 69 35 20 36 72 37 66 38 65 39 21 41 53 42 33 43 52 44
REMARK SMILES IDX 34 45 37 46 51 47 70 48 35 49 36 50 50 52 71 53 38 54 22 55
REMARK SMILES IDX 23 56 31 57 24 58 25 59 29 60 32 61 26 62 27 63 30 64 28 65
REMARK SMILES IDX 54 66 55 67 63 68 56 69 57 70 61 71 64 72 58 73 59 74 62 75
REMARK SMILES IDX 60 76 39 77 40 78 48 79 41 80 42 81 46 82 49 83 43 84 44 85
REMARK SMILES IDX 47 86 45 87
REMARK H PARENT 69 40 37 51
REMARK Flexibility Score: inf
ROOT
ATOM      1  C   UNL A   1      31.437  29.355  24.561  1.00  0.00     0.274 C 
ENDROOT
BRANCH   1   2
ATOM      2  O   UNL A   1      30.972  28.088  25.073  1.00  0.00    -0.460 OA
BRANCH   2   3
ATOM      3  C   UNL A   1      31.846  27.042  25.052  1.00  0.00     0.334 C 
ATOM      4  O   UNL A   1      33.044  27.137  25.302  1.00  0.00    -0.249 OA
BRANCH   3   5
ATOM      5  C   UNL A   1      31.200  25.751  24.529  1.00  0.00     0.161 C 
ATOM      6  C   UNL A   1      29.711  25.941  24.154  1.00  0.00     0.050 C 
BRANCH   5   7
ATOM      7  C   UNL A   1      32.011  25.357  23.263  1.00  0.00     0.039 C 
ATOM      8  C   UNL A   1      31.835  26.264  22.045  1.00  0.00     0.007 C 
ENDBRANCH   5   7
BRANCH   5   9
ATOM      9  N   UNL A   1      31.266  24.764  25.620  1.00  0.00    -0.205 N 
ATOM     10  N   UNL A   1      30.180  24.626  26.421  1.00  0.00    -0.043 NA
ATOM     11  C   UNL A   1      32.228  23.883  26.056  1.00  0.00     0.218 A 
ATOM     12  N   UNL A   1      30.498  23.712  27.321  1.00  0.00    -0.023 NA
ATOM     13  N   UNL A   1      31.767  23.255  27.119  1.00  0.00    -0.105 NA
BRANCH  11  14
ATOM     14  C   UNL A   1      33.482  23.569  25.469  1.00  0.00     0.172 A 
ATOM     15  C   UNL A   1      34.714  24.177  25.650  1.00  0.00     0.054 A 
ATOM     16  O   UNL A   1      33.636  22.511  24.612  1.00  0.00    -0.461 OA
ATOM     17  C   UNL A   1      35.650  23.460  24.862  1.00  0.00     0.043 A 
ATOM     18  C   UNL A   1      34.946  22.443  24.268  1.00  0.00     0.196 A 
ENDBRANCH  11  14
ENDBRANCH   5   9
ENDBRANCH   3   5
ENDBRANCH   2   3
ENDBRANCH   1   2
BRANCH   1  19
ATOM     19  C   UNL A   1      31.558  30.372  25.689  1.00  0.00     0.275 C 
BRANCH  19  20
ATOM     20  O   UNL A   1      32.901  30.329  26.196  1.00  0.00    -0.458 OA
BRANCH  20  21
ATOM     21  C   UNL A   1      33.259  31.344  27.014  1.00  0.00     0.338 C 
ATOM     22  O   UNL A   1      32.621  32.347  27.277  1.00  0.00    -0.246 OA
BRANCH  21  23
ATOM     23  C   UNL A   1      34.593  31.056  27.567  1.00  0.00     0.060 A 
ATOM     24  C   UNL A   1      34.960  29.741  27.846  1.00  0.00     0.016 A 
ATOM     25  C   UNL A   1      35.438  32.109  27.916  1.00  0.00     0.016 A 
ATOM     26  C   UNL A   1      36.121  29.480  28.567  1.00  0.00     0.010 A 
ATOM     27  C   UNL A   1      36.654  31.834  28.549  1.00  0.00     0.010 A 
ATOM     28  C   UNL A   1      36.991  30.519  28.918  1.00  0.00    -0.014 A 
BRANCH  28  29
ATOM     29  C   UNL A   1      38.207  30.246  29.731  1.00  0.00     0.031 A 
ATOM     30  C   UNL A   1      39.322  29.420  29.151  1.00  0.00     0.074 A 
ATOM     31  C   UNL A   1      38.334  30.745  30.976  1.00  0.00     0.049 A 
ATOM     32  N   UNL A   1      40.336  28.851  29.755  1.00  0.00    -0.248 NA
ATOM     33  C   UNL A   1      39.280  29.183  27.699  1.00  0.00     0.031 C 
ATOM     34  C   UNL A   1      37.371  31.622  31.643  1.00  0.00     0.029 A 
ATOM     35  N   UNL A   1      39.337  30.592  31.901  1.00  0.00    -0.354 N 
ATOM     36  C   UNL A   1      41.003  28.129  28.774  1.00  0.00     0.074 A 
ATOM     37  C   UNL A   1      40.291  28.342  27.532  1.00  0.00     0.031 C 
ATOM     38  C   UNL A   1      37.849  31.966  32.847  1.00  0.00     0.029 A 
ATOM     39  C   UNL A   1      39.102  31.256  33.079  1.00  0.00     0.049 A 
ATOM     40  H   UNL A   1      40.146  30.057  31.735  1.00  0.00     0.167 HD
ATOM     41  C   UNL A   1      42.104  27.352  28.907  1.00  0.00     0.037 A 
ATOM     42  C   UNL A   1      39.792  31.259  34.235  1.00  0.00     0.037 A 
ATOM     43  C   UNL A   1      42.854  27.214  30.129  1.00  0.00     0.049 A 
ATOM     44  C   UNL A   1      41.018  30.400  34.359  1.00  0.00     0.074 A 
ATOM     45  C   UNL A   1      43.978  26.444  30.374  1.00  0.00     0.029 A 
ATOM     46  N   UNL A   1      42.573  27.895  31.304  1.00  0.00    -0.354 N 
ATOM     47  N   UNL A   1      41.571  29.618  33.464  1.00  0.00    -0.248 NA
ATOM     48  C   UNL A   1      41.698  30.399  35.661  1.00  0.00     0.031 C 
ATOM     49  C   UNL A   1      44.367  26.646  31.704  1.00  0.00     0.029 A 
ATOM     50  C   UNL A   1      43.504  27.567  32.276  1.00  0.00     0.049 A 
ATOM     51  H   UNL A   1      41.822  28.521  31.429  1.00  0.00     0.167 HD
ATOM     52  C   UNL A   1      42.657  29.027  34.094  1.00  0.00     0.074 A 
ATOM     53  C   UNL A   1      42.703  29.565  35.439  1.00  0.00     0.031 C 
ATOM     54  C   UNL A   1      43.527  28.110  33.608  1.00  0.00     0.037 A 
BRANCH  41  55
ATOM     55  C   UNL A   1      42.541  26.556  27.714  1.00  0.00     0.064 A 
ATOM     56  C   UNL A   1      43.485  27.039  26.799  1.00  0.00     0.173 A 
ATOM     57  C   UNL A   1      42.023  25.267  27.507  1.00  0.00     0.173 A 
ATOM     58  F   UNL A   1      43.998  28.269  26.944  1.00  0.00    -0.203 F 
ATOM     59  C   UNL A   1      43.879  26.270  25.706  1.00  0.00     0.198 A 
ATOM     60  C   UNL A   1      42.439  24.491  26.429  1.00  0.00     0.198 A 
ATOM     61  F   UNL A   1      41.121  24.755  28.357  1.00  0.00    -0.203 F 
ATOM     62  F   UNL A   1      44.755  26.766  24.820  1.00  0.00    -0.200 F 
ATOM     63  C   UNL A   1      43.363  24.995  25.526  1.00  0.00     0.200 A 
ATOM     64  F   UNL A   1      41.947  23.255  26.264  1.00  0.00    -0.200 F 
ATOM     65  F   UNL A   1      43.750  24.254  24.478  1.00  0.00    -0.200 F 
ENDBRANCH  41  55
BRANCH  42  66
ATOM     66  C   UNL A   1      39.301  32.068  35.380  1.00  0.00     0.064 A 
ATOM     67  C   UNL A   1      38.496  31.496  36.373  1.00  0.00     0.173 A 
ATOM     68  C   UNL A   1      39.652  33.420  35.519  1.00  0.00     0.173 A 
ATOM     69  F   UNL A   1      38.110  30.216  36.268  1.00  0.00    -0.203 F 
ATOM     70  C   UNL A   1      38.059  32.247  37.462  1.00  0.00     0.198 A 
ATOM     71  C   UNL A   1      39.239  34.160  36.623  1.00  0.00     0.198 A 
ATOM     72  F   UNL A   1      40.419  34.014  34.593  1.00  0.00    -0.203 F 
ATOM     73  F   UNL A   1      37.263  31.686  38.384  1.00  0.00    -0.200 F 
ATOM     74  C   UNL A   1      38.440  33.574  37.593  1.00  0.00     0.200 A 
ATOM     75  F   UNL A   1      39.622  35.438  36.752  1.00  0.00    -0.200 F 
ATOM     76  F   UNL A   1      38.033  34.291  38.650  1.00  0.00    -0.200 F 
ENDBRANCH  42  66
BRANCH  54  77
ATOM     77  C   UNL A   1      44.604  27.640  34.537  1.00  0.00     0.064 A 
ATOM     78  C   UNL A   1      44.428  26.504  35.339  1.00  0.00     0.173 A 
ATOM     79  C   UNL A   1      45.832  28.313  34.603  1.00  0.00     0.173 A 
ATOM     80  F   UNL A   1      43.264  25.838  35.320  1.00  0.00    -0.203 F 
ATOM     81  C   UNL A   1      45.438  26.070  36.193  1.00  0.00     0.198 A 
ATOM     82  C   UNL A   1      46.847  27.864  35.443  1.00  0.00     0.198 A 
ATOM     83  F   UNL A   1      46.047  29.403  33.852  1.00  0.00    -0.203 F 
ATOM     84  F   UNL A   1      45.235  25.004  36.980  1.00  0.00    -0.200 F 
ATOM     85  C   UNL A   1      46.647  26.747  36.240  1.00  0.00     0.200 A 
ATOM     86  F   UNL A   1      48.018  28.516  35.484  1.00  0.00    -0.200 F 
ATOM     87  F   UNL A   1      47.619  26.328  37.063  1.00  0.00    -0.200 F 
ENDBRANCH  54  77
ENDBRANCH  28  29
ENDBRANCH  21  23
ENDBRANCH  20  21
ENDBRANCH  19  20
ENDBRANCH   1  19
TORSDOF 14
ENDMDL
MODEL 2
REMARK VINA RESULT:     -11.6      0.659      1.778
REMARK SMILES CC[C@](C)(C(=O)OCCOC(=O)c1ccc(-c2c3nc(c(-c4c(F)c(F)c(F)c(F)c4F)c4ccc([nH]4)c(-c4c(F)c(F)c(F)c(F)c4F)c4nc(c(-c5c(F)c(F)c(F)c(F)c5F)c5ccc2[nH]5)C=C4)C=C3)cc1)n1nnnc1-c1ccco1
REMARK SMILES IDX 8 1 7 2 5 3 6 4 3 5 4 6 2 7 1 8 76 9 77 10 80 11 78 12 79 13
REMARK SMILES IDX 81 14 82 15 85 16 83 17 84 18 9 19 10 20 11 21 12 22 13 23
REMARK SMILES IDX 14 24 75 25 15 26 74 27 16 28 17 29 18 30 68 31 19 32 73 33
REMARK SMILES IDX 67 34 69 35 20 36 72 37 66 38 65 39 21 41 53 42 33 43 52 44
REMARK SMILES IDX 34 45 37 46 51 47 70 48 35 49 36 50 50 52 71 53 38 54 22 55
REMARK SMILES IDX 23 56 31 57 24 58 25 59 29 60 32 61 26 62 27 63 30 64 28 65
REMARK SMILES IDX 54 66 55 67 63 68 56 69 57 70 61 71 64 72 58 73 59 74 62 75
REMARK SMILES IDX 60 76 39 77 40 78 48 79 41 80 42 81 46 82 49 83 43 84 44 85
REMARK SMILES IDX 47 86 45 87
REMARK H PARENT 69 40 37 51
REMARK Flexibility Score: inf
ROOT
ATOM      1  C   UNL A   1      31.750  28.655  27.460  1.00  0.00     0.274 C 
ENDROOT
BRANCH   1   2
ATOM      2  O   UNL A   1      31.194  27.396  27.027  1.00  0.00    -0.460 OA
BRANCH   2   3
ATOM      3  C   UNL A   1      32.015  26.543  26.351  1.00  0.00     0.334 C 
ATOM      4  O   UNL A   1      33.241  26.622  26.347  1.00  0.00    -0.249 OA
BRANCH   3   5
ATOM      5  C   UNL A   1      31.237  25.562  25.464  1.00  0.00     0.161 C 
ATOM      6  C   UNL A   1      29.925  26.170  24.915  1.00  0.00     0.050 C 
BRANCH   5   7
ATOM      7  C   UNL A   1      32.187  25.217  24.283  1.00  0.00     0.039 C 
ATOM      8  C   UNL A   1      31.517  24.676  23.020  1.00  0.00     0.007 C 
ENDBRANCH   5   7
BRANCH   5   9
ATOM      9  N   UNL A   1      30.879  24.409  26.308  1.00  0.00    -0.205 N 
ATOM     10  N   UNL A   1      29.617  24.349  26.801  1.00  0.00    -0.043 NA
ATOM     11  C   UNL A   1      31.560  23.299  26.748  1.00  0.00     0.218 A 
ATOM     12  N   UNL A   1      29.560  23.250  27.534  1.00  0.00    -0.023 NA
ATOM     13  N   UNL A   1      30.758  22.599  27.525  1.00  0.00    -0.105 NA
BRANCH  11  14
ATOM     14  C   UNL A   1      32.864  22.855  26.400  1.00  0.00     0.172 A 
ATOM     15  C   UNL A   1      34.087  23.202  26.950  1.00  0.00     0.054 A 
ATOM     16  O   UNL A   1      33.072  21.919  25.421  1.00  0.00    -0.461 OA
ATOM     17  C   UNL A   1      35.077  22.451  26.268  1.00  0.00     0.043 A 
ATOM     18  C   UNL A   1      34.403  21.670  25.361  1.00  0.00     0.196 A 
ENDBRANCH  11  14
ENDBRANCH   5   9
ENDBRANCH   3   5
ENDBRANCH   2   3
ENDBRANCH   1   2
BRANCH   1  19
ATOM     19  C   UNL A   1      31.746  29.660  26.315  1.00  0.00     0.275 C 
BRANCH  19  20
ATOM     20  O   UNL A   1      33.073  30.191  26.172  1.00  0.00    -0.458 OA
BRANCH  20  21
ATOM     21  C   UNL A   1      33.403  31.196  27.015  1.00  0.00     0.338 C 
ATOM     22  O   UNL A   1      32.743  32.179  27.294  1.00  0.00    -0.246 OA
BRANCH  21  23
ATOM     23  C   UNL A   1      34.738  30.924  27.573  1.00  0.00     0.060 A 
ATOM     24  C   UNL A   1      35.111  29.616  27.873  1.00  0.00     0.016 A 
ATOM     25  C   UNL A   1      35.578  31.987  27.904  1.00  0.00     0.016 A 
ATOM     26  C   UNL A   1      36.274  29.372  28.599  1.00  0.00     0.010 A 
ATOM     27  C   UNL A   1      36.795  31.728  28.541  1.00  0.00     0.010 A 
ATOM     28  C   UNL A   1      37.138  30.421  28.933  1.00  0.00    -0.014 A 
BRANCH  28  29
ATOM     29  C   UNL A   1      38.356  30.167  29.750  1.00  0.00     0.031 A 
ATOM     30  C   UNL A   1      39.475  29.338  29.184  1.00  0.00     0.074 A 
ATOM     31  C   UNL A   1      38.480  30.687  30.987  1.00  0.00     0.049 A 
ATOM     32  N   UNL A   1      40.492  28.784  29.797  1.00  0.00    -0.248 NA
ATOM     33  C   UNL A   1      39.436  29.078  27.736  1.00  0.00     0.031 C 
ATOM     34  C   UNL A   1      37.512  31.569  31.639  1.00  0.00     0.029 A 
ATOM     35  N   UNL A   1      39.484  30.554  31.914  1.00  0.00    -0.354 N 
ATOM     36  C   UNL A   1      41.163  28.051  28.827  1.00  0.00     0.074 A 
ATOM     37  C   UNL A   1      40.451  28.240  27.582  1.00  0.00     0.031 C 
ATOM     38  C   UNL A   1      37.987  31.935  32.838  1.00  0.00     0.029 A 
ATOM     39  C   UNL A   1      39.245  31.236  33.082  1.00  0.00     0.049 A 
ATOM     40  H   UNL A   1      40.296  30.021  31.757  1.00  0.00     0.167 HD
ATOM     41  C   UNL A   1      42.270  27.282  28.973  1.00  0.00     0.037 A 
ATOM     42  C   UNL A   1      39.934  31.261  34.238  1.00  0.00     0.037 A 
ATOM     43  C   UNL A   1      43.020  27.168  30.198  1.00  0.00     0.049 A 
ATOM     44  C   UNL A   1      41.165  30.410  34.375  1.00  0.00     0.074 A 
ATOM     45  C   UNL A   1      44.147  26.408  30.454  1.00  0.00     0.029 A 
ATOM     46  N   UNL A   1      42.734  27.866  31.361  1.00  0.00    -0.354 N 
ATOM     47  N   UNL A   1      41.723  29.617  33.494  1.00  0.00    -0.248 NA
ATOM     48  C   UNL A   1      41.844  30.434  35.678  1.00  0.00     0.031 C 
ATOM     49  C   UNL A   1      44.535  26.633  31.781  1.00  0.00     0.029 A 
ATOM     50  C   UNL A   1      43.667  27.558  32.339  1.00  0.00     0.049 A 
ATOM     51  H   UNL A   1      41.980  28.489  31.476  1.00  0.00     0.167 HD
ATOM     52  C   UNL A   1      42.811  29.042  34.133  1.00  0.00     0.074 A 
ATOM     53  C   UNL A   1      42.854  29.602  35.469  1.00  0.00     0.031 C 
ATOM     54  C   UNL A   1      43.687  28.122  33.662  1.00  0.00     0.037 A 
BRANCH  41  55
ATOM     55  C   UNL A   1      42.711  26.470  27.793  1.00  0.00     0.064 A 
ATOM     56  C   UNL A   1      42.201  25.191  27.534  1.00  0.00     0.173 A 
ATOM     57  C   UNL A   1      43.641  27.004  26.886  1.00  0.00     0.173 A 
ATOM     58  F   UNL A   1      41.323  24.630  28.377  1.00  0.00    -0.203 F 
ATOM     59  C   UNL A   1      42.622  24.466  26.420  1.00  0.00     0.198 A 
ATOM     60  C   UNL A   1      44.039  26.287  25.761  1.00  0.00     0.198 A 
ATOM     61  F   UNL A   1      44.155  28.226  27.085  1.00  0.00    -0.203 F 
ATOM     62  F   UNL A   1      42.152  23.228  26.211  1.00  0.00    -0.200 F 
ATOM     63  C   UNL A   1      43.535  25.017  25.532  1.00  0.00     0.200 A 
ATOM     64  F   UNL A   1      44.912  26.827  24.898  1.00  0.00    -0.200 F 
ATOM     65  F   UNL A   1      43.932  24.321  24.458  1.00  0.00    -0.200 F 
ENDBRANCH  41  55
BRANCH  42  66
ATOM     66  C   UNL A   1      39.439  32.086  35.370  1.00  0.00     0.064 A 
ATOM     67  C   UNL A   1      38.554  31.553  36.315  1.00  0.00     0.173 A 
ATOM     68  C   UNL A   1      39.862  33.412  35.543  1.00  0.00     0.173 A 
ATOM     69  F   UNL A   1      38.097  30.299  36.175  1.00  0.00    -0.203 F 
ATOM     70  C   UNL A   1      38.111  32.316  37.394  1.00  0.00     0.198 A 
ATOM     71  C   UNL A   1      39.442  34.164  36.637  1.00  0.00     0.198 A 
ATOM     72  F   UNL A   1      40.707  33.968  34.663  1.00  0.00    -0.203 F 
ATOM     73  F   UNL A   1      37.240  31.794  38.269  1.00  0.00    -0.200 F 
ATOM     74  C   UNL A   1      38.564  33.616  37.561  1.00  0.00     0.200 A 
ATOM     75  F   UNL A   1      39.895  35.415  36.802  1.00  0.00    -0.200 F 
ATOM     76  F   UNL A   1      38.152  34.344  38.607  1.00  0.00    -0.200 F 
ENDBRANCH  42  66
BRANCH  54  77
ATOM     77  C   UNL A   1      44.766  27.673  34.598  1.00  0.00     0.064 A 
ATOM     78  C   UNL A   1      45.986  28.360  34.684  1.00  0.00     0.173 A 
ATOM     79  C   UNL A   1      44.567  26.567  35.437  1.00  0.00     0.173 A 
ATOM     80  F   UNL A   1      46.225  29.413  33.890  1.00  0.00    -0.203 F 
ATOM     81  C   UNL A   1      46.979  27.940  35.564  1.00  0.00     0.198 A 
ATOM     82  C   UNL A   1      45.555  26.163  36.329  1.00  0.00     0.198 A 
ATOM     83  F   UNL A   1      43.415  25.883  35.391  1.00  0.00    -0.203 F 
ATOM     84  F   UNL A   1      48.153  28.585  35.604  1.00  0.00    -0.200 F 
ATOM     85  C   UNL A   1      46.761  26.846  36.388  1.00  0.00     0.200 A 
ATOM     86  F   UNL A   1      45.343  25.109  37.130  1.00  0.00    -0.200 F 
ATOM     87  F   UNL A   1      47.719  26.443  37.235  1.00  0.00    -0.200 F 
ENDBRANCH  54  77
ENDBRANCH  28  29
ENDBRANCH  21  23
ENDBRANCH  20  21
ENDBRANCH  19  20
ENDBRANCH   1  19
TORSDOF 14
ENDMDL
MODEL 3
REMARK VINA RESULT:     -11.5      1.364      2.884
REMARK SMILES CC[C@](C)(C(=O)OCCOC(=O)c1ccc(-c2c3nc(c(-c4c(F)c(F)c(F)c(F)c4F)c4ccc([nH]4)c(-c4c(F)c(F)c(F)c(F)c4F)c4nc(c(-c5c(F)c(F)c(F)c(F)c5F)c5ccc2[nH]5)C=C4)C=C3)cc1)n1nnnc1-c1ccco1
REMARK SMILES IDX 8 1 7 2 5 3 6 4 3 5 4 6 2 7 1 8 76 9 77 10 80 11 78 12 79 13
REMARK SMILES IDX 81 14 82 15 85 16 83 17 84 18 9 19 10 20 11 21 12 22 13 23
REMARK SMILES IDX 14 24 75 25 15 26 74 27 16 28 17 29 18 30 68 31 19 32 73 33
REMARK SMILES IDX 67 34 69 35 20 36 72 37 66 38 65 39 21 41 53 42 33 43 52 44
REMARK SMILES IDX 34 45 37 46 51 47 70 48 35 49 36 50 50 52 71 53 38 54 22 55
REMARK SMILES IDX 23 56 31 57 24 58 25 59 29 60 32 61 26 62 27 63 30 64 28 65
REMARK SMILES IDX 54 66 55 67 63 68 56 69 57 70 61 71 64 72 58 73 59 74 62 75
REMARK SMILES IDX 60 76 39 77 40 78 48 79 41 80 42 81 46 82 49 83 43 84 44 85
REMARK SMILES IDX 47 86 45 87
REMARK H PARENT 69 40 37 51
REMARK Flexibility Score: inf
ROOT
ATOM      1  C   UNL A   1      31.440  29.209  25.302  1.00  0.00     0.274 C 
ENDROOT
BRANCH   1   2
ATOM      2  O   UNL A   1      32.441  28.263  25.734  1.00  0.00    -0.460 OA
BRANCH   2   3
ATOM      3  C   UNL A   1      33.290  27.769  24.788  1.00  0.00     0.334 C 
ATOM      4  O   UNL A   1      34.017  28.463  24.082  1.00  0.00    -0.249 OA
BRANCH   3   5
ATOM      5  C   UNL A   1      33.128  26.256  24.590  1.00  0.00     0.161 C 
ATOM      6  C   UNL A   1      34.407  25.468  24.959  1.00  0.00     0.050 C 
BRANCH   5   7
ATOM      7  C   UNL A   1      31.964  25.831  25.529  1.00  0.00     0.039 C 
ATOM      8  C   UNL A   1      32.188  24.555  26.339  1.00  0.00     0.007 C 
ENDBRANCH   5   7
BRANCH   5   9
ATOM      9  N   UNL A   1      32.861  26.035  23.159  1.00  0.00    -0.205 N 
ATOM     10  N   UNL A   1      33.774  25.332  22.442  1.00  0.00    -0.043 NA
ATOM     11  C   UNL A   1      31.840  26.391  22.310  1.00  0.00     0.218 A 
ATOM     12  N   UNL A   1      33.320  25.296  21.201  1.00  0.00    -0.023 NA
ATOM     13  N   UNL A   1      32.134  25.961  21.100  1.00  0.00    -0.105 NA
BRANCH  11  14
ATOM     14  C   UNL A   1      30.605  27.024  22.616  1.00  0.00     0.172 A 
ATOM     15  C   UNL A   1      29.581  26.597  23.446  1.00  0.00     0.054 A 
ATOM     16  O   UNL A   1      30.277  28.254  22.110  1.00  0.00    -0.461 OA
ATOM     17  C   UNL A   1      28.589  27.609  23.434  1.00  0.00     0.043 A 
ATOM     18  C   UNL A   1      29.072  28.605  22.622  1.00  0.00     0.196 A 
ENDBRANCH  11  14
ENDBRANCH   5   9
ENDBRANCH   3   5
ENDBRANCH   2   3
ENDBRANCH   1   2
BRANCH   1  19
ATOM     19  C   UNL A   1      31.748  30.597  25.849  1.00  0.00     0.275 C 
BRANCH  19  20
ATOM     20  O   UNL A   1      32.694  30.462  26.921  1.00  0.00    -0.458 OA
BRANCH  20  21
ATOM     21  C   UNL A   1      33.326  31.596  27.300  1.00  0.00     0.338 C 
ATOM     22  O   UNL A   1      32.904  32.736  27.244  1.00  0.00    -0.246 OA
BRANCH  21  23
ATOM     23  C   UNL A   1      34.661  31.244  27.811  1.00  0.00     0.060 A 
ATOM     24  C   UNL A   1      34.954  29.920  28.131  1.00  0.00     0.016 A 
ATOM     25  C   UNL A   1      35.586  32.252  28.081  1.00  0.00     0.016 A 
ATOM     26  C   UNL A   1      36.126  29.612  28.815  1.00  0.00     0.010 A 
ATOM     27  C   UNL A   1      36.807  31.924  28.675  1.00  0.00     0.010 A 
ATOM     28  C   UNL A   1      37.075  30.605  29.088  1.00  0.00    -0.014 A 
BRANCH  28  29
ATOM     29  C   UNL A   1      38.305  30.285  29.861  1.00  0.00     0.031 A 
ATOM     30  C   UNL A   1      39.366  29.414  29.250  1.00  0.00     0.074 A 
ATOM     31  C   UNL A   1      38.491  30.782  31.100  1.00  0.00     0.049 A 
ATOM     32  N   UNL A   1      40.376  28.807  29.823  1.00  0.00    -0.248 NA
ATOM     33  C   UNL A   1      39.269  29.176  27.801  1.00  0.00     0.031 C 
ATOM     34  C   UNL A   1      37.585  31.698  31.794  1.00  0.00     0.029 A 
ATOM     35  N   UNL A   1      39.516  30.591  31.993  1.00  0.00    -0.354 N 
ATOM     36  C   UNL A   1      40.982  28.057  28.823  1.00  0.00     0.074 A 
ATOM     37  C   UNL A   1      40.240  28.296  27.604  1.00  0.00     0.031 C 
ATOM     38  C   UNL A   1      38.114  32.025  32.981  1.00  0.00     0.029 A 
ATOM     39  C   UNL A   1      39.346  31.267  33.177  1.00  0.00     0.049 A 
ATOM     40  H   UNL A   1      40.298  30.024  31.804  1.00  0.00     0.167 HD
ATOM     41  C   UNL A   1      42.056  27.237  28.925  1.00  0.00     0.037 A 
ATOM     42  C   UNL A   1      40.071  31.245  34.310  1.00  0.00     0.037 A 
ATOM     43  C   UNL A   1      42.838  27.072  30.123  1.00  0.00     0.049 A 
ATOM     44  C   UNL A   1      41.266  30.337  34.397  1.00  0.00     0.074 A 
ATOM     45  C   UNL A   1      43.937  26.258  30.334  1.00  0.00     0.029 A 
ATOM     46  N   UNL A   1      42.621  27.766  31.303  1.00  0.00    -0.354 N 
ATOM     47  N   UNL A   1      41.759  29.532  33.488  1.00  0.00    -0.248 NA
ATOM     48  C   UNL A   1      41.986  30.313  35.678  1.00  0.00     0.031 C 
ATOM     49  C   UNL A   1      44.376  26.447  31.650  1.00  0.00     0.029 A 
ATOM     50  C   UNL A   1      43.569  27.403  32.247  1.00  0.00     0.049 A 
ATOM     51  H   UNL A   1      41.900  28.421  31.450  1.00  0.00     0.167 HD
ATOM     52  C   UNL A   1      42.839  28.900  34.086  1.00  0.00     0.074 A 
ATOM     53  C   UNL A   1      42.950  29.438  35.426  1.00  0.00     0.031 C 
ATOM     54  C   UNL A   1      43.657  27.948  33.575  1.00  0.00     0.037 A 
BRANCH  41  55
ATOM     55  C   UNL A   1      42.422  26.421  27.721  1.00  0.00     0.064 A 
ATOM     56  C   UNL A   1      43.403  26.834  26.810  1.00  0.00     0.173 A 
ATOM     57  C   UNL A   1      41.795  25.184  27.498  1.00  0.00     0.173 A 
ATOM     58  F   UNL A   1      44.020  28.013  26.970  1.00  0.00    -0.203 F 
ATOM     59  C   UNL A   1      43.730  26.047  25.707  1.00  0.00     0.198 A 
ATOM     60  C   UNL A   1      42.143  24.389  26.410  1.00  0.00     0.198 A 
ATOM     61  F   UNL A   1      40.852  24.741  28.343  1.00  0.00    -0.203 F 
ATOM     62  F   UNL A   1      44.644  26.477  24.826  1.00  0.00    -0.200 F 
ATOM     63  C   UNL A   1      43.106  24.823  25.512  1.00  0.00     0.200 A 
ATOM     64  F   UNL A   1      41.546  23.202  26.230  1.00  0.00    -0.200 F 
ATOM     65  F   UNL A   1      43.427  24.065  24.454  1.00  0.00    -0.200 F 
ENDBRANCH  41  55
BRANCH  42  66
ATOM     66  C   UNL A   1      39.650  32.075  35.467  1.00  0.00     0.064 A 
ATOM     67  C   UNL A   1      40.140  33.376  35.636  1.00  0.00     0.173 A 
ATOM     68  C   UNL A   1      38.730  31.594  36.411  1.00  0.00     0.173 A 
ATOM     69  F   UNL A   1      41.045  33.869  34.777  1.00  0.00    -0.203 F 
ATOM     70  C   UNL A   1      39.724  34.166  36.706  1.00  0.00     0.198 A 
ATOM     71  C   UNL A   1      38.292  32.395  37.462  1.00  0.00     0.198 A 
ATOM     72  F   UNL A   1      38.234  30.354  36.294  1.00  0.00    -0.203 F 
ATOM     73  F   UNL A   1      40.230  35.398  36.863  1.00  0.00    -0.200 F 
ATOM     74  C   UNL A   1      38.792  33.680  37.611  1.00  0.00     0.200 A 
ATOM     75  F   UNL A   1      37.381  31.926  38.325  1.00  0.00    -0.200 F 
ATOM     76  F   UNL A   1      38.380  34.447  38.629  1.00  0.00    -0.200 F 
ENDBRANCH  42  66
BRANCH  54  77
ATOM     77  C   UNL A   1      44.743  27.437  34.471  1.00  0.00     0.064 A 
ATOM     78  C   UNL A   1      45.993  28.070  34.531  1.00  0.00     0.173 A 
ATOM     79  C   UNL A   1      44.523  26.326  35.297  1.00  0.00     0.173 A 
ATOM     80  F   UNL A   1      46.253  29.127  33.747  1.00  0.00    -0.203 F 
ATOM     81  C   UNL A   1      46.993  27.594  35.374  1.00  0.00     0.198 A 
ATOM     82  C   UNL A   1      45.519  25.865  36.152  1.00  0.00     0.198 A 
ATOM     83  F   UNL A   1      43.342  25.691  35.275  1.00  0.00    -0.203 F 
ATOM     84  F   UNL A   1      48.194  28.189  35.387  1.00  0.00    -0.200 F 
ATOM     85  C   UNL A   1      46.754  26.496  36.186  1.00  0.00     0.200 A 
ATOM     86  F   UNL A   1      45.286  24.807  36.942  1.00  0.00    -0.200 F 
ATOM     87  F   UNL A   1      47.719  26.038  36.996  1.00  0.00    -0.200 F 
ENDBRANCH  54  77
ENDBRANCH  28  29
ENDBRANCH  21  23
ENDBRANCH  20  21
ENDBRANCH  19  20
ENDBRANCH   1  19
TORSDOF 14
ENDMDL
