MODEL 1
REMARK VINA RESULT:     -11.8      0.000      0.000
REMARK SMILES CCC1(CC)CCN(c2ccc(/C=C/C(=O)OCCOC(=O)c3ccc(-c4c5nc(c(-c6c(F)c(F)c(F)c(F)c6F)c6ccc([nH]6)c(-c6c(F)c(F)c(F)c(F)c6F)c6nc(c(-c7c(F)c(F)c(F)c(F)c7F)c7ccc4[nH]7)C=C6)C=C5)cc3)cc2F)C1
REMARK SMILES IDX 18 1 17 2 15 3 16 4 14 5 13 6 12 7 9 8 10 9 87 10 11 11
REMARK SMILES IDX 86 12 88 13 8 14 3 15 6 16 89 17 7 18 2 19 1 20 4 21 5 22
REMARK SMILES IDX 19 23 20 24 21 25 22 26 23 27 24 28 85 29 25 30 84 31 26 32
REMARK SMILES IDX 27 33 28 34 78 35 29 36 83 37 77 38 79 39 30 40 82 41 76 42
REMARK SMILES IDX 75 43 31 45 63 46 43 47 62 48 44 49 47 50 61 51 80 52 45 53
REMARK SMILES IDX 46 54 60 56 81 57 48 58 32 59 33 60 41 61 34 62 35 63 39 64
REMARK SMILES IDX 42 65 36 66 37 67 40 68 38 69 64 70 65 71 73 72 66 73 67 74
REMARK SMILES IDX 71 75 74 76 68 77 69 78 72 79 70 80 49 81 50 82 58 83 51 84
REMARK SMILES IDX 52 85 56 86 59 87 53 88 54 89 57 90 55 91
REMARK H PARENT 79 44 47 55
REMARK Flexibility Score: inf
ROOT
ATOM      1  C   UNL A   1      42.666  20.630  25.979  1.00  0.00     0.275 C 
ENDROOT
BRANCH   1   2
ATOM      2  O   UNL A   1      41.292  20.949  25.688  1.00  0.00    -0.459 OA
BRANCH   2   3
ATOM      3  C   UNL A   1      40.496  21.155  26.762  1.00  0.00     0.330 C 
ATOM      4  O   UNL A   1      40.740  20.831  27.916  1.00  0.00    -0.247 OA
BRANCH   3   5
ATOM      5  C   UNL A   1      39.265  21.899  26.429  1.00  0.00     0.094 C 
ATOM      6  C   UNL A   1      38.448  21.647  25.396  1.00  0.00     0.016 C 
BRANCH   6   7
ATOM      7  C   UNL A   1      37.293  22.507  25.104  1.00  0.00    -0.022 A 
ATOM      8  C   UNL A   1      35.019  24.131  24.551  1.00  0.00     0.073 A 
ATOM      9  C   UNL A   1      35.802  24.345  25.690  1.00  0.00     0.029 A 
ATOM     10  C   UNL A   1      35.443  23.118  23.672  1.00  0.00     0.147 A 
ATOM     11  C   UNL A   1      36.917  23.543  25.971  1.00  0.00     0.010 A 
ATOM     12  C   UNL A   1      36.562  22.321  23.932  1.00  0.00     0.049 A 
ATOM     13  F   UNL A   1      34.784  22.905  22.521  1.00  0.00    -0.205 F 
BRANCH   8  14
ATOM     14  N   UNL A   1      33.894  24.902  24.347  1.00  0.00    -0.369 N 
ATOM     15  C   UNL A   1      31.775  25.892  24.807  1.00  0.00    -0.011 C 
ATOM     16  C   UNL A   1      32.790  26.977  24.387  1.00  0.00     0.030 C 
ATOM     17  C   UNL A   1      32.706  24.708  25.175  1.00  0.00     0.123 C 
ATOM     18  C   UNL A   1      33.966  26.235  23.767  1.00  0.00     0.117 C 
BRANCH  15  19
ATOM     19  C   UNL A   1      30.762  25.559  23.670  1.00  0.00     0.005 C 
ATOM     20  C   UNL A   1      30.509  24.096  23.333  1.00  0.00     0.004 C 
ENDBRANCH  15  19
BRANCH  15  21
ATOM     21  C   UNL A   1      30.987  26.353  26.066  1.00  0.00     0.005 C 
ATOM     22  C   UNL A   1      31.655  27.461  26.873  1.00  0.00     0.004 C 
ENDBRANCH  15  21
ENDBRANCH   8  14
ENDBRANCH   6   7
ENDBRANCH   3   5
ENDBRANCH   2   3
ENDBRANCH   1   2
BRANCH   1  23
ATOM     23  C   UNL A   1      43.624  21.626  25.318  1.00  0.00     0.275 C 
BRANCH  23  24
ATOM     24  O   UNL A   1      42.947  22.824  24.891  1.00  0.00    -0.458 OA
BRANCH  24  25
ATOM     25  C   UNL A   1      43.671  23.962  25.003  1.00  0.00     0.338 C 
ATOM     26  O   UNL A   1      44.606  24.316  24.305  1.00  0.00    -0.246 OA
BRANCH  25  27
ATOM     27  C   UNL A   1      43.096  24.821  26.054  1.00  0.00     0.060 A 
ATOM     28  C   UNL A   1      43.608  26.115  26.192  1.00  0.00     0.016 A 
ATOM     29  C   UNL A   1      42.121  24.347  26.935  1.00  0.00     0.016 A 
ATOM     30  C   UNL A   1      43.150  26.941  27.215  1.00  0.00     0.010 A 
ATOM     31  C   UNL A   1      41.665  25.176  27.965  1.00  0.00     0.010 A 
ATOM     32  C   UNL A   1      42.183  26.474  28.117  1.00  0.00    -0.014 A 
BRANCH  32  33
ATOM     33  C   UNL A   1      41.744  27.341  29.236  1.00  0.00     0.031 A 
ATOM     34  C   UNL A   1      42.531  27.379  30.513  1.00  0.00     0.074 A 
ATOM     35  C   UNL A   1      40.661  28.124  29.088  1.00  0.00     0.049 A 
ATOM     36  N   UNL A   1      42.304  28.066  31.604  1.00  0.00    -0.248 NA
ATOM     37  C   UNL A   1      43.736  26.538  30.567  1.00  0.00     0.031 C 
ATOM     38  C   UNL A   1      39.844  28.207  27.879  1.00  0.00     0.029 A 
ATOM     39  N   UNL A   1      40.070  29.005  29.957  1.00  0.00    -0.354 N 
ATOM     40  C   UNL A   1      43.337  27.745  32.473  1.00  0.00     0.074 A 
ATOM     41  C   UNL A   1      44.175  26.777  31.795  1.00  0.00     0.031 C 
ATOM     42  C   UNL A   1      38.866  29.106  28.075  1.00  0.00     0.029 A 
ATOM     43  C   UNL A   1      38.966  29.632  29.435  1.00  0.00     0.049 A 
ATOM     44  H   UNL A   1      40.405  29.173  30.868  1.00  0.00     0.167 HD
ATOM     45  C   UNL A   1      43.569  28.222  33.719  1.00  0.00     0.037 A 
ATOM     46  C   UNL A   1      38.123  30.521  29.995  1.00  0.00     0.037 A 
ATOM     47  C   UNL A   1      42.732  29.180  34.394  1.00  0.00     0.049 A 
ATOM     48  C   UNL A   1      38.350  30.969  31.411  1.00  0.00     0.074 A 
ATOM     49  C   UNL A   1      42.886  29.720  35.660  1.00  0.00     0.029 A 
ATOM     50  N   UNL A   1      41.579  29.736  33.860  1.00  0.00    -0.354 N 
ATOM     51  N   UNL A   1      39.324  30.653  32.230  1.00  0.00    -0.248 NA
ATOM     52  C   UNL A   1      37.359  31.889  31.985  1.00  0.00     0.031 C 
ATOM     53  C   UNL A   1      41.804  30.570  35.907  1.00  0.00     0.029 A 
ATOM     54  C   UNL A   1      41.000  30.596  34.779  1.00  0.00     0.049 A 
ATOM     55  H   UNL A   1      41.224  29.549  32.961  1.00  0.00     0.167 HD
ATOM     56  C   UNL A   1      39.073  31.344  33.407  1.00  0.00     0.074 A 
ATOM     57  C   UNL A   1      37.859  32.105  33.195  1.00  0.00     0.031 C 
ATOM     58  C   UNL A   1      39.788  31.346  34.559  1.00  0.00     0.037 A 
BRANCH  45  59
ATOM     59  C   UNL A   1      44.775  27.703  34.444  1.00  0.00     0.064 A 
ATOM     60  C   UNL A   1      46.016  28.342  34.311  1.00  0.00     0.173 A 
ATOM     61  C   UNL A   1      44.711  26.548  35.239  1.00  0.00     0.173 A 
ATOM     62  F   UNL A   1      46.130  29.446  33.558  1.00  0.00    -0.203 F 
ATOM     63  C   UNL A   1      47.151  27.842  34.944  1.00  0.00     0.198 A 
ATOM     64  C   UNL A   1      45.843  26.065  35.889  1.00  0.00     0.198 A 
ATOM     65  F   UNL A   1      43.544  25.908  35.406  1.00  0.00    -0.203 F 
ATOM     66  F   UNL A   1      48.331  28.458  34.787  1.00  0.00    -0.200 F 
ATOM     67  C   UNL A   1      47.062  26.708  35.737  1.00  0.00     0.200 A 
ATOM     68  F   UNL A   1      45.751  24.982  36.674  1.00  0.00    -0.200 F 
ATOM     69  F   UNL A   1      48.152  26.237  36.359  1.00  0.00    -0.200 F 
ENDBRANCH  45  59
BRANCH  46  70
ATOM     70  C   UNL A   1      36.993  31.053  29.193  1.00  0.00     0.064 A 
ATOM     71  C   UNL A   1      37.004  32.367  28.702  1.00  0.00     0.173 A 
ATOM     72  C   UNL A   1      35.858  30.270  28.946  1.00  0.00     0.173 A 
ATOM     73  F   UNL A   1      38.071  33.153  28.911  1.00  0.00    -0.203 F 
ATOM     74  C   UNL A   1      35.909  32.887  28.016  1.00  0.00     0.198 A 
ATOM     75  C   UNL A   1      34.772  30.785  28.242  1.00  0.00     0.198 A 
ATOM     76  F   UNL A   1      35.813  29.001  29.377  1.00  0.00    -0.203 F 
ATOM     77  F   UNL A   1      35.931  34.156  27.588  1.00  0.00    -0.200 F 
ATOM     78  C   UNL A   1      34.794  32.095  27.787  1.00  0.00     0.200 A 
ATOM     79  F   UNL A   1      33.704  30.011  28.003  1.00  0.00    -0.200 F 
ATOM     80  F   UNL A   1      33.740  32.595  27.126  1.00  0.00    -0.200 F 
ENDBRANCH  46  70
BRANCH  58  81
ATOM     81  C   UNL A   1      39.294  32.206  35.683  1.00  0.00     0.064 A 
ATOM     82  C   UNL A   1      39.762  33.520  35.834  1.00  0.00     0.173 A 
ATOM     83  C   UNL A   1      38.420  31.703  36.658  1.00  0.00     0.173 A 
ATOM     84  F   UNL A   1      40.605  34.044  34.932  1.00  0.00    -0.203 F 
ATOM     85  C   UNL A   1      39.384  34.294  36.927  1.00  0.00     0.198 A 
ATOM     86  C   UNL A   1      38.026  32.488  37.738  1.00  0.00     0.198 A 
ATOM     87  F   UNL A   1      37.934  30.457  36.551  1.00  0.00    -0.203 F 
ATOM     88  F   UNL A   1      39.867  35.536  37.067  1.00  0.00    -0.200 F 
ATOM     89  C   UNL A   1      38.515  33.779  37.877  1.00  0.00     0.200 A 
ATOM     90  F   UNL A   1      37.171  31.996  38.645  1.00  0.00    -0.200 F 
ATOM     91  F   UNL A   1      38.148  34.526  38.927  1.00  0.00    -0.200 F 
ENDBRANCH  58  81
ENDBRANCH  32  33
ENDBRANCH  25  27
ENDBRANCH  24  25
ENDBRANCH  23  24
ENDBRANCH   1  23
TORSDOF 15
ENDMDL
MODEL 2
REMARK VINA RESULT:     -11.4      0.639      7.324
REMARK SMILES CCC1(CC)CCN(c2ccc(/C=C/C(=O)OCCOC(=O)c3ccc(-c4c5nc(c(-c6c(F)c(F)c(F)c(F)c6F)c6ccc([nH]6)c(-c6c(F)c(F)c(F)c(F)c6F)c6nc(c(-c7c(F)c(F)c(F)c(F)c7F)c7ccc4[nH]7)C=C6)C=C5)cc3)cc2F)C1
REMARK SMILES IDX 18 1 17 2 15 3 16 4 14 5 13 6 12 7 9 8 10 9 87 10 11 11
REMARK SMILES IDX 86 12 88 13 8 14 3 15 6 16 89 17 7 18 2 19 1 20 4 21 5 22
REMARK SMILES IDX 19 23 20 24 21 25 22 26 23 27 24 28 85 29 25 30 84 31 26 32
REMARK SMILES IDX 27 33 28 34 78 35 29 36 83 37 77 38 79 39 30 40 82 41 76 42
REMARK SMILES IDX 75 43 31 45 63 46 43 47 62 48 44 49 47 50 61 51 80 52 45 53
REMARK SMILES IDX 46 54 60 56 81 57 48 58 32 59 33 60 41 61 34 62 35 63 39 64
REMARK SMILES IDX 42 65 36 66 37 67 40 68 38 69 64 70 65 71 73 72 66 73 67 74
REMARK SMILES IDX 71 75 74 76 68 77 69 78 72 79 70 80 49 81 50 82 58 83 51 84
REMARK SMILES IDX 52 85 56 86 59 87 53 88 54 89 57 90 55 91
REMARK H PARENT 79 44 47 55
REMARK Flexibility Score: inf
ROOT
ATOM      1  C   UNL A   1      42.882  20.947  26.081  1.00  0.00     0.275 C 
ENDROOT
BRANCH   1   2
ATOM      2  O   UNL A   1      41.498  21.103  25.713  1.00  0.00    -0.459 OA
BRANCH   2   3
ATOM      3  C   UNL A   1      40.620  21.163  26.742  1.00  0.00     0.330 C 
ATOM      4  O   UNL A   1      40.786  20.699  27.862  1.00  0.00    -0.247 OA
BRANCH   3   5
ATOM      5  C   UNL A   1      39.401  21.926  26.411  1.00  0.00     0.094 C 
ATOM      6  C   UNL A   1      38.432  21.537  25.568  1.00  0.00     0.016 C 
BRANCH   6   7
ATOM      7  C   UNL A   1      37.301  22.415  25.243  1.00  0.00    -0.022 A 
ATOM      8  C   UNL A   1      35.071  24.081  24.637  1.00  0.00     0.073 A 
ATOM      9  C   UNL A   1      36.006  24.448  25.610  1.00  0.00     0.029 A 
ATOM     10  C   UNL A   1      35.319  22.884  23.940  1.00  0.00     0.147 A 
ATOM     11  C   UNL A   1      37.101  23.628  25.917  1.00  0.00     0.010 A 
ATOM     12  C   UNL A   1      36.415  22.065  24.226  1.00  0.00     0.049 A 
ATOM     13  F   UNL A   1      34.505  22.505  22.941  1.00  0.00    -0.205 F 
BRANCH   8  14
ATOM     14  N   UNL A   1      33.976  24.887  24.411  1.00  0.00    -0.369 N 
ATOM     15  C   UNL A   1      32.273  26.490  24.874  1.00  0.00    -0.011 C 
ATOM     16  C   UNL A   1      33.016  26.863  23.572  1.00  0.00     0.030 C 
ATOM     17  C   UNL A   1      33.262  25.493  25.532  1.00  0.00     0.123 C 
ATOM     18  C   UNL A   1      33.801  25.622  23.167  1.00  0.00     0.117 C 
BRANCH  15  19
ATOM     19  C   UNL A   1      30.865  25.883  24.597  1.00  0.00     0.005 C 
ATOM     20  C   UNL A   1      29.875  25.797  25.751  1.00  0.00     0.004 C 
ENDBRANCH  15  19
BRANCH  15  21
ATOM     21  C   UNL A   1      32.112  27.746  25.777  1.00  0.00     0.005 C 
ATOM     22  C   UNL A   1      32.275  29.081  25.058  1.00  0.00     0.004 C 
ENDBRANCH  15  21
ENDBRANCH   8  14
ENDBRANCH   6   7
ENDBRANCH   3   5
ENDBRANCH   2   3
ENDBRANCH   1   2
BRANCH   1  23
ATOM     23  C   UNL A   1      43.768  21.977  25.373  1.00  0.00     0.275 C 
BRANCH  23  24
ATOM     24  O   UNL A   1      43.070  23.213  25.131  1.00  0.00    -0.458 OA
BRANCH  24  25
ATOM     25  C   UNL A   1      43.810  24.333  25.308  1.00  0.00     0.338 C 
ATOM     26  O   UNL A   1      44.769  24.698  24.648  1.00  0.00    -0.246 OA
BRANCH  25  27
ATOM     27  C   UNL A   1      43.221  25.160  26.377  1.00  0.00     0.060 A 
ATOM     28  C   UNL A   1      43.738  26.445  26.566  1.00  0.00     0.016 A 
ATOM     29  C   UNL A   1      42.230  24.662  27.225  1.00  0.00     0.016 A 
ATOM     30  C   UNL A   1      43.267  27.240  27.608  1.00  0.00     0.010 A 
ATOM     31  C   UNL A   1      41.760  25.459  28.275  1.00  0.00     0.010 A 
ATOM     32  C   UNL A   1      42.282  26.748  28.478  1.00  0.00    -0.014 A 
BRANCH  32  33
ATOM     33  C   UNL A   1      41.829  27.580  29.618  1.00  0.00     0.031 A 
ATOM     34  C   UNL A   1      40.605  28.437  29.486  1.00  0.00     0.074 A 
ATOM     35  C   UNL A   1      42.495  27.532  30.785  1.00  0.00     0.049 A 
ATOM     36  N   UNL A   1      40.056  29.237  30.365  1.00  0.00    -0.248 NA
ATOM     37  C   UNL A   1      39.901  28.383  28.197  1.00  0.00     0.031 C 
ATOM     38  C   UNL A   1      43.670  26.702  31.048  1.00  0.00     0.029 A 
ATOM     39  N   UNL A   1      42.273  28.187  31.970  1.00  0.00    -0.354 N 
ATOM     40  C   UNL A   1      38.943  29.778  29.740  1.00  0.00     0.074 A 
ATOM     41  C   UNL A   1      38.910  29.241  28.395  1.00  0.00     0.031 C 
ATOM     42  C   UNL A   1      44.056  26.883  32.321  1.00  0.00     0.029 A 
ATOM     43  C   UNL A   1      43.179  27.869  32.950  1.00  0.00     0.049 A 
ATOM     44  H   UNL A   1      41.533  28.824  32.105  1.00  0.00     0.167 HD
ATOM     45  C   UNL A   1      38.026  30.637  30.246  1.00  0.00     0.037 A 
ATOM     46  C   UNL A   1      43.297  28.331  34.210  1.00  0.00     0.037 A 
ATOM     47  C   UNL A   1      38.063  31.175  31.581  1.00  0.00     0.049 A 
ATOM     48  C   UNL A   1      42.319  29.352  34.720  1.00  0.00     0.074 A 
ATOM     49  C   UNL A   1      37.179  32.055  32.181  1.00  0.00     0.029 A 
ATOM     50  N   UNL A   1      39.041  30.887  32.522  1.00  0.00    -0.354 N 
ATOM     51  N   UNL A   1      41.275  29.867  34.119  1.00  0.00    -0.248 NA
ATOM     52  C   UNL A   1      42.541  29.864  36.080  1.00  0.00     0.031 C 
ATOM     53  C   UNL A   1      37.644  32.332  33.470  1.00  0.00     0.029 A 
ATOM     54  C   UNL A   1      38.793  31.590  33.691  1.00  0.00     0.049 A 
ATOM     55  H   UNL A   1      39.798  30.274  32.381  1.00  0.00     0.167 HD
ATOM     56  C   UNL A   1      40.706  30.749  35.027  1.00  0.00     0.074 A 
ATOM     57  C   UNL A   1      41.517  30.694  36.227  1.00  0.00     0.031 C 
ATOM     58  C   UNL A   1      39.609  31.531  34.877  1.00  0.00     0.037 A 
BRANCH  45  59
ATOM     59  C   UNL A   1      36.907  31.064  29.343  1.00  0.00     0.064 A 
ATOM     60  C   UNL A   1      36.881  32.359  28.804  1.00  0.00     0.173 A 
ATOM     61  C   UNL A   1      35.838  30.204  29.045  1.00  0.00     0.173 A 
ATOM     62  F   UNL A   1      37.876  33.219  29.063  1.00  0.00    -0.203 F 
ATOM     63  C   UNL A   1      35.824  32.779  28.001  1.00  0.00     0.198 A 
ATOM     64  C   UNL A   1      34.795  30.621  28.223  1.00  0.00     0.198 A 
ATOM     65  F   UNL A   1      35.824  28.954  29.528  1.00  0.00    -0.203 F 
ATOM     66  F   UNL A   1      35.810  34.027  27.513  1.00  0.00    -0.200 F 
ATOM     67  C   UNL A   1      34.784  31.908  27.707  1.00  0.00     0.200 A 
ATOM     68  F   UNL A   1      33.803  29.772  27.921  1.00  0.00    -0.200 F 
ATOM     69  F   UNL A   1      33.775  32.309  26.921  1.00  0.00    -0.200 F 
ENDBRANCH  45  59
BRANCH  46  70
ATOM     70  C   UNL A   1      44.384  27.808  35.075  1.00  0.00     0.064 A 
ATOM     71  C   UNL A   1      44.173  26.713  35.926  1.00  0.00     0.173 A 
ATOM     72  C   UNL A   1      45.639  28.427  35.103  1.00  0.00     0.173 A 
ATOM     73  F   UNL A   1      42.987  26.085  35.931  1.00  0.00    -0.203 F 
ATOM     74  C   UNL A   1      45.171  26.273  36.792  1.00  0.00     0.198 A 
ATOM     75  C   UNL A   1      46.644  27.974  35.955  1.00  0.00     0.198 A 
ATOM     76  F   UNL A   1      45.893  29.463  34.290  1.00  0.00    -0.203 F 
ATOM     77  F   UNL A   1      44.932  25.247  37.620  1.00  0.00    -0.200 F 
ATOM     78  C   UNL A   1      46.406  26.905  36.806  1.00  0.00     0.200 A 
ATOM     79  F   UNL A   1      47.843  28.572  35.951  1.00  0.00    -0.200 F 
ATOM     80  F   UNL A   1      47.366  26.482  37.639  1.00  0.00    -0.200 F 
ENDBRANCH  46  70
BRANCH  58  81
ATOM     81  C   UNL A   1      39.203  32.387  36.039  1.00  0.00     0.064 A 
ATOM     82  C   UNL A   1      39.749  33.670  36.204  1.00  0.00     0.173 A 
ATOM     83  C   UNL A   1      38.335  31.909  37.031  1.00  0.00     0.173 A 
ATOM     84  F   UNL A   1      40.590  34.169  35.286  1.00  0.00    -0.203 F 
ATOM     85  C   UNL A   1      39.453  34.435  37.328  1.00  0.00     0.198 A 
ATOM     86  C   UNL A   1      38.024  32.686  38.144  1.00  0.00     0.198 A 
ATOM     87  F   UNL A   1      37.777  30.695  36.912  1.00  0.00    -0.203 F 
ATOM     88  F   UNL A   1      40.011  35.643  37.481  1.00  0.00    -0.200 F 
ATOM     89  C   UNL A   1      38.590  33.944  38.296  1.00  0.00     0.200 A 
ATOM     90  F   UNL A   1      37.173  32.219  39.068  1.00  0.00    -0.200 F 
ATOM     91  F   UNL A   1      38.301  34.683  39.377  1.00  0.00    -0.200 F 
ENDBRANCH  58  81
ENDBRANCH  32  33
ENDBRANCH  25  27
ENDBRANCH  24  25
ENDBRANCH  23  24
ENDBRANCH   1  23
TORSDOF 15
ENDMDL
MODEL 3
REMARK VINA RESULT:     -11.4      5.729     10.733
REMARK SMILES CCC1(CC)CCN(c2ccc(/C=C/C(=O)OCCOC(=O)c3ccc(-c4c5nc(c(-c6c(F)c(F)c(F)c(F)c6F)c6ccc([nH]6)c(-c6c(F)c(F)c(F)c(F)c6F)c6nc(c(-c7c(F)c(F)c(F)c(F)c7F)c7ccc4[nH]7)C=C6)C=C5)cc3)cc2F)C1
REMARK SMILES IDX 18 1 17 2 15 3 16 4 14 5 13 6 12 7 9 8 10 9 87 10 11 11
REMARK SMILES IDX 86 12 88 13 8 14 3 15 6 16 89 17 7 18 2 19 1 20 4 21 5 22
REMARK SMILES IDX 19 23 20 24 21 25 22 26 23 27 24 28 85 29 25 30 84 31 26 32
REMARK SMILES IDX 27 33 28 34 78 35 29 36 83 37 77 38 79 39 30 40 82 41 76 42
REMARK SMILES IDX 75 43 31 45 63 46 43 47 62 48 44 49 47 50 61 51 80 52 45 53
REMARK SMILES IDX 46 54 60 56 81 57 48 58 32 59 33 60 41 61 34 62 35 63 39 64
REMARK SMILES IDX 42 65 36 66 37 67 40 68 38 69 64 70 65 71 73 72 66 73 67 74
REMARK SMILES IDX 71 75 74 76 68 77 69 78 72 79 70 80 49 81 50 82 58 83 51 84
REMARK SMILES IDX 52 85 56 86 59 87 53 88 54 89 57 90 55 91
REMARK H PARENT 79 44 47 55
REMARK Flexibility Score: inf
ROOT
ATOM      1  C   UNL A   1      34.566  34.637  31.372  1.00  0.00     0.275 C 
ENDROOT
BRANCH   1   2
ATOM      2  O   UNL A   1      33.456  34.811  30.470  1.00  0.00    -0.459 OA
BRANCH   2   3
ATOM      3  C   UNL A   1      33.748  34.709  29.153  1.00  0.00     0.330 C 
ATOM      4  O   UNL A   1      34.161  35.608  28.432  1.00  0.00    -0.247 OA
BRANCH   3   5
ATOM      5  C   UNL A   1      33.580  33.338  28.632  1.00  0.00     0.094 C 
ATOM      6  C   UNL A   1      34.569  32.498  28.293  1.00  0.00     0.016 C 
BRANCH   6   7
ATOM      7  C   UNL A   1      34.287  31.183  27.701  1.00  0.00    -0.022 A 
ATOM      8  C   UNL A   1      33.738  28.659  26.500  1.00  0.00     0.073 A 
ATOM      9  C   UNL A   1      35.000  28.951  27.028  1.00  0.00     0.029 A 
ATOM     10  C   UNL A   1      32.748  29.647  26.643  1.00  0.00     0.147 A 
ATOM     11  C   UNL A   1      35.277  30.194  27.613  1.00  0.00     0.010 A 
ATOM     12  C   UNL A   1      33.006  30.886  27.237  1.00  0.00     0.049 A 
ATOM     13  F   UNL A   1      31.493  29.409  26.227  1.00  0.00    -0.205 F 
BRANCH   8  14
ATOM     14  N   UNL A   1      33.527  27.447  25.878  1.00  0.00    -0.369 N 
ATOM     15  C   UNL A   1      32.393  25.443  25.260  1.00  0.00    -0.011 C 
ATOM     16  C   UNL A   1      32.889  26.184  24.000  1.00  0.00     0.030 C 
ATOM     17  C   UNL A   1      32.460  26.558  26.335  1.00  0.00     0.123 C 
ATOM     18  C   UNL A   1      33.896  27.217  24.489  1.00  0.00     0.117 C 
BRANCH  15  19
ATOM     19  C   UNL A   1      33.268  24.198  25.596  1.00  0.00     0.005 C 
ATOM     20  C   UNL A   1      34.191  23.650  24.516  1.00  0.00     0.004 C 
ENDBRANCH  15  19
BRANCH  15  21
ATOM     21  C   UNL A   1      30.919  24.986  25.068  1.00  0.00     0.005 C 
ATOM     22  C   UNL A   1      29.926  25.578  26.063  1.00  0.00     0.004 C 
ENDBRANCH  15  21
ENDBRANCH   8  14
ENDBRANCH   6   7
ENDBRANCH   3   5
ENDBRANCH   2   3
ENDBRANCH   1   2
BRANCH   1  23
ATOM     23  C   UNL A   1      34.306  33.501  32.366  1.00  0.00     0.275 C 
BRANCH  23  24
ATOM     24  O   UNL A   1      35.067  32.321  32.048  1.00  0.00    -0.458 OA
BRANCH  24  25
ATOM     25  C   UNL A   1      36.174  32.132  32.804  1.00  0.00     0.338 C 
ATOM     26  O   UNL A   1      36.286  32.299  34.007  1.00  0.00    -0.246 OA
BRANCH  25  27
ATOM     27  C   UNL A   1      37.254  31.563  31.978  1.00  0.00     0.060 A 
ATOM     28  C   UNL A   1      38.338  30.974  32.637  1.00  0.00     0.016 A 
ATOM     29  C   UNL A   1      37.242  31.666  30.585  1.00  0.00     0.016 A 
ATOM     30  C   UNL A   1      39.418  30.487  31.905  1.00  0.00     0.010 A 
ATOM     31  C   UNL A   1      38.330  31.180  29.851  1.00  0.00     0.010 A 
ATOM     32  C   UNL A   1      39.428  30.597  30.507  1.00  0.00    -0.014 A 
BRANCH  32  33
ATOM     33  C   UNL A   1      40.607  30.128  29.742  1.00  0.00     0.031 A 
ATOM     34  C   UNL A   1      41.762  31.053  29.494  1.00  0.00     0.074 A 
ATOM     35  C   UNL A   1      40.657  28.856  29.306  1.00  0.00     0.049 A 
ATOM     36  N   UNL A   1      42.875  30.831  28.843  1.00  0.00    -0.248 NA
ATOM     37  C   UNL A   1      41.652  32.406  30.058  1.00  0.00     0.031 C 
ATOM     38  C   UNL A   1      39.618  27.852  29.526  1.00  0.00     0.029 A 
ATOM     39  N   UNL A   1      41.625  28.191  28.598  1.00  0.00    -0.354 N 
ATOM     40  C   UNL A   1      43.600  32.010  28.921  1.00  0.00     0.074 A 
ATOM     41  C   UNL A   1      42.788  32.958  29.656  1.00  0.00     0.031 C 
ATOM     42  C   UNL A   1      40.011  26.690  28.980  1.00  0.00     0.029 A 
ATOM     43  C   UNL A   1      41.311  26.880  28.339  1.00  0.00     0.049 A 
ATOM     44  H   UNL A   1      42.465  28.613  28.303  1.00  0.00     0.167 HD
ATOM     45  C   UNL A   1      44.835  32.275  28.433  1.00  0.00     0.037 A 
ATOM     46  C   UNL A   1      41.991  25.941  27.653  1.00  0.00     0.037 A 
ATOM     47  C   UNL A   1      45.640  31.334  27.697  1.00  0.00     0.049 A 
ATOM     48  C   UNL A   1      43.321  26.285  27.043  1.00  0.00     0.074 A 
ATOM     49  C   UNL A   1      46.903  31.513  27.160  1.00  0.00     0.029 A 
ATOM     50  N   UNL A   1      45.256  30.036  27.391  1.00  0.00    -0.354 N 
ATOM     51  N   UNL A   1      43.995  27.407  27.113  1.00  0.00    -0.248 NA
ATOM     52  C   UNL A   1      43.981  25.236  26.252  1.00  0.00     0.031 C 
ATOM     53  C   UNL A   1      47.266  30.339  26.493  1.00  0.00     0.029 A 
ATOM     54  C   UNL A   1      46.249  29.412  26.652  1.00  0.00     0.049 A 
ATOM     55  H   UNL A   1      44.405  29.620  27.658  1.00  0.00     0.167 HD
ATOM     56  C   UNL A   1      45.162  27.197  26.391  1.00  0.00     0.074 A 
ATOM     57  C   UNL A   1      45.110  25.836  25.898  1.00  0.00     0.031 C 
ATOM     58  C   UNL A   1      46.184  28.058  26.162  1.00  0.00     0.037 A 
BRANCH  45  59
ATOM     59  C   UNL A   1      45.391  33.648  28.666  1.00  0.00     0.064 A 
ATOM     60  C   UNL A   1      45.155  34.678  27.743  1.00  0.00     0.173 A 
ATOM     61  C   UNL A   1      46.193  33.934  29.782  1.00  0.00     0.173 A 
ATOM     62  F   UNL A   1      44.400  34.453  26.658  1.00  0.00    -0.203 F 
ATOM     63  C   UNL A   1      45.704  35.944  27.928  1.00  0.00     0.198 A 
ATOM     64  C   UNL A   1      46.720  35.208  29.974  1.00  0.00     0.198 A 
ATOM     65  F   UNL A   1      46.438  32.986  30.697  1.00  0.00    -0.203 F 
ATOM     66  F   UNL A   1      45.482  36.908  27.023  1.00  0.00    -0.200 F 
ATOM     67  C   UNL A   1      46.481  36.210  29.046  1.00  0.00     0.200 A 
ATOM     68  F   UNL A   1      47.452  35.470  31.067  1.00  0.00    -0.200 F 
ATOM     69  F   UNL A   1      46.996  37.434  29.230  1.00  0.00    -0.200 F 
ENDBRANCH  45  59
BRANCH  46  70
ATOM     70  C   UNL A   1      41.417  24.579  27.526  1.00  0.00     0.064 A 
ATOM     71  C   UNL A   1      41.997  23.481  28.179  1.00  0.00     0.173 A 
ATOM     72  C   UNL A   1      40.305  24.342  26.709  1.00  0.00     0.173 A 
ATOM     73  F   UNL A   1      43.062  23.659  28.975  1.00  0.00    -0.203 F 
ATOM     74  C   UNL A   1      41.502  22.192  27.996  1.00  0.00     0.198 A 
ATOM     75  C   UNL A   1      39.797  23.056  26.543  1.00  0.00     0.198 A 
ATOM     76  F   UNL A   1      39.704  25.365  26.084  1.00  0.00    -0.203 F 
ATOM     77  F   UNL A   1      42.096  21.156  28.603  1.00  0.00    -0.200 F 
ATOM     78  C   UNL A   1      40.402  21.981  27.178  1.00  0.00     0.200 A 
ATOM     79  F   UNL A   1      38.721  22.856  25.769  1.00  0.00    -0.200 F 
ATOM     80  F   UNL A   1      39.925  20.741  27.002  1.00  0.00    -0.200 F 
ENDBRANCH  46  70
BRANCH  58  81
ATOM     81  C   UNL A   1      47.343  27.560  25.352  1.00  0.00     0.064 A 
ATOM     82  C   UNL A   1      48.427  26.922  25.977  1.00  0.00     0.173 A 
ATOM     83  C   UNL A   1      47.421  27.786  23.971  1.00  0.00     0.173 A 
ATOM     84  F   UNL A   1      48.404  26.690  27.297  1.00  0.00    -0.203 F 
ATOM     85  C   UNL A   1      49.551  26.543  25.249  1.00  0.00     0.198 A 
ATOM     86  C   UNL A   1      48.537  27.385  23.242  1.00  0.00     0.198 A 
ATOM     87  F   UNL A   1      46.405  28.380  23.326  1.00  0.00    -0.203 F 
ATOM     88  F   UNL A   1      50.587  25.964  25.871  1.00  0.00    -0.200 F 
ATOM     89  C   UNL A   1      49.605  26.773  23.882  1.00  0.00     0.200 A 
ATOM     90  F   UNL A   1      48.580  27.589  21.918  1.00  0.00    -0.200 F 
ATOM     91  F   UNL A   1      50.686  26.404  23.181  1.00  0.00    -0.200 F 
ENDBRANCH  58  81
ENDBRANCH  32  33
ENDBRANCH  25  27
ENDBRANCH  24  25
ENDBRANCH  23  24
ENDBRANCH   1  23
TORSDOF 15
ENDMDL
