MODEL 1
REMARK VINA RESULT:     -10.7      0.000      0.000
REMARK SMILES CC[NH2+][C@@](C)(C[C@@H](C)Sc1ccncc1)C(=O)OCCOC(=O)c1ccc(-c2c3nc(c(-c4c(F)c(F)c(F)c(F)c4F)c4ccc([nH]4)c(-c4c(F)c(F)c(F)c(F)c4F)c4nc(c(-c5c(F)c(F)c(F)c(F)c5F)c5ccc2[nH]5)C=C4)C=C3)cc1
REMARK SMILES IDX 19 1 18 2 16 3 17 4 4 5 5 6 3 7 2 10 1 11 6 12 7 13 8 14
REMARK SMILES IDX 9 15 10 16 11 17 15 18 12 19 14 20 13 21 20 22 21 23 22 24
REMARK SMILES IDX 23 25 24 26 25 27 86 28 26 29 85 30 27 31 28 32 29 33 79 34
REMARK SMILES IDX 30 35 84 36 78 37 80 38 31 39 83 40 77 41 76 42 32 44 64 45
REMARK SMILES IDX 44 46 63 47 45 48 48 49 62 50 81 51 46 52 47 53 61 55 82 56
REMARK SMILES IDX 49 57 33 58 34 59 42 60 35 61 36 62 40 63 43 64 37 65 38 66
REMARK SMILES IDX 41 67 39 68 65 69 66 70 74 71 67 72 68 73 72 74 75 75 69 76
REMARK SMILES IDX 70 77 73 78 71 79 50 80 51 81 59 82 52 83 53 84 57 85 60 86
REMARK SMILES IDX 54 87 55 88 58 89 56 90
REMARK H PARENT 3 8 3 9 80 43 48 54
REMARK Flexibility Score: inf
ROOT
ATOM      1  C   UNL A   1      38.100  20.908  25.028  1.00  0.00     0.274 C 
ENDROOT
BRANCH   1   2
ATOM      2  O   UNL A   1      36.940  21.334  25.797  1.00  0.00    -0.457 OA
BRANCH   2   3
ATOM      3  C   UNL A   1      36.596  22.652  25.669  1.00  0.00     0.367 C 
ATOM      4  O   UNL A   1      37.437  23.551  25.693  1.00  0.00    -0.245 OA
BRANCH   3   5
ATOM      5  C   UNL A   1      35.045  22.926  25.529  1.00  0.00     0.192 C 
ATOM      6  C   UNL A   1      34.501  22.683  26.969  1.00  0.00     0.092 C 
BRANCH   5   7
ATOM      7  N   UNL A   1      34.726  24.355  25.159  1.00  0.00    -0.333 N 
ATOM      8  H   UNL A   1      35.584  24.899  25.246  1.00  0.00     0.347 HD
ATOM      9  H   UNL A   1      34.350  24.316  24.211  1.00  0.00     0.347 HD
BRANCH   7  10
ATOM     10  C   UNL A   1      33.689  25.017  25.968  1.00  0.00     0.257 C 
ATOM     11  C   UNL A   1      33.584  26.506  25.651  1.00  0.00     0.071 C 
ENDBRANCH   7  10
ENDBRANCH   5   7
BRANCH   5  12
ATOM     12  C   UNL A   1      34.239  21.921  24.607  1.00  0.00     0.095 C 
BRANCH  12  13
ATOM     13  C   UNL A   1      32.991  21.110  25.083  1.00  0.00     0.055 C 
ATOM     14  C   UNL A   1      31.693  21.854  25.405  1.00  0.00     0.020 C 
BRANCH  13  15
ATOM     15  S   UNL A   1      32.527  19.865  23.751  1.00  0.00    -0.123 SA
BRANCH  15  16
ATOM     16  C   UNL A   1      33.137  18.338  24.459  1.00  0.00     0.011 A 
ATOM     17  C   UNL A   1      34.469  17.995  24.249  1.00  0.00     0.035 A 
ATOM     18  C   UNL A   1      32.338  17.493  25.229  1.00  0.00     0.035 A 
ATOM     19  C   UNL A   1      34.930  16.800  24.771  1.00  0.00     0.112 A 
ATOM     20  C   UNL A   1      32.886  16.310  25.696  1.00  0.00     0.112 A 
ATOM     21  N   UNL A   1      34.165  15.941  25.478  1.00  0.00    -0.265 NA
ENDBRANCH  15  16
ENDBRANCH  13  15
ENDBRANCH  12  13
ENDBRANCH   5  12
ENDBRANCH   3   5
ENDBRANCH   2   3
ENDBRANCH   1   2
BRANCH   1  22
ATOM     22  C   UNL A   1      39.330  20.582  25.922  1.00  0.00     0.275 C 
BRANCH  22  23
ATOM     23  O   UNL A   1      40.068  19.360  25.611  1.00  0.00    -0.458 OA
BRANCH  23  24
ATOM     24  C   UNL A   1      41.353  19.418  26.004  1.00  0.00     0.338 C 
ATOM     25  O   UNL A   1      42.102  18.462  25.965  1.00  0.00    -0.246 OA
BRANCH  24  26
ATOM     26  C   UNL A   1      41.930  20.658  26.531  1.00  0.00     0.060 A 
ATOM     27  C   UNL A   1      42.343  21.560  25.532  1.00  0.00     0.016 A 
ATOM     28  C   UNL A   1      42.152  20.958  27.870  1.00  0.00     0.016 A 
ATOM     29  C   UNL A   1      42.909  22.774  25.841  1.00  0.00     0.010 A 
ATOM     30  C   UNL A   1      42.721  22.201  28.193  1.00  0.00     0.010 A 
ATOM     31  C   UNL A   1      43.063  23.116  27.179  1.00  0.00    -0.014 A 
BRANCH  31  32
ATOM     32  C   UNL A   1      43.454  24.508  27.437  1.00  0.00     0.031 A 
ATOM     33  C   UNL A   1      44.822  24.990  27.095  1.00  0.00     0.074 A 
ATOM     34  C   UNL A   1      42.476  25.364  27.785  1.00  0.00     0.049 A 
ATOM     35  N   UNL A   1      45.332  26.183  27.244  1.00  0.00    -0.248 NA
ATOM     36  C   UNL A   1      45.728  24.014  26.470  1.00  0.00     0.031 C 
ATOM     37  C   UNL A   1      41.063  25.002  27.942  1.00  0.00     0.029 A 
ATOM     38  N   UNL A   1      42.506  26.709  28.029  1.00  0.00    -0.354 N 
ATOM     39  C   UNL A   1      46.623  26.103  26.749  1.00  0.00     0.074 A 
ATOM     40  C   UNL A   1      46.817  24.748  26.276  1.00  0.00     0.031 C 
ATOM     41  C   UNL A   1      40.364  26.099  28.267  1.00  0.00     0.029 A 
ATOM     42  C   UNL A   1      41.287  27.220  28.400  1.00  0.00     0.049 A 
ATOM     43  H   UNL A   1      43.320  27.257  27.948  1.00  0.00     0.167 HD
ATOM     44  C   UNL A   1      47.559  27.080  26.715  1.00  0.00     0.037 A 
ATOM     45  C   UNL A   1      40.970  28.449  28.843  1.00  0.00     0.037 A 
ATOM     46  C   UNL A   1      47.339  28.413  27.212  1.00  0.00     0.049 A 
ATOM     47  C   UNL A   1      42.068  29.470  28.936  1.00  0.00     0.074 A 
ATOM     48  C   UNL A   1      48.235  29.461  27.311  1.00  0.00     0.029 A 
ATOM     49  N   UNL A   1      46.123  28.878  27.698  1.00  0.00    -0.354 N 
ATOM     50  N   UNL A   1      43.320  29.372  28.560  1.00  0.00    -0.248 NA
ATOM     51  C   UNL A   1      41.717  30.763  29.533  1.00  0.00     0.031 C 
ATOM     52  C   UNL A   1      47.572  30.545  27.900  1.00  0.00     0.029 A 
ATOM     53  C   UNL A   1      46.252  30.189  28.124  1.00  0.00     0.049 A 
ATOM     54  H   UNL A   1      45.291  28.352  27.734  1.00  0.00     0.167 HD
ATOM     55  C   UNL A   1      43.906  30.590  28.861  1.00  0.00     0.074 A 
ATOM     56  C   UNL A   1      42.864  31.420  29.434  1.00  0.00     0.031 C 
ATOM     57  C   UNL A   1      45.191  30.987  28.688  1.00  0.00     0.037 A 
BRANCH  44  58
ATOM     58  C   UNL A   1      48.918  26.710  26.209  1.00  0.00     0.064 A 
ATOM     59  C   UNL A   1      49.868  26.074  27.021  1.00  0.00     0.173 A 
ATOM     60  C   UNL A   1      49.274  26.999  24.882  1.00  0.00     0.173 A 
ATOM     61  F   UNL A   1      49.584  25.796  28.302  1.00  0.00    -0.203 F 
ATOM     62  C   UNL A   1      51.132  25.757  26.527  1.00  0.00     0.198 A 
ATOM     63  C   UNL A   1      50.531  26.664  24.387  1.00  0.00     0.198 A 
ATOM     64  F   UNL A   1      48.403  27.613  24.068  1.00  0.00    -0.203 F 
ATOM     65  F   UNL A   1      52.040  25.187  27.331  1.00  0.00    -0.200 F 
ATOM     66  C   UNL A   1      51.461  26.048  25.211  1.00  0.00     0.200 A 
ATOM     67  F   UNL A   1      50.845  26.944  23.115  1.00  0.00    -0.200 F 
ATOM     68  F   UNL A   1      52.678  25.746  24.740  1.00  0.00    -0.200 F 
ENDBRANCH  44  58
BRANCH  45  69
ATOM     69  C   UNL A   1      39.588  28.744  29.298  1.00  0.00     0.064 A 
ATOM     70  C   UNL A   1      38.641  29.309  28.435  1.00  0.00     0.173 A 
ATOM     71  C   UNL A   1      39.189  28.476  30.617  1.00  0.00     0.173 A 
ATOM     72  F   UNL A   1      38.978  29.605  27.172  1.00  0.00    -0.203 F 
ATOM     73  C   UNL A   1      37.353  29.609  28.879  1.00  0.00     0.198 A 
ATOM     74  C   UNL A   1      37.895  28.747  31.051  1.00  0.00     0.198 A 
ATOM     75  F   UNL A   1      40.059  27.939  31.487  1.00  0.00    -0.203 F 
ATOM     76  F   UNL A   1      36.479  30.192  28.046  1.00  0.00    -0.200 F 
ATOM     77  C   UNL A   1      36.980  29.323  30.183  1.00  0.00     0.200 A 
ATOM     78  F   UNL A   1      37.536  28.457  32.310  1.00  0.00    -0.200 F 
ATOM     79  F   UNL A   1      35.742  29.611  30.608  1.00  0.00    -0.200 F 
ENDBRANCH  45  69
BRANCH  57  80
ATOM     80  C   UNL A   1      45.524  32.387  29.105  1.00  0.00     0.064 A 
ATOM     81  C   UNL A   1      45.359  33.470  28.231  1.00  0.00     0.173 A 
ATOM     82  C   UNL A   1      45.982  32.648  30.404  1.00  0.00     0.173 A 
ATOM     83  F   UNL A   1      44.941  33.264  26.973  1.00  0.00    -0.203 F 
ATOM     84  C   UNL A   1      45.662  34.765  28.636  1.00  0.00     0.198 A 
ATOM     85  C   UNL A   1      46.258  33.948  30.815  1.00  0.00     0.198 A 
ATOM     86  F   UNL A   1      46.153  31.644  31.277  1.00  0.00    -0.203 F 
ATOM     87  F   UNL A   1      45.540  35.782  27.772  1.00  0.00    -0.200 F 
ATOM     88  C   UNL A   1      46.103  35.004  29.930  1.00  0.00     0.200 A 
ATOM     89  F   UNL A   1      46.675  34.179  32.068  1.00  0.00    -0.200 F 
ATOM     90  F   UNL A   1      46.389  36.254  30.320  1.00  0.00    -0.200 F 
ENDBRANCH  57  80
ENDBRANCH  31  32
ENDBRANCH  24  26
ENDBRANCH  23  24
ENDBRANCH  22  23
ENDBRANCH   1  22
TORSDOF 17
ENDMDL
MODEL 2
REMARK VINA RESULT:     -10.7      6.168     10.419
REMARK SMILES CC[NH2+][C@@](C)(C[C@@H](C)Sc1ccncc1)C(=O)OCCOC(=O)c1ccc(-c2c3nc(c(-c4c(F)c(F)c(F)c(F)c4F)c4ccc([nH]4)c(-c4c(F)c(F)c(F)c(F)c4F)c4nc(c(-c5c(F)c(F)c(F)c(F)c5F)c5ccc2[nH]5)C=C4)C=C3)cc1
REMARK SMILES IDX 19 1 18 2 16 3 17 4 4 5 5 6 3 7 2 10 1 11 6 12 7 13 8 14
REMARK SMILES IDX 9 15 10 16 11 17 15 18 12 19 14 20 13 21 20 22 21 23 22 24
REMARK SMILES IDX 23 25 24 26 25 27 86 28 26 29 85 30 27 31 28 32 29 33 79 34
REMARK SMILES IDX 30 35 84 36 78 37 80 38 31 39 83 40 77 41 76 42 32 44 64 45
REMARK SMILES IDX 44 46 63 47 45 48 48 49 62 50 81 51 46 52 47 53 61 55 82 56
REMARK SMILES IDX 49 57 33 58 34 59 42 60 35 61 36 62 40 63 43 64 37 65 38 66
REMARK SMILES IDX 41 67 39 68 65 69 66 70 74 71 67 72 68 73 72 74 75 75 69 76
REMARK SMILES IDX 70 77 73 78 71 79 50 80 51 81 59 82 52 83 53 84 57 85 60 86
REMARK SMILES IDX 54 87 55 88 58 89 56 90
REMARK H PARENT 3 8 3 9 80 43 48 54
REMARK Flexibility Score: inf
ROOT
ATOM      1  C   UNL A   1      32.907  31.177  27.279  1.00  0.00     0.274 C 
ENDROOT
BRANCH   1   2
ATOM      2  O   UNL A   1      32.764  30.458  26.021  1.00  0.00    -0.457 OA
BRANCH   2   3
ATOM      3  C   UNL A   1      33.134  29.141  26.047  1.00  0.00     0.367 C 
ATOM      4  O   UNL A   1      33.832  28.676  26.948  1.00  0.00    -0.245 OA
BRANCH   3   5
ATOM      5  C   UNL A   1      32.629  28.283  24.818  1.00  0.00     0.192 C 
ATOM      6  C   UNL A   1      33.376  28.914  23.604  1.00  0.00     0.092 C 
BRANCH   5   7
ATOM      7  N   UNL A   1      33.040  26.832  24.899  1.00  0.00    -0.333 N 
ATOM      8  H   UNL A   1      33.585  26.709  25.752  1.00  0.00     0.347 HD
ATOM      9  H   UNL A   1      32.170  26.299  24.878  1.00  0.00     0.347 HD
BRANCH   7  10
ATOM     10  C   UNL A   1      33.841  26.323  23.775  1.00  0.00     0.257 C 
ATOM     11  C   UNL A   1      33.583  24.841  23.516  1.00  0.00     0.071 C 
ENDBRANCH   7  10
ENDBRANCH   5   7
BRANCH   5  12
ATOM     12  C   UNL A   1      31.090  28.405  24.466  1.00  0.00     0.095 C 
BRANCH  12  13
ATOM     13  C   UNL A   1      30.529  28.447  23.008  1.00  0.00     0.055 C 
ATOM     14  C   UNL A   1      30.763  27.253  22.081  1.00  0.00     0.020 C 
BRANCH  13  15
ATOM     15  S   UNL A   1      28.660  28.656  23.078  1.00  0.00    -0.123 SA
BRANCH  15  16
ATOM     16  C   UNL A   1      28.471  30.363  22.571  1.00  0.00     0.011 A 
ATOM     17  C   UNL A   1      28.167  30.628  21.239  1.00  0.00     0.035 A 
ATOM     18  C   UNL A   1      28.596  31.431  23.458  1.00  0.00     0.035 A 
ATOM     19  C   UNL A   1      28.052  31.949  20.842  1.00  0.00     0.112 A 
ATOM     20  C   UNL A   1      28.477  32.719  22.963  1.00  0.00     0.112 A 
ATOM     21  N   UNL A   1      28.215  33.002  21.671  1.00  0.00    -0.265 NA
ENDBRANCH  15  16
ENDBRANCH  13  15
ENDBRANCH  12  13
ENDBRANCH   5  12
ENDBRANCH   3   5
ENDBRANCH   2   3
ENDBRANCH   1   2
BRANCH   1  22
ATOM     22  C   UNL A   1      32.106  32.510  27.306  1.00  0.00     0.275 C 
BRANCH  22  23
ATOM     23  O   UNL A   1      32.881  33.747  27.238  1.00  0.00    -0.458 OA
BRANCH  23  24
ATOM     24  C   UNL A   1      33.211  34.218  28.453  1.00  0.00     0.338 C 
ATOM     25  O   UNL A   1      32.505  34.982  29.083  1.00  0.00    -0.246 OA
BRANCH  24  26
ATOM     26  C   UNL A   1      34.475  33.846  29.094  1.00  0.00     0.060 A 
ATOM     27  C   UNL A   1      34.321  32.967  30.184  1.00  0.00     0.016 A 
ATOM     28  C   UNL A   1      35.737  34.328  28.767  1.00  0.00     0.016 A 
ATOM     29  C   UNL A   1      35.398  32.514  30.906  1.00  0.00     0.010 A 
ATOM     30  C   UNL A   1      36.844  33.860  29.495  1.00  0.00     0.010 A 
ATOM     31  C   UNL A   1      36.671  32.929  30.536  1.00  0.00    -0.014 A 
BRANCH  31  32
ATOM     32  C   UNL A   1      37.784  32.230  31.195  1.00  0.00     0.031 A 
ATOM     33  C   UNL A   1      38.556  31.180  30.472  1.00  0.00     0.074 A 
ATOM     34  C   UNL A   1      38.204  32.723  32.374  1.00  0.00     0.049 A 
ATOM     35  N   UNL A   1      39.570  30.473  30.893  1.00  0.00    -0.248 NA
ATOM     36  C   UNL A   1      38.163  30.912  29.080  1.00  0.00     0.031 C 
ATOM     37  C   UNL A   1      37.621  33.886  33.051  1.00  0.00     0.029 A 
ATOM     38  N   UNL A   1      39.234  32.342  33.189  1.00  0.00    -0.354 N 
ATOM     39  C   UNL A   1      39.929  29.663  29.828  1.00  0.00     0.074 A 
ATOM     40  C   UNL A   1      39.036  29.976  28.732  1.00  0.00     0.031 C 
ATOM     41  C   UNL A   1      38.298  34.116  34.185  1.00  0.00     0.029 A 
ATOM     42  C   UNL A   1      39.315  33.084  34.341  1.00  0.00     0.049 A 
ATOM     43  H   UNL A   1      39.854  31.609  32.972  1.00  0.00     0.167 HD
ATOM     44  C   UNL A   1      40.909  28.730  29.791  1.00  0.00     0.037 A 
ATOM     45  C   UNL A   1      40.097  32.910  35.421  1.00  0.00     0.037 A 
ATOM     46  C   UNL A   1      41.767  28.430  30.908  1.00  0.00     0.049 A 
ATOM     47  C   UNL A   1      41.073  31.768  35.407  1.00  0.00     0.074 A 
ATOM     48  C   UNL A   1      42.735  27.449  31.019  1.00  0.00     0.029 A 
ATOM     49  N   UNL A   1      41.751  29.116  32.116  1.00  0.00    -0.354 N 
ATOM     50  N   UNL A   1      41.352  30.932  34.437  1.00  0.00    -0.248 NA
ATOM     51  C   UNL A   1      41.829  31.532  36.642  1.00  0.00     0.031 C 
ATOM     52  C   UNL A   1      43.273  27.514  32.310  1.00  0.00     0.029 A 
ATOM     53  C   UNL A   1      42.674  28.564  32.988  1.00  0.00     0.049 A 
ATOM     54  H   UNL A   1      41.169  29.883  32.321  1.00  0.00     0.167 HD
ATOM     55  C   UNL A   1      42.321  30.078  34.935  1.00  0.00     0.074 A 
ATOM     56  C   UNL A   1      42.598  30.511  36.291  1.00  0.00     0.031 C 
ATOM     57  C   UNL A   1      42.925  29.024  34.331  1.00  0.00     0.037 A 
BRANCH  44  58
ATOM     58  C   UNL A   1      41.036  27.918  28.540  1.00  0.00     0.064 A 
ATOM     59  C   UNL A   1      40.334  26.717  28.357  1.00  0.00     0.173 A 
ATOM     60  C   UNL A   1      41.878  28.352  27.505  1.00  0.00     0.173 A 
ATOM     61  F   UNL A   1      39.534  26.249  29.326  1.00  0.00    -0.203 F 
ATOM     62  C   UNL A   1      40.485  25.973  27.189  1.00  0.00     0.198 A 
ATOM     63  C   UNL A   1      42.011  27.616  26.331  1.00  0.00     0.198 A 
ATOM     64  F   UNL A   1      42.576  29.490  27.635  1.00  0.00    -0.203 F 
ATOM     65  F   UNL A   1      39.837  24.808  27.050  1.00  0.00    -0.200 F 
ATOM     66  C   UNL A   1      41.319  26.424  26.177  1.00  0.00     0.200 A 
ATOM     67  F   UNL A   1      42.816  28.056  25.354  1.00  0.00    -0.200 F 
ATOM     68  F   UNL A   1      41.465  25.705  25.055  1.00  0.00    -0.200 F 
ENDBRANCH  44  58
BRANCH  45  69
ATOM     69  C   UNL A   1      39.929  33.781  36.611  1.00  0.00     0.064 A 
ATOM     70  C   UNL A   1      38.990  33.484  37.606  1.00  0.00     0.173 A 
ATOM     71  C   UNL A   1      40.701  34.942  36.771  1.00  0.00     0.173 A 
ATOM     72  F   UNL A   1      38.211  32.398  37.489  1.00  0.00    -0.203 F 
ATOM     73  C   UNL A   1      38.819  34.322  38.707  1.00  0.00     0.198 A 
ATOM     74  C   UNL A   1      40.552  35.763  37.885  1.00  0.00     0.198 A 
ATOM     75  F   UNL A   1      41.614  35.277  35.845  1.00  0.00    -0.203 F 
ATOM     76  F   UNL A   1      37.882  34.039  39.622  1.00  0.00    -0.200 F 
ATOM     77  C   UNL A   1      39.604  35.456  38.848  1.00  0.00     0.200 A 
ATOM     78  F   UNL A   1      41.322  36.851  38.023  1.00  0.00    -0.200 F 
ATOM     79  F   UNL A   1      39.439  36.262  39.907  1.00  0.00    -0.200 F 
ENDBRANCH  45  69
BRANCH  57  80
ATOM     80  C   UNL A   1      43.956  28.290  35.133  1.00  0.00     0.064 A 
ATOM     81  C   UNL A   1      45.299  28.691  35.140  1.00  0.00     0.173 A 
ATOM     82  C   UNL A   1      43.588  27.195  35.928  1.00  0.00     0.173 A 
ATOM     83  F   UNL A   1      45.700  29.721  34.380  1.00  0.00    -0.203 F 
ATOM     84  C   UNL A   1      46.244  28.007  35.898  1.00  0.00     0.198 A 
ATOM     85  C   UNL A   1      44.529  26.530  36.706  1.00  0.00     0.198 A 
ATOM     86  F   UNL A   1      42.313  26.777  35.956  1.00  0.00    -0.203 F 
ATOM     87  F   UNL A   1      47.530  28.377  35.857  1.00  0.00    -0.200 F 
ATOM     88  C   UNL A   1      45.857  26.932  36.686  1.00  0.00     0.200 A 
ATOM     89  F   UNL A   1      44.153  25.499  37.475  1.00  0.00    -0.200 F 
ATOM     90  F   UNL A   1      46.766  26.278  37.421  1.00  0.00    -0.200 F 
ENDBRANCH  57  80
ENDBRANCH  31  32
ENDBRANCH  24  26
ENDBRANCH  23  24
ENDBRANCH  22  23
ENDBRANCH   1  22
TORSDOF 17
ENDMDL
MODEL 3
REMARK VINA RESULT:     -10.6      5.855     11.427
REMARK SMILES CC[NH2+][C@@](C)(C[C@@H](C)Sc1ccncc1)C(=O)OCCOC(=O)c1ccc(-c2c3nc(c(-c4c(F)c(F)c(F)c(F)c4F)c4ccc([nH]4)c(-c4c(F)c(F)c(F)c(F)c4F)c4nc(c(-c5c(F)c(F)c(F)c(F)c5F)c5ccc2[nH]5)C=C4)C=C3)cc1
REMARK SMILES IDX 19 1 18 2 16 3 17 4 4 5 5 6 3 7 2 10 1 11 6 12 7 13 8 14
REMARK SMILES IDX 9 15 10 16 11 17 15 18 12 19 14 20 13 21 20 22 21 23 22 24
REMARK SMILES IDX 23 25 24 26 25 27 86 28 26 29 85 30 27 31 28 32 29 33 79 34
REMARK SMILES IDX 30 35 84 36 78 37 80 38 31 39 83 40 77 41 76 42 32 44 64 45
REMARK SMILES IDX 44 46 63 47 45 48 48 49 62 50 81 51 46 52 47 53 61 55 82 56
REMARK SMILES IDX 49 57 33 58 34 59 42 60 35 61 36 62 40 63 43 64 37 65 38 66
REMARK SMILES IDX 41 67 39 68 65 69 66 70 74 71 67 72 68 73 72 74 75 75 69 76
REMARK SMILES IDX 70 77 73 78 71 79 50 80 51 81 59 82 52 83 53 84 57 85 60 86
REMARK SMILES IDX 54 87 55 88 58 89 56 90
REMARK H PARENT 3 8 3 9 80 43 48 54
REMARK Flexibility Score: inf
ROOT
ATOM      1  C   UNL A   1      31.919  30.625  26.183  1.00  0.00     0.274 C 
ENDROOT
BRANCH   1   2
ATOM      2  O   UNL A   1      32.547  29.353  26.512  1.00  0.00    -0.457 OA
BRANCH   2   3
ATOM      3  C   UNL A   1      31.691  28.346  26.867  1.00  0.00     0.367 C 
ATOM      4  O   UNL A   1      31.054  28.371  27.921  1.00  0.00    -0.245 OA
BRANCH   3   5
ATOM      5  C   UNL A   1      31.618  27.142  25.844  1.00  0.00     0.192 C 
ATOM      6  C   UNL A   1      33.037  27.125  25.200  1.00  0.00     0.092 C 
BRANCH   5   7
ATOM      7  N   UNL A   1      31.409  25.806  26.515  1.00  0.00    -0.333 N 
ATOM      8  H   UNL A   1      31.495  25.945  27.522  1.00  0.00     0.347 HD
ATOM      9  H   UNL A   1      30.487  25.488  26.214  1.00  0.00     0.347 HD
BRANCH   7  10
ATOM     10  C   UNL A   1      32.341  24.734  26.128  1.00  0.00     0.257 C 
ATOM     11  C   UNL A   1      31.849  23.360  26.577  1.00  0.00     0.071 C 
ENDBRANCH   7  10
ENDBRANCH   5   7
BRANCH   5  12
ATOM     12  C   UNL A   1      30.615  27.316  24.631  1.00  0.00     0.095 C 
BRANCH  12  13
ATOM     13  C   UNL A   1      30.480  28.627  23.791  1.00  0.00     0.055 C 
ATOM     14  C   UNL A   1      31.513  28.931  22.705  1.00  0.00     0.020 C 
BRANCH  13  15
ATOM     15  S   UNL A   1      28.821  28.615  22.903  1.00  0.00    -0.123 SA
BRANCH  15  16
ATOM     16  C   UNL A   1      28.619  30.347  22.497  1.00  0.00     0.011 A 
ATOM     17  C   UNL A   1      28.919  31.295  23.470  1.00  0.00     0.035 A 
ATOM     18  C   UNL A   1      28.193  30.782  21.242  1.00  0.00     0.035 A 
ATOM     19  C   UNL A   1      28.733  32.631  23.164  1.00  0.00     0.112 A 
ATOM     20  C   UNL A   1      28.023  32.141  21.037  1.00  0.00     0.112 A 
ATOM     21  N   UNL A   1      28.276  33.077  21.974  1.00  0.00    -0.265 NA
ENDBRANCH  15  16
ENDBRANCH  13  15
ENDBRANCH  12  13
ENDBRANCH   5  12
ENDBRANCH   3   5
ENDBRANCH   2   3
ENDBRANCH   1   2
BRANCH   1  22
ATOM     22  C   UNL A   1      32.121  31.700  27.289  1.00  0.00     0.275 C 
BRANCH  22  23
ATOM     23  O   UNL A   1      32.777  32.944  26.890  1.00  0.00    -0.458 OA
BRANCH  23  24
ATOM     24  C   UNL A   1      33.208  33.661  27.942  1.00  0.00     0.338 C 
ATOM     25  O   UNL A   1      32.604  34.619  28.384  1.00  0.00    -0.246 OA
BRANCH  24  26
ATOM     26  C   UNL A   1      34.467  33.336  28.618  1.00  0.00     0.060 A 
ATOM     27  C   UNL A   1      34.333  32.362  29.627  1.00  0.00     0.016 A 
ATOM     28  C   UNL A   1      35.700  33.938  28.397  1.00  0.00     0.016 A 
ATOM     29  C   UNL A   1      35.409  31.934  30.367  1.00  0.00     0.010 A 
ATOM     30  C   UNL A   1      36.805  33.499  29.145  1.00  0.00     0.010 A 
ATOM     31  C   UNL A   1      36.660  32.475  30.099  1.00  0.00    -0.014 A 
BRANCH  31  32
ATOM     32  C   UNL A   1      37.793  31.812  30.759  1.00  0.00     0.031 A 
ATOM     33  C   UNL A   1      38.092  32.068  32.197  1.00  0.00     0.074 A 
ATOM     34  C   UNL A   1      38.400  30.820  30.083  1.00  0.00     0.049 A 
ATOM     35  N   UNL A   1      39.041  31.564  32.939  1.00  0.00    -0.248 NA
ATOM     36  C   UNL A   1      37.186  32.984  32.906  1.00  0.00     0.031 C 
ATOM     37  C   UNL A   1      38.026  30.372  28.737  1.00  0.00     0.029 A 
ATOM     38  N   UNL A   1      39.423  29.987  30.440  1.00  0.00    -0.354 N 
ATOM     39  C   UNL A   1      38.860  32.110  34.199  1.00  0.00     0.074 A 
ATOM     40  C   UNL A   1      37.699  32.973  34.129  1.00  0.00     0.031 C 
ATOM     41  C   UNL A   1      38.818  29.352  28.379  1.00  0.00     0.029 A 
ATOM     42  C   UNL A   1      39.788  29.118  29.442  1.00  0.00     0.049 A 
ATOM     43  H   UNL A   1      39.856  30.007  31.324  1.00  0.00     0.167 HD
ATOM     44  C   UNL A   1      39.618  31.913  35.303  1.00  0.00     0.037 A 
ATOM     45  C   UNL A   1      40.826  28.265  29.382  1.00  0.00     0.037 A 
ATOM     46  C   UNL A   1      40.779  31.062  35.332  1.00  0.00     0.049 A 
ATOM     47  C   UNL A   1      41.738  28.181  30.573  1.00  0.00     0.074 A 
ATOM     48  C   UNL A   1      41.674  30.851  36.364  1.00  0.00     0.029 A 
ATOM     49  N   UNL A   1      41.204  30.279  34.266  1.00  0.00    -0.354 N 
ATOM     50  N   UNL A   1      41.630  28.771  31.739  1.00  0.00    -0.248 NA
ATOM     51  C   UNL A   1      42.926  27.331  30.435  1.00  0.00     0.031 C 
ATOM     52  C   UNL A   1      42.667  29.976  35.906  1.00  0.00     0.029 A 
ATOM     53  C   UNL A   1      42.364  29.604  34.606  1.00  0.00     0.049 A 
ATOM     54  H   UNL A   1      40.747  30.214  33.396  1.00  0.00     0.167 HD
ATOM     55  C   UNL A   1      42.725  28.358  32.479  1.00  0.00     0.074 A 
ATOM     56  C   UNL A   1      43.476  27.448  31.636  1.00  0.00     0.031 C 
ATOM     57  C   UNL A   1      43.085  28.703  33.740  1.00  0.00     0.037 A 
BRANCH  44  58
ATOM     58  C   UNL A   1      39.263  32.698  36.527  1.00  0.00     0.064 A 
ATOM     59  C   UNL A   1      39.835  33.950  36.801  1.00  0.00     0.173 A 
ATOM     60  C   UNL A   1      38.332  32.185  37.443  1.00  0.00     0.173 A 
ATOM     61  F   UNL A   1      40.747  34.472  35.968  1.00  0.00    -0.203 F 
ATOM     62  C   UNL A   1      39.499  34.650  37.957  1.00  0.00     0.198 A 
ATOM     63  C   UNL A   1      37.984  32.897  38.588  1.00  0.00     0.198 A 
ATOM     64  F   UNL A   1      37.763  30.990  37.229  1.00  0.00    -0.203 F 
ATOM     65  F   UNL A   1      40.086  35.825  38.222  1.00  0.00    -0.200 F 
ATOM     66  C   UNL A   1      38.571  34.126  38.847  1.00  0.00     0.200 A 
ATOM     67  F   UNL A   1      37.086  32.389  39.443  1.00  0.00    -0.200 F 
ATOM     68  F   UNL A   1      38.252  34.800  39.960  1.00  0.00    -0.200 F 
ENDBRANCH  44  58
BRANCH  45  69
ATOM     69  C   UNL A   1      41.090  27.498  28.139  1.00  0.00     0.064 A 
ATOM     70  C   UNL A   1      40.533  26.230  27.931  1.00  0.00     0.173 A 
ATOM     71  C   UNL A   1      41.923  28.016  27.134  1.00  0.00     0.173 A 
ATOM     72  F   UNL A   1      39.750  25.681  28.870  1.00  0.00    -0.203 F 
ATOM     73  C   UNL A   1      40.809  25.505  26.773  1.00  0.00     0.198 A 
ATOM     74  C   UNL A   1      42.174  27.305  25.965  1.00  0.00     0.198 A 
ATOM     75  F   UNL A   1      42.486  29.225  27.284  1.00  0.00    -0.203 F 
ATOM     76  F   UNL A   1      40.300  24.275  26.618  1.00  0.00    -0.200 F 
ATOM     77  C   UNL A   1      41.624  26.045  25.789  1.00  0.00     0.200 A 
ATOM     78  F   UNL A   1      42.952  27.837  25.012  1.00  0.00    -0.200 F 
ATOM     79  F   UNL A   1      41.889  25.346  24.676  1.00  0.00    -0.200 F 
ENDBRANCH  45  69
BRANCH  57  80
ATOM     80  C   UNL A   1      44.332  28.073  34.280  1.00  0.00     0.064 A 
ATOM     81  C   UNL A   1      45.576  28.711  34.179  1.00  0.00     0.173 A 
ATOM     82  C   UNL A   1      44.274  26.834  34.933  1.00  0.00     0.173 A 
ATOM     83  F   UNL A   1      45.682  29.888  33.545  1.00  0.00    -0.203 F 
ATOM     84  C   UNL A   1      46.725  28.118  34.694  1.00  0.00     0.198 A 
ATOM     85  C   UNL A   1      45.420  26.257  35.472  1.00  0.00     0.198 A 
ATOM     86  F   UNL A   1      43.105  26.188  35.057  1.00  0.00    -0.203 F 
ATOM     87  F   UNL A   1      47.911  28.722  34.548  1.00  0.00    -0.200 F 
ATOM     88  C   UNL A   1      46.644  26.896  35.347  1.00  0.00     0.200 A 
ATOM     89  F   UNL A   1      45.339  25.082  36.111  1.00  0.00    -0.200 F 
ATOM     90  F   UNL A   1      47.750  26.330  35.848  1.00  0.00    -0.200 F 
ENDBRANCH  57  80
ENDBRANCH  31  32
ENDBRANCH  24  26
ENDBRANCH  23  24
ENDBRANCH  22  23
ENDBRANCH   1  22
TORSDOF 17
ENDMDL
