MODEL 1
REMARK VINA RESULT:     -11.0      0.000      0.000
REMARK SMILES Cc1nc2sc3c(c2c2nc(CCC(=O)OCCOC(=O)c4ccc(-c5c6nc(c(-c7c(F)c(F)c(F)c(F)c7F)c7ccc([nH]7)c(-c7c(F)c(F)c(F)c(F)c7F)c7nc(c(-c8c(F)c(F)c(F)c(F)c8F)c8ccc5[nH]8)C=C7)C=C6)cc4)nn12)[C@@H](C)CCC3
REMARK SMILES IDX 17 1 16 2 14 3 15 4 13 5 12 6 11 7 1 8 2 9 3 10 86 11 4 12
REMARK SMILES IDX 9 13 85 14 5 15 8 16 10 17 6 18 7 19 91 20 87 21 90 22 88 23
REMARK SMILES IDX 89 24 18 25 19 26 20 27 21 28 22 29 23 30 84 31 24 32 83 33
REMARK SMILES IDX 25 34 26 35 27 36 77 37 28 38 82 39 76 40 78 41 29 42 81 43
REMARK SMILES IDX 75 44 74 45 30 47 62 48 42 49 61 50 43 51 46 52 60 53 79 54
REMARK SMILES IDX 44 55 45 56 59 58 80 59 47 60 31 61 32 62 40 63 33 64 34 65
REMARK SMILES IDX 38 66 41 67 35 68 36 69 39 70 37 71 63 72 64 73 72 74 65 75
REMARK SMILES IDX 66 76 70 77 73 78 67 79 68 80 71 81 69 82 48 83 49 84 57 85
REMARK SMILES IDX 50 86 51 87 55 88 58 89 52 90 53 91 56 92 54 93
REMARK H PARENT 78 46 46 57
REMARK Flexibility Score: inf
ROOT
ATOM      1  C   UNL A   1      43.709  19.943  25.764  1.00  0.00     0.274 C 
ENDROOT
BRANCH   1   2
ATOM      2  O   UNL A   1      44.112  20.478  24.490  1.00  0.00    -0.462 OA
BRANCH   2   3
ATOM      3  C   UNL A   1      45.027  21.481  24.512  1.00  0.00     0.306 C 
ATOM      4  O   UNL A   1      46.099  21.447  25.106  1.00  0.00    -0.252 OA
BRANCH   3   5
ATOM      5  C   UNL A   1      44.542  22.694  23.763  1.00  0.00     0.131 C 
BRANCH   5   6
ATOM      6  C   UNL A   1      43.975  23.778  24.666  1.00  0.00     0.091 C 
BRANCH   6   7
ATOM      7  C   UNL A   1      45.005  24.413  25.537  1.00  0.00     0.152 A 
ATOM      8  C   UNL A   1      48.792  25.954  24.937  1.00  0.00     0.090 C 
ATOM      9  C   UNL A   1      48.044  25.901  26.231  1.00  0.00     0.131 A 
ATOM     10  N   UNL A   1      48.540  26.365  27.350  1.00  0.00    -0.222 NA
ATOM     11  N   UNL A   1      46.770  25.331  26.150  1.00  0.00    -0.199 N 
ATOM     12  C   UNL A   1      47.750  26.210  28.464  1.00  0.00     0.129 A 
ATOM     13  C   UNL A   1      45.969  25.163  27.245  1.00  0.00     0.168 A 
ATOM     14  N   UNL A   1      46.176  24.845  25.038  1.00  0.00    -0.150 NA
ATOM     15  S   UNL A   1      48.258  26.749  30.004  1.00  0.00    -0.120 S 
ATOM     16  C   UNL A   1      46.498  25.615  28.549  1.00  0.00     0.060 A 
ATOM     17  N   UNL A   1      44.847  24.588  26.892  1.00  0.00    -0.211 NA
ATOM     18  C   UNL A   1      46.855  26.136  30.755  1.00  0.00     0.011 A 
ATOM     19  C   UNL A   1      45.994  25.502  29.875  1.00  0.00    -0.018 A 
ATOM     20  C   UNL A   1      46.633  26.250  32.229  1.00  0.00     0.047 C 
ATOM     21  C   UNL A   1      44.744  24.799  30.344  1.00  0.00     0.018 C 
ATOM     22  C   UNL A   1      45.133  26.152  32.525  1.00  0.00     0.006 C 
ATOM     23  C   UNL A   1      44.804  23.311  29.990  1.00  0.00     0.013 C 
ATOM     24  C   UNL A   1      44.532  24.901  31.881  1.00  0.00     0.008 C 
ENDBRANCH   6   7
ENDBRANCH   5   6
ENDBRANCH   3   5
ENDBRANCH   2   3
ENDBRANCH   1   2
BRANCH   1  25
ATOM     25  C   UNL A   1      42.216  20.085  26.036  1.00  0.00     0.275 C 
BRANCH  25  26
ATOM     26  O   UNL A   1      41.732  21.405  25.808  1.00  0.00    -0.458 OA
BRANCH  26  27
ATOM     27  C   UNL A   1      40.566  21.661  26.440  1.00  0.00     0.338 C 
ATOM     28  O   UNL A   1      39.525  21.034  26.411  1.00  0.00    -0.246 OA
BRANCH  27  29
ATOM     29  C   UNL A   1      40.655  22.965  27.061  1.00  0.00     0.060 A 
ATOM     30  C   UNL A   1      39.969  24.045  26.503  1.00  0.00     0.016 A 
ATOM     31  C   UNL A   1      41.568  23.105  28.108  1.00  0.00     0.016 A 
ATOM     32  C   UNL A   1      40.208  25.307  27.014  1.00  0.00     0.010 A 
ATOM     33  C   UNL A   1      41.809  24.361  28.609  1.00  0.00     0.010 A 
ATOM     34  C   UNL A   1      41.139  25.455  28.050  1.00  0.00    -0.014 A 
BRANCH  34  35
ATOM     35  C   UNL A   1      41.331  26.768  28.646  1.00  0.00     0.031 A 
ATOM     36  C   UNL A   1      42.527  27.516  28.173  1.00  0.00     0.074 A 
ATOM     37  C   UNL A   1      40.355  27.364  29.357  1.00  0.00     0.049 A 
ATOM     38  N   UNL A   1      43.399  28.162  28.877  1.00  0.00    -0.248 NA
ATOM     39  C   UNL A   1      42.800  27.527  26.723  1.00  0.00     0.031 C 
ATOM     40  C   UNL A   1      38.996  26.855  29.564  1.00  0.00     0.029 A 
ATOM     41  N   UNL A   1      40.317  28.610  29.916  1.00  0.00    -0.354 N 
ATOM     42  C   UNL A   1      44.240  28.784  27.958  1.00  0.00     0.074 A 
ATOM     43  C   UNL A   1      43.891  28.286  26.654  1.00  0.00     0.031 C 
ATOM     44  C   UNL A   1      38.212  27.863  30.000  1.00  0.00     0.029 A 
ATOM     45  C   UNL A   1      39.037  29.037  30.225  1.00  0.00     0.049 A 
ATOM     46  H   UNL A   1      41.123  29.152  30.081  1.00  0.00     0.167 HD
ATOM     47  C   UNL A   1      45.020  29.842  28.299  1.00  0.00     0.037 A 
ATOM     48  C   UNL A   1      38.655  30.282  30.585  1.00  0.00     0.037 A 
ATOM     49  C   UNL A   1      45.151  30.012  29.714  1.00  0.00     0.049 A 
ATOM     50  C   UNL A   1      39.835  31.020  31.097  1.00  0.00     0.074 A 
ATOM     51  C   UNL A   1      45.999  29.576  30.706  1.00  0.00     0.029 A 
ATOM     52  N   UNL A   1      44.062  30.569  30.322  1.00  0.00    -0.354 N 
ATOM     53  N   UNL A   1      40.483  30.699  32.183  1.00  0.00    -0.248 NA
ATOM     54  C   UNL A   1      40.489  32.017  30.252  1.00  0.00     0.031 C 
ATOM     55  C   UNL A   1      45.323  29.790  31.945  1.00  0.00     0.029 A 
ATOM     56  C   UNL A   1      44.077  30.343  31.674  1.00  0.00     0.049 A 
ATOM     57  H   UNL A   1      43.357  31.068  29.851  1.00  0.00     0.167 HD
ATOM     58  C   UNL A   1      41.770  31.138  31.953  1.00  0.00     0.074 A 
ATOM     59  C   UNL A   1      41.676  32.089  30.858  1.00  0.00     0.031 C 
ATOM     60  C   UNL A   1      42.844  30.443  32.417  1.00  0.00     0.037 A 
BRANCH  47  61
ATOM     61  C   UNL A   1      45.337  30.966  27.355  1.00  0.00     0.064 A 
ATOM     62  C   UNL A   1      46.669  31.351  27.131  1.00  0.00     0.173 A 
ATOM     63  C   UNL A   1      44.344  31.860  26.899  1.00  0.00     0.173 A 
ATOM     64  F   UNL A   1      47.681  30.590  27.573  1.00  0.00    -0.203 F 
ATOM     65  C   UNL A   1      46.983  32.559  26.503  1.00  0.00     0.198 A 
ATOM     66  C   UNL A   1      44.660  33.039  26.230  1.00  0.00     0.198 A 
ATOM     67  F   UNL A   1      43.047  31.665  27.182  1.00  0.00    -0.203 F 
ATOM     68  F   UNL A   1      48.265  32.934  26.382  1.00  0.00    -0.200 F 
ATOM     69  C   UNL A   1      45.980  33.399  26.049  1.00  0.00     0.200 A 
ATOM     70  F   UNL A   1      43.675  33.853  25.824  1.00  0.00    -0.200 F 
ATOM     71  F   UNL A   1      46.281  34.573  25.478  1.00  0.00    -0.200 F 
ENDBRANCH  47  61
BRANCH  48  72
ATOM     72  C   UNL A   1      37.348  30.935  30.353  1.00  0.00     0.064 A 
ATOM     73  C   UNL A   1      36.540  31.336  31.428  1.00  0.00     0.173 A 
ATOM     74  C   UNL A   1      36.969  31.393  29.076  1.00  0.00     0.173 A 
ATOM     75  F   UNL A   1      36.858  30.980  32.681  1.00  0.00    -0.203 F 
ATOM     76  C   UNL A   1      35.429  32.161  31.238  1.00  0.00     0.198 A 
ATOM     77  C   UNL A   1      35.849  32.200  28.885  1.00  0.00     0.198 A 
ATOM     78  F   UNL A   1      37.726  31.139  27.998  1.00  0.00    -0.203 F 
ATOM     79  F   UNL A   1      34.720  32.576  32.296  1.00  0.00    -0.200 F 
ATOM     80  C   UNL A   1      35.087  32.597  29.969  1.00  0.00     0.200 A 
ATOM     81  F   UNL A   1      35.546  32.639  27.655  1.00  0.00    -0.200 F 
ATOM     82  F   UNL A   1      34.051  33.428  29.793  1.00  0.00    -0.200 F 
ENDBRANCH  48  72
BRANCH  60  83
ATOM     83  C   UNL A   1      42.641  29.572  33.612  1.00  0.00     0.064 A 
ATOM     84  C   UNL A   1      42.259  28.224  33.537  1.00  0.00     0.173 A 
ATOM     85  C   UNL A   1      42.886  30.112  34.880  1.00  0.00     0.173 A 
ATOM     86  F   UNL A   1      42.087  27.624  32.353  1.00  0.00    -0.203 F 
ATOM     87  C   UNL A   1      42.078  27.465  34.693  1.00  0.00     0.198 A 
ATOM     88  C   UNL A   1      42.738  29.342  36.030  1.00  0.00     0.198 A 
ATOM     89  F   UNL A   1      43.297  31.383  35.002  1.00  0.00    -0.203 F 
ATOM     90  F   UNL A   1      41.686  26.186  34.600  1.00  0.00    -0.200 F 
ATOM     91  C   UNL A   1      42.321  28.024  35.936  1.00  0.00     0.200 A 
ATOM     92  F   UNL A   1      43.012  29.876  37.229  1.00  0.00    -0.200 F 
ATOM     93  F   UNL A   1      42.170  27.288  37.047  1.00  0.00    -0.200 F 
ENDBRANCH  60  83
ENDBRANCH  34  35
ENDBRANCH  27  29
ENDBRANCH  26  27
ENDBRANCH  25  26
ENDBRANCH   1  25
TORSDOF 13
ENDMDL
MODEL 2
REMARK VINA RESULT:     -10.9      4.061     10.442
REMARK SMILES Cc1nc2sc3c(c2c2nc(CCC(=O)OCCOC(=O)c4ccc(-c5c6nc(c(-c7c(F)c(F)c(F)c(F)c7F)c7ccc([nH]7)c(-c7c(F)c(F)c(F)c(F)c7F)c7nc(c(-c8c(F)c(F)c(F)c(F)c8F)c8ccc5[nH]8)C=C7)C=C6)cc4)nn12)[C@@H](C)CCC3
REMARK SMILES IDX 17 1 16 2 14 3 15 4 13 5 12 6 11 7 1 8 2 9 3 10 86 11 4 12
REMARK SMILES IDX 9 13 85 14 5 15 8 16 10 17 6 18 7 19 91 20 87 21 90 22 88 23
REMARK SMILES IDX 89 24 18 25 19 26 20 27 21 28 22 29 23 30 84 31 24 32 83 33
REMARK SMILES IDX 25 34 26 35 27 36 77 37 28 38 82 39 76 40 78 41 29 42 81 43
REMARK SMILES IDX 75 44 74 45 30 47 62 48 42 49 61 50 43 51 46 52 60 53 79 54
REMARK SMILES IDX 44 55 45 56 59 58 80 59 47 60 31 61 32 62 40 63 33 64 34 65
REMARK SMILES IDX 38 66 41 67 35 68 36 69 39 70 37 71 63 72 64 73 72 74 65 75
REMARK SMILES IDX 66 76 70 77 73 78 67 79 68 80 71 81 69 82 48 83 49 84 57 85
REMARK SMILES IDX 50 86 51 87 55 88 58 89 52 90 53 91 56 92 54 93
REMARK H PARENT 78 46 46 57
REMARK Flexibility Score: inf
ROOT
ATOM      1  C   UNL A   1      34.720  33.989  29.934  1.00  0.00     0.274 C 
ENDROOT
BRANCH   1   2
ATOM      2  O   UNL A   1      33.944  33.757  31.124  1.00  0.00    -0.462 OA
BRANCH   2   3
ATOM      3  C   UNL A   1      34.478  32.916  32.045  1.00  0.00     0.306 C 
ATOM      4  O   UNL A   1      34.253  32.951  33.250  1.00  0.00    -0.252 OA
BRANCH   3   5
ATOM      5  C   UNL A   1      35.451  31.951  31.420  1.00  0.00     0.131 C 
BRANCH   5   6
ATOM      6  C   UNL A   1      36.162  31.065  32.431  1.00  0.00     0.091 C 
BRANCH   6   7
ATOM      7  C   UNL A   1      37.373  31.705  33.020  1.00  0.00     0.152 A 
ATOM      8  C   UNL A   1      38.612  32.646  36.848  1.00  0.00     0.090 C 
ATOM      9  C   UNL A   1      39.366  32.892  35.579  1.00  0.00     0.131 A 
ATOM     10  N   UNL A   1      40.549  33.452  35.561  1.00  0.00    -0.222 NA
ATOM     11  N   UNL A   1      38.714  32.466  34.418  1.00  0.00    -0.199 N 
ATOM     12  C   UNL A   1      41.098  33.649  34.316  1.00  0.00     0.129 A 
ATOM     13  C   UNL A   1      39.240  32.654  33.169  1.00  0.00     0.168 A 
ATOM     14  N   UNL A   1      37.507  31.867  34.348  1.00  0.00    -0.150 NA
ATOM     15  S   UNL A   1      42.630  34.380  34.118  1.00  0.00    -0.120 S 
ATOM     16  C   UNL A   1      40.549  33.334  33.080  1.00  0.00     0.060 A 
ATOM     17  N   UNL A   1      38.419  32.184  32.265  1.00  0.00    -0.211 NA
ATOM     18  C   UNL A   1      42.511  34.324  32.418  1.00  0.00     0.011 A 
ATOM     19  C   UNL A   1      41.320  33.778  31.969  1.00  0.00    -0.018 A 
ATOM     20  C   UNL A   1      43.587  34.864  31.533  1.00  0.00     0.047 C 
ATOM     21  C   UNL A   1      40.966  33.728  30.503  1.00  0.00     0.018 C 
ATOM     22  C   UNL A   1      43.495  34.196  30.157  1.00  0.00     0.006 C 
ATOM     23  C   UNL A   1      39.689  34.529  30.236  1.00  0.00     0.013 C 
ATOM     24  C   UNL A   1      42.078  34.313  29.589  1.00  0.00     0.008 C 
ENDBRANCH   6   7
ENDBRANCH   5   6
ENDBRANCH   3   5
ENDBRANCH   2   3
ENDBRANCH   1   2
BRANCH   1  25
ATOM     25  C   UNL A   1      34.027  33.523  28.658  1.00  0.00     0.275 C 
BRANCH  25  26
ATOM     26  O   UNL A   1      34.910  32.866  27.754  1.00  0.00    -0.458 OA
BRANCH  26  27
ATOM     27  C   UNL A   1      34.835  31.519  27.821  1.00  0.00     0.338 C 
ATOM     28  O   UNL A   1      33.851  30.809  27.886  1.00  0.00    -0.246 OA
BRANCH  27  29
ATOM     29  C   UNL A   1      36.170  30.991  28.002  1.00  0.00     0.060 A 
ATOM     30  C   UNL A   1      36.392  29.618  27.887  1.00  0.00     0.016 A 
ATOM     31  C   UNL A   1      37.147  31.883  28.449  1.00  0.00     0.016 A 
ATOM     32  C   UNL A   1      37.637  29.125  28.232  1.00  0.00     0.010 A 
ATOM     33  C   UNL A   1      38.380  31.390  28.798  1.00  0.00     0.010 A 
ATOM     34  C   UNL A   1      38.613  30.013  28.701  1.00  0.00    -0.014 A 
BRANCH  34  35
ATOM     35  C   UNL A   1      39.948  29.510  28.985  1.00  0.00     0.031 A 
ATOM     36  C   UNL A   1      40.286  29.375  30.427  1.00  0.00     0.074 A 
ATOM     37  C   UNL A   1      40.708  28.956  28.022  1.00  0.00     0.049 A 
ATOM     38  N   UNL A   1      41.369  29.739  31.035  1.00  0.00    -0.248 NA
ATOM     39  C   UNL A   1      39.274  28.773  31.316  1.00  0.00     0.031 C 
ATOM     40  C   UNL A   1      40.306  28.707  26.633  1.00  0.00     0.029 A 
ATOM     41  N   UNL A   1      41.934  28.362  28.109  1.00  0.00    -0.354 N 
ATOM     42  C   UNL A   1      41.240  29.280  32.343  1.00  0.00     0.074 A 
ATOM     43  C   UNL A   1      39.900  28.781  32.491  1.00  0.00     0.031 C 
ATOM     44  C   UNL A   1      41.166  27.829  26.078  1.00  0.00     0.029 A 
ATOM     45  C   UNL A   1      42.239  27.562  27.021  1.00  0.00     0.049 A 
ATOM     46  H   UNL A   1      42.543  28.490  28.873  1.00  0.00     0.167 HD
ATOM     47  C   UNL A   1      42.315  29.128  33.160  1.00  0.00     0.037 A 
ATOM     48  C   UNL A   1      43.265  26.689  26.909  1.00  0.00     0.037 A 
ATOM     49  C   UNL A   1      43.486  29.797  32.681  1.00  0.00     0.049 A 
ATOM     50  C   UNL A   1      44.316  27.052  27.889  1.00  0.00     0.074 A 
ATOM     51  C   UNL A   1      44.061  31.040  32.815  1.00  0.00     0.029 A 
ATOM     52  N   UNL A   1      44.126  29.158  31.658  1.00  0.00    -0.354 N 
ATOM     53  N   UNL A   1      45.004  28.160  27.847  1.00  0.00    -0.248 NA
ATOM     54  C   UNL A   1      44.459  26.275  29.119  1.00  0.00     0.031 C 
ATOM     55  C   UNL A   1      45.002  31.171  31.750  1.00  0.00     0.029 A 
ATOM     56  C   UNL A   1      44.970  30.008  30.991  1.00  0.00     0.049 A 
ATOM     57  H   UNL A   1      43.997  28.210  31.428  1.00  0.00     0.167 HD
ATOM     58  C   UNL A   1      45.331  28.407  29.163  1.00  0.00     0.074 A 
ATOM     59  C   UNL A   1      45.141  27.148  29.864  1.00  0.00     0.031 C 
ATOM     60  C   UNL A   1      45.384  29.677  29.649  1.00  0.00     0.037 A 
BRANCH  47  61
ATOM     61  C   UNL A   1      42.415  28.040  34.189  1.00  0.00     0.064 A 
ATOM     62  C   UNL A   1      43.010  26.809  33.865  1.00  0.00     0.173 A 
ATOM     63  C   UNL A   1      41.675  28.079  35.391  1.00  0.00     0.173 A 
ATOM     64  F   UNL A   1      43.691  26.662  32.720  1.00  0.00    -0.203 F 
ATOM     65  C   UNL A   1      42.860  25.688  34.687  1.00  0.00     0.198 A 
ATOM     66  C   UNL A   1      41.569  26.974  36.231  1.00  0.00     0.198 A 
ATOM     67  F   UNL A   1      40.951  29.155  35.729  1.00  0.00    -0.203 F 
ATOM     68  F   UNL A   1      43.370  24.509  34.305  1.00  0.00    -0.200 F 
ATOM     69  C   UNL A   1      42.145  25.773  35.870  1.00  0.00     0.200 A 
ATOM     70  F   UNL A   1      40.849  27.066  37.358  1.00  0.00    -0.200 F 
ATOM     71  F   UNL A   1      41.972  24.689  36.640  1.00  0.00    -0.200 F 
ENDBRANCH  47  61
BRANCH  48  72
ATOM     72  C   UNL A   1      43.317  25.444  26.111  1.00  0.00     0.064 A 
ATOM     73  C   UNL A   1      44.388  25.188  25.243  1.00  0.00     0.173 A 
ATOM     74  C   UNL A   1      42.436  24.373  26.357  1.00  0.00     0.173 A 
ATOM     75  F   UNL A   1      45.297  26.141  24.992  1.00  0.00    -0.203 F 
ATOM     76  C   UNL A   1      44.579  23.928  24.670  1.00  0.00     0.198 A 
ATOM     77  C   UNL A   1      42.615  23.122  25.769  1.00  0.00     0.198 A 
ATOM     78  F   UNL A   1      41.434  24.491  27.241  1.00  0.00    -0.203 F 
ATOM     79  F   UNL A   1      45.650  23.703  23.897  1.00  0.00    -0.200 F 
ATOM     80  C   UNL A   1      43.696  22.895  24.937  1.00  0.00     0.200 A 
ATOM     81  F   UNL A   1      41.770  22.122  26.059  1.00  0.00    -0.200 F 
ATOM     82  F   UNL A   1      43.906  21.674  24.426  1.00  0.00    -0.200 F 
ENDBRANCH  48  72
BRANCH  60  83
ATOM     83  C   UNL A   1      45.652  30.778  28.677  1.00  0.00     0.064 A 
ATOM     84  C   UNL A   1      44.645  31.519  28.041  1.00  0.00     0.173 A 
ATOM     85  C   UNL A   1      46.983  31.126  28.414  1.00  0.00     0.173 A 
ATOM     86  F   UNL A   1      43.353  31.292  28.310  1.00  0.00    -0.203 F 
ATOM     87  C   UNL A   1      44.961  32.532  27.137  1.00  0.00     0.198 A 
ATOM     88  C   UNL A   1      47.296  32.160  27.537  1.00  0.00     0.198 A 
ATOM     89  F   UNL A   1      47.982  30.478  29.032  1.00  0.00    -0.203 F 
ATOM     90  F   UNL A   1      43.983  33.209  26.519  1.00  0.00    -0.200 F 
ATOM     91  C   UNL A   1      46.286  32.853  26.889  1.00  0.00     0.200 A 
ATOM     92  F   UNL A   1      48.577  32.493  27.329  1.00  0.00    -0.200 F 
ATOM     93  F   UNL A   1      46.590  33.842  26.037  1.00  0.00    -0.200 F 
ENDBRANCH  60  83
ENDBRANCH  34  35
ENDBRANCH  27  29
ENDBRANCH  26  27
ENDBRANCH  25  26
ENDBRANCH   1  25
TORSDOF 13
ENDMDL
MODEL 3
REMARK VINA RESULT:     -10.9      4.140     10.564
REMARK SMILES Cc1nc2sc3c(c2c2nc(CCC(=O)OCCOC(=O)c4ccc(-c5c6nc(c(-c7c(F)c(F)c(F)c(F)c7F)c7ccc([nH]7)c(-c7c(F)c(F)c(F)c(F)c7F)c7nc(c(-c8c(F)c(F)c(F)c(F)c8F)c8ccc5[nH]8)C=C7)C=C6)cc4)nn12)[C@@H](C)CCC3
REMARK SMILES IDX 17 1 16 2 14 3 15 4 13 5 12 6 11 7 1 8 2 9 3 10 86 11 4 12
REMARK SMILES IDX 9 13 85 14 5 15 8 16 10 17 6 18 7 19 91 20 87 21 90 22 88 23
REMARK SMILES IDX 89 24 18 25 19 26 20 27 21 28 22 29 23 30 84 31 24 32 83 33
REMARK SMILES IDX 25 34 26 35 27 36 77 37 28 38 82 39 76 40 78 41 29 42 81 43
REMARK SMILES IDX 75 44 74 45 30 47 62 48 42 49 61 50 43 51 46 52 60 53 79 54
REMARK SMILES IDX 44 55 45 56 59 58 80 59 47 60 31 61 32 62 40 63 33 64 34 65
REMARK SMILES IDX 38 66 41 67 35 68 36 69 39 70 37 71 63 72 64 73 72 74 65 75
REMARK SMILES IDX 66 76 70 77 73 78 67 79 68 80 71 81 69 82 48 83 49 84 57 85
REMARK SMILES IDX 50 86 51 87 55 88 58 89 52 90 53 91 56 92 54 93
REMARK H PARENT 78 46 46 57
REMARK Flexibility Score: inf
ROOT
ATOM      1  C   UNL A   1      34.489  34.300  29.853  1.00  0.00     0.274 C 
ENDROOT
BRANCH   1   2
ATOM      2  O   UNL A   1      33.653  34.130  31.012  1.00  0.00    -0.462 OA
BRANCH   2   3
ATOM      3  C   UNL A   1      34.096  33.265  31.960  1.00  0.00     0.306 C 
ATOM      4  O   UNL A   1      33.735  33.256  33.132  1.00  0.00    -0.252 OA
BRANCH   3   5
ATOM      5  C   UNL A   1      35.152  32.338  31.419  1.00  0.00     0.131 C 
BRANCH   5   6
ATOM      6  C   UNL A   1      35.904  31.578  32.501  1.00  0.00     0.091 C 
BRANCH   6   7
ATOM      7  C   UNL A   1      37.094  32.315  33.014  1.00  0.00     0.152 A 
ATOM      8  C   UNL A   1      38.237  33.822  36.687  1.00  0.00     0.090 C 
ATOM      9  C   UNL A   1      39.015  33.892  35.412  1.00  0.00     0.131 A 
ATOM     10  N   UNL A   1      40.192  34.462  35.336  1.00  0.00    -0.222 NA
ATOM     11  N   UNL A   1      38.395  33.292  34.312  1.00  0.00    -0.199 N 
ATOM     12  C   UNL A   1      40.766  34.483  34.087  1.00  0.00     0.129 A 
ATOM     13  C   UNL A   1      38.946  33.304  33.061  1.00  0.00     0.168 A 
ATOM     14  N   UNL A   1      37.196  32.670  34.306  1.00  0.00    -0.150 NA
ATOM     15  S   UNL A   1      42.293  35.200  33.816  1.00  0.00    -0.120 S 
ATOM     16  C   UNL A   1      40.248  33.984  32.899  1.00  0.00     0.060 A 
ATOM     17  N   UNL A   1      38.150  32.694  32.219  1.00  0.00    -0.211 NA
ATOM     18  C   UNL A   1      42.212  34.896  32.140  1.00  0.00     0.011 A 
ATOM     19  C   UNL A   1      41.038  34.272  31.751  1.00  0.00    -0.018 A 
ATOM     20  C   UNL A   1      43.301  35.317  31.207  1.00  0.00     0.047 C 
ATOM     21  C   UNL A   1      40.717  34.003  30.302  1.00  0.00     0.018 C 
ATOM     22  C   UNL A   1      43.247  34.454  29.942  1.00  0.00     0.006 C 
ATOM     23  C   UNL A   1      39.437  34.738  29.895  1.00  0.00     0.013 C 
ATOM     24  C   UNL A   1      41.842  34.466  29.335  1.00  0.00     0.008 C 
ENDBRANCH   6   7
ENDBRANCH   5   6
ENDBRANCH   3   5
ENDBRANCH   2   3
ENDBRANCH   1   2
BRANCH   1  25
ATOM     25  C   UNL A   1      33.812  33.886  28.551  1.00  0.00     0.275 C 
BRANCH  25  26
ATOM     26  O   UNL A   1      34.683  33.184  27.669  1.00  0.00    -0.458 OA
BRANCH  26  27
ATOM     27  C   UNL A   1      34.576  31.842  27.774  1.00  0.00     0.338 C 
ATOM     28  O   UNL A   1      33.576  31.154  27.824  1.00  0.00    -0.246 OA
BRANCH  27  29
ATOM     29  C   UNL A   1      35.893  31.292  28.018  1.00  0.00     0.060 A 
ATOM     30  C   UNL A   1      36.068  29.909  28.056  1.00  0.00     0.016 A 
ATOM     31  C   UNL A   1      36.899  32.195  28.368  1.00  0.00     0.016 A 
ATOM     32  C   UNL A   1      37.295  29.415  28.459  1.00  0.00     0.010 A 
ATOM     33  C   UNL A   1      38.114  31.703  28.775  1.00  0.00     0.010 A 
ATOM     34  C   UNL A   1      38.301  30.316  28.831  1.00  0.00    -0.014 A 
BRANCH  34  35
ATOM     35  C   UNL A   1      39.618  29.803  29.175  1.00  0.00     0.031 A 
ATOM     36  C   UNL A   1      39.954  29.826  30.623  1.00  0.00     0.074 A 
ATOM     37  C   UNL A   1      40.355  29.113  28.285  1.00  0.00     0.049 A 
ATOM     38  N   UNL A   1      41.051  30.220  31.187  1.00  0.00    -0.248 NA
ATOM     39  C   UNL A   1      38.923  29.368  31.575  1.00  0.00     0.031 C 
ATOM     40  C   UNL A   1      39.942  28.718  26.934  1.00  0.00     0.029 A 
ATOM     41  N   UNL A   1      41.561  28.491  28.443  1.00  0.00    -0.354 N 
ATOM     42  C   UNL A   1      40.908  29.922  32.539  1.00  0.00     0.074 A 
ATOM     43  C   UNL A   1      39.551  29.492  32.742  1.00  0.00     0.031 C 
ATOM     44  C   UNL A   1      40.769  27.751  26.487  1.00  0.00     0.029 A 
ATOM     45  C   UNL A   1      41.834  27.558  27.457  1.00  0.00     0.049 A 
ATOM     46  H   UNL A   1      42.175  28.686  29.189  1.00  0.00     0.167 HD
ATOM     47  C   UNL A   1      41.978  29.830  33.371  1.00  0.00     0.037 A 
ATOM     48  C   UNL A   1      42.828  26.643  27.451  1.00  0.00     0.037 A 
ATOM     49  C   UNL A   1      43.172  30.396  32.819  1.00  0.00     0.049 A 
ATOM     50  C   UNL A   1      43.894  27.081  28.383  1.00  0.00     0.074 A 
ATOM     51  C   UNL A   1      43.790  31.625  32.807  1.00  0.00     0.029 A 
ATOM     52  N   UNL A   1      43.786  29.620  31.879  1.00  0.00    -0.354 N 
ATOM     53  N   UNL A   1      44.620  28.151  28.213  1.00  0.00    -0.248 NA
ATOM     54  C   UNL A   1      44.013  26.449  29.696  1.00  0.00     0.031 C 
ATOM     55  C   UNL A   1      44.734  31.597  31.736  1.00  0.00     0.029 A 
ATOM     56  C   UNL A   1      44.659  30.355  31.118  1.00  0.00     0.049 A 
ATOM     57  H   UNL A   1      43.624  28.656  31.761  1.00  0.00     0.167 HD
ATOM     58  C   UNL A   1      44.959  28.539  29.492  1.00  0.00     0.074 A 
ATOM     59  C   UNL A   1      44.726  27.378  30.335  1.00  0.00     0.031 C 
ATOM     60  C   UNL A   1      45.058  29.854  29.825  1.00  0.00     0.037 A 
BRANCH  47  61
ATOM     61  C   UNL A   1      42.043  28.867  34.520  1.00  0.00     0.064 A 
ATOM     62  C   UNL A   1      42.777  29.186  35.674  1.00  0.00     0.173 A 
ATOM     63  C   UNL A   1      41.645  27.519  34.387  1.00  0.00     0.173 A 
ATOM     64  F   UNL A   1      43.241  30.430  35.864  1.00  0.00    -0.203 F 
ATOM     65  C   UNL A   1      43.101  28.214  36.626  1.00  0.00     0.198 A 
ATOM     66  C   UNL A   1      41.927  26.564  35.361  1.00  0.00     0.198 A 
ATOM     67  F   UNL A   1      41.064  27.071  33.265  1.00  0.00    -0.203 F 
ATOM     68  F   UNL A   1      43.874  28.538  37.672  1.00  0.00    -0.200 F 
ATOM     69  C   UNL A   1      42.672  26.907  36.471  1.00  0.00     0.200 A 
ATOM     70  F   UNL A   1      41.528  25.297  35.179  1.00  0.00    -0.200 F 
ATOM     71  F   UNL A   1      43.012  25.968  37.364  1.00  0.00    -0.200 F 
ENDBRANCH  47  61
BRANCH  48  72
ATOM     72  C   UNL A   1      42.835  25.312  26.804  1.00  0.00     0.064 A 
ATOM     73  C   UNL A   1      43.585  25.078  25.642  1.00  0.00     0.173 A 
ATOM     74  C   UNL A   1      42.293  24.179  27.442  1.00  0.00     0.173 A 
ATOM     75  F   UNL A   1      44.173  26.099  25.000  1.00  0.00    -0.203 F 
ATOM     76  C   UNL A   1      43.797  23.785  25.158  1.00  0.00     0.198 A 
ATOM     77  C   UNL A   1      42.488  22.891  26.947  1.00  0.00     0.198 A 
ATOM     78  F   UNL A   1      41.636  24.290  28.607  1.00  0.00    -0.203 F 
ATOM     79  F   UNL A   1      44.573  23.596  24.082  1.00  0.00    -0.200 F 
ATOM     80  C   UNL A   1      43.253  22.693  25.812  1.00  0.00     0.200 A 
ATOM     81  F   UNL A   1      41.980  21.840  27.607  1.00  0.00    -0.200 F 
ATOM     82  F   UNL A   1      43.497  21.449  25.376  1.00  0.00    -0.200 F 
ENDBRANCH  48  72
BRANCH  60  83
ATOM     83  C   UNL A   1      45.363  30.824  28.732  1.00  0.00     0.064 A 
ATOM     84  C   UNL A   1      44.382  31.541  28.031  1.00  0.00     0.173 A 
ATOM     85  C   UNL A   1      46.704  31.069  28.412  1.00  0.00     0.173 A 
ATOM     86  F   UNL A   1      43.086  31.416  28.342  1.00  0.00    -0.203 F 
ATOM     87  C   UNL A   1      44.732  32.429  27.014  1.00  0.00     0.198 A 
ATOM     88  C   UNL A   1      47.052  31.980  27.420  1.00  0.00     0.198 A 
ATOM     89  F   UNL A   1      47.681  30.442  29.085  1.00  0.00    -0.203 F 
ATOM     90  F   UNL A   1      43.777  33.084  26.338  1.00  0.00    -0.200 F 
ATOM     91  C   UNL A   1      46.066  32.649  26.712  1.00  0.00     0.200 A 
ATOM     92  F   UNL A   1      48.344  32.219  27.158  1.00  0.00    -0.200 F 
ATOM     93  F   UNL A   1      46.403  33.519  25.750  1.00  0.00    -0.200 F 
ENDBRANCH  60  83
ENDBRANCH  34  35
ENDBRANCH  27  29
ENDBRANCH  26  27
ENDBRANCH  25  26
ENDBRANCH   1  25
TORSDOF 13
ENDMDL
