MODEL 1
REMARK VINA RESULT:      -9.2      0.000      0.000
REMARK SMILES C=CC[N@@H+](CC(=O)OCCOC(=O)c1ccc(-c2c3nc(c(-c4c(F)c(F)c(F)c(F)c4F)c4ccc([nH]4)c(-c4c(F)c(F)c(F)c(F)c4F)c4nc(c(-c5c(F)c(F)c(F)c(F)c5F)c5ccc2[nH]5)C=C4)C=C3)cc1)[C@@H](C)[C@@H](C)O
REMARK SMILES IDX 9 1 8 2 6 3 7 4 5 5 4 6 3 8 2 9 1 10 77 11 78 12 79 13 80 14
REMARK SMILES IDX 81 15 10 17 11 18 12 19 13 20 14 21 15 22 76 23 16 24 75 25
REMARK SMILES IDX 17 26 18 27 19 28 69 29 20 30 74 31 68 32 70 33 21 34 73 35
REMARK SMILES IDX 67 36 66 37 22 39 54 40 34 41 53 42 35 43 38 44 52 45 71 46
REMARK SMILES IDX 36 47 37 48 51 50 72 51 39 52 23 53 24 54 32 55 25 56 26 57
REMARK SMILES IDX 30 58 33 59 27 60 28 61 31 62 29 63 55 64 56 65 64 66 57 67
REMARK SMILES IDX 58 68 62 69 65 70 59 71 60 72 63 73 61 74 40 75 41 76 49 77
REMARK SMILES IDX 42 78 43 79 47 80 50 81 44 82 45 83 48 84 46 85
REMARK H PARENT 4 7 81 16 70 38 38 49
REMARK Flexibility Score: inf
ROOT
ATOM      1  C   UNL A   1      41.007  19.793  26.661  1.00  0.00     0.274 C 
ENDROOT
BRANCH   1   2
ATOM      2  O   UNL A   1      41.706  18.980  25.695  1.00  0.00    -0.458 OA
BRANCH   2   3
ATOM      3  C   UNL A   1      43.051  19.137  25.641  1.00  0.00     0.361 C 
ATOM      4  O   UNL A   1      43.852  18.317  26.087  1.00  0.00    -0.245 OA
BRANCH   3   5
ATOM      5  C   UNL A   1      43.537  20.450  25.034  1.00  0.00     0.387 C 
BRANCH   5   6
ATOM      6  N   UNL A   1      44.227  21.429  25.892  1.00  0.00    -0.318 N 
ATOM      7  H   UNL A   1      44.409  20.947  26.772  1.00  0.00     0.349 HD
BRANCH   6   8
ATOM      8  C   UNL A   1      43.381  22.507  26.380  1.00  0.00     0.291 C 
BRANCH   8   9
ATOM      9  C   UNL A   1      43.381  22.578  27.880  1.00  0.00     0.025 C 
ATOM     10  C   UNL A   1      42.339  22.978  28.619  1.00  0.00     0.010 C 
ENDBRANCH   8   9
ENDBRANCH   6   8
BRANCH   6  11
ATOM     11  C   UNL A   1      45.624  21.719  25.518  1.00  0.00     0.210 C 
ATOM     12  C   UNL A   1      46.309  20.678  24.616  1.00  0.00     0.078 C 
BRANCH  11  13
ATOM     13  C   UNL A   1      45.761  23.127  24.845  1.00  0.00     0.169 C 
ATOM     14  C   UNL A   1      46.691  24.085  25.586  1.00  0.00     0.045 C 
BRANCH  13  15
ATOM     15  O   UNL A   1      46.265  22.995  23.508  1.00  0.00    -0.387 OA
ATOM     16  H   UNL A   1      45.922  23.717  22.959  1.00  0.00     0.211 HD
ENDBRANCH  13  15
ENDBRANCH  11  13
ENDBRANCH   6  11
ENDBRANCH   5   6
ENDBRANCH   3   5
ENDBRANCH   2   3
ENDBRANCH   1   2
BRANCH   1  17
ATOM     17  C   UNL A   1      39.893  20.624  26.023  1.00  0.00     0.275 C 
BRANCH  17  18
ATOM     18  O   UNL A   1      40.136  22.035  26.187  1.00  0.00    -0.458 OA
BRANCH  18  19
ATOM     19  C   UNL A   1      39.023  22.793  26.173  1.00  0.00     0.338 C 
ATOM     20  O   UNL A   1      37.904  22.472  25.802  1.00  0.00    -0.246 OA
BRANCH  19  21
ATOM     21  C   UNL A   1      39.272  24.134  26.697  1.00  0.00     0.060 A 
ATOM     22  C   UNL A   1      40.008  25.034  25.925  1.00  0.00     0.016 A 
ATOM     23  C   UNL A   1      38.983  24.401  28.037  1.00  0.00     0.016 A 
ATOM     24  C   UNL A   1      40.495  26.198  26.511  1.00  0.00     0.010 A 
ATOM     25  C   UNL A   1      39.445  25.584  28.614  1.00  0.00     0.010 A 
ATOM     26  C   UNL A   1      40.224  26.476  27.861  1.00  0.00    -0.014 A 
BRANCH  26  27
ATOM     27  C   UNL A   1      40.729  27.733  28.455  1.00  0.00     0.031 A 
ATOM     28  C   UNL A   1      42.195  27.949  28.684  1.00  0.00     0.074 A 
ATOM     29  C   UNL A   1      39.840  28.697  28.749  1.00  0.00     0.049 A 
ATOM     30  N   UNL A   1      42.806  28.998  29.175  1.00  0.00    -0.248 NA
ATOM     31  C   UNL A   1      43.096  26.846  28.315  1.00  0.00     0.031 C 
ATOM     32  C   UNL A   1      38.393  28.585  28.556  1.00  0.00     0.029 A 
ATOM     33  N   UNL A   1      40.017  29.959  29.249  1.00  0.00    -0.354 N 
ATOM     34  C   UNL A   1      44.157  28.679  29.192  1.00  0.00     0.074 A 
ATOM     35  C   UNL A   1      44.279  27.334  28.666  1.00  0.00     0.031 C 
ATOM     36  C   UNL A   1      37.817  29.747  28.896  1.00  0.00     0.029 A 
ATOM     37  C   UNL A   1      38.848  30.666  29.368  1.00  0.00     0.049 A 
ATOM     38  H   UNL A   1      40.898  30.323  29.499  1.00  0.00     0.167 HD
ATOM     39  C   UNL A   1      45.194  29.443  29.612  1.00  0.00     0.037 A 
ATOM     40  C   UNL A   1      38.632  31.917  29.809  1.00  0.00     0.037 A 
ATOM     41  C   UNL A   1      45.061  30.782  30.127  1.00  0.00     0.049 A 
ATOM     42  C   UNL A   1      39.802  32.746  30.249  1.00  0.00     0.074 A 
ATOM     43  C   UNL A   1      46.049  31.635  30.590  1.00  0.00     0.029 A 
ATOM     44  N   UNL A   1      43.859  31.467  30.241  1.00  0.00    -0.354 N 
ATOM     45  N   UNL A   1      41.073  32.429  30.272  1.00  0.00    -0.248 NA
ATOM     46  C   UNL A   1      39.507  34.102  30.728  1.00  0.00     0.031 C 
ATOM     47  C   UNL A   1      45.441  32.826  31.008  1.00  0.00     0.029 A 
ATOM     48  C   UNL A   1      44.079  32.728  30.773  1.00  0.00     0.049 A 
ATOM     49  H   UNL A   1      42.979  31.110  29.983  1.00  0.00     0.167 HD
ATOM     50  C   UNL A   1      41.733  33.545  30.764  1.00  0.00     0.074 A 
ATOM     51  C   UNL A   1      40.722  34.556  31.001  1.00  0.00     0.031 C 
ATOM     52  C   UNL A   1      43.055  33.713  31.009  1.00  0.00     0.037 A 
BRANCH  39  53
ATOM     53  C   UNL A   1      46.567  28.841  29.560  1.00  0.00     0.064 A 
ATOM     54  C   UNL A   1      47.381  28.961  28.425  1.00  0.00     0.173 A 
ATOM     55  C   UNL A   1      47.094  28.180  30.681  1.00  0.00     0.173 A 
ATOM     56  F   UNL A   1      46.917  29.573  27.325  1.00  0.00    -0.203 F 
ATOM     57  C   UNL A   1      48.669  28.431  28.408  1.00  0.00     0.198 A 
ATOM     58  C   UNL A   1      48.390  27.668  30.667  1.00  0.00     0.198 A 
ATOM     59  F   UNL A   1      46.357  28.042  31.793  1.00  0.00    -0.203 F 
ATOM     60  F   UNL A   1      49.421  28.533  27.304  1.00  0.00    -0.200 F 
ATOM     61  C   UNL A   1      49.174  27.790  29.531  1.00  0.00     0.200 A 
ATOM     62  F   UNL A   1      48.879  27.058  31.756  1.00  0.00    -0.200 F 
ATOM     63  F   UNL A   1      50.417  27.289  29.516  1.00  0.00    -0.200 F 
ENDBRANCH  39  53
BRANCH  40  64
ATOM     64  C   UNL A   1      37.249  32.452  29.828  1.00  0.00     0.064 A 
ATOM     65  C   UNL A   1      36.745  33.179  28.743  1.00  0.00     0.173 A 
ATOM     66  C   UNL A   1      36.389  32.199  30.907  1.00  0.00     0.173 A 
ATOM     67  F   UNL A   1      37.538  33.458  27.697  1.00  0.00    -0.203 F 
ATOM     68  C   UNL A   1      35.431  33.638  28.736  1.00  0.00     0.198 A 
ATOM     69  C   UNL A   1      35.067  32.637  30.888  1.00  0.00     0.198 A 
ATOM     70  F   UNL A   1      36.826  31.499  31.964  1.00  0.00    -0.203 F 
ATOM     71  F   UNL A   1      34.977  34.353  27.697  1.00  0.00    -0.200 F 
ATOM     72  C   UNL A   1      34.590  33.358  29.804  1.00  0.00     0.200 A 
ATOM     73  F   UNL A   1      34.255  32.350  31.914  1.00  0.00    -0.200 F 
ATOM     74  F   UNL A   1      33.321  33.785  29.790  1.00  0.00    -0.200 F 
ENDBRANCH  40  64
BRANCH  52  75
ATOM     75  C   UNL A   1      43.471  35.044  31.558  1.00  0.00     0.064 A 
ATOM     76  C   UNL A   1      43.562  35.262  32.940  1.00  0.00     0.173 A 
ATOM     77  C   UNL A   1      43.776  36.107  30.698  1.00  0.00     0.173 A 
ATOM     78  F   UNL A   1      43.261  34.277  33.801  1.00  0.00    -0.203 F 
ATOM     79  C   UNL A   1      43.918  36.510  33.443  1.00  0.00     0.198 A 
ATOM     80  C   UNL A   1      44.151  37.347  31.203  1.00  0.00     0.198 A 
ATOM     81  F   UNL A   1      43.703  35.944  29.368  1.00  0.00    -0.203 F 
ATOM     82  F   UNL A   1      43.953  36.713  34.767  1.00  0.00    -0.200 F 
ATOM     83  C   UNL A   1      44.214  37.550  32.574  1.00  0.00     0.200 A 
ATOM     84  F   UNL A   1      44.440  38.351  30.364  1.00  0.00    -0.200 F 
ATOM     85  F   UNL A   1      44.549  38.754  33.060  1.00  0.00    -0.200 F 
ENDBRANCH  52  75
ENDBRANCH  26  27
ENDBRANCH  19  21
ENDBRANCH  18  19
ENDBRANCH  17  18
ENDBRANCH   1  17
TORSDOF 17
ENDMDL
MODEL 2
REMARK VINA RESULT:      -9.1      5.822     11.222
REMARK SMILES C=CC[N@@H+](CC(=O)OCCOC(=O)c1ccc(-c2c3nc(c(-c4c(F)c(F)c(F)c(F)c4F)c4ccc([nH]4)c(-c4c(F)c(F)c(F)c(F)c4F)c4nc(c(-c5c(F)c(F)c(F)c(F)c5F)c5ccc2[nH]5)C=C4)C=C3)cc1)[C@@H](C)[C@@H](C)O
REMARK SMILES IDX 9 1 8 2 6 3 7 4 5 5 4 6 3 8 2 9 1 10 77 11 78 12 79 13 80 14
REMARK SMILES IDX 81 15 10 17 11 18 12 19 13 20 14 21 15 22 76 23 16 24 75 25
REMARK SMILES IDX 17 26 18 27 19 28 69 29 20 30 74 31 68 32 70 33 21 34 73 35
REMARK SMILES IDX 67 36 66 37 22 39 54 40 34 41 53 42 35 43 38 44 52 45 71 46
REMARK SMILES IDX 36 47 37 48 51 50 72 51 39 52 23 53 24 54 32 55 25 56 26 57
REMARK SMILES IDX 30 58 33 59 27 60 28 61 31 62 29 63 55 64 56 65 64 66 57 67
REMARK SMILES IDX 58 68 62 69 65 70 59 71 60 72 63 73 61 74 40 75 41 76 49 77
REMARK SMILES IDX 42 78 43 79 47 80 50 81 44 82 45 83 48 84 46 85
REMARK H PARENT 4 7 81 16 70 38 38 49
REMARK Flexibility Score: inf
ROOT
ATOM      1  C   UNL A   1      31.558  29.051  26.225  1.00  0.00     0.274 C 
ENDROOT
BRANCH   1   2
ATOM      2  O   UNL A   1      32.428  28.704  25.127  1.00  0.00    -0.458 OA
BRANCH   2   3
ATOM      3  C   UNL A   1      31.985  29.028  23.887  1.00  0.00     0.361 C 
ATOM      4  O   UNL A   1      32.710  29.075  22.895  1.00  0.00    -0.245 OA
BRANCH   3   5
ATOM      5  C   UNL A   1      30.509  29.402  23.793  1.00  0.00     0.387 C 
BRANCH   5   6
ATOM      6  N   UNL A   1      29.525  28.366  23.432  1.00  0.00    -0.318 N 
ATOM      7  H   UNL A   1      29.111  28.059  24.312  1.00  0.00     0.349 HD
BRANCH   6   8
ATOM      8  C   UNL A   1      30.107  27.107  22.990  1.00  0.00     0.291 C 
BRANCH   8   9
ATOM      9  C   UNL A   1      29.718  25.970  23.889  1.00  0.00     0.025 C 
ATOM     10  C   UNL A   1      29.776  26.007  25.226  1.00  0.00     0.010 C 
ENDBRANCH   8   9
ENDBRANCH   6   8
BRANCH   6  11
ATOM     11  C   UNL A   1      28.297  28.862  22.782  1.00  0.00     0.210 C 
ATOM     12  C   UNL A   1      26.971  28.407  23.415  1.00  0.00     0.078 C 
BRANCH  11  13
ATOM     13  C   UNL A   1      28.290  30.425  22.680  1.00  0.00     0.169 C 
ATOM     14  C   UNL A   1      28.104  30.957  21.261  1.00  0.00     0.045 C 
BRANCH  13  15
ATOM     15  O   UNL A   1      27.232  30.973  23.480  1.00  0.00    -0.387 OA
ATOM     16  H   UNL A   1      26.483  30.357  23.493  1.00  0.00     0.211 HD
ENDBRANCH  13  15
ENDBRANCH  11  13
ENDBRANCH   6  11
ENDBRANCH   5   6
ENDBRANCH   3   5
ENDBRANCH   2   3
ENDBRANCH   1   2
BRANCH   1  17
ATOM     17  C   UNL A   1      31.892  30.420  26.820  1.00  0.00     0.275 C 
BRANCH  17  18
ATOM     18  O   UNL A   1      33.234  30.821  26.483  1.00  0.00    -0.458 OA
BRANCH  18  19
ATOM     19  C   UNL A   1      33.781  31.703  27.342  1.00  0.00     0.338 C 
ATOM     20  O   UNL A   1      33.311  32.765  27.722  1.00  0.00    -0.246 OA
BRANCH  19  21
ATOM     21  C   UNL A   1      35.076  31.247  27.840  1.00  0.00     0.060 A 
ATOM     22  C   UNL A   1      35.199  29.935  28.299  1.00  0.00     0.016 A 
ATOM     23  C   UNL A   1      36.081  32.189  28.069  1.00  0.00     0.016 A 
ATOM     24  C   UNL A   1      36.324  29.569  29.030  1.00  0.00     0.010 A 
ATOM     25  C   UNL A   1      37.224  31.811  28.775  1.00  0.00     0.010 A 
ATOM     26  C   UNL A   1      37.339  30.508  29.280  1.00  0.00    -0.014 A 
BRANCH  26  27
ATOM     27  C   UNL A   1      38.539  30.088  30.038  1.00  0.00     0.031 A 
ATOM     28  C   UNL A   1      38.765  30.544  31.448  1.00  0.00     0.074 A 
ATOM     29  C   UNL A   1      39.405  29.252  29.440  1.00  0.00     0.049 A 
ATOM     30  N   UNL A   1      39.751  30.254  32.259  1.00  0.00    -0.248 NA
ATOM     31  C   UNL A   1      37.755  31.443  32.027  1.00  0.00     0.031 C 
ATOM     32  C   UNL A   1      39.269  28.747  28.072  1.00  0.00     0.029 A 
ATOM     33  N   UNL A   1      40.552  28.666  29.904  1.00  0.00    -0.354 N 
ATOM     34  C   UNL A   1      39.494  30.945  33.435  1.00  0.00     0.074 A 
ATOM     35  C   UNL A   1      38.259  31.675  33.233  1.00  0.00     0.031 C 
ATOM     36  C   UNL A   1      40.273  27.895  27.822  1.00  0.00     0.029 A 
ATOM     37  C   UNL A   1      41.141  27.827  28.993  1.00  0.00     0.049 A 
ATOM     38  H   UNL A   1      40.919  28.832  30.803  1.00  0.00     0.167 HD
ATOM     39  C   UNL A   1      40.227  30.964  34.575  1.00  0.00     0.037 A 
ATOM     40  C   UNL A   1      42.258  27.086  29.092  1.00  0.00     0.037 A 
ATOM     41  C   UNL A   1      41.451  30.227  34.767  1.00  0.00     0.049 A 
ATOM     42  C   UNL A   1      43.039  27.113  30.372  1.00  0.00     0.074 A 
ATOM     43  C   UNL A   1      42.275  30.190  35.879  1.00  0.00     0.029 A 
ATOM     44  N   UNL A   1      42.024  29.391  33.819  1.00  0.00    -0.354 N 
ATOM     45  N   UNL A   1      42.791  27.779  31.473  1.00  0.00    -0.248 NA
ATOM     46  C   UNL A   1      44.253  26.290  30.423  1.00  0.00     0.031 C 
ATOM     47  C   UNL A   1      43.359  29.351  35.594  1.00  0.00     0.029 A 
ATOM     48  C   UNL A   1      43.194  28.838  34.318  1.00  0.00     0.049 A 
ATOM     49  H   UNL A   1      41.655  29.215  32.923  1.00  0.00     0.167 HD
ATOM     50  C   UNL A   1      43.816  27.456  32.350  1.00  0.00     0.074 A 
ATOM     51  C   UNL A   1      44.672  26.511  31.660  1.00  0.00     0.031 C 
ATOM     52  C   UNL A   1      44.034  27.909  33.608  1.00  0.00     0.037 A 
BRANCH  39  53
ATOM     53  C   UNL A   1      39.743  31.832  35.698  1.00  0.00     0.064 A 
ATOM     54  C   UNL A   1      40.261  33.117  35.911  1.00  0.00     0.173 A 
ATOM     55  C   UNL A   1      38.710  31.391  36.541  1.00  0.00     0.173 A 
ATOM     56  F   UNL A   1      41.257  33.578  35.140  1.00  0.00    -0.203 F 
ATOM     57  C   UNL A   1      39.772  33.926  36.934  1.00  0.00     0.198 A 
ATOM     58  C   UNL A   1      38.210  32.210  37.551  1.00  0.00     0.198 A 
ATOM     59  F   UNL A   1      38.177  30.171  36.375  1.00  0.00    -0.203 F 
ATOM     60  F   UNL A   1      40.300  35.141  37.137  1.00  0.00    -0.200 F 
ATOM     61  C   UNL A   1      38.743  33.474  37.749  1.00  0.00     0.200 A 
ATOM     62  F   UNL A   1      37.210  31.776  38.329  1.00  0.00    -0.200 F 
ATOM     63  F   UNL A   1      38.267  34.258  38.726  1.00  0.00    -0.200 F 
ENDBRANCH  39  53
BRANCH  40  64
ATOM     64  C   UNL A   1      42.676  26.246  27.944  1.00  0.00     0.064 A 
ATOM     65  C   UNL A   1      42.146  24.962  27.762  1.00  0.00     0.173 A 
ATOM     66  C   UNL A   1      43.571  26.730  26.979  1.00  0.00     0.173 A 
ATOM     67  F   UNL A   1      41.298  24.453  28.669  1.00  0.00    -0.203 F 
ATOM     68  C   UNL A   1      42.498  24.191  26.658  1.00  0.00     0.198 A 
ATOM     69  C   UNL A   1      43.903  25.968  25.862  1.00  0.00     0.198 A 
ATOM     70  F   UNL A   1      44.097  27.957  27.108  1.00  0.00    -0.203 F 
ATOM     71  F   UNL A   1      41.996  22.957  26.517  1.00  0.00    -0.200 F 
ATOM     72  C   UNL A   1      43.368  24.699  25.703  1.00  0.00     0.200 A 
ATOM     73  F   UNL A   1      44.731  26.468  24.935  1.00  0.00    -0.200 F 
ATOM     74  F   UNL A   1      43.693  23.963  24.632  1.00  0.00    -0.200 F 
ENDBRANCH  40  64
BRANCH  52  75
ATOM     75  C   UNL A   1      45.248  27.379  34.310  1.00  0.00     0.064 A 
ATOM     76  C   UNL A   1      45.188  26.211  35.083  1.00  0.00     0.173 A 
ATOM     77  C   UNL A   1      46.476  28.046  34.210  1.00  0.00     0.173 A 
ATOM     78  F   UNL A   1      44.027  25.551  35.221  1.00  0.00    -0.203 F 
ATOM     79  C   UNL A   1      46.312  25.744  35.756  1.00  0.00     0.198 A 
ATOM     80  C   UNL A   1      47.604  27.565  34.868  1.00  0.00     0.198 A 
ATOM     81  F   UNL A   1      46.581  29.167  33.480  1.00  0.00    -0.203 F 
ATOM     82  F   UNL A   1      46.224  24.653  36.529  1.00  0.00    -0.200 F 
ATOM     83  C   UNL A   1      47.519  26.420  35.646  1.00  0.00     0.200 A 
ATOM     84  F   UNL A   1      48.770  28.215  34.759  1.00  0.00    -0.200 F 
ATOM     85  F   UNL A   1      48.600  25.973  36.303  1.00  0.00    -0.200 F 
ENDBRANCH  52  75
ENDBRANCH  26  27
ENDBRANCH  19  21
ENDBRANCH  18  19
ENDBRANCH  17  18
ENDBRANCH   1  17
TORSDOF 17
ENDMDL
MODEL 3
REMARK VINA RESULT:      -9.0      5.269     10.451
REMARK SMILES C=CC[N@@H+](CC(=O)OCCOC(=O)c1ccc(-c2c3nc(c(-c4c(F)c(F)c(F)c(F)c4F)c4ccc([nH]4)c(-c4c(F)c(F)c(F)c(F)c4F)c4nc(c(-c5c(F)c(F)c(F)c(F)c5F)c5ccc2[nH]5)C=C4)C=C3)cc1)[C@@H](C)[C@@H](C)O
REMARK SMILES IDX 9 1 8 2 6 3 7 4 5 5 4 6 3 8 2 9 1 10 77 11 78 12 79 13 80 14
REMARK SMILES IDX 81 15 10 17 11 18 12 19 13 20 14 21 15 22 76 23 16 24 75 25
REMARK SMILES IDX 17 26 18 27 19 28 69 29 20 30 74 31 68 32 70 33 21 34 73 35
REMARK SMILES IDX 67 36 66 37 22 39 54 40 34 41 53 42 35 43 38 44 52 45 71 46
REMARK SMILES IDX 36 47 37 48 51 50 72 51 39 52 23 53 24 54 32 55 25 56 26 57
REMARK SMILES IDX 30 58 33 59 27 60 28 61 31 62 29 63 55 64 56 65 64 66 57 67
REMARK SMILES IDX 58 68 62 69 65 70 59 71 60 72 63 73 61 74 40 75 41 76 49 77
REMARK SMILES IDX 42 78 43 79 47 80 50 81 44 82 45 83 48 84 46 85
REMARK H PARENT 4 7 81 16 70 38 38 49
REMARK Flexibility Score: inf
ROOT
ATOM      1  C   UNL A   1      32.557  28.576  25.279  1.00  0.00     0.274 C 
ENDROOT
BRANCH   1   2
ATOM      2  O   UNL A   1      31.346  27.909  24.865  1.00  0.00    -0.458 OA
BRANCH   2   3
ATOM      3  C   UNL A   1      30.972  26.834  25.601  1.00  0.00     0.361 C 
ATOM      4  O   UNL A   1      31.040  26.790  26.827  1.00  0.00    -0.245 OA
BRANCH   3   5
ATOM      5  C   UNL A   1      30.503  25.621  24.802  1.00  0.00     0.387 C 
BRANCH   5   6
ATOM      6  N   UNL A   1      31.503  24.681  24.266  1.00  0.00    -0.318 N 
ATOM      7  H   UNL A   1      32.398  24.977  24.654  1.00  0.00     0.349 HD
BRANCH   6   8
ATOM      8  C   UNL A   1      31.789  24.847  22.849  1.00  0.00     0.291 C 
BRANCH   8   9
ATOM      9  C   UNL A   1      33.116  25.513  22.625  1.00  0.00     0.025 C 
ATOM     10  C   UNL A   1      33.276  26.699  22.024  1.00  0.00     0.010 C 
ENDBRANCH   8   9
ENDBRANCH   6   8
BRANCH   6  11
ATOM     11  C   UNL A   1      31.462  23.323  24.841  1.00  0.00     0.210 C 
ATOM     12  C   UNL A   1      31.981  22.193  23.935  1.00  0.00     0.078 C 
BRANCH  11  13
ATOM     13  C   UNL A   1      32.223  23.253  26.209  1.00  0.00     0.169 C 
ATOM     14  C   UNL A   1      33.521  24.054  26.243  1.00  0.00     0.045 C 
BRANCH  13  15
ATOM     15  O   UNL A   1      31.390  23.748  27.268  1.00  0.00    -0.387 OA
ATOM     16  H   UNL A   1      31.516  24.706  27.358  1.00  0.00     0.211 HD
ENDBRANCH  13  15
ENDBRANCH  11  13
ENDBRANCH   6  11
ENDBRANCH   5   6
ENDBRANCH   3   5
ENDBRANCH   2   3
ENDBRANCH   1   2
BRANCH   1  17
ATOM     17  C   UNL A   1      32.337  30.067  25.540  1.00  0.00     0.275 C 
BRANCH  17  18
ATOM     18  O   UNL A   1      32.400  30.364  26.948  1.00  0.00    -0.458 OA
BRANCH  18  19
ATOM     19  C   UNL A   1      33.151  31.439  27.254  1.00  0.00     0.338 C 
ATOM     20  O   UNL A   1      32.837  32.618  27.176  1.00  0.00    -0.246 OA
BRANCH  19  21
ATOM     21  C   UNL A   1      34.473  31.057  27.746  1.00  0.00     0.060 A 
ATOM     22  C   UNL A   1      34.684  29.743  28.166  1.00  0.00     0.016 A 
ATOM     23  C   UNL A   1      35.410  32.058  28.009  1.00  0.00     0.016 A 
ATOM     24  C   UNL A   1      35.829  29.433  28.891  1.00  0.00     0.010 A 
ATOM     25  C   UNL A   1      36.574  31.739  28.710  1.00  0.00     0.010 A 
ATOM     26  C   UNL A   1      36.776  30.431  29.176  1.00  0.00    -0.014 A 
BRANCH  26  27
ATOM     27  C   UNL A   1      37.999  30.071  29.927  1.00  0.00     0.031 A 
ATOM     28  C   UNL A   1      38.210  30.539  31.336  1.00  0.00     0.074 A 
ATOM     29  C   UNL A   1      38.902  29.277  29.325  1.00  0.00     0.049 A 
ATOM     30  N   UNL A   1      39.214  30.298  32.142  1.00  0.00    -0.248 NA
ATOM     31  C   UNL A   1      37.161  31.388  31.920  1.00  0.00     0.031 C 
ATOM     32  C   UNL A   1      38.783  28.764  27.959  1.00  0.00     0.029 A 
ATOM     33  N   UNL A   1      40.079  28.749  29.784  1.00  0.00    -0.354 N 
ATOM     34  C   UNL A   1      38.930  30.977  33.319  1.00  0.00     0.074 A 
ATOM     35  C   UNL A   1      37.660  31.646  33.123  1.00  0.00     0.031 C 
ATOM     36  C   UNL A   1      39.826  27.962  27.704  1.00  0.00     0.029 A 
ATOM     37  C   UNL A   1      40.703  27.938  28.870  1.00  0.00     0.049 A 
ATOM     38  H   UNL A   1      40.441  28.934  30.681  1.00  0.00     0.167 HD
ATOM     39  C   UNL A   1      39.667  31.034  34.454  1.00  0.00     0.037 A 
ATOM     40  C   UNL A   1      41.855  27.252  28.963  1.00  0.00     0.037 A 
ATOM     41  C   UNL A   1      40.927  30.358  34.640  1.00  0.00     0.049 A 
ATOM     42  C   UNL A   1      42.640  27.319  30.240  1.00  0.00     0.074 A 
ATOM     43  C   UNL A   1      41.758  30.362  35.748  1.00  0.00     0.029 A 
ATOM     44  N   UNL A   1      41.535  29.549  33.689  1.00  0.00    -0.354 N 
ATOM     45  N   UNL A   1      42.366  27.973  31.342  1.00  0.00    -0.248 NA
ATOM     46  C   UNL A   1      43.893  26.556  30.284  1.00  0.00     0.031 C 
ATOM     47  C   UNL A   1      42.880  29.576  35.458  1.00  0.00     0.029 A 
ATOM     48  C   UNL A   1      42.733  29.055  34.183  1.00  0.00     0.049 A 
ATOM     49  H   UNL A   1      41.170  29.355  32.797  1.00  0.00     0.167 HD
ATOM     50  C   UNL A   1      43.411  27.702  32.213  1.00  0.00     0.074 A 
ATOM     51  C   UNL A   1      44.308  26.799  31.519  1.00  0.00     0.031 C 
ATOM     52  C   UNL A   1      43.613  28.166  33.470  1.00  0.00     0.037 A 
BRANCH  39  53
ATOM     53  C   UNL A   1      39.148  31.878  35.579  1.00  0.00     0.064 A 
ATOM     54  C   UNL A   1      38.303  31.350  36.566  1.00  0.00     0.173 A 
ATOM     55  C   UNL A   1      39.542  33.220  35.700  1.00  0.00     0.173 A 
ATOM     56  F   UNL A   1      37.889  30.077  36.488  1.00  0.00    -0.203 F 
ATOM     57  C   UNL A   1      37.862  32.138  37.627  1.00  0.00     0.198 A 
ATOM     58  C   UNL A   1      39.115  33.999  36.773  1.00  0.00     0.198 A 
ATOM     59  F   UNL A   1      40.354  33.771  34.785  1.00  0.00    -0.203 F 
ATOM     60  F   UNL A   1      37.033  31.622  38.545  1.00  0.00    -0.200 F 
ATOM     61  C   UNL A   1      38.273  33.460  37.733  1.00  0.00     0.200 A 
ATOM     62  F   UNL A   1      39.521  35.272  36.878  1.00  0.00    -0.200 F 
ATOM     63  F   UNL A   1      37.855  34.213  38.759  1.00  0.00    -0.200 F 
ENDBRANCH  39  53
BRANCH  40  64
ATOM     64  C   UNL A   1      42.307  26.432  27.815  1.00  0.00     0.064 A 
ATOM     65  C   UNL A   1      43.249  26.926  26.904  1.00  0.00     0.173 A 
ATOM     66  C   UNL A   1      41.846  25.119  27.635  1.00  0.00     0.173 A 
ATOM     67  F   UNL A   1      43.705  28.182  27.028  1.00  0.00    -0.203 F 
ATOM     68  C   UNL A   1      43.713  26.139  25.854  1.00  0.00     0.198 A 
ATOM     69  C   UNL A   1      42.329  24.324  26.600  1.00  0.00     0.198 A 
ATOM     70  F   UNL A   1      40.949  24.601  28.488  1.00  0.00    -0.203 F 
ATOM     71  F   UNL A   1      44.597  26.642  24.982  1.00  0.00    -0.200 F 
ATOM     72  C   UNL A   1      43.260  24.836  25.709  1.00  0.00     0.200 A 
ATOM     73  F   UNL A   1      41.902  23.061  26.473  1.00  0.00    -0.200 F 
ATOM     74  F   UNL A   1      43.720  24.073  24.708  1.00  0.00    -0.200 F 
ENDBRANCH  40  64
BRANCH  52  75
ATOM     75  C   UNL A   1      44.855  27.698  34.164  1.00  0.00     0.064 A 
ATOM     76  C   UNL A   1      46.057  28.414  34.067  1.00  0.00     0.173 A 
ATOM     77  C   UNL A   1      44.844  26.524  34.930  1.00  0.00     0.173 A 
ATOM     78  F   UNL A   1      46.117  29.534  33.329  1.00  0.00    -0.203 F 
ATOM     79  C   UNL A   1      47.213  27.955  34.689  1.00  0.00     0.198 A 
ATOM     80  C   UNL A   1      45.997  26.078  35.568  1.00  0.00     0.198 A 
ATOM     81  F   UNL A   1      43.718  25.806  35.052  1.00  0.00    -0.203 F 
ATOM     82  F   UNL A   1      48.363  28.627  34.544  1.00  0.00    -0.200 F 
ATOM     83  C   UNL A   1      47.182  26.789  35.441  1.00  0.00     0.200 A 
ATOM     84  F   UNL A   1      45.967  24.954  36.296  1.00  0.00    -0.200 F 
ATOM     85  F   UNL A   1      48.299  26.343  36.033  1.00  0.00    -0.200 F 
ENDBRANCH  52  75
ENDBRANCH  26  27
ENDBRANCH  19  21
ENDBRANCH  18  19
ENDBRANCH  17  18
ENDBRANCH   1  17
TORSDOF 17
ENDMDL
