MODEL 1
REMARK VINA RESULT:     -10.7      0.000      0.000
REMARK SMILES CC(C)[C@H](NC(=O)[C@H](C)NC(=O)C[NH3+])C(=O)OCCOC(=O)c1ccc(-c2c3nc(c(-c4c(F)c(F)c(F)c(F)c4F)c4ccc([nH]4)c(-c4c(F)c(F)c(F)c(F)c4F)c4nc(c(-c5c(F)c(F)c(F)c(F)c5F)c5ccc2[nH]5)C=C4)C=C3)cc1
REMARK SMILES IDX 17 1 15 2 16 3 4 4 2 5 1 6 3 7 5 8 6 9 7 11 8 12 9 13 10 14
REMARK SMILES IDX 11 15 12 17 13 18 14 19 18 23 19 24 20 25 21 26 22 27 23 28
REMARK SMILES IDX 24 29 85 30 25 31 84 32 26 33 27 34 28 35 78 36 29 37 83 38
REMARK SMILES IDX 77 39 79 40 30 41 82 42 76 43 75 44 31 46 63 47 43 48 62 49
REMARK SMILES IDX 44 50 47 51 61 52 80 53 45 54 46 55 60 57 81 58 48 59 32 60
REMARK SMILES IDX 33 61 41 62 34 63 35 64 39 65 42 66 36 67 37 68 40 69 38 70
REMARK SMILES IDX 64 71 65 72 73 73 66 74 67 75 71 76 74 77 68 78 69 79 72 80
REMARK SMILES IDX 70 81 49 82 50 83 58 84 51 85 52 86 56 87 59 88 53 89 54 90
REMARK SMILES IDX 57 91 55 92
REMARK H PARENT 5 10 10 16 14 20 14 21 14 22 79 45 47 56
REMARK Flexibility Score: inf
ROOT
ATOM      1  O   UNL A   1      35.796  22.372  24.934  1.00  0.00    -0.461 OA
ENDROOT
BRANCH   1   2
ATOM      2  C   UNL A   1      35.459  22.954  23.745  1.00  0.00     0.329 C 
ATOM      3  O   UNL A   1      36.208  23.009  22.778  1.00  0.00    -0.250 OA
BRANCH   2   4
ATOM      4  C   UNL A   1      34.047  23.605  23.787  1.00  0.00     0.194 C 
BRANCH   4   5
ATOM      5  C   UNL A   1      33.257  23.158  22.526  1.00  0.00     0.017 C 
ATOM      6  C   UNL A   1      31.953  22.464  22.964  1.00  0.00     0.010 C 
ATOM      7  C   UNL A   1      32.901  24.297  21.570  1.00  0.00     0.010 C 
ENDBRANCH   4   5
BRANCH   4   8
ATOM      8  N   UNL A   1      34.098  25.061  23.981  1.00  0.00    -0.341 N 
ATOM      9  C   UNL A   1      33.357  25.901  24.761  1.00  0.00     0.243 C 
ATOM     10  H   UNL A   1      34.794  25.513  23.451  1.00  0.00     0.164 HD
ATOM     11  O   UNL A   1      33.639  27.101  24.666  1.00  0.00    -0.273 OA
BRANCH   9  12
ATOM     12  C   UNL A   1      32.107  25.441  25.579  1.00  0.00     0.168 C 
ATOM     13  C   UNL A   1      31.378  26.672  26.119  1.00  0.00     0.041 C 
BRANCH  12  14
ATOM     14  N   UNL A   1      32.435  24.538  26.678  1.00  0.00    -0.340 N 
ATOM     15  C   UNL A   1      32.004  23.243  26.783  1.00  0.00     0.275 C 
ATOM     16  H   UNL A   1      33.010  24.886  27.397  1.00  0.00     0.164 HD
ATOM     17  O   UNL A   1      32.804  22.387  27.165  1.00  0.00    -0.268 OA
BRANCH  15  18
ATOM     18  C   UNL A   1      30.595  22.837  26.363  1.00  0.00     0.360 C 
BRANCH  18  19
ATOM     19  N   UNL A   1      29.565  23.672  26.988  1.00  0.00    -0.350 N 
ATOM     20  H   UNL A   1      29.780  24.655  26.827  1.00  0.00     0.344 HD
ATOM     21  H   UNL A   1      29.542  23.489  27.991  1.00  0.00     0.344 HD
ATOM     22  H   UNL A   1      28.655  23.451  26.582  1.00  0.00     0.344 HD
ENDBRANCH  18  19
ENDBRANCH  15  18
ENDBRANCH  12  14
ENDBRANCH   9  12
ENDBRANCH   4   8
ENDBRANCH   2   4
ENDBRANCH   1   2
BRANCH   1  23
ATOM     23  C   UNL A   1      35.681  20.933  24.991  1.00  0.00     0.274 C 
BRANCH  23  24
ATOM     24  C   UNL A   1      37.050  20.259  24.990  1.00  0.00     0.275 C 
BRANCH  24  25
ATOM     25  O   UNL A   1      38.092  21.252  24.984  1.00  0.00    -0.458 OA
BRANCH  25  26
ATOM     26  C   UNL A   1      39.108  21.045  25.851  1.00  0.00     0.338 C 
ATOM     27  O   UNL A   1      39.727  19.998  26.012  1.00  0.00    -0.246 OA
BRANCH  26  28
ATOM     28  C   UNL A   1      39.474  22.285  26.571  1.00  0.00     0.060 A 
ATOM     29  C   UNL A   1      38.958  23.515  26.181  1.00  0.00     0.016 A 
ATOM     30  C   UNL A   1      40.492  22.247  27.527  1.00  0.00     0.016 A 
ATOM     31  C   UNL A   1      39.589  24.692  26.604  1.00  0.00     0.010 A 
ATOM     32  C   UNL A   1      41.031  23.438  28.041  1.00  0.00     0.010 A 
ATOM     33  C   UNL A   1      40.647  24.687  27.527  1.00  0.00    -0.014 A 
BRANCH  33  34
ATOM     34  C   UNL A   1      41.396  25.943  27.884  1.00  0.00     0.031 A 
ATOM     35  C   UNL A   1      40.745  27.026  28.729  1.00  0.00     0.074 A 
ATOM     36  C   UNL A   1      42.681  26.139  27.513  1.00  0.00     0.049 A 
ATOM     37  N   UNL A   1      41.137  28.259  28.954  1.00  0.00    -0.248 NA
ATOM     38  C   UNL A   1      39.495  26.675  29.422  1.00  0.00     0.031 C 
ATOM     39  C   UNL A   1      43.512  25.190  26.776  1.00  0.00     0.029 A 
ATOM     40  N   UNL A   1      43.519  27.215  27.716  1.00  0.00    -0.354 N 
ATOM     41  C   UNL A   1      40.156  28.839  29.752  1.00  0.00     0.074 A 
ATOM     42  C   UNL A   1      39.160  27.820  29.999  1.00  0.00     0.031 C 
ATOM     43  C   UNL A   1      44.747  25.690  26.641  1.00  0.00     0.029 A 
ATOM     44  C   UNL A   1      44.760  27.058  27.146  1.00  0.00     0.049 A 
ATOM     45  H   UNL A   1      43.255  28.018  28.220  1.00  0.00     0.167 HD
ATOM     46  C   UNL A   1      40.078  30.109  30.223  1.00  0.00     0.037 A 
ATOM     47  C   UNL A   1      45.776  27.924  26.962  1.00  0.00     0.037 A 
ATOM     48  C   UNL A   1      41.078  31.127  30.022  1.00  0.00     0.049 A 
ATOM     49  C   UNL A   1      45.632  29.352  27.399  1.00  0.00     0.074 A 
ATOM     50  C   UNL A   1      41.069  32.445  30.452  1.00  0.00     0.029 A 
ATOM     51  N   UNL A   1      42.272  30.939  29.346  1.00  0.00    -0.354 N 
ATOM     52  N   UNL A   1      44.642  29.926  28.034  1.00  0.00    -0.248 NA
ATOM     53  C   UNL A   1      46.733  30.263  27.052  1.00  0.00     0.031 C 
ATOM     54  C   UNL A   1      42.240  33.064  30.002  1.00  0.00     0.029 A 
ATOM     55  C   UNL A   1      42.999  32.121  29.334  1.00  0.00     0.049 A 
ATOM     56  H   UNL A   1      42.563  30.093  28.935  1.00  0.00     0.167 HD
ATOM     57  C   UNL A   1      44.995  31.261  28.161  1.00  0.00     0.074 A 
ATOM     58  C   UNL A   1      46.303  31.410  27.558  1.00  0.00     0.031 C 
ATOM     59  C   UNL A   1      44.291  32.274  28.720  1.00  0.00     0.037 A 
BRANCH  46  60
ATOM     60  C   UNL A   1      38.840  30.507  30.973  1.00  0.00     0.064 A 
ATOM     61  C   UNL A   1      38.779  30.487  32.373  1.00  0.00     0.173 A 
ATOM     62  C   UNL A   1      37.726  30.999  30.274  1.00  0.00     0.173 A 
ATOM     63  F   UNL A   1      39.812  30.013  33.086  1.00  0.00    -0.203 F 
ATOM     64  C   UNL A   1      37.646  30.942  33.046  1.00  0.00     0.198 A 
ATOM     65  C   UNL A   1      36.605  31.473  30.949  1.00  0.00     0.198 A 
ATOM     66  F   UNL A   1      37.737  31.043  28.933  1.00  0.00    -0.203 F 
ATOM     67  F   UNL A   1      37.600  30.896  34.384  1.00  0.00    -0.200 F 
ATOM     68  C   UNL A   1      36.566  31.444  32.334  1.00  0.00     0.200 A 
ATOM     69  F   UNL A   1      35.568  31.970  30.259  1.00  0.00    -0.200 F 
ATOM     70  F   UNL A   1      35.486  31.898  32.984  1.00  0.00    -0.200 F 
ENDBRANCH  46  60
BRANCH  47  71
ATOM     71  C   UNL A   1      46.987  27.476  26.223  1.00  0.00     0.064 A 
ATOM     72  C   UNL A   1      47.100  27.647  24.839  1.00  0.00     0.173 A 
ATOM     73  C   UNL A   1      48.068  26.890  26.902  1.00  0.00     0.173 A 
ATOM     74  F   UNL A   1      46.077  28.164  24.142  1.00  0.00    -0.203 F 
ATOM     75  C   UNL A   1      48.255  27.262  24.161  1.00  0.00     0.198 A 
ATOM     76  C   UNL A   1      49.235  26.540  26.231  1.00  0.00     0.198 A 
ATOM     77  F   UNL A   1      48.002  26.693  28.227  1.00  0.00    -0.203 F 
ATOM     78  F   UNL A   1      48.330  27.409  22.831  1.00  0.00    -0.200 F 
ATOM     79  C   UNL A   1      49.327  26.724  24.860  1.00  0.00     0.200 A 
ATOM     80  F   UNL A   1      50.272  26.037  26.913  1.00  0.00    -0.200 F 
ATOM     81  F   UNL A   1      50.447  26.379  24.211  1.00  0.00    -0.200 F 
ENDBRANCH  47  71
BRANCH  59  82
ATOM     82  C   UNL A   1      44.927  33.631  28.722  1.00  0.00     0.064 A 
ATOM     83  C   UNL A   1      45.821  34.018  29.730  1.00  0.00     0.173 A 
ATOM     84  C   UNL A   1      44.642  34.553  27.704  1.00  0.00     0.173 A 
ATOM     85  F   UNL A   1      46.111  33.177  30.734  1.00  0.00    -0.203 F 
ATOM     86  C   UNL A   1      46.385  35.291  29.735  1.00  0.00     0.198 A 
ATOM     87  C   UNL A   1      45.225  35.817  27.700  1.00  0.00     0.198 A 
ATOM     88  F   UNL A   1      43.795  34.229  26.715  1.00  0.00    -0.203 F 
ATOM     89  F   UNL A   1      47.199  35.658  30.735  1.00  0.00    -0.200 F 
ATOM     90  C   UNL A   1      46.090  36.188  28.719  1.00  0.00     0.200 A 
ATOM     91  F   UNL A   1      44.944  36.680  26.714  1.00  0.00    -0.200 F 
ATOM     92  F   UNL A   1      46.629  37.416  28.729  1.00  0.00    -0.200 F 
ENDBRANCH  59  82
ENDBRANCH  33  34
ENDBRANCH  26  28
ENDBRANCH  25  26
ENDBRANCH  24  25
ENDBRANCH  23  24
ENDBRANCH   1  23
TORSDOF 17
ENDMDL
MODEL 2
REMARK VINA RESULT:     -10.7      1.135      1.760
REMARK SMILES CC(C)[C@H](NC(=O)[C@H](C)NC(=O)C[NH3+])C(=O)OCCOC(=O)c1ccc(-c2c3nc(c(-c4c(F)c(F)c(F)c(F)c4F)c4ccc([nH]4)c(-c4c(F)c(F)c(F)c(F)c4F)c4nc(c(-c5c(F)c(F)c(F)c(F)c5F)c5ccc2[nH]5)C=C4)C=C3)cc1
REMARK SMILES IDX 17 1 15 2 16 3 4 4 2 5 1 6 3 7 5 8 6 9 7 11 8 12 9 13 10 14
REMARK SMILES IDX 11 15 12 17 13 18 14 19 18 23 19 24 20 25 21 26 22 27 23 28
REMARK SMILES IDX 24 29 85 30 25 31 84 32 26 33 27 34 28 35 78 36 29 37 83 38
REMARK SMILES IDX 77 39 79 40 30 41 82 42 76 43 75 44 31 46 63 47 43 48 62 49
REMARK SMILES IDX 44 50 47 51 61 52 80 53 45 54 46 55 60 57 81 58 48 59 32 60
REMARK SMILES IDX 33 61 41 62 34 63 35 64 39 65 42 66 36 67 37 68 40 69 38 70
REMARK SMILES IDX 64 71 65 72 73 73 66 74 67 75 71 76 74 77 68 78 69 79 72 80
REMARK SMILES IDX 70 81 49 82 50 83 58 84 51 85 52 86 56 87 59 88 53 89 54 90
REMARK SMILES IDX 57 91 55 92
REMARK H PARENT 5 10 10 16 14 20 14 21 14 22 79 45 47 56
REMARK Flexibility Score: inf
ROOT
ATOM      1  O   UNL A   1      34.947  21.909  24.347  1.00  0.00    -0.461 OA
ENDROOT
BRANCH   1   2
ATOM      2  C   UNL A   1      34.547  22.963  25.120  1.00  0.00     0.329 C 
ATOM      3  O   UNL A   1      35.056  23.249  26.197  1.00  0.00    -0.250 OA
BRANCH   2   4
ATOM      4  C   UNL A   1      33.324  23.708  24.513  1.00  0.00     0.194 C 
BRANCH   4   5
ATOM      5  C   UNL A   1      32.166  22.689  24.322  1.00  0.00     0.017 C 
ATOM      6  C   UNL A   1      31.662  22.231  25.704  1.00  0.00     0.010 C 
ATOM      7  C   UNL A   1      30.978  23.229  23.526  1.00  0.00     0.010 C 
ENDBRANCH   4   5
BRANCH   4   8
ATOM      8  N   UNL A   1      33.665  24.467  23.301  1.00  0.00    -0.341 N 
ATOM      9  C   UNL A   1      33.646  25.805  23.030  1.00  0.00     0.243 C 
ATOM     10  H   UNL A   1      33.961  23.908  22.547  1.00  0.00     0.164 HD
ATOM     11  O   UNL A   1      33.967  26.118  21.877  1.00  0.00    -0.273 OA
BRANCH   9  12
ATOM     12  C   UNL A   1      33.079  26.877  24.017  1.00  0.00     0.168 C 
ATOM     13  C   UNL A   1      33.807  26.762  25.356  1.00  0.00     0.041 C 
BRANCH  12  14
ATOM     14  N   UNL A   1      31.638  26.767  24.224  1.00  0.00    -0.340 N 
ATOM     15  C   UNL A   1      30.701  27.593  23.664  1.00  0.00     0.275 C 
ATOM     16  H   UNL A   1      31.317  26.045  24.811  1.00  0.00     0.164 HD
ATOM     17  O   UNL A   1      29.666  27.091  23.222  1.00  0.00    -0.268 OA
BRANCH  15  18
ATOM     18  C   UNL A   1      30.951  29.089  23.505  1.00  0.00     0.360 C 
BRANCH  18  19
ATOM     19  N   UNL A   1      31.275  29.455  22.123  1.00  0.00    -0.350 N 
ATOM     20  H   UNL A   1      32.095  28.933  21.815  1.00  0.00     0.344 HD
ATOM     21  H   UNL A   1      31.470  30.455  22.073  1.00  0.00     0.344 HD
ATOM     22  H   UNL A   1      30.484  29.234  21.517  1.00  0.00     0.344 HD
ENDBRANCH  18  19
ENDBRANCH  15  18
ENDBRANCH  12  14
ENDBRANCH   9  12
ENDBRANCH   4   8
ENDBRANCH   2   4
ENDBRANCH   1   2
BRANCH   1  23
ATOM     23  C   UNL A   1      35.404  20.739  25.059  1.00  0.00     0.274 C 
BRANCH  23  24
ATOM     24  C   UNL A   1      36.849  20.398  24.710  1.00  0.00     0.275 C 
BRANCH  24  25
ATOM     25  O   UNL A   1      37.709  21.513  25.007  1.00  0.00    -0.458 OA
BRANCH  25  26
ATOM     26  C   UNL A   1      38.787  21.239  25.775  1.00  0.00     0.338 C 
ATOM     27  O   UNL A   1      39.401  20.178  25.817  1.00  0.00    -0.246 OA
BRANCH  26  28
ATOM     28  C   UNL A   1      39.226  22.425  26.544  1.00  0.00     0.060 A 
ATOM     29  C   UNL A   1      38.663  23.674  26.314  1.00  0.00     0.016 A 
ATOM     30  C   UNL A   1      40.347  22.327  27.373  1.00  0.00     0.016 A 
ATOM     31  C   UNL A   1      39.333  24.824  26.753  1.00  0.00     0.010 A 
ATOM     32  C   UNL A   1      40.935  23.482  27.914  1.00  0.00     0.010 A 
ATOM     33  C   UNL A   1      40.490  24.762  27.546  1.00  0.00    -0.014 A 
BRANCH  33  34
ATOM     34  C   UNL A   1      41.268  25.996  27.914  1.00  0.00     0.031 A 
ATOM     35  C   UNL A   1      40.641  27.091  28.760  1.00  0.00     0.074 A 
ATOM     36  C   UNL A   1      42.560  26.161  27.551  1.00  0.00     0.049 A 
ATOM     37  N   UNL A   1      41.062  28.313  28.993  1.00  0.00    -0.248 NA
ATOM     38  C   UNL A   1      39.378  26.769  29.444  1.00  0.00     0.031 C 
ATOM     39  C   UNL A   1      43.371  25.194  26.814  1.00  0.00     0.029 A 
ATOM     40  N   UNL A   1      43.424  27.214  27.764  1.00  0.00    -0.354 N 
ATOM     41  C   UNL A   1      40.092  28.915  29.789  1.00  0.00     0.074 A 
ATOM     42  C   UNL A   1      39.068  27.920  30.025  1.00  0.00     0.031 C 
ATOM     43  C   UNL A   1      44.618  25.664  26.688  1.00  0.00     0.029 A 
ATOM     44  C   UNL A   1      44.663  27.028  27.200  1.00  0.00     0.049 A 
ATOM     45  H   UNL A   1      43.178  28.022  28.270  1.00  0.00     0.167 HD
ATOM     46  C   UNL A   1      40.044  30.183  30.265  1.00  0.00     0.037 A 
ATOM     47  C   UNL A   1      45.702  27.869  27.025  1.00  0.00     0.037 A 
ATOM     48  C   UNL A   1      41.071  31.176  30.075  1.00  0.00     0.049 A 
ATOM     49  C   UNL A   1      45.593  29.298  27.468  1.00  0.00     0.074 A 
ATOM     50  C   UNL A   1      41.092  32.492  30.510  1.00  0.00     0.029 A 
ATOM     51  N   UNL A   1      42.263  30.962  29.404  1.00  0.00    -0.354 N 
ATOM     52  N   UNL A   1      44.614  29.894  28.101  1.00  0.00    -0.248 NA
ATOM     53  C   UNL A   1      46.718  30.182  27.132  1.00  0.00     0.031 C 
ATOM     54  C   UNL A   1      42.282  33.084  30.070  1.00  0.00     0.029 A 
ATOM     55  C   UNL A   1      43.020  32.124  29.402  1.00  0.00     0.049 A 
ATOM     56  H   UNL A   1      42.534  30.110  28.991  1.00  0.00     0.167 HD
ATOM     57  C   UNL A   1      45.000  31.220  28.236  1.00  0.00     0.074 A 
ATOM     58  C   UNL A   1      46.315  31.337  27.641  1.00  0.00     0.031 C 
ATOM     59  C   UNL A   1      44.319  32.247  28.796  1.00  0.00     0.037 A 
BRANCH  46  60
ATOM     60  C   UNL A   1      38.812  30.610  31.010  1.00  0.00     0.064 A 
ATOM     61  C   UNL A   1      38.738  30.571  32.410  1.00  0.00     0.173 A 
ATOM     62  C   UNL A   1      37.721  31.148  30.309  1.00  0.00     0.173 A 
ATOM     63  F   UNL A   1      39.748  30.052  33.124  1.00  0.00    -0.203 F 
ATOM     64  C   UNL A   1      37.613  31.052  33.079  1.00  0.00     0.198 A 
ATOM     65  C   UNL A   1      36.609  31.648  30.981  1.00  0.00     0.198 A 
ATOM     66  F   UNL A   1      37.746  31.212  28.969  1.00  0.00    -0.203 F 
ATOM     67  F   UNL A   1      37.553  30.987  34.416  1.00  0.00    -0.200 F 
ATOM     68  C   UNL A   1      36.556  31.598  32.366  1.00  0.00     0.200 A 
ATOM     69  F   UNL A   1      35.596  32.188  30.290  1.00  0.00    -0.200 F 
ATOM     70  F   UNL A   1      35.485  32.077  33.012  1.00  0.00    -0.200 F 
ENDBRANCH  46  60
BRANCH  47  71
ATOM     71  C   UNL A   1      46.905  27.393  26.291  1.00  0.00     0.064 A 
ATOM     72  C   UNL A   1      46.998  27.500  24.899  1.00  0.00     0.173 A 
ATOM     73  C   UNL A   1      48.000  26.846  26.981  1.00  0.00     0.173 A 
ATOM     74  F   UNL A   1      45.963  27.978  24.193  1.00  0.00    -0.203 F 
ATOM     75  C   UNL A   1      48.146  27.090  24.224  1.00  0.00     0.198 A 
ATOM     76  C   UNL A   1      49.160  26.472  26.310  1.00  0.00     0.198 A 
ATOM     77  F   UNL A   1      47.953  26.711  28.315  1.00  0.00    -0.203 F 
ATOM     78  F   UNL A   1      48.202  27.175  22.888  1.00  0.00    -0.200 F 
ATOM     79  C   UNL A   1      49.231  26.592  24.932  1.00  0.00     0.200 A 
ATOM     80  F   UNL A   1      50.209  26.007  27.001  1.00  0.00    -0.200 F 
ATOM     81  F   UNL A   1      50.344  26.222  24.283  1.00  0.00    -0.200 F 
ENDBRANCH  47  71
BRANCH  59  82
ATOM     82  C   UNL A   1      44.989  33.587  28.808  1.00  0.00     0.064 A 
ATOM     83  C   UNL A   1      45.872  33.955  29.833  1.00  0.00     0.173 A 
ATOM     84  C   UNL A   1      44.749  34.514  27.782  1.00  0.00     0.173 A 
ATOM     85  F   UNL A   1      46.120  33.109  30.845  1.00  0.00    -0.203 F 
ATOM     86  C   UNL A   1      46.469  35.212  29.847  1.00  0.00     0.198 A 
ATOM     87  C   UNL A   1      45.364  35.763  27.787  1.00  0.00     0.198 A 
ATOM     88  F   UNL A   1      43.915  34.209  26.777  1.00  0.00    -0.203 F 
ATOM     89  F   UNL A   1      47.271  35.562  30.863  1.00  0.00    -0.200 F 
ATOM     90  C   UNL A   1      46.217  36.114  28.823  1.00  0.00     0.200 A 
ATOM     91  F   UNL A   1      45.126  36.629  26.793  1.00  0.00    -0.200 F 
ATOM     92  F   UNL A   1      46.787  37.327  28.841  1.00  0.00    -0.200 F 
ENDBRANCH  59  82
ENDBRANCH  33  34
ENDBRANCH  26  28
ENDBRANCH  25  26
ENDBRANCH  24  25
ENDBRANCH  23  24
ENDBRANCH   1  23
TORSDOF 17
ENDMDL
MODEL 3
REMARK VINA RESULT:     -10.6      4.218      9.617
REMARK SMILES CC(C)[C@H](NC(=O)[C@H](C)NC(=O)C[NH3+])C(=O)OCCOC(=O)c1ccc(-c2c3nc(c(-c4c(F)c(F)c(F)c(F)c4F)c4ccc([nH]4)c(-c4c(F)c(F)c(F)c(F)c4F)c4nc(c(-c5c(F)c(F)c(F)c(F)c5F)c5ccc2[nH]5)C=C4)C=C3)cc1
REMARK SMILES IDX 17 1 15 2 16 3 4 4 2 5 1 6 3 7 5 8 6 9 7 11 8 12 9 13 10 14
REMARK SMILES IDX 11 15 12 17 13 18 14 19 18 23 19 24 20 25 21 26 22 27 23 28
REMARK SMILES IDX 24 29 85 30 25 31 84 32 26 33 27 34 28 35 78 36 29 37 83 38
REMARK SMILES IDX 77 39 79 40 30 41 82 42 76 43 75 44 31 46 63 47 43 48 62 49
REMARK SMILES IDX 44 50 47 51 61 52 80 53 45 54 46 55 60 57 81 58 48 59 32 60
REMARK SMILES IDX 33 61 41 62 34 63 35 64 39 65 42 66 36 67 37 68 40 69 38 70
REMARK SMILES IDX 64 71 65 72 73 73 66 74 67 75 71 76 74 77 68 78 69 79 72 80
REMARK SMILES IDX 70 81 49 82 50 83 58 84 51 85 52 86 56 87 59 88 53 89 54 90
REMARK SMILES IDX 57 91 55 92
REMARK H PARENT 5 10 10 16 14 20 14 21 14 22 79 45 47 56
REMARK Flexibility Score: inf
ROOT
ATOM      1  O   UNL A   1      33.366  28.048  25.068  1.00  0.00    -0.461 OA
ENDROOT
BRANCH   1   2
ATOM      2  C   UNL A   1      32.508  27.007  25.283  1.00  0.00     0.329 C 
ATOM      3  O   UNL A   1      32.240  26.565  26.394  1.00  0.00    -0.250 OA
BRANCH   2   4
ATOM      4  C   UNL A   1      31.973  26.399  23.955  1.00  0.00     0.194 C 
BRANCH   4   5
ATOM      5  C   UNL A   1      30.691  25.579  24.265  1.00  0.00     0.017 C 
ATOM      6  C   UNL A   1      29.468  26.517  24.227  1.00  0.00     0.010 C 
ATOM      7  C   UNL A   1      30.439  24.416  23.305  1.00  0.00     0.010 C 
ENDBRANCH   4   5
BRANCH   4   8
ATOM      8  N   UNL A   1      33.002  25.652  23.218  1.00  0.00    -0.341 N 
ATOM      9  C   UNL A   1      33.807  24.611  23.584  1.00  0.00     0.243 C 
ATOM     10  H   UNL A   1      33.136  25.957  22.292  1.00  0.00     0.164 HD
ATOM     11  O   UNL A   1      34.605  24.228  22.719  1.00  0.00    -0.273 OA
BRANCH   9  12
ATOM     12  C   UNL A   1      33.881  24.048  25.040  1.00  0.00     0.168 C 
ATOM     13  C   UNL A   1      35.283  24.289  25.602  1.00  0.00     0.041 C 
BRANCH  12  14
ATOM     14  N   UNL A   1      33.550  22.629  25.129  1.00  0.00    -0.340 N 
ATOM     15  C   UNL A   1      32.319  22.132  25.467  1.00  0.00     0.275 C 
ATOM     16  H   UNL A   1      34.263  21.981  24.930  1.00  0.00     0.164 HD
ATOM     17  O   UNL A   1      31.881  21.170  24.834  1.00  0.00    -0.268 OA
BRANCH  15  18
ATOM     18  C   UNL A   1      31.461  22.794  26.541  1.00  0.00     0.360 C 
BRANCH  18  19
ATOM     19  N   UNL A   1      30.057  22.381  26.463  1.00  0.00    -0.350 N 
ATOM     20  H   UNL A   1      29.919  21.792  25.642  1.00  0.00     0.344 HD
ATOM     21  H   UNL A   1      29.463  23.207  26.392  1.00  0.00     0.344 HD
ATOM     22  H   UNL A   1      29.809  21.857  27.303  1.00  0.00     0.344 HD
ENDBRANCH  18  19
ENDBRANCH  15  18
ENDBRANCH  12  14
ENDBRANCH   9  12
ENDBRANCH   4   8
ENDBRANCH   2   4
ENDBRANCH   1   2
BRANCH   1  23
ATOM     23  C   UNL A   1      32.762  29.290  24.647  1.00  0.00     0.274 C 
BRANCH  23  24
ATOM     24  C   UNL A   1      31.806  29.836  25.703  1.00  0.00     0.275 C 
BRANCH  24  25
ATOM     25  O   UNL A   1      32.474  29.937  26.973  1.00  0.00    -0.458 OA
BRANCH  25  26
ATOM     26  C   UNL A   1      33.142  31.091  27.198  1.00  0.00     0.338 C 
ATOM     27  O   UNL A   1      32.665  32.221  27.193  1.00  0.00    -0.246 OA
BRANCH  26  28
ATOM     28  C   UNL A   1      34.559  30.844  27.545  1.00  0.00     0.060 A 
ATOM     29  C   UNL A   1      35.050  29.549  27.664  1.00  0.00     0.016 A 
ATOM     30  C   UNL A   1      35.364  31.915  27.942  1.00  0.00     0.016 A 
ATOM     31  C   UNL A   1      36.251  29.328  28.350  1.00  0.00     0.010 A 
ATOM     32  C   UNL A   1      36.626  31.684  28.513  1.00  0.00     0.010 A 
ATOM     33  C   UNL A   1      37.060  30.381  28.806  1.00  0.00    -0.014 A 
BRANCH  33  34
ATOM     34  C   UNL A   1      38.287  30.136  29.643  1.00  0.00     0.031 A 
ATOM     35  C   UNL A   1      39.428  29.278  29.123  1.00  0.00     0.074 A 
ATOM     36  C   UNL A   1      38.444  30.700  30.862  1.00  0.00     0.049 A 
ATOM     37  N   UNL A   1      40.454  28.771  29.768  1.00  0.00    -0.248 NA
ATOM     38  C   UNL A   1      39.423  28.955  27.687  1.00  0.00     0.031 C 
ATOM     39  C   UNL A   1      37.509  31.621  31.505  1.00  0.00     0.029 A 
ATOM     40  N   UNL A   1      39.465  30.580  31.780  1.00  0.00    -0.354 N 
ATOM     41  C   UNL A   1      41.170  28.026  28.836  1.00  0.00     0.074 A 
ATOM     42  C   UNL A   1      40.481  28.163  27.572  1.00  0.00     0.031 C 
ATOM     43  C   UNL A   1      38.019  32.028  32.674  1.00  0.00     0.029 A 
ATOM     44  C   UNL A   1      39.245  31.285  32.939  1.00  0.00     0.049 A 
ATOM     45  H   UNL A   1      40.274  30.041  31.622  1.00  0.00     0.167 HD
ATOM     46  C   UNL A   1      42.287  27.279  29.016  1.00  0.00     0.037 A 
ATOM     47  C   UNL A   1      39.891  31.285  34.122  1.00  0.00     0.037 A 
ATOM     48  C   UNL A   1      43.010  27.160  30.257  1.00  0.00     0.049 A 
ATOM     49  C   UNL A   1      41.065  30.377  34.336  1.00  0.00     0.074 A 
ATOM     50  C   UNL A   1      44.143  26.410  30.529  1.00  0.00     0.029 A 
ATOM     51  N   UNL A   1      42.680  27.819  31.430  1.00  0.00    -0.354 N 
ATOM     52  N   UNL A   1      41.653  29.573  33.487  1.00  0.00    -0.248 NA
ATOM     53  C   UNL A   1      41.638  30.345  35.690  1.00  0.00     0.031 C 
ATOM     54  C   UNL A   1      44.477  26.585  31.877  1.00  0.00     0.029 A 
ATOM     55  C   UNL A   1      43.579  27.480  32.431  1.00  0.00     0.049 A 
ATOM     56  H   UNL A   1      41.921  28.436  31.538  1.00  0.00     0.167 HD
ATOM     57  C   UNL A   1      42.659  28.937  34.200  1.00  0.00     0.074 A 
ATOM     58  C   UNL A   1      42.619  29.466  35.547  1.00  0.00     0.031 C 
ATOM     59  C   UNL A   1      43.530  27.991  33.774  1.00  0.00     0.037 A 
BRANCH  46  60
ATOM     60  C   UNL A   1      42.791  26.474  27.853  1.00  0.00     0.064 A 
ATOM     61  C   UNL A   1      42.357  25.164  27.610  1.00  0.00     0.173 A 
ATOM     62  C   UNL A   1      43.658  27.063  26.918  1.00  0.00     0.173 A 
ATOM     63  F   UNL A   1      41.539  24.552  28.481  1.00  0.00    -0.203 F 
ATOM     64  C   UNL A   1      42.777  24.471  26.476  1.00  0.00     0.198 A 
ATOM     65  C   UNL A   1      44.058  26.376  25.775  1.00  0.00     0.198 A 
ATOM     66  F   UNL A   1      44.098  28.317  27.103  1.00  0.00    -0.203 F 
ATOM     67  F   UNL A   1      42.366  23.211  26.273  1.00  0.00    -0.200 F 
ATOM     68  C   UNL A   1      43.617  25.080  25.556  1.00  0.00     0.200 A 
ATOM     69  F   UNL A   1      44.858  26.972  24.881  1.00  0.00    -0.200 F 
ATOM     70  F   UNL A   1      44.003  24.419  24.457  1.00  0.00    -0.200 F 
ENDBRANCH  46  60
BRANCH  47  71
ATOM     71  C   UNL A   1      39.358  32.110  35.239  1.00  0.00     0.064 A 
ATOM     72  C   UNL A   1      38.524  31.558  36.218  1.00  0.00     0.173 A 
ATOM     73  C   UNL A   1      39.700  33.468  35.359  1.00  0.00     0.173 A 
ATOM     74  F   UNL A   1      38.137  30.277  36.124  1.00  0.00    -0.203 F 
ATOM     75  C   UNL A   1      38.063  32.327  37.285  1.00  0.00     0.198 A 
ATOM     76  C   UNL A   1      39.269  34.225  36.444  1.00  0.00     0.198 A 
ATOM     77  F   UNL A   1      40.485  34.046  34.439  1.00  0.00    -0.203 F 
ATOM     78  F   UNL A   1      37.242  31.785  38.195  1.00  0.00    -0.200 F 
ATOM     79  C   UNL A   1      38.449  33.656  37.405  1.00  0.00     0.200 A 
ATOM     80  F   UNL A   1      39.658  35.502  36.562  1.00  0.00    -0.200 F 
ATOM     81  F   UNL A   1      38.026  34.387  38.444  1.00  0.00    -0.200 F 
ENDBRANCH  47  71
BRANCH  59  82
ATOM     82  C   UNL A   1      44.526  27.480  34.771  1.00  0.00     0.064 A 
ATOM     83  C   UNL A   1      44.273  26.332  35.535  1.00  0.00     0.173 A 
ATOM     84  C   UNL A   1      45.747  28.143  34.963  1.00  0.00     0.173 A 
ATOM     85  F   UNL A   1      43.112  25.673  35.398  1.00  0.00    -0.203 F 
ATOM     86  C   UNL A   1      45.195  25.882  36.476  1.00  0.00     0.198 A 
ATOM     87  C   UNL A   1      46.676  27.678  35.889  1.00  0.00     0.198 A 
ATOM     88  F   UNL A   1      46.037  29.245  34.254  1.00  0.00    -0.203 F 
ATOM     89  F   UNL A   1      44.912  24.811  37.231  1.00  0.00    -0.200 F 
ATOM     90  C   UNL A   1      46.396  26.553  36.651  1.00  0.00     0.200 A 
ATOM     91  F   UNL A   1      47.839  28.323  36.051  1.00  0.00    -0.200 F 
ATOM     92  F   UNL A   1      47.280  26.122  37.562  1.00  0.00    -0.200 F 
ENDBRANCH  59  82
ENDBRANCH  33  34
ENDBRANCH  26  28
ENDBRANCH  25  26
ENDBRANCH  24  25
ENDBRANCH  23  24
ENDBRANCH   1  23
TORSDOF 17
ENDMDL
