MODEL 1
REMARK VINA RESULT:     -12.3      0.000      0.000
REMARK SMILES CCN(CCC(=O)OCCOC(=O)c1ccc(-c2c3nc(c(-c4c(F)c(F)c(F)c(F)c4F)c4ccc([nH]4)c(-c4c(F)c(F)c(F)c(F)c4F)c4nc(c(-c5c(F)c(F)c(F)c(F)c5F)c5ccc2[nH]5)C=C4)C=C3)cc1)C(=O)c1cc(Cl)ccc1F
REMARK SMILES IDX 9 1 8 2 6 3 7 4 5 5 4 6 3 7 2 8 1 9 77 10 78 11 79 12 80 13
REMARK SMILES IDX 85 14 81 15 84 16 86 17 82 18 83 19 10 20 11 21 12 22 13 23
REMARK SMILES IDX 14 24 15 25 76 26 16 27 75 28 17 29 18 30 19 31 69 32 20 33
REMARK SMILES IDX 74 34 68 35 70 36 21 37 73 38 67 39 66 40 22 42 54 43 34 44
REMARK SMILES IDX 53 45 35 46 38 47 52 48 71 49 36 50 37 51 51 53 72 54 39 55
REMARK SMILES IDX 23 56 24 57 32 58 25 59 26 60 30 61 33 62 27 63 28 64 31 65
REMARK SMILES IDX 29 66 55 67 56 68 64 69 57 70 58 71 62 72 65 73 59 74 60 75
REMARK SMILES IDX 63 76 61 77 40 78 41 79 49 80 42 81 43 82 47 83 50 84 44 85
REMARK SMILES IDX 45 86 48 87 46 88
REMARK H PARENT 70 41 38 52
REMARK Flexibility Score: inf
ROOT
ATOM      1  C   UNL A   1      31.762  30.475  26.099  1.00  0.00     0.274 C 
ENDROOT
BRANCH   1   2
ATOM      2  O   UNL A   1      32.260  29.746  27.253  1.00  0.00    -0.462 OA
BRANCH   2   3
ATOM      3  C   UNL A   1      32.012  28.406  27.295  1.00  0.00     0.307 C 
ATOM      4  O   UNL A   1      31.024  27.898  27.812  1.00  0.00    -0.252 OA
BRANCH   3   5
ATOM      5  C   UNL A   1      33.056  27.619  26.522  1.00  0.00     0.144 C 
BRANCH   5   6
ATOM      6  C   UNL A   1      32.651  26.935  25.197  1.00  0.00     0.131 C 
BRANCH   6   7
ATOM      7  N   UNL A   1      31.764  25.780  25.320  1.00  0.00    -0.338 N 
BRANCH   7   8
ATOM      8  C   UNL A   1      30.543  25.856  24.495  1.00  0.00     0.116 C 
ATOM      9  C   UNL A   1      30.105  27.252  24.069  1.00  0.00     0.027 C 
ENDBRANCH   7   8
BRANCH   7  10
ATOM     10  C   UNL A   1      31.929  24.683  26.177  1.00  0.00     0.256 C 
ATOM     11  O   UNL A   1      31.319  24.628  27.250  1.00  0.00    -0.269 OA
BRANCH  10  12
ATOM     12  C   UNL A   1      32.915  23.573  25.985  1.00  0.00     0.077 A 
ATOM     13  C   UNL A   1      34.649  24.127  26.029  1.00  0.00     0.037 A 
ATOM     14  C   UNL A   1      32.562  21.937  25.299  1.00  0.00     0.136 A 
ATOM     15  C   UNL A   1      35.950  23.082  25.363  1.00  0.00     0.042 A 
ATOM     16  C   UNL A   1      33.876  20.903  24.593  1.00  0.00     0.041 A 
ATOM     17  F   UNL A   1      31.372  21.344  25.393  1.00  0.00    -0.206 F 
ATOM     18  Cl  UNL A   1      37.581  23.620  25.365  1.00  0.00    -0.084 Cl
ATOM     19  C   UNL A   1      35.572  21.475  24.642  1.00  0.00     0.023 A 
ENDBRANCH  10  12
ENDBRANCH   7  10
ENDBRANCH   6   7
ENDBRANCH   5   6
ENDBRANCH   3   5
ENDBRANCH   2   3
ENDBRANCH   1   2
BRANCH   1  20
ATOM     20  C   UNL A   1      31.418  32.051  26.467  1.00  0.00     0.275 C 
BRANCH  20  21
ATOM     21  O   UNL A   1      32.425  33.363  27.626  1.00  0.00    -0.458 OA
BRANCH  21  22
ATOM     22  C   UNL A   1      33.008  34.382  28.429  1.00  0.00     0.338 C 
ATOM     23  O   UNL A   1      32.531  35.515  28.465  1.00  0.00    -0.246 OA
BRANCH  22  24
ATOM     24  C   UNL A   1      34.255  34.157  29.235  1.00  0.00     0.060 A 
ATOM     25  C   UNL A   1      35.533  34.124  28.659  1.00  0.00     0.016 A 
ATOM     26  C   UNL A   1      34.123  33.822  30.586  1.00  0.00     0.016 A 
ATOM     27  C   UNL A   1      36.676  33.883  29.428  1.00  0.00     0.010 A 
ATOM     28  C   UNL A   1      35.259  33.501  31.346  1.00  0.00     0.010 A 
ATOM     29  C   UNL A   1      36.542  33.520  30.769  1.00  0.00    -0.014 A 
BRANCH  29  30
ATOM     30  C   UNL A   1      37.690  32.904  31.482  1.00  0.00     0.031 A 
ATOM     31  C   UNL A   1      38.372  31.727  30.838  1.00  0.00     0.074 A 
ATOM     32  C   UNL A   1      38.137  33.373  32.661  1.00  0.00     0.049 A 
ATOM     33  N   UNL A   1      39.313  30.947  31.305  1.00  0.00    -0.248 NA
ATOM     34  C   UNL A   1      37.922  31.383  29.479  1.00  0.00     0.031 C 
ATOM     35  C   UNL A   1      37.625  34.548  33.359  1.00  0.00     0.029 A 
ATOM     36  N   UNL A   1      39.128  32.896  33.486  1.00  0.00    -0.354 N 
ATOM     37  C   UNL A   1      39.541  30.001  30.314  1.00  0.00     0.074 A 
ATOM     38  C   UNL A   1      38.635  30.296  29.226  1.00  0.00     0.031 C 
ATOM     39  C   UNL A   1      38.291  34.690  34.519  1.00  0.00     0.029 A 
ATOM     40  C   UNL A   1      39.252  33.595  34.661  1.00  0.00     0.049 A 
ATOM     41  H   UNL A   1      39.697  32.125  33.255  1.00  0.00     0.167 HD
ATOM     42  C   UNL A   1      40.425  28.974  30.311  1.00  0.00     0.037 A 
ATOM     43  C   UNL A   1      40.030  33.359  35.736  1.00  0.00     0.037 A 
ATOM     44  C   UNL A   1      41.340  28.688  31.384  1.00  0.00     0.049 A 
ATOM     45  C   UNL A   1      40.956  32.168  35.740  1.00  0.00     0.074 A 
ATOM     46  C   UNL A   1      42.293  27.690  31.461  1.00  0.00     0.029 A 
ATOM     47  N   UNL A   1      41.410  29.402  32.570  1.00  0.00    -0.354 N 
ATOM     48  N   UNL A   1      41.173  31.281  34.799  1.00  0.00    -0.248 NA
ATOM     49  C   UNL A   1      41.745  31.946  36.961  1.00  0.00     0.031 C 
ATOM     50  C   UNL A   1      42.908  27.766  32.715  1.00  0.00     0.029 A 
ATOM     51  C   UNL A   1      42.374  28.848  33.397  1.00  0.00     0.049 A 
ATOM     52  H   UNL A   1      40.857  30.186  32.793  1.00  0.00     0.167 HD
ATOM     53  C   UNL A   1      42.145  30.422  35.298  1.00  0.00     0.074 A 
ATOM     54  C   UNL A   1      42.481  30.897  36.623  1.00  0.00     0.031 C 
ATOM     55  C   UNL A   1      42.712  29.339  34.709  1.00  0.00     0.037 A 
BRANCH  42  56
ATOM     56  C   UNL A   1      40.413  28.059  29.123  1.00  0.00     0.064 A 
ATOM     57  C   UNL A   1      39.635  26.891  29.092  1.00  0.00     0.173 A 
ATOM     58  C   UNL A   1      41.180  28.367  27.989  1.00  0.00     0.173 A 
ATOM     59  F   UNL A   1      38.897  26.543  30.157  1.00  0.00    -0.203 F 
ATOM     60  C   UNL A   1      39.647  26.053  27.980  1.00  0.00     0.198 A 
ATOM     61  C   UNL A   1      41.166  27.543  26.868  1.00  0.00     0.198 A 
ATOM     62  F   UNL A   1      41.939  29.473  27.966  1.00  0.00    -0.203 F 
ATOM     63  F   UNL A   1      38.934  24.918  27.992  1.00  0.00    -0.200 F 
ATOM     64  C   UNL A   1      40.407  26.382  26.868  1.00  0.00     0.200 A 
ATOM     65  F   UNL A   1      41.891  27.869  25.788  1.00  0.00    -0.200 F 
ATOM     66  F   UNL A   1      40.412  25.577  25.796  1.00  0.00    -0.200 F 
ENDBRANCH  42  56
BRANCH  43  67
ATOM     67  C   UNL A   1      39.972  34.266  36.913  1.00  0.00     0.064 A 
ATOM     68  C   UNL A   1      40.838  35.363  37.017  1.00  0.00     0.173 A 
ATOM     69  C   UNL A   1      39.072  34.043  37.965  1.00  0.00     0.173 A 
ATOM     70  F   UNL A   1      41.739  35.598  36.052  1.00  0.00    -0.203 F 
ATOM     71  C   UNL A   1      40.816  36.194  38.135  1.00  0.00     0.198 A 
ATOM     72  C   UNL A   1      39.032  34.890  39.070  1.00  0.00     0.198 A 
ATOM     73  F   UNL A   1      38.228  33.001  37.917  1.00  0.00    -0.203 F 
ATOM     74  F   UNL A   1      41.687  37.208  38.231  1.00  0.00    -0.200 F 
ATOM     75  C   UNL A   1      39.909  35.961  39.158  1.00  0.00     0.200 A 
ATOM     76  F   UNL A   1      38.149  34.666  40.053  1.00  0.00    -0.200 F 
ATOM     77  F   UNL A   1      39.886  36.762  40.232  1.00  0.00    -0.200 F 
ENDBRANCH  43  67
BRANCH  55  78
ATOM     78  C   UNL A   1      43.793  28.623  35.467  1.00  0.00     0.064 A 
ATOM     79  C   UNL A   1      43.508  27.561  36.337  1.00  0.00     0.173 A 
ATOM     80  C   UNL A   1      45.138  28.983  35.288  1.00  0.00     0.173 A 
ATOM     81  F   UNL A   1      42.238  27.188  36.554  1.00  0.00    -0.203 F 
ATOM     82  C   UNL A   1      44.528  26.904  37.022  1.00  0.00     0.198 A 
ATOM     83  C   UNL A   1      46.157  28.304  35.952  1.00  0.00     0.198 A 
ATOM     84  F   UNL A   1      45.466  29.986  34.461  1.00  0.00    -0.203 F 
ATOM     85  F   UNL A   1      44.229  25.924  37.887  1.00  0.00    -0.200 F 
ATOM     86  C   UNL A   1      45.850  27.272  36.824  1.00  0.00     0.200 A 
ATOM     87  F   UNL A   1      47.435  28.652  35.748  1.00  0.00    -0.200 F 
ATOM     88  F   UNL A   1      46.830  26.635  37.481  1.00  0.00    -0.200 F 
ENDBRANCH  55  78
ENDBRANCH  29  30
ENDBRANCH  22  24
ENDBRANCH  21  22
ENDBRANCH  20  21
ENDBRANCH   1  20
TORSDOF 16
ENDMDL
MODEL 2
REMARK VINA RESULT:     -12.3      0.977      2.005
REMARK SMILES CCN(CCC(=O)OCCOC(=O)c1ccc(-c2c3nc(c(-c4c(F)c(F)c(F)c(F)c4F)c4ccc([nH]4)c(-c4c(F)c(F)c(F)c(F)c4F)c4nc(c(-c5c(F)c(F)c(F)c(F)c5F)c5ccc2[nH]5)C=C4)C=C3)cc1)C(=O)c1cc(Cl)ccc1F
REMARK SMILES IDX 9 1 8 2 6 3 7 4 5 5 4 6 3 7 2 8 1 9 77 10 78 11 79 12 80 13
REMARK SMILES IDX 85 14 81 15 84 16 86 17 82 18 83 19 10 20 11 21 12 22 13 23
REMARK SMILES IDX 14 24 15 25 76 26 16 27 75 28 17 29 18 30 19 31 69 32 20 33
REMARK SMILES IDX 74 34 68 35 70 36 21 37 73 38 67 39 66 40 22 42 54 43 34 44
REMARK SMILES IDX 53 45 35 46 38 47 52 48 71 49 36 50 37 51 51 53 72 54 39 55
REMARK SMILES IDX 23 56 24 57 32 58 25 59 26 60 30 61 33 62 27 63 28 64 31 65
REMARK SMILES IDX 29 66 55 67 56 68 64 69 57 70 58 71 62 72 65 73 59 74 60 75
REMARK SMILES IDX 63 76 61 77 40 78 41 79 49 80 42 81 43 82 47 83 50 84 44 85
REMARK SMILES IDX 45 86 48 87 46 88
REMARK H PARENT 70 41 38 52
REMARK Flexibility Score: inf
ROOT
ATOM      1  C   UNL A   1      31.757  30.422  26.112  1.00  0.00     0.274 C 
ENDROOT
BRANCH   1   2
ATOM      2  O   UNL A   1      32.293  29.700  27.253  1.00  0.00    -0.462 OA
BRANCH   2   3
ATOM      3  C   UNL A   1      32.009  28.369  27.334  1.00  0.00     0.307 C 
ATOM      4  O   UNL A   1      31.098  27.893  28.002  1.00  0.00    -0.252 OA
BRANCH   3   5
ATOM      5  C   UNL A   1      32.888  27.550  26.404  1.00  0.00     0.144 C 
BRANCH   5   6
ATOM      6  C   UNL A   1      32.253  26.888  25.162  1.00  0.00     0.131 C 
BRANCH   6   7
ATOM      7  N   UNL A   1      31.425  25.712  25.418  1.00  0.00    -0.338 N 
BRANCH   7   8
ATOM      8  C   UNL A   1      30.028  25.838  24.962  1.00  0.00     0.116 C 
ATOM      9  C   UNL A   1      29.712  27.040  24.080  1.00  0.00     0.027 C 
ENDBRANCH   7   8
BRANCH   7  10
ATOM     10  C   UNL A   1      31.808  24.549  26.101  1.00  0.00     0.256 C 
ATOM     11  O   UNL A   1      31.403  24.333  27.247  1.00  0.00    -0.269 OA
BRANCH  10  12
ATOM     12  C   UNL A   1      32.811  23.550  25.616  1.00  0.00     0.077 A 
ATOM     13  C   UNL A   1      32.107  21.896  25.324  1.00  0.00     0.037 A 
ATOM     14  C   UNL A   1      34.610  23.700  25.733  1.00  0.00     0.136 A 
ATOM     15  C   UNL A   1      33.184  20.463  25.205  1.00  0.00     0.042 A 
ATOM     16  C   UNL A   1      35.689  22.242  25.651  1.00  0.00     0.041 A 
ATOM     17  F   UNL A   1      35.250  24.870  25.745  1.00  0.00    -0.206 F 
ATOM     18  Cl  UNL A   1      32.520  18.896  24.971  1.00  0.00    -0.084 Cl
ATOM     19  C   UNL A   1      34.970  20.627  25.370  1.00  0.00     0.023 A 
ENDBRANCH  10  12
ENDBRANCH   7  10
ENDBRANCH   6   7
ENDBRANCH   5   6
ENDBRANCH   3   5
ENDBRANCH   2   3
ENDBRANCH   1   2
BRANCH   1  20
ATOM     20  C   UNL A   1      31.396  31.992  26.493  1.00  0.00     0.275 C 
BRANCH  20  21
ATOM     21  O   UNL A   1      32.415  33.322  27.619  1.00  0.00    -0.458 OA
BRANCH  21  22
ATOM     22  C   UNL A   1      33.001  34.349  28.410  1.00  0.00     0.338 C 
ATOM     23  O   UNL A   1      32.549  35.492  28.408  1.00  0.00    -0.246 OA
BRANCH  22  24
ATOM     24  C   UNL A   1      34.224  34.118  29.250  1.00  0.00     0.060 A 
ATOM     25  C   UNL A   1      35.526  34.228  28.739  1.00  0.00     0.016 A 
ATOM     26  C   UNL A   1      34.057  33.631  30.550  1.00  0.00     0.016 A 
ATOM     27  C   UNL A   1      36.648  33.978  29.535  1.00  0.00     0.010 A 
ATOM     28  C   UNL A   1      35.178  33.303  31.329  1.00  0.00     0.010 A 
ATOM     29  C   UNL A   1      36.481  33.465  30.823  1.00  0.00    -0.014 A 
BRANCH  29  30
ATOM     30  C   UNL A   1      37.637  32.850  31.524  1.00  0.00     0.031 A 
ATOM     31  C   UNL A   1      38.334  31.696  30.857  1.00  0.00     0.074 A 
ATOM     32  C   UNL A   1      38.076  33.301  32.713  1.00  0.00     0.049 A 
ATOM     33  N   UNL A   1      39.285  30.919  31.309  1.00  0.00    -0.248 NA
ATOM     34  C   UNL A   1      37.891  31.373  29.491  1.00  0.00     0.031 C 
ATOM     35  C   UNL A   1      37.547  34.454  33.434  1.00  0.00     0.029 A 
ATOM     36  N   UNL A   1      39.073  32.820  33.529  1.00  0.00    -0.354 N 
ATOM     37  C   UNL A   1      39.527  29.996  30.300  1.00  0.00     0.074 A 
ATOM     38  C   UNL A   1      38.618  30.302  29.217  1.00  0.00     0.031 C 
ATOM     39  C   UNL A   1      38.211  34.581  34.598  1.00  0.00     0.029 A 
ATOM     40  C   UNL A   1      39.186  33.497  34.718  1.00  0.00     0.049 A 
ATOM     41  H   UNL A   1      39.651  32.062  33.284  1.00  0.00     0.167 HD
ATOM     42  C   UNL A   1      40.424  28.981  30.277  1.00  0.00     0.037 A 
ATOM     43  C   UNL A   1      39.966  33.249  35.789  1.00  0.00     0.037 A 
ATOM     44  C   UNL A   1      41.342  28.686  31.345  1.00  0.00     0.049 A 
ATOM     45  C   UNL A   1      40.908  32.070  35.770  1.00  0.00     0.074 A 
ATOM     46  C   UNL A   1      42.308  27.699  31.402  1.00  0.00     0.029 A 
ATOM     47  N   UNL A   1      41.402  29.376  32.545  1.00  0.00    -0.354 N 
ATOM     48  N   UNL A   1      41.137  31.206  34.812  1.00  0.00    -0.248 NA
ATOM     49  C   UNL A   1      41.698  31.835  36.987  1.00  0.00     0.031 C 
ATOM     50  C   UNL A   1      42.920  27.758  32.659  1.00  0.00     0.029 A 
ATOM     51  C   UNL A   1      42.372  28.818  33.362  1.00  0.00     0.049 A 
ATOM     52  H   UNL A   1      40.838  30.148  32.783  1.00  0.00     0.167 HD
ATOM     53  C   UNL A   1      42.121  30.350  35.294  1.00  0.00     0.074 A 
ATOM     54  C   UNL A   1      42.448  30.802  36.629  1.00  0.00     0.031 C 
ATOM     55  C   UNL A   1      42.702  29.287  34.684  1.00  0.00     0.037 A 
BRANCH  42  56
ATOM     56  C   UNL A   1      40.426  28.091  29.070  1.00  0.00     0.064 A 
ATOM     57  C   UNL A   1      41.195  28.380  27.933  1.00  0.00     0.173 A 
ATOM     58  C   UNL A   1      39.657  26.916  29.061  1.00  0.00     0.173 A 
ATOM     59  F   UNL A   1      41.934  29.499  27.886  1.00  0.00    -0.203 F 
ATOM     60  C   UNL A   1      41.173  27.542  26.822  1.00  0.00     0.198 A 
ATOM     61  C   UNL A   1      39.661  26.065  27.960  1.00  0.00     0.198 A 
ATOM     62  F   UNL A   1      38.905  26.591  30.124  1.00  0.00    -0.203 F 
ATOM     63  F   UNL A   1      41.878  27.863  25.728  1.00  0.00    -0.200 F 
ATOM     64  C   UNL A   1      40.412  26.382  26.839  1.00  0.00     0.200 A 
ATOM     65  F   UNL A   1      38.935  24.938  27.984  1.00  0.00    -0.200 F 
ATOM     66  F   UNL A   1      40.397  25.574  25.770  1.00  0.00    -0.200 F 
ENDBRANCH  42  56
BRANCH  43  67
ATOM     67  C   UNL A   1      39.895  34.131  36.984  1.00  0.00     0.064 A 
ATOM     68  C   UNL A   1      40.706  35.269  37.086  1.00  0.00     0.173 A 
ATOM     69  C   UNL A   1      39.037  33.844  38.056  1.00  0.00     0.173 A 
ATOM     70  F   UNL A   1      41.567  35.567  36.101  1.00  0.00    -0.203 F 
ATOM     71  C   UNL A   1      40.673  36.078  38.220  1.00  0.00     0.198 A 
ATOM     72  C   UNL A   1      38.985  34.668  39.178  1.00  0.00     0.198 A 
ATOM     73  F   UNL A   1      38.246  32.761  38.011  1.00  0.00    -0.203 F 
ATOM     74  F   UNL A   1      41.494  37.134  38.312  1.00  0.00    -0.200 F 
ATOM     75  C   UNL A   1      39.808  35.781  39.262  1.00  0.00     0.200 A 
ATOM     76  F   UNL A   1      38.142  34.381  40.179  1.00  0.00    -0.200 F 
ATOM     77  F   UNL A   1      39.775  36.560  40.352  1.00  0.00    -0.200 F 
ENDBRANCH  43  67
BRANCH  55  78
ATOM     78  C   UNL A   1      43.792  28.570  35.428  1.00  0.00     0.064 A 
ATOM     79  C   UNL A   1      45.141  28.923  35.285  1.00  0.00     0.173 A 
ATOM     80  C   UNL A   1      43.475  27.539  36.327  1.00  0.00     0.173 A 
ATOM     81  F   UNL A   1      45.499  29.891  34.428  1.00  0.00    -0.203 F 
ATOM     82  C   UNL A   1      46.136  28.251  35.993  1.00  0.00     0.198 A 
ATOM     83  C   UNL A   1      44.468  26.890  37.055  1.00  0.00     0.198 A 
ATOM     84  F   UNL A   1      42.199  27.168  36.507  1.00  0.00    -0.203 F 
ATOM     85  F   UNL A   1      47.423  28.572  35.804  1.00  0.00    -0.200 F 
ATOM     86  C   UNL A   1      45.798  27.241  36.881  1.00  0.00     0.200 A 
ATOM     87  F   UNL A   1      44.138  25.924  37.923  1.00  0.00    -0.200 F 
ATOM     88  F   UNL A   1      46.756  26.600  37.565  1.00  0.00    -0.200 F 
ENDBRANCH  55  78
ENDBRANCH  29  30
ENDBRANCH  22  24
ENDBRANCH  21  22
ENDBRANCH  20  21
ENDBRANCH   1  20
TORSDOF 16
ENDMDL
MODEL 3
REMARK VINA RESULT:     -12.3      2.283      8.057
REMARK SMILES CCN(CCC(=O)OCCOC(=O)c1ccc(-c2c3nc(c(-c4c(F)c(F)c(F)c(F)c4F)c4ccc([nH]4)c(-c4c(F)c(F)c(F)c(F)c4F)c4nc(c(-c5c(F)c(F)c(F)c(F)c5F)c5ccc2[nH]5)C=C4)C=C3)cc1)C(=O)c1cc(Cl)ccc1F
REMARK SMILES IDX 9 1 8 2 6 3 7 4 5 5 4 6 3 7 2 8 1 9 77 10 78 11 79 12 80 13
REMARK SMILES IDX 85 14 81 15 84 16 86 17 82 18 83 19 10 20 11 21 12 22 13 23
REMARK SMILES IDX 14 24 15 25 76 26 16 27 75 28 17 29 18 30 19 31 69 32 20 33
REMARK SMILES IDX 74 34 68 35 70 36 21 37 73 38 67 39 66 40 22 42 54 43 34 44
REMARK SMILES IDX 53 45 35 46 38 47 52 48 71 49 36 50 37 51 51 53 72 54 39 55
REMARK SMILES IDX 23 56 24 57 32 58 25 59 26 60 30 61 33 62 27 63 28 64 31 65
REMARK SMILES IDX 29 66 55 67 56 68 64 69 57 70 58 71 62 72 65 73 59 74 60 75
REMARK SMILES IDX 63 76 61 77 40 78 41 79 49 80 42 81 43 82 47 83 50 84 44 85
REMARK SMILES IDX 45 86 48 87 46 88
REMARK H PARENT 70 41 38 52
REMARK Flexibility Score: inf
ROOT
ATOM      1  C   UNL A   1      31.648  30.793  26.094  1.00  0.00     0.274 C 
ENDROOT
BRANCH   1   2
ATOM      2  O   UNL A   1      32.144  30.050  27.239  1.00  0.00    -0.462 OA
BRANCH   2   3
ATOM      3  C   UNL A   1      31.898  28.709  27.264  1.00  0.00     0.307 C 
ATOM      4  O   UNL A   1      31.061  28.169  27.977  1.00  0.00    -0.252 OA
BRANCH   3   5
ATOM      5  C   UNL A   1      32.712  27.971  26.214  1.00  0.00     0.144 C 
BRANCH   5   6
ATOM      6  C   UNL A   1      31.988  27.014  25.242  1.00  0.00     0.131 C 
BRANCH   6   7
ATOM      7  N   UNL A   1      32.278  27.206  23.823  1.00  0.00    -0.338 N 
BRANCH   7   8
ATOM      8  C   UNL A   1      33.662  27.626  23.532  1.00  0.00     0.116 C 
ATOM      9  C   UNL A   1      33.828  28.999  22.894  1.00  0.00     0.027 C 
ENDBRANCH   7   8
BRANCH   7  10
ATOM     10  C   UNL A   1      31.369  27.103  22.759  1.00  0.00     0.256 C 
ATOM     11  O   UNL A   1      31.663  26.469  21.741  1.00  0.00    -0.269 OA
BRANCH  10  12
ATOM     12  C   UNL A   1      30.062  27.826  22.664  1.00  0.00     0.077 A 
ATOM     13  C   UNL A   1      30.231  29.571  22.172  1.00  0.00     0.037 A 
ATOM     14  C   UNL A   1      28.492  27.296  23.391  1.00  0.00     0.136 A 
ATOM     15  C   UNL A   1      28.883  30.725  22.451  1.00  0.00     0.042 A 
ATOM     16  C   UNL A   1      27.149  28.475  23.706  1.00  0.00     0.041 A 
ATOM     17  F   UNL A   1      28.178  26.018  23.606  1.00  0.00    -0.206 F 
ATOM     18  Cl  UNL A   1      29.055  32.380  22.025  1.00  0.00    -0.084 Cl
ATOM     19  C   UNL A   1      27.344  30.187  23.218  1.00  0.00     0.023 A 
ENDBRANCH  10  12
ENDBRANCH   7  10
ENDBRANCH   6   7
ENDBRANCH   5   6
ENDBRANCH   3   5
ENDBRANCH   2   3
ENDBRANCH   1   2
BRANCH   1  20
ATOM     20  C   UNL A   1      31.197  32.331  26.506  1.00  0.00     0.275 C 
BRANCH  20  21
ATOM     21  O   UNL A   1      32.183  33.729  27.578  1.00  0.00    -0.458 OA
BRANCH  21  22
ATOM     22  C   UNL A   1      32.926  34.595  28.426  1.00  0.00     0.338 C 
ATOM     23  O   UNL A   1      32.640  35.787  28.528  1.00  0.00    -0.246 OA
BRANCH  22  24
ATOM     24  C   UNL A   1      34.122  34.128  29.205  1.00  0.00     0.060 A 
ATOM     25  C   UNL A   1      35.437  34.303  28.749  1.00  0.00     0.016 A 
ATOM     26  C   UNL A   1      33.910  33.361  30.354  1.00  0.00     0.016 A 
ATOM     27  C   UNL A   1      36.532  33.831  29.480  1.00  0.00     0.010 A 
ATOM     28  C   UNL A   1      35.002  32.817  31.050  1.00  0.00     0.010 A 
ATOM     29  C   UNL A   1      36.320  33.041  30.611  1.00  0.00    -0.014 A 
BRANCH  29  30
ATOM     30  C   UNL A   1      37.438  32.235  31.165  1.00  0.00     0.031 A 
ATOM     31  C   UNL A   1      37.928  32.566  32.549  1.00  0.00     0.074 A 
ATOM     32  C   UNL A   1      38.003  31.226  30.479  1.00  0.00     0.049 A 
ATOM     33  N   UNL A   1      38.956  32.095  33.207  1.00  0.00    -0.248 NA
ATOM     34  C   UNL A   1      37.151  33.575  33.287  1.00  0.00     0.031 C 
ATOM     35  C   UNL A   1      37.580  30.747  29.167  1.00  0.00     0.029 A 
ATOM     36  N   UNL A   1      39.076  30.428  30.800  1.00  0.00    -0.354 N 
ATOM     37  C   UNL A   1      38.969  32.774  34.418  1.00  0.00     0.074 A 
ATOM     38  C   UNL A   1      37.855  33.696  34.402  1.00  0.00     0.031 C 
ATOM     39  C   UNL A   1      38.398  29.750  28.783  1.00  0.00     0.029 A 
ATOM     40  C   UNL A   1      39.423  29.546  29.807  1.00  0.00     0.049 A 
ATOM     41  H   UNL A   1      39.550  30.484  31.661  1.00  0.00     0.167 HD
ATOM     42  C   UNL A   1      39.834  32.643  35.454  1.00  0.00     0.037 A 
ATOM     43  C   UNL A   1      40.465  28.695  29.725  1.00  0.00     0.037 A 
ATOM     44  C   UNL A   1      40.932  31.714  35.481  1.00  0.00     0.049 A 
ATOM     45  C   UNL A   1      41.457  28.617  30.860  1.00  0.00     0.074 A 
ATOM     46  C   UNL A   1      41.844  31.487  36.496  1.00  0.00     0.029 A 
ATOM     47  N   UNL A   1      41.268  30.861  34.442  1.00  0.00    -0.354 N 
ATOM     48  N   UNL A   1      41.461  29.255  32.004  1.00  0.00    -0.248 NA
ATOM     49  C   UNL A   1      42.592  27.698  30.685  1.00  0.00     0.031 C 
ATOM     50  C   UNL A   1      42.764  30.532  36.051  1.00  0.00     0.029 A 
ATOM     51  C   UNL A   1      42.391  30.124  34.780  1.00  0.00     0.049 A 
ATOM     52  H   UNL A   1      40.781  30.790  33.588  1.00  0.00     0.167 HD
ATOM     53  C   UNL A   1      42.571  28.790  32.699  1.00  0.00     0.074 A 
ATOM     54  C   UNL A   1      43.215  27.812  31.850  1.00  0.00     0.031 C 
ATOM     55  C   UNL A   1      43.015  29.140  33.933  1.00  0.00     0.037 A 
BRANCH  42  56
ATOM     56  C   UNL A   1      39.647  33.560  36.626  1.00  0.00     0.064 A 
ATOM     57  C   UNL A   1      38.877  33.194  37.741  1.00  0.00     0.173 A 
ATOM     58  C   UNL A   1      40.267  34.819  36.641  1.00  0.00     0.173 A 
ATOM     59  F   UNL A   1      38.251  32.008  37.768  1.00  0.00    -0.203 F 
ATOM     60  C   UNL A   1      38.712  34.066  38.814  1.00  0.00     0.198 A 
ATOM     61  C   UNL A   1      40.125  35.675  37.729  1.00  0.00     0.198 A 
ATOM     62  F   UNL A   1      41.017  35.216  35.602  1.00  0.00    -0.203 F 
ATOM     63  F   UNL A   1      37.932  33.715  39.846  1.00  0.00    -0.200 F 
ATOM     64  C   UNL A   1      39.341  35.302  38.810  1.00  0.00     0.200 A 
ATOM     65  F   UNL A   1      40.744  36.865  37.729  1.00  0.00    -0.200 F 
ATOM     66  F   UNL A   1      39.185  36.137  39.847  1.00  0.00    -0.200 F 
ENDBRANCH  42  56
BRANCH  43  67
ATOM     67  C   UNL A   1      40.638  27.841  28.520  1.00  0.00     0.064 A 
ATOM     68  C   UNL A   1      41.378  28.293  27.419  1.00  0.00     0.173 A 
ATOM     69  C   UNL A   1      40.048  26.571  28.432  1.00  0.00     0.173 A 
ATOM     70  F   UNL A   1      41.933  29.514  27.443  1.00  0.00    -0.203 F 
ATOM     71  C   UNL A   1      41.511  27.514  26.271  1.00  0.00     0.198 A 
ATOM     72  C   UNL A   1      40.204  25.782  27.294  1.00  0.00     0.198 A 
ATOM     73  F   UNL A   1      39.321  26.096  29.455  1.00  0.00    -0.203 F 
ATOM     74  F   UNL A   1      42.185  27.990  25.215  1.00  0.00    -0.200 F 
ATOM     75  C   UNL A   1      40.929  26.257  26.212  1.00  0.00     0.200 A 
ATOM     76  F   UNL A   1      39.646  24.565  27.244  1.00  0.00    -0.200 F 
ATOM     77  F   UNL A   1      41.059  25.507  25.109  1.00  0.00    -0.200 F 
ENDBRANCH  43  67
BRANCH  55  78
ATOM     78  C   UNL A   1      44.223  28.424  34.465  1.00  0.00     0.064 A 
ATOM     79  C   UNL A   1      45.518  28.936  34.303  1.00  0.00     0.173 A 
ATOM     80  C   UNL A   1      44.076  27.225  35.180  1.00  0.00     0.173 A 
ATOM     81  F   UNL A   1      45.714  30.071  33.615  1.00  0.00    -0.203 F 
ATOM     82  C   UNL A   1      46.624  28.260  34.813  1.00  0.00     0.198 A 
ATOM     83  C   UNL A   1      45.181  26.568  35.714  1.00  0.00     0.198 A 
ATOM     84  F   UNL A   1      42.859  26.695  35.370  1.00  0.00    -0.203 F 
ATOM     85  F   UNL A   1      47.857  28.743  34.605  1.00  0.00    -0.200 F 
ATOM     86  C   UNL A   1      46.454  27.081  35.523  1.00  0.00     0.200 A 
ATOM     87  F   UNL A   1      45.013  25.436  36.412  1.00  0.00    -0.200 F 
ATOM     88  F   UNL A   1      47.520  26.436  36.018  1.00  0.00    -0.200 F 
ENDBRANCH  55  78
ENDBRANCH  29  30
ENDBRANCH  22  24
ENDBRANCH  21  22
ENDBRANCH  20  21
ENDBRANCH   1  20
TORSDOF 16
ENDMDL
