MODEL 1
REMARK VINA RESULT:     -11.9      0.000      0.000
REMARK SMILES CC1(C)[C@H](C(=O)Nc2ccccc2C(N)=O)[C@@H]1C(=O)OCCOC(=O)c1ccc(-c2c3nc(c(-c4c(F)c(F)c(F)c(F)c4F)c4ccc([nH]4)c(-c4c(F)c(F)c(F)c(F)c4F)c4nc(c(-c5c(F)c(F)c(F)c(F)c5F)c5ccc2[nH]5)C=C4)C=C3)cc1
REMARK SMILES IDX 21 1 20 2 18 3 19 4 17 5 1 6 2 7 3 8 4 9 5 10 6 11 7 12 8 14
REMARK SMILES IDX 9 15 13 16 10 17 12 18 11 19 14 20 15 21 16 22 22 25 23 26
REMARK SMILES IDX 24 27 25 28 26 29 27 30 88 31 28 32 87 33 29 34 30 35 31 36
REMARK SMILES IDX 81 37 32 38 86 39 80 40 82 41 33 42 85 43 79 44 78 45 34 47
REMARK SMILES IDX 66 48 46 49 65 50 47 51 50 52 64 53 83 54 48 55 49 56 63 58
REMARK SMILES IDX 84 59 51 60 35 61 36 62 44 63 37 64 38 65 42 66 45 67 39 68
REMARK SMILES IDX 40 69 43 70 41 71 67 72 68 73 76 74 69 75 70 76 74 77 77 78
REMARK SMILES IDX 71 79 72 80 75 81 73 82 52 83 53 84 61 85 54 86 55 87 59 88
REMARK SMILES IDX 62 89 56 90 57 91 60 92 58 93
REMARK H PARENT 7 13 15 23 15 24 82 46 50 57
REMARK Flexibility Score: inf
ROOT
ATOM      1  C   UNL A   1      32.091  29.852  25.174  1.00  0.00     0.274 C 
ENDROOT
BRANCH   1   2
ATOM      2  O   UNL A   1      32.589  28.674  25.838  1.00  0.00    -0.462 OA
BRANCH   2   3
ATOM      3  C   UNL A   1      31.663  27.687  25.971  1.00  0.00     0.310 C 
ATOM      4  O   UNL A   1      31.460  27.076  27.009  1.00  0.00    -0.252 OA
BRANCH   3   5
ATOM      5  C   UNL A   1      30.811  27.508  24.753  1.00  0.00     0.118 C 
ATOM      6  C   UNL A   1      28.641  26.341  23.875  1.00  0.00     0.013 C 
ATOM      7  C   UNL A   1      30.002  26.231  24.565  1.00  0.00    -0.009 C 
ATOM      8  C   UNL A   1      29.904  25.247  25.696  1.00  0.00     0.013 C 
ATOM      9  C   UNL A   1      31.164  26.527  23.628  1.00  0.00     0.100 C 
BRANCH   9  10
ATOM     10  C   UNL A   1      32.625  26.427  23.371  1.00  0.00     0.228 C 
ATOM     11  O   UNL A   1      33.126  27.369  22.749  1.00  0.00    -0.274 OA
ATOM     12  N   UNL A   1      33.509  25.523  23.880  1.00  0.00    -0.325 N 
ATOM     13  H   UNL A   1      34.451  25.765  23.730  1.00  0.00     0.169 HD
BRANCH  12  14
ATOM     14  C   UNL A   1      33.343  24.326  24.566  1.00  0.00     0.053 A 
ATOM     15  C   UNL A   1      33.569  24.429  25.948  1.00  0.00     0.027 A 
ATOM     16  C   UNL A   1      32.972  23.096  24.001  1.00  0.00     0.063 A 
ATOM     17  C   UNL A   1      33.239  23.380  26.797  1.00  0.00     0.002 A 
ATOM     18  C   UNL A   1      32.664  22.034  24.873  1.00  0.00     0.016 A 
ATOM     19  C   UNL A   1      32.751  22.195  26.261  1.00  0.00     0.001 A 
BRANCH  16  20
ATOM     20  C   UNL A   1      32.965  22.891  22.518  1.00  0.00     0.250 C 
ATOM     21  N   UNL A   1      32.153  21.917  22.001  1.00  0.00    -0.366 N 
ATOM     22  O   UNL A   1      33.653  23.555  21.754  1.00  0.00    -0.269 OA
ATOM     23  H   UNL A   1      31.593  21.373  22.601  1.00  0.00     0.159 HD
ATOM     24  H   UNL A   1      32.130  21.761  21.029  1.00  0.00     0.159 HD
ENDBRANCH  16  20
ENDBRANCH  12  14
ENDBRANCH   9  10
ENDBRANCH   3   5
ENDBRANCH   2   3
ENDBRANCH   1   2
BRANCH   1  25
ATOM     25  C   UNL A   1      31.778  31.004  26.145  1.00  0.00     0.275 C 
BRANCH  25  26
ATOM     26  O   UNL A   1      32.553  30.957  27.363  1.00  0.00    -0.458 OA
BRANCH  26  27
ATOM     27  C   UNL A   1      33.398  32.002  27.543  1.00  0.00     0.338 C 
ATOM     28  O   UNL A   1      33.110  33.187  27.487  1.00  0.00    -0.246 OA
BRANCH  27  29
ATOM     29  C   UNL A   1      34.728  31.546  28.000  1.00  0.00     0.060 A 
ATOM     30  C   UNL A   1      34.857  30.197  28.348  1.00  0.00     0.016 A 
ATOM     31  C   UNL A   1      35.803  32.416  28.183  1.00  0.00     0.016 A 
ATOM     32  C   UNL A   1      36.049  29.703  28.868  1.00  0.00     0.010 A 
ATOM     33  C   UNL A   1      36.996  31.928  28.737  1.00  0.00     0.010 A 
ATOM     34  C   UNL A   1      37.119  30.572  29.096  1.00  0.00    -0.014 A 
BRANCH  34  35
ATOM     35  C   UNL A   1      38.298  30.067  29.840  1.00  0.00     0.031 A 
ATOM     36  C   UNL A   1      38.520  30.527  31.253  1.00  0.00     0.074 A 
ATOM     37  C   UNL A   1      39.118  29.152  29.292  1.00  0.00     0.049 A 
ATOM     38  N   UNL A   1      39.488  30.228  32.084  1.00  0.00    -0.248 NA
ATOM     39  C   UNL A   1      37.511  31.442  31.807  1.00  0.00     0.031 C 
ATOM     40  C   UNL A   1      38.964  28.573  27.960  1.00  0.00     0.029 A 
ATOM     41  N   UNL A   1      40.243  28.548  29.795  1.00  0.00    -0.354 N 
ATOM     42  C   UNL A   1      39.208  30.924  33.252  1.00  0.00     0.074 A 
ATOM     43  C   UNL A   1      37.996  31.679  33.016  1.00  0.00     0.031 C 
ATOM     44  C   UNL A   1      39.967  27.705  27.744  1.00  0.00     0.029 A 
ATOM     45  C   UNL A   1      40.852  27.695  28.908  1.00  0.00     0.049 A 
ATOM     46  H   UNL A   1      40.583  28.711  30.705  1.00  0.00     0.167 HD
ATOM     47  C   UNL A   1      39.898  30.927  34.418  1.00  0.00     0.037 A 
ATOM     48  C   UNL A   1      42.006  27.007  29.016  1.00  0.00     0.037 A 
ATOM     49  C   UNL A   1      41.106  30.176  34.647  1.00  0.00     0.049 A 
ATOM     50  C   UNL A   1      42.805  27.100  30.292  1.00  0.00     0.074 A 
ATOM     51  C   UNL A   1      41.879  30.116  35.794  1.00  0.00     0.029 A 
ATOM     52  N   UNL A   1      41.721  29.362  33.708  1.00  0.00    -0.354 N 
ATOM     53  N   UNL A   1      42.535  27.756  31.395  1.00  0.00    -0.248 NA
ATOM     54  C   UNL A   1      44.069  26.351  30.339  1.00  0.00     0.031 C 
ATOM     55  C   UNL A   1      42.994  29.313  35.527  1.00  0.00     0.029 A 
ATOM     56  C   UNL A   1      42.879  28.816  34.240  1.00  0.00     0.049 A 
ATOM     57  H   UNL A   1      41.385  29.196  32.798  1.00  0.00     0.167 HD
ATOM     58  C   UNL A   1      43.571  27.470  32.275  1.00  0.00     0.074 A 
ATOM     59  C   UNL A   1      44.469  26.572  31.583  1.00  0.00     0.031 C 
ATOM     60  C   UNL A   1      43.760  27.911  33.545  1.00  0.00     0.037 A 
BRANCH  47  61
ATOM     61  C   UNL A   1      39.386  31.806  35.523  1.00  0.00     0.064 A 
ATOM     62  C   UNL A   1      38.484  31.336  36.489  1.00  0.00     0.173 A 
ATOM     63  C   UNL A   1      39.829  33.133  35.632  1.00  0.00     0.173 A 
ATOM     64  F   UNL A   1      38.019  30.078  36.423  1.00  0.00    -0.203 F 
ATOM     65  C   UNL A   1      38.022  32.169  37.504  1.00  0.00     0.198 A 
ATOM     66  C   UNL A   1      39.391  33.954  36.667  1.00  0.00     0.198 A 
ATOM     67  F   UNL A   1      40.695  33.634  34.738  1.00  0.00    -0.203 F 
ATOM     68  F   UNL A   1      37.121  31.714  38.385  1.00  0.00    -0.200 F 
ATOM     69  C   UNL A   1      38.482  33.474  37.598  1.00  0.00     0.200 A 
ATOM     70  F   UNL A   1      39.848  35.210  36.764  1.00  0.00    -0.200 F 
ATOM     71  F   UNL A   1      38.042  34.273  38.580  1.00  0.00    -0.200 F 
ENDBRANCH  47  61
BRANCH  48  72
ATOM     72  C   UNL A   1      42.493  26.182  27.877  1.00  0.00     0.064 A 
ATOM     73  C   UNL A   1      43.410  26.694  26.949  1.00  0.00     0.173 A 
ATOM     74  C   UNL A   1      42.024  24.876  27.675  1.00  0.00     0.173 A 
ATOM     75  F   UNL A   1      43.870  27.947  27.082  1.00  0.00    -0.203 F 
ATOM     76  C   UNL A   1      43.822  25.939  25.851  1.00  0.00     0.198 A 
ATOM     77  C   UNL A   1      42.462  24.109  26.597  1.00  0.00     0.198 A 
ATOM     78  F   UNL A   1      41.143  24.338  28.531  1.00  0.00    -0.203 F 
ATOM     79  F   UNL A   1      44.657  26.472  24.950  1.00  0.00    -0.200 F 
ATOM     80  C   UNL A   1      43.352  24.646  25.680  1.00  0.00     0.200 A 
ATOM     81  F   UNL A   1      42.015  22.855  26.444  1.00  0.00    -0.200 F 
ATOM     82  F   UNL A   1      43.750  23.920  24.627  1.00  0.00    -0.200 F 
ENDBRANCH  48  72
BRANCH  60  83
ATOM     83  C   UNL A   1      44.953  27.384  34.292  1.00  0.00     0.064 A 
ATOM     84  C   UNL A   1      44.893  26.211  35.059  1.00  0.00     0.173 A 
ATOM     85  C   UNL A   1      46.188  28.047  34.208  1.00  0.00     0.173 A 
ATOM     86  F   UNL A   1      43.735  25.545  35.184  1.00  0.00    -0.203 F 
ATOM     87  C   UNL A   1      46.014  25.741  35.741  1.00  0.00     0.198 A 
ATOM     88  C   UNL A   1      47.316  27.554  34.860  1.00  0.00     0.198 A 
ATOM     89  F   UNL A   1      46.306  29.169  33.481  1.00  0.00    -0.203 F 
ATOM     90  F   UNL A   1      45.917  24.651  36.513  1.00  0.00    -0.200 F 
ATOM     91  C   UNL A   1      47.225  26.408  35.634  1.00  0.00     0.200 A 
ATOM     92  F   UNL A   1      48.489  28.192  34.741  1.00  0.00    -0.200 F 
ATOM     93  F   UNL A   1      48.304  25.951  36.284  1.00  0.00    -0.200 F 
ENDBRANCH  60  83
ENDBRANCH  34  35
ENDBRANCH  27  29
ENDBRANCH  26  27
ENDBRANCH  25  26
ENDBRANCH   1  25
TORSDOF 14
ENDMDL
MODEL 2
REMARK VINA RESULT:     -11.7      4.193      9.589
REMARK SMILES CC1(C)[C@H](C(=O)Nc2ccccc2C(N)=O)[C@@H]1C(=O)OCCOC(=O)c1ccc(-c2c3nc(c(-c4c(F)c(F)c(F)c(F)c4F)c4ccc([nH]4)c(-c4c(F)c(F)c(F)c(F)c4F)c4nc(c(-c5c(F)c(F)c(F)c(F)c5F)c5ccc2[nH]5)C=C4)C=C3)cc1
REMARK SMILES IDX 21 1 20 2 18 3 19 4 17 5 1 6 2 7 3 8 4 9 5 10 6 11 7 12 8 14
REMARK SMILES IDX 9 15 13 16 10 17 12 18 11 19 14 20 15 21 16 22 22 25 23 26
REMARK SMILES IDX 24 27 25 28 26 29 27 30 88 31 28 32 87 33 29 34 30 35 31 36
REMARK SMILES IDX 81 37 32 38 86 39 80 40 82 41 33 42 85 43 79 44 78 45 34 47
REMARK SMILES IDX 66 48 46 49 65 50 47 51 50 52 64 53 83 54 48 55 49 56 63 58
REMARK SMILES IDX 84 59 51 60 35 61 36 62 44 63 37 64 38 65 42 66 45 67 39 68
REMARK SMILES IDX 40 69 43 70 41 71 67 72 68 73 76 74 69 75 70 76 74 77 77 78
REMARK SMILES IDX 71 79 72 80 75 81 73 82 52 83 53 84 61 85 54 86 55 87 59 88
REMARK SMILES IDX 62 89 56 90 57 91 60 92 58 93
REMARK H PARENT 7 13 15 23 15 24 82 46 50 57
REMARK Flexibility Score: inf
ROOT
ATOM      1  C   UNL A   1      35.925  20.931  25.366  1.00  0.00     0.274 C 
ENDROOT
BRANCH   1   2
ATOM      2  O   UNL A   1      35.789  22.352  25.165  1.00  0.00    -0.462 OA
BRANCH   2   3
ATOM      3  C   UNL A   1      35.087  22.682  24.047  1.00  0.00     0.310 C 
ATOM      4  O   UNL A   1      35.497  23.442  23.183  1.00  0.00    -0.252 OA
BRANCH   3   5
ATOM      5  C   UNL A   1      33.809  21.915  23.904  1.00  0.00     0.118 C 
ATOM      6  C   UNL A   1      31.935  21.281  22.194  1.00  0.00     0.013 C 
ATOM      7  C   UNL A   1      32.756  22.362  22.898  1.00  0.00    -0.009 C 
ATOM      8  C   UNL A   1      33.090  23.448  21.915  1.00  0.00     0.013 C 
ATOM      9  C   UNL A   1      32.457  22.454  24.388  1.00  0.00     0.100 C 
BRANCH   9  10
ATOM     10  C   UNL A   1      32.554  23.250  25.639  1.00  0.00     0.228 C 
ATOM     11  O   UNL A   1      32.723  22.601  26.676  1.00  0.00    -0.274 OA
ATOM     12  N   UNL A   1      32.655  24.603  25.771  1.00  0.00    -0.325 N 
ATOM     13  H   UNL A   1      32.906  24.893  26.678  1.00  0.00     0.169 HD
BRANCH  12  14
ATOM     14  C   UNL A   1      32.474  25.653  24.879  1.00  0.00     0.053 A 
ATOM     15  C   UNL A   1      33.670  26.150  24.337  1.00  0.00     0.027 A 
ATOM     16  C   UNL A   1      31.243  26.206  24.497  1.00  0.00     0.063 A 
ATOM     17  C   UNL A   1      33.646  27.048  23.278  1.00  0.00     0.002 A 
ATOM     18  C   UNL A   1      31.236  27.135  23.438  1.00  0.00     0.016 A 
ATOM     19  C   UNL A   1      32.426  27.513  22.805  1.00  0.00     0.001 A 
BRANCH  16  20
ATOM     20  C   UNL A   1      29.980  25.877  25.230  1.00  0.00     0.250 C 
ATOM     21  N   UNL A   1      28.794  25.958  24.549  1.00  0.00    -0.366 N 
ATOM     22  O   UNL A   1      29.965  25.539  26.406  1.00  0.00    -0.269 OA
ATOM     23  H   UNL A   1      28.787  26.229  23.602  1.00  0.00     0.159 HD
ATOM     24  H   UNL A   1      27.949  25.747  25.007  1.00  0.00     0.159 HD
ENDBRANCH  16  20
ENDBRANCH  12  14
ENDBRANCH   9  10
ENDBRANCH   3   5
ENDBRANCH   2   3
ENDBRANCH   1   2
BRANCH   1  25
ATOM     25  C   UNL A   1      37.326  20.403  25.011  1.00  0.00     0.275 C 
BRANCH  25  26
ATOM     26  O   UNL A   1      38.360  21.406  25.106  1.00  0.00    -0.458 OA
BRANCH  26  27
ATOM     27  C   UNL A   1      39.315  21.156  26.036  1.00  0.00     0.338 C 
ATOM     28  O   UNL A   1      39.842  20.078  26.264  1.00  0.00    -0.246 OA
BRANCH  27  29
ATOM     29  C   UNL A   1      39.798  22.405  26.662  1.00  0.00     0.060 A 
ATOM     30  C   UNL A   1      39.253  23.607  26.195  1.00  0.00     0.016 A 
ATOM     31  C   UNL A   1      40.821  22.429  27.610  1.00  0.00     0.016 A 
ATOM     32  C   UNL A   1      39.712  24.832  26.667  1.00  0.00     0.010 A 
ATOM     33  C   UNL A   1      41.307  23.664  28.064  1.00  0.00     0.010 A 
ATOM     34  C   UNL A   1      40.764  24.871  27.584  1.00  0.00    -0.014 A 
BRANCH  34  35
ATOM     35  C   UNL A   1      41.372  26.183  27.913  1.00  0.00     0.031 A 
ATOM     36  C   UNL A   1      42.763  26.485  27.430  1.00  0.00     0.074 A 
ATOM     37  C   UNL A   1      40.667  27.124  28.566  1.00  0.00     0.049 A 
ATOM     38  N   UNL A   1      43.493  27.557  27.612  1.00  0.00    -0.248 NA
ATOM     39  C   UNL A   1      43.415  25.439  26.629  1.00  0.00     0.031 C 
ATOM     40  C   UNL A   1      39.285  26.979  29.019  1.00  0.00     0.029 A 
ATOM     41  N   UNL A   1      41.019  28.392  28.959  1.00  0.00    -0.354 N 
ATOM     42  C   UNL A   1      44.691  27.310  26.956  1.00  0.00     0.074 A 
ATOM     43  C   UNL A   1      44.601  25.980  26.393  1.00  0.00     0.031 C 
ATOM     44  C   UNL A   1      38.909  28.110  29.640  1.00  0.00     0.029 A 
ATOM     45  C   UNL A   1      40.035  29.043  29.661  1.00  0.00     0.049 A 
ATOM     46  H   UNL A   1      41.895  28.795  28.758  1.00  0.00     0.167 HD
ATOM     47  C   UNL A   1      45.767  28.124  26.830  1.00  0.00     0.037 A 
ATOM     48  C   UNL A   1      40.053  30.245  30.271  1.00  0.00     0.037 A 
ATOM     49  C   UNL A   1      45.854  29.447  27.394  1.00  0.00     0.049 A 
ATOM     50  C   UNL A   1      41.298  31.094  30.194  1.00  0.00     0.074 A 
ATOM     51  C   UNL A   1      46.902  30.347  27.323  1.00  0.00     0.029 A 
ATOM     52  N   UNL A   1      44.856  30.054  28.142  1.00  0.00    -0.354 N 
ATOM     53  N   UNL A   1      42.426  30.858  29.570  1.00  0.00    -0.248 NA
ATOM     54  C   UNL A   1      41.266  32.380  30.905  1.00  0.00     0.031 C 
ATOM     55  C   UNL A   1      46.563  31.475  28.079  1.00  0.00     0.029 A 
ATOM     56  C   UNL A   1      45.275  31.308  28.561  1.00  0.00     0.049 A 
ATOM     57  H   UNL A   1      43.980  29.654  28.344  1.00  0.00     0.167 HD
ATOM     58  C   UNL A   1      43.222  31.977  29.780  1.00  0.00     0.074 A 
ATOM     59  C   UNL A   1      42.443  32.897  30.580  1.00  0.00     0.031 C 
ATOM     60  C   UNL A   1      44.485  32.222  29.347  1.00  0.00     0.037 A 
BRANCH  47  61
ATOM     61  C   UNL A   1      46.958  27.588  26.087  1.00  0.00     0.064 A 
ATOM     62  C   UNL A   1      47.082  27.710  24.696  1.00  0.00     0.173 A 
ATOM     63  C   UNL A   1      48.004  26.966  26.787  1.00  0.00     0.173 A 
ATOM     64  F   UNL A   1      46.104  28.284  23.978  1.00  0.00    -0.203 F 
ATOM     65  C   UNL A   1      48.195  27.203  24.029  1.00  0.00     0.198 A 
ATOM     66  C   UNL A   1      49.130  26.491  26.121  1.00  0.00     0.198 A 
ATOM     67  F   UNL A   1      47.939  26.827  28.120  1.00  0.00    -0.203 F 
ATOM     68  F   UNL A   1      48.268  27.285  22.693  1.00  0.00    -0.200 F 
ATOM     69  C   UNL A   1      49.221  26.603  24.742  1.00  0.00     0.200 A 
ATOM     70  F   UNL A   1      50.127  25.924  26.813  1.00  0.00    -0.200 F 
ATOM     71  F   UNL A   1      50.295  26.123  24.099  1.00  0.00    -0.200 F 
ENDBRANCH  47  61
BRANCH  48  72
ATOM     72  C   UNL A   1      38.863  30.715  31.030  1.00  0.00     0.064 A 
ATOM     73  C   UNL A   1      37.815  31.393  30.392  1.00  0.00     0.173 A 
ATOM     74  C   UNL A   1      38.764  30.524  32.416  1.00  0.00     0.173 A 
ATOM     75  F   UNL A   1      37.873  31.624  29.072  1.00  0.00    -0.203 F 
ATOM     76  C   UNL A   1      36.727  31.882  31.114  1.00  0.00     0.198 A 
ATOM     77  C   UNL A   1      37.661  30.983  33.132  1.00  0.00     0.198 A 
ATOM     78  F   UNL A   1      39.740  29.884  33.078  1.00  0.00    -0.203 F 
ATOM     79  F   UNL A   1      35.767  32.574  30.487  1.00  0.00    -0.200 F 
ATOM     80  C   UNL A   1      36.648  31.671  32.482  1.00  0.00     0.200 A 
ATOM     81  F   UNL A   1      37.582  30.764  34.452  1.00  0.00    -0.200 F 
ATOM     82  F   UNL A   1      35.601  32.138  33.175  1.00  0.00    -0.200 F 
ENDBRANCH  48  72
BRANCH  60  83
ATOM     83  C   UNL A   1      45.085  33.560  29.678  1.00  0.00     0.064 A 
ATOM     84  C   UNL A   1      44.909  34.679  28.852  1.00  0.00     0.173 A 
ATOM     85  C   UNL A   1      45.821  33.730  30.862  1.00  0.00     0.173 A 
ATOM     86  F   UNL A   1      44.226  34.571  27.703  1.00  0.00    -0.203 F 
ATOM     87  C   UNL A   1      45.473  35.910  29.182  1.00  0.00     0.198 A 
ATOM     88  C   UNL A   1      46.352  34.970  31.208  1.00  0.00     0.198 A 
ATOM     89  F   UNL A   1      46.014  32.695  31.694  1.00  0.00    -0.203 F 
ATOM     90  F   UNL A   1      45.339  36.951  28.349  1.00  0.00    -0.200 F 
ATOM     91  C   UNL A   1      46.187  36.056  30.362  1.00  0.00     0.200 A 
ATOM     92  F   UNL A   1      47.026  35.112  32.357  1.00  0.00    -0.200 F 
ATOM     93  F   UNL A   1      46.723  37.242  30.682  1.00  0.00    -0.200 F 
ENDBRANCH  60  83
ENDBRANCH  34  35
ENDBRANCH  27  29
ENDBRANCH  26  27
ENDBRANCH  25  26
ENDBRANCH   1  25
TORSDOF 14
ENDMDL
MODEL 3
REMARK VINA RESULT:     -11.7      4.187      6.897
REMARK SMILES CC1(C)[C@H](C(=O)Nc2ccccc2C(N)=O)[C@@H]1C(=O)OCCOC(=O)c1ccc(-c2c3nc(c(-c4c(F)c(F)c(F)c(F)c4F)c4ccc([nH]4)c(-c4c(F)c(F)c(F)c(F)c4F)c4nc(c(-c5c(F)c(F)c(F)c(F)c5F)c5ccc2[nH]5)C=C4)C=C3)cc1
REMARK SMILES IDX 21 1 20 2 18 3 19 4 17 5 1 6 2 7 3 8 4 9 5 10 6 11 7 12 8 14
REMARK SMILES IDX 9 15 13 16 10 17 12 18 11 19 14 20 15 21 16 22 22 25 23 26
REMARK SMILES IDX 24 27 25 28 26 29 27 30 88 31 28 32 87 33 29 34 30 35 31 36
REMARK SMILES IDX 81 37 32 38 86 39 80 40 82 41 33 42 85 43 79 44 78 45 34 47
REMARK SMILES IDX 66 48 46 49 65 50 47 51 50 52 64 53 83 54 48 55 49 56 63 58
REMARK SMILES IDX 84 59 51 60 35 61 36 62 44 63 37 64 38 65 42 66 45 67 39 68
REMARK SMILES IDX 40 69 43 70 41 71 67 72 68 73 76 74 69 75 70 76 74 77 77 78
REMARK SMILES IDX 71 79 72 80 75 81 73 82 52 83 53 84 61 85 54 86 55 87 59 88
REMARK SMILES IDX 62 89 56 90 57 91 60 92 58 93
REMARK H PARENT 7 13 15 23 15 24 82 46 50 57
REMARK Flexibility Score: inf
ROOT
ATOM      1  C   UNL A   1      34.949  21.547  26.153  1.00  0.00     0.274 C 
ENDROOT
BRANCH   1   2
ATOM      2  O   UNL A   1      34.987  22.973  26.356  1.00  0.00    -0.462 OA
BRANCH   2   3
ATOM      3  C   UNL A   1      33.789  23.587  26.160  1.00  0.00     0.310 C 
ATOM      4  O   UNL A   1      33.561  24.750  26.454  1.00  0.00    -0.252 OA
BRANCH   3   5
ATOM      5  C   UNL A   1      32.804  22.736  25.418  1.00  0.00     0.118 C 
ATOM      6  C   UNL A   1      32.040  22.040  23.017  1.00  0.00     0.013 C 
ATOM      7  C   UNL A   1      32.330  23.148  24.031  1.00  0.00    -0.009 C 
ATOM      8  C   UNL A   1      33.003  24.294  23.331  1.00  0.00     0.013 C 
ATOM      9  C   UNL A   1      31.347  23.157  25.193  1.00  0.00     0.100 C 
BRANCH   9  10
ATOM     10  C   UNL A   1      30.765  23.904  26.337  1.00  0.00     0.228 C 
ATOM     11  O   UNL A   1      30.578  23.249  27.367  1.00  0.00    -0.274 OA
ATOM     12  N   UNL A   1      30.575  25.249  26.455  1.00  0.00    -0.325 N 
ATOM     13  H   UNL A   1      30.361  25.538  27.371  1.00  0.00     0.169 HD
BRANCH  12  14
ATOM     14  C   UNL A   1      30.623  26.291  25.538  1.00  0.00     0.053 A 
ATOM     15  C   UNL A   1      29.940  26.025  24.340  1.00  0.00     0.027 A 
ATOM     16  C   UNL A   1      31.260  27.527  25.727  1.00  0.00     0.063 A 
ATOM     17  C   UNL A   1      29.715  27.037  23.415  1.00  0.00     0.002 A 
ATOM     18  C   UNL A   1      31.043  28.536  24.768  1.00  0.00     0.016 A 
ATOM     19  C   UNL A   1      30.236  28.303  23.648  1.00  0.00     0.001 A 
BRANCH  16  20
ATOM     20  C   UNL A   1      32.197  27.753  26.872  1.00  0.00     0.250 C 
ATOM     21  N   UNL A   1      33.536  27.856  26.605  1.00  0.00    -0.366 N 
ATOM     22  O   UNL A   1      31.815  27.850  28.031  1.00  0.00    -0.269 OA
ATOM     23  H   UNL A   1      33.861  27.780  25.679  1.00  0.00     0.159 HD
ATOM     24  H   UNL A   1      34.174  28.005  27.341  1.00  0.00     0.159 HD
ENDBRANCH  16  20
ENDBRANCH  12  14
ENDBRANCH   9  10
ENDBRANCH   3   5
ENDBRANCH   2   3
ENDBRANCH   1   2
BRANCH   1  25
ATOM     25  C   UNL A   1      36.204  21.005  25.446  1.00  0.00     0.275 C 
BRANCH  25  26
ATOM     26  O   UNL A   1      37.260  21.982  25.319  1.00  0.00    -0.458 OA
BRANCH  26  27
ATOM     27  C   UNL A   1      38.443  21.617  25.872  1.00  0.00     0.338 C 
ATOM     28  O   UNL A   1      38.981  20.524  25.785  1.00  0.00    -0.246 OA
BRANCH  27  29
ATOM     29  C   UNL A   1      39.133  22.776  26.478  1.00  0.00     0.060 A 
ATOM     30  C   UNL A   1      38.691  24.051  26.106  1.00  0.00     0.016 A 
ATOM     31  C   UNL A   1      40.243  22.643  27.313  1.00  0.00     0.016 A 
ATOM     32  C   UNL A   1      39.338  25.194  26.562  1.00  0.00     0.010 A 
ATOM     33  C   UNL A   1      40.917  23.794  27.748  1.00  0.00     0.010 A 
ATOM     34  C   UNL A   1      40.476  25.074  27.363  1.00  0.00    -0.014 A 
BRANCH  34  35
ATOM     35  C   UNL A   1      41.266  26.293  27.663  1.00  0.00     0.031 A 
ATOM     36  C   UNL A   1      40.631  27.396  28.462  1.00  0.00     0.074 A 
ATOM     37  C   UNL A   1      42.556  26.384  27.297  1.00  0.00     0.049 A 
ATOM     38  N   UNL A   1      41.127  28.551  28.828  1.00  0.00    -0.248 NA
ATOM     39  C   UNL A   1      39.251  27.161  28.915  1.00  0.00     0.031 C 
ATOM     40  C   UNL A   1      43.306  25.350  26.586  1.00  0.00     0.029 A 
ATOM     41  N   UNL A   1      43.466  27.396  27.477  1.00  0.00    -0.354 N 
ATOM     42  C   UNL A   1      40.120  29.182  29.545  1.00  0.00     0.074 A 
ATOM     43  C   UNL A   1      38.976  28.295  29.542  1.00  0.00     0.031 C 
ATOM     44  C   UNL A   1      44.560  25.787  26.377  1.00  0.00     0.029 A 
ATOM     45  C   UNL A   1      44.690  27.143  26.908  1.00  0.00     0.049 A 
ATOM     46  H   UNL A   1      43.261  28.226  27.966  1.00  0.00     0.167 HD
ATOM     47  C   UNL A   1      40.149  30.391  30.155  1.00  0.00     0.037 A 
ATOM     48  C   UNL A   1      45.780  27.930  26.806  1.00  0.00     0.037 A 
ATOM     49  C   UNL A   1      41.288  31.274  30.153  1.00  0.00     0.049 A 
ATOM     50  C   UNL A   1      45.755  29.310  27.415  1.00  0.00     0.074 A 
ATOM     51  C   UNL A   1      41.415  32.520  30.742  1.00  0.00     0.029 A 
ATOM     52  N   UNL A   1      42.495  31.005  29.524  1.00  0.00    -0.354 N 
ATOM     53  N   UNL A   1      44.802  29.900  28.095  1.00  0.00    -0.248 NA
ATOM     54  C   UNL A   1      46.963  30.130  27.245  1.00  0.00     0.031 C 
ATOM     55  C   UNL A   1      42.676  33.031  30.416  1.00  0.00     0.029 A 
ATOM     56  C   UNL A   1      43.362  32.074  29.686  1.00  0.00     0.049 A 
ATOM     57  H   UNL A   1      42.704  30.177  29.034  1.00  0.00     0.167 HD
ATOM     58  C   UNL A   1      45.307  31.141  28.464  1.00  0.00     0.074 A 
ATOM     59  C   UNL A   1      46.655  31.214  27.943  1.00  0.00     0.031 C 
ATOM     60  C   UNL A   1      44.708  32.131  29.173  1.00  0.00     0.037 A 
BRANCH  47  61
ATOM     61  C   UNL A   1      38.894  30.852  30.841  1.00  0.00     0.064 A 
ATOM     62  C   UNL A   1      38.700  30.692  32.221  1.00  0.00     0.173 A 
ATOM     63  C   UNL A   1      37.882  31.489  30.106  1.00  0.00     0.173 A 
ATOM     64  F   UNL A   1      39.631  30.077  32.967  1.00  0.00    -0.203 F 
ATOM     65  C   UNL A   1      37.528  31.125  32.835  1.00  0.00     0.198 A 
ATOM     66  C   UNL A   1      36.725  31.951  30.729  1.00  0.00     0.198 A 
ATOM     67  F   UNL A   1      38.017  31.671  28.784  1.00  0.00    -0.203 F 
ATOM     68  F   UNL A   1      37.342  30.916  34.145  1.00  0.00    -0.200 F 
ATOM     69  C   UNL A   1      36.546  31.762  32.091  1.00  0.00     0.200 A 
ATOM     70  F   UNL A   1      35.785  32.578  30.010  1.00  0.00    -0.200 F 
ATOM     71  F   UNL A   1      35.421  32.185  32.684  1.00  0.00    -0.200 F 
ENDBRANCH  47  61
BRANCH  48  72
ATOM     72  C   UNL A   1      46.985  27.444  26.081  1.00  0.00     0.064 A 
ATOM     73  C   UNL A   1      48.053  26.846  26.763  1.00  0.00     0.173 A 
ATOM     74  C   UNL A   1      47.108  27.600  24.692  1.00  0.00     0.173 A 
ATOM     75  F   UNL A   1      47.997  26.697  28.096  1.00  0.00    -0.203 F 
ATOM     76  C   UNL A   1      49.205  26.443  26.089  1.00  0.00     0.198 A 
ATOM     77  C   UNL A   1      48.245  27.166  24.013  1.00  0.00     0.198 A 
ATOM     78  F   UNL A   1      46.118  28.169  23.989  1.00  0.00    -0.203 F 
ATOM     79  F   UNL A   1      50.232  25.924  26.774  1.00  0.00    -0.200 F 
ATOM     80  C   UNL A   1      49.297  26.598  24.714  1.00  0.00     0.200 A 
ATOM     81  F   UNL A   1      48.323  27.305  22.683  1.00  0.00    -0.200 F 
ATOM     82  F   UNL A   1      50.403  26.207  24.067  1.00  0.00    -0.200 F 
ENDBRANCH  48  72
BRANCH  60  83
ATOM     83  C   UNL A   1      45.523  33.356  29.480  1.00  0.00     0.064 A 
ATOM     84  C   UNL A   1      46.335  33.444  30.620  1.00  0.00     0.173 A 
ATOM     85  C   UNL A   1      45.516  34.448  28.596  1.00  0.00     0.173 A 
ATOM     86  F   UNL A   1      46.371  32.435  31.504  1.00  0.00    -0.203 F 
ATOM     87  C   UNL A   1      47.084  34.589  30.881  1.00  0.00     0.198 A 
ATOM     88  C   UNL A   1      46.294  35.576  28.841  1.00  0.00     0.198 A 
ATOM     89  F   UNL A   1      44.764  34.415  27.486  1.00  0.00    -0.203 F 
ATOM     90  F   UNL A   1      47.808  34.672  32.005  1.00  0.00    -0.200 F 
ATOM     91  C   UNL A   1      47.069  35.650  29.988  1.00  0.00     0.200 A 
ATOM     92  F   UNL A   1      46.290  36.593  27.968  1.00  0.00    -0.200 F 
ATOM     93  F   UNL A   1      47.795  36.749  30.237  1.00  0.00    -0.200 F 
ENDBRANCH  60  83
ENDBRANCH  34  35
ENDBRANCH  27  29
ENDBRANCH  26  27
ENDBRANCH  25  26
ENDBRANCH   1  25
TORSDOF 14
ENDMDL
