MODEL 1
REMARK VINA RESULT:      -9.5      0.000      0.000
REMARK SMILES C[NH2+]CCCC(=O)N[C@H]1C=C[C@@H](C(=O)OCCOC(=O)c2ccc(-c3c4nc(c(-c5c(F)c(F)c(F)c(F)c5F)c5ccc([nH]5)c(-c5c(F)c(F)c(F)c(F)c5F)c5nc(c(-c6c(F)c(F)c(F)c(F)c6F)c6ccc3[nH]6)C=C5)C=C4)cc2)C1
REMARK SMILES IDX 15 1 13 2 14 3 12 4 9 5 10 6 84 7 11 8 8 9 6 10 7 11 5 13
REMARK SMILES IDX 4 14 3 15 2 16 1 17 16 20 17 21 18 22 19 23 20 24 21 25
REMARK SMILES IDX 22 26 83 27 23 28 82 29 24 30 25 31 26 32 76 33 27 34 81 35
REMARK SMILES IDX 75 36 77 37 28 38 80 39 74 40 73 41 29 43 61 44 41 45 60 46
REMARK SMILES IDX 42 47 45 48 59 49 78 50 43 51 44 52 58 54 79 55 46 56 30 57
REMARK SMILES IDX 31 58 39 59 32 60 33 61 37 62 40 63 34 64 35 65 38 66 36 67
REMARK SMILES IDX 62 68 63 69 71 70 64 71 65 72 69 73 72 74 66 75 67 76 70 77
REMARK SMILES IDX 68 78 47 79 48 80 56 81 49 82 50 83 54 84 57 85 51 86 52 87
REMARK SMILES IDX 55 88 53 89
REMARK H PARENT 8 12 2 18 2 19 77 42 45 53
REMARK Flexibility Score: inf
ROOT
ATOM      1  O   UNL A   1      42.034  20.813  26.921  1.00  0.00    -0.462 OA
ENDROOT
BRANCH   1   2
ATOM      2  C   UNL A   1      42.961  20.982  25.945  1.00  0.00     0.312 C 
ATOM      3  O   UNL A   1      43.197  20.168  25.058  1.00  0.00    -0.252 OA
BRANCH   2   4
ATOM      4  C   UNL A   1      43.702  22.301  26.046  1.00  0.00     0.124 C 
ATOM      5  C   UNL A   1      43.858  24.635  25.534  1.00  0.00     0.106 C 
ATOM      6  C   UNL A   1      43.330  24.439  26.918  1.00  0.00    -0.006 C 
ATOM      7  C   UNL A   1      43.564  23.287  24.881  1.00  0.00     0.048 C 
ATOM      8  C   UNL A   1      43.255  23.134  27.214  1.00  0.00    -0.014 C 
BRANCH   5   9
ATOM      9  N   UNL A   1      43.235  25.766  24.911  1.00  0.00    -0.350 N 
ATOM     10  C   UNL A   1      43.441  27.087  25.172  1.00  0.00     0.220 C 
ATOM     11  O   UNL A   1      42.719  27.919  24.620  1.00  0.00    -0.275 OA
ATOM     12  H   UNL A   1      42.578  25.563  24.207  1.00  0.00     0.164 HD
BRANCH  10  13
ATOM     13  C   UNL A   1      44.553  27.520  26.110  1.00  0.00     0.106 C 
BRANCH  13  14
ATOM     14  C   UNL A   1      45.828  27.994  25.405  1.00  0.00     0.071 C 
BRANCH  14  15
ATOM     15  C   UNL A   1      46.524  29.233  25.987  1.00  0.00     0.260 C 
BRANCH  15  16
ATOM     16  N   UNL A   1      45.948  30.525  25.602  1.00  0.00    -0.349 N 
ATOM     17  C   UNL A   1      45.301  31.206  26.715  1.00  0.00     0.330 C 
ATOM     18  H   UNL A   1      46.694  31.122  25.244  1.00  0.00     0.346 HD
ATOM     19  H   UNL A   1      45.235  30.346  24.895  1.00  0.00     0.346 HD
ENDBRANCH  15  16
ENDBRANCH  14  15
ENDBRANCH  13  14
ENDBRANCH  10  13
ENDBRANCH   5   9
ENDBRANCH   2   4
ENDBRANCH   1   2
BRANCH   1  20
ATOM     20  C   UNL A   1      40.832  20.118  26.547  1.00  0.00     0.274 C 
BRANCH  20  21
ATOM     21  C   UNL A   1      39.749  21.111  26.118  1.00  0.00     0.275 C 
BRANCH  21  22
ATOM     22  O   UNL A   1      39.984  22.430  26.649  1.00  0.00    -0.458 OA
BRANCH  22  23
ATOM     23  C   UNL A   1      39.030  23.350  26.372  1.00  0.00     0.338 C 
ATOM     24  O   UNL A   1      38.015  23.188  25.717  1.00  0.00    -0.246 OA
BRANCH  23  25
ATOM     25  C   UNL A   1      39.319  24.607  27.082  1.00  0.00     0.060 A 
ATOM     26  C   UNL A   1      40.033  25.599  26.402  1.00  0.00     0.016 A 
ATOM     27  C   UNL A   1      38.962  24.780  28.420  1.00  0.00     0.016 A 
ATOM     28  C   UNL A   1      40.395  26.772  27.062  1.00  0.00     0.010 A 
ATOM     29  C   UNL A   1      39.326  25.957  29.080  1.00  0.00     0.010 A 
ATOM     30  C   UNL A   1      40.052  26.956  28.407  1.00  0.00    -0.014 A 
BRANCH  30  31
ATOM     31  C   UNL A   1      40.478  28.183  29.122  1.00  0.00     0.031 A 
ATOM     32  C   UNL A   1      41.878  28.296  29.648  1.00  0.00     0.074 A 
ATOM     33  C   UNL A   1      39.606  29.192  29.297  1.00  0.00     0.049 A 
ATOM     34  N   UNL A   1      42.418  29.242  30.374  1.00  0.00    -0.248 NA
ATOM     35  C   UNL A   1      42.796  27.196  29.312  1.00  0.00     0.031 C 
ATOM     36  C   UNL A   1      38.231  29.213  28.801  1.00  0.00     0.029 A 
ATOM     37  N   UNL A   1      39.747  30.392  29.949  1.00  0.00    -0.354 N 
ATOM     38  C   UNL A   1      43.730  28.848  30.593  1.00  0.00     0.074 A 
ATOM     39  C   UNL A   1      43.903  27.568  29.939  1.00  0.00     0.031 C 
ATOM     40  C   UNL A   1      37.650  30.365  29.173  1.00  0.00     0.029 A 
ATOM     41  C   UNL A   1      38.599  31.143  29.967  1.00  0.00     0.049 A 
ATOM     42  H   UNL A   1      40.591  30.685  30.363  1.00  0.00     0.167 HD
ATOM     43  C   UNL A   1      44.703  29.500  31.275  1.00  0.00     0.037 A 
ATOM     44  C   UNL A   1      38.333  32.311  30.581  1.00  0.00     0.037 A 
ATOM     45  C   UNL A   1      44.529  30.775  31.920  1.00  0.00     0.049 A 
ATOM     46  C   UNL A   1      39.413  32.987  31.381  1.00  0.00     0.074 A 
ATOM     47  C   UNL A   1      45.457  31.519  32.629  1.00  0.00     0.029 A 
ATOM     48  N   UNL A   1      43.345  31.497  31.934  1.00  0.00    -0.354 N 
ATOM     49  N   UNL A   1      40.652  32.607  31.584  1.00  0.00    -0.248 NA
ATOM     50  C   UNL A   1      39.058  34.250  32.042  1.00  0.00     0.031 C 
ATOM     51  C   UNL A   1      44.824  32.674  33.103  1.00  0.00     0.029 A 
ATOM     52  C   UNL A   1      43.513  32.669  32.654  1.00  0.00     0.049 A 
ATOM     53  H   UNL A   1      42.508  31.218  31.496  1.00  0.00     0.167 HD
ATOM     54  C   UNL A   1      41.227  33.591  32.376  1.00  0.00     0.074 A 
ATOM     55  C   UNL A   1      40.207  34.592  32.607  1.00  0.00     0.031 C 
ATOM     56  C   UNL A   1      42.488  33.657  32.870  1.00  0.00     0.037 A 
BRANCH  43  57
ATOM     57  C   UNL A   1      46.041  28.831  31.381  1.00  0.00     0.064 A 
ATOM     58  C   UNL A   1      47.053  29.060  30.439  1.00  0.00     0.173 A 
ATOM     59  C   UNL A   1      46.325  27.979  32.458  1.00  0.00     0.173 A 
ATOM     60  F   UNL A   1      46.826  29.856  29.383  1.00  0.00    -0.203 F 
ATOM     61  C   UNL A   1      48.297  28.445  30.561  1.00  0.00     0.198 A 
ATOM     62  C   UNL A   1      47.578  27.384  32.590  1.00  0.00     0.198 A 
ATOM     63  F   UNL A   1      45.391  27.730  33.389  1.00  0.00    -0.203 F 
ATOM     64  F   UNL A   1      49.237  28.647  29.628  1.00  0.00    -0.200 F 
ATOM     65  C   UNL A   1      48.560  27.613  31.639  1.00  0.00     0.200 A 
ATOM     66  F   UNL A   1      47.832  26.587  33.637  1.00  0.00    -0.200 F 
ATOM     67  F   UNL A   1      49.758  27.025  31.757  1.00  0.00    -0.200 F 
ENDBRANCH  43  57
BRANCH  44  68
ATOM     68  C   UNL A   1      36.975  32.904  30.481  1.00  0.00     0.064 A 
ATOM     69  C   UNL A   1      36.586  33.633  29.349  1.00  0.00     0.173 A 
ATOM     70  C   UNL A   1      36.042  32.758  31.517  1.00  0.00     0.173 A 
ATOM     71  F   UNL A   1      37.455  33.823  28.345  1.00  0.00    -0.203 F 
ATOM     72  C   UNL A   1      35.318  34.202  29.262  1.00  0.00     0.198 A 
ATOM     73  C   UNL A   1      34.765  33.305  31.418  1.00  0.00     0.198 A 
ATOM     74  F   UNL A   1      36.368  32.072  32.623  1.00  0.00    -0.203 F 
ATOM     75  F   UNL A   1      34.984  34.929  28.187  1.00  0.00    -0.200 F 
ATOM     76  C   UNL A   1      34.406  34.033  30.294  1.00  0.00     0.200 A 
ATOM     77  F   UNL A   1      33.885  33.131  32.413  1.00  0.00    -0.200 F 
ATOM     78  F   UNL A   1      33.186  34.578  30.208  1.00  0.00    -0.200 F 
ENDBRANCH  44  68
BRANCH  56  79
ATOM     79  C   UNL A   1      42.842  34.865  33.685  1.00  0.00     0.064 A 
ATOM     80  C   UNL A   1      42.774  34.849  35.086  1.00  0.00     0.173 A 
ATOM     81  C   UNL A   1      43.293  36.037  33.060  1.00  0.00     0.173 A 
ATOM     82  F   UNL A   1      42.334  33.758  35.728  1.00  0.00    -0.203 F 
ATOM     83  C   UNL A   1      43.126  35.972  35.830  1.00  0.00     0.198 A 
ATOM     84  C   UNL A   1      43.668  37.149  33.808  1.00  0.00     0.198 A 
ATOM     85  F   UNL A   1      43.381  36.099  31.723  1.00  0.00    -0.203 F 
ATOM     86  F   UNL A   1      43.017  35.949  37.166  1.00  0.00    -0.200 F 
ATOM     87  C   UNL A   1      43.579  37.117  35.192  1.00  0.00     0.200 A 
ATOM     88  F   UNL A   1      44.114  38.251  33.190  1.00  0.00    -0.200 F 
ATOM     89  F   UNL A   1      43.923  38.195  35.911  1.00  0.00    -0.200 F 
ENDBRANCH  56  79
ENDBRANCH  30  31
ENDBRANCH  23  25
ENDBRANCH  22  23
ENDBRANCH  21  22
ENDBRANCH  20  21
ENDBRANCH   1  20
TORSDOF 16
ENDMDL
MODEL 2
REMARK VINA RESULT:      -9.4      4.295     10.607
REMARK SMILES C[NH2+]CCCC(=O)N[C@H]1C=C[C@@H](C(=O)OCCOC(=O)c2ccc(-c3c4nc(c(-c5c(F)c(F)c(F)c(F)c5F)c5ccc([nH]5)c(-c5c(F)c(F)c(F)c(F)c5F)c5nc(c(-c6c(F)c(F)c(F)c(F)c6F)c6ccc3[nH]6)C=C5)C=C4)cc2)C1
REMARK SMILES IDX 15 1 13 2 14 3 12 4 9 5 10 6 84 7 11 8 8 9 6 10 7 11 5 13
REMARK SMILES IDX 4 14 3 15 2 16 1 17 16 20 17 21 18 22 19 23 20 24 21 25
REMARK SMILES IDX 22 26 83 27 23 28 82 29 24 30 25 31 26 32 76 33 27 34 81 35
REMARK SMILES IDX 75 36 77 37 28 38 80 39 74 40 73 41 29 43 61 44 41 45 60 46
REMARK SMILES IDX 42 47 45 48 59 49 78 50 43 51 44 52 58 54 79 55 46 56 30 57
REMARK SMILES IDX 31 58 39 59 32 60 33 61 37 62 40 63 34 64 35 65 38 66 36 67
REMARK SMILES IDX 62 68 63 69 71 70 64 71 65 72 69 73 72 74 66 75 67 76 70 77
REMARK SMILES IDX 68 78 47 79 48 80 56 81 49 82 50 83 54 84 57 85 51 86 52 87
REMARK SMILES IDX 55 88 53 89
REMARK H PARENT 8 12 2 18 2 19 77 42 45 53
REMARK Flexibility Score: inf
ROOT
ATOM      1  O   UNL A   1      37.643  21.591  26.092  1.00  0.00    -0.462 OA
ENDROOT
BRANCH   1   2
ATOM      2  C   UNL A   1      36.960  22.575  25.453  1.00  0.00     0.312 C 
ATOM      3  O   UNL A   1      37.466  23.596  24.999  1.00  0.00    -0.252 OA
BRANCH   2   4
ATOM      4  C   UNL A   1      35.472  22.296  25.347  1.00  0.00     0.124 C 
ATOM      5  C   UNL A   1      33.618  20.808  25.629  1.00  0.00     0.106 C 
ATOM      6  C   UNL A   1      33.700  21.763  26.776  1.00  0.00    -0.006 C 
ATOM      7  C   UNL A   1      35.036  20.854  25.068  1.00  0.00     0.048 C 
ATOM      8  C   UNL A   1      34.727  22.607  26.615  1.00  0.00    -0.014 C 
BRANCH   5   9
ATOM      9  N   UNL A   1      33.177  19.519  26.076  1.00  0.00    -0.350 N 
ATOM     10  C   UNL A   1      32.574  18.539  25.347  1.00  0.00     0.220 C 
ATOM     11  O   UNL A   1      32.152  17.541  25.931  1.00  0.00    -0.275 OA
ATOM     12  H   UNL A   1      33.330  19.316  27.027  1.00  0.00     0.164 HD
BRANCH  10  13
ATOM     13  C   UNL A   1      32.448  18.671  23.840  1.00  0.00     0.106 C 
BRANCH  13  14
ATOM     14  C   UNL A   1      33.054  17.507  23.048  1.00  0.00     0.071 C 
BRANCH  14  15
ATOM     15  C   UNL A   1      34.402  16.960  23.539  1.00  0.00     0.260 C 
BRANCH  15  16
ATOM     16  N   UNL A   1      34.328  15.901  24.549  1.00  0.00    -0.349 N 
ATOM     17  C   UNL A   1      35.525  15.827  25.376  1.00  0.00     0.330 C 
ATOM     18  H   UNL A   1      33.526  16.081  25.154  1.00  0.00     0.346 HD
ATOM     19  H   UNL A   1      34.239  15.012  24.058  1.00  0.00     0.346 HD
ENDBRANCH  15  16
ENDBRANCH  14  15
ENDBRANCH  13  14
ENDBRANCH  10  13
ENDBRANCH   5   9
ENDBRANCH   2   4
ENDBRANCH   1   2
BRANCH   1  20
ATOM     20  C   UNL A   1      38.923  21.242  25.537  1.00  0.00     0.274 C 
BRANCH  20  21
ATOM     21  C   UNL A   1      39.609  20.178  26.399  1.00  0.00     0.275 C 
BRANCH  21  22
ATOM     22  O   UNL A   1      40.441  19.301  25.613  1.00  0.00    -0.458 OA
BRANCH  22  23
ATOM     23  C   UNL A   1      41.721  19.178  26.037  1.00  0.00     0.338 C 
ATOM     24  O   UNL A   1      42.380  18.154  26.111  1.00  0.00    -0.246 OA
BRANCH  23  25
ATOM     25  C   UNL A   1      42.294  20.507  26.307  1.00  0.00     0.060 A 
ATOM     26  C   UNL A   1      42.295  20.969  27.627  1.00  0.00     0.016 A 
ATOM     27  C   UNL A   1      42.755  21.320  25.270  1.00  0.00     0.016 A 
ATOM     28  C   UNL A   1      42.756  22.252  27.916  1.00  0.00     0.010 A 
ATOM     29  C   UNL A   1      43.218  22.606  25.562  1.00  0.00     0.010 A 
ATOM     30  C   UNL A   1      43.213  23.083  26.885  1.00  0.00    -0.014 A 
BRANCH  30  31
ATOM     31  C   UNL A   1      43.660  24.464  27.186  1.00  0.00     0.031 A 
ATOM     32  C   UNL A   1      42.677  25.473  27.702  1.00  0.00     0.074 A 
ATOM     33  C   UNL A   1      44.946  24.808  26.995  1.00  0.00     0.049 A 
ATOM     34  N   UNL A   1      42.847  26.749  27.939  1.00  0.00    -0.248 NA
ATOM     35  C   UNL A   1      41.321  24.981  27.989  1.00  0.00     0.031 C 
ATOM     36  C   UNL A   1      45.998  23.905  26.532  1.00  0.00     0.029 A 
ATOM     37  N   UNL A   1      45.582  26.012  27.160  1.00  0.00    -0.354 N 
ATOM     38  C   UNL A   1      41.620  27.216  28.391  1.00  0.00     0.074 A 
ATOM     39  C   UNL A   1      40.708  26.091  28.378  1.00  0.00     0.031 C 
ATOM     40  C   UNL A   1      47.151  24.590  26.441  1.00  0.00     0.029 A 
ATOM     41  C   UNL A   1      46.906  25.985  26.799  1.00  0.00     0.049 A 
ATOM     42  H   UNL A   1      45.133  26.818  27.502  1.00  0.00     0.167 HD
ATOM     43  C   UNL A   1      41.289  28.469  28.784  1.00  0.00     0.037 A 
ATOM     44  C   UNL A   1      47.811  26.980  26.736  1.00  0.00     0.037 A 
ATOM     45  C   UNL A   1      42.199  29.584  28.801  1.00  0.00     0.049 A 
ATOM     46  C   UNL A   1      47.402  28.375  27.123  1.00  0.00     0.074 A 
ATOM     47  C   UNL A   1      41.959  30.891  29.191  1.00  0.00     0.029 A 
ATOM     48  N   UNL A   1      43.528  29.522  28.410  1.00  0.00    -0.354 N 
ATOM     49  N   UNL A   1      46.240  28.808  27.548  1.00  0.00    -0.248 NA
ATOM     50  C   UNL A   1      48.429  29.421  27.017  1.00  0.00     0.031 C 
ATOM     51  C   UNL A   1      43.133  31.628  29.000  1.00  0.00     0.029 A 
ATOM     52  C   UNL A   1      44.116  30.772  28.532  1.00  0.00     0.049 A 
ATOM     53  H   UNL A   1      43.987  28.711  28.094  1.00  0.00     0.167 HD
ATOM     54  C   UNL A   1      46.401  30.168  27.778  1.00  0.00     0.074 A 
ATOM     55  C   UNL A   1      47.776  30.487  27.458  1.00  0.00     0.031 C 
ATOM     56  C   UNL A   1      45.488  31.071  28.213  1.00  0.00     0.037 A 
BRANCH  43  57
ATOM     57  C   UNL A   1      39.870  28.708  29.208  1.00  0.00     0.064 A 
ATOM     58  C   UNL A   1      39.460  28.531  30.537  1.00  0.00     0.173 A 
ATOM     59  C   UNL A   1      38.919  29.156  28.280  1.00  0.00     0.173 A 
ATOM     60  F   UNL A   1      40.330  28.091  31.459  1.00  0.00    -0.203 F 
ATOM     61  C   UNL A   1      38.143  28.775  30.918  1.00  0.00     0.198 A 
ATOM     62  C   UNL A   1      37.608  29.422  28.669  1.00  0.00     0.198 A 
ATOM     63  F   UNL A   1      39.261  29.345  26.996  1.00  0.00    -0.203 F 
ATOM     64  F   UNL A   1      37.762  28.562  32.185  1.00  0.00    -0.200 F 
ATOM     65  C   UNL A   1      37.219  29.226  29.985  1.00  0.00     0.200 A 
ATOM     66  F   UNL A   1      36.720  29.865  27.768  1.00  0.00    -0.200 F 
ATOM     67  F   UNL A   1      35.954  29.464  30.354  1.00  0.00    -0.200 F 
ENDBRANCH  43  57
BRANCH  44  68
ATOM     68  C   UNL A   1      49.190  26.693  26.264  1.00  0.00     0.064 A 
ATOM     69  C   UNL A   1      50.175  26.233  27.148  1.00  0.00     0.173 A 
ATOM     70  C   UNL A   1      49.550  26.878  24.921  1.00  0.00     0.173 A 
ATOM     71  F   UNL A   1      49.885  26.068  28.446  1.00  0.00    -0.203 F 
ATOM     72  C   UNL A   1      51.472  25.980  26.707  1.00  0.00     0.198 A 
ATOM     73  C   UNL A   1      50.839  26.599  24.477  1.00  0.00     0.198 A 
ATOM     74  F   UNL A   1      48.642  27.320  24.038  1.00  0.00    -0.203 F 
ATOM     75  F   UNL A   1      52.407  25.580  27.580  1.00  0.00    -0.200 F 
ATOM     76  C   UNL A   1      51.802  26.157  25.372  1.00  0.00     0.200 A 
ATOM     77  F   UNL A   1      51.151  26.763  23.184  1.00  0.00    -0.200 F 
ATOM     78  F   UNL A   1      53.049  25.909  24.949  1.00  0.00    -0.200 F 
ENDBRANCH  44  68
BRANCH  56  79
ATOM     79  C   UNL A   1      45.956  32.484  28.396  1.00  0.00     0.064 A 
ATOM     80  C   UNL A   1      46.529  32.916  29.601  1.00  0.00     0.173 A 
ATOM     81  C   UNL A   1      45.867  33.403  27.341  1.00  0.00     0.173 A 
ATOM     82  F   UNL A   1      46.621  32.077  30.643  1.00  0.00    -0.203 F 
ATOM     83  C   UNL A   1      46.978  34.225  29.749  1.00  0.00     0.198 A 
ATOM     84  C   UNL A   1      46.340  34.705  27.484  1.00  0.00     0.198 A 
ATOM     85  F   UNL A   1      45.332  33.036  26.167  1.00  0.00    -0.203 F 
ATOM     86  F   UNL A   1      47.487  34.629  30.921  1.00  0.00    -0.200 F 
ATOM     87  C   UNL A   1      46.890  35.116  28.690  1.00  0.00     0.200 A 
ATOM     88  F   UNL A   1      46.263  35.561  26.456  1.00  0.00    -0.200 F 
ATOM     89  F   UNL A   1      47.328  36.375  28.832  1.00  0.00    -0.200 F 
ENDBRANCH  56  79
ENDBRANCH  30  31
ENDBRANCH  23  25
ENDBRANCH  22  23
ENDBRANCH  21  22
ENDBRANCH  20  21
ENDBRANCH   1  20
TORSDOF 16
ENDMDL
MODEL 3
REMARK VINA RESULT:      -9.4      4.200      7.484
REMARK SMILES C[NH2+]CCCC(=O)N[C@H]1C=C[C@@H](C(=O)OCCOC(=O)c2ccc(-c3c4nc(c(-c5c(F)c(F)c(F)c(F)c5F)c5ccc([nH]5)c(-c5c(F)c(F)c(F)c(F)c5F)c5nc(c(-c6c(F)c(F)c(F)c(F)c6F)c6ccc3[nH]6)C=C5)C=C4)cc2)C1
REMARK SMILES IDX 15 1 13 2 14 3 12 4 9 5 10 6 84 7 11 8 8 9 6 10 7 11 5 13
REMARK SMILES IDX 4 14 3 15 2 16 1 17 16 20 17 21 18 22 19 23 20 24 21 25
REMARK SMILES IDX 22 26 83 27 23 28 82 29 24 30 25 31 26 32 76 33 27 34 81 35
REMARK SMILES IDX 75 36 77 37 28 38 80 39 74 40 73 41 29 43 61 44 41 45 60 46
REMARK SMILES IDX 42 47 45 48 59 49 78 50 43 51 44 52 58 54 79 55 46 56 30 57
REMARK SMILES IDX 31 58 39 59 32 60 33 61 37 62 40 63 34 64 35 65 38 66 36 67
REMARK SMILES IDX 62 68 63 69 71 70 64 71 65 72 69 73 72 74 66 75 67 76 70 77
REMARK SMILES IDX 68 78 47 79 48 80 56 81 49 82 50 83 54 84 57 85 51 86 52 87
REMARK SMILES IDX 55 88 53 89
REMARK H PARENT 8 12 2 18 2 19 77 42 45 53
REMARK Flexibility Score: inf
ROOT
ATOM      1  O   UNL A   1      41.614  20.535  26.038  1.00  0.00    -0.462 OA
ENDROOT
BRANCH   1   2
ATOM      2  C   UNL A   1      40.806  21.240  26.870  1.00  0.00     0.312 C 
ATOM      3  O   UNL A   1      40.777  21.110  28.089  1.00  0.00    -0.252 OA
BRANCH   2   4
ATOM      4  C   UNL A   1      39.916  22.229  26.142  1.00  0.00     0.124 C 
ATOM      5  C   UNL A   1      37.749  23.171  25.757  1.00  0.00     0.106 C 
ATOM      6  C   UNL A   1      38.542  24.045  26.673  1.00  0.00    -0.006 C 
ATOM      7  C   UNL A   1      38.457  21.827  25.897  1.00  0.00     0.048 C 
ATOM      8  C   UNL A   1      39.761  23.529  26.879  1.00  0.00    -0.014 C 
BRANCH   5   9
ATOM      9  N   UNL A   1      36.364  23.176  26.128  1.00  0.00    -0.350 N 
ATOM     10  C   UNL A   1      35.286  23.468  25.347  1.00  0.00     0.220 C 
ATOM     11  O   UNL A   1      34.176  23.541  25.874  1.00  0.00    -0.275 OA
ATOM     12  H   UNL A   1      36.167  22.937  27.062  1.00  0.00     0.164 HD
BRANCH  10  13
ATOM     13  C   UNL A   1      35.455  23.677  23.854  1.00  0.00     0.106 C 
BRANCH  13  14
ATOM     14  C   UNL A   1      34.379  23.007  22.993  1.00  0.00     0.071 C 
BRANCH  14  15
ATOM     15  C   UNL A   1      33.209  23.888  22.533  1.00  0.00     0.260 C 
BRANCH  15  16
ATOM     16  N   UNL A   1      33.119  25.207  23.166  1.00  0.00    -0.349 N 
ATOM     17  C   UNL A   1      33.285  26.299  22.217  1.00  0.00     0.330 C 
ATOM     18  H   UNL A   1      32.204  25.296  23.608  1.00  0.00     0.346 HD
ATOM     19  H   UNL A   1      33.875  25.274  23.847  1.00  0.00     0.346 HD
ENDBRANCH  15  16
ENDBRANCH  14  15
ENDBRANCH  13  14
ENDBRANCH  10  13
ENDBRANCH   5   9
ENDBRANCH   2   4
ENDBRANCH   1   2
BRANCH   1  20
ATOM     20  C   UNL A   1      41.780  19.139  26.340  1.00  0.00     0.274 C 
BRANCH  20  21
ATOM     21  C   UNL A   1      43.091  18.613  25.750  1.00  0.00     0.275 C 
BRANCH  21  22
ATOM     22  O   UNL A   1      43.428  19.271  24.513  1.00  0.00    -0.458 OA
BRANCH  22  23
ATOM     23  C   UNL A   1      44.741  19.558  24.344  1.00  0.00     0.338 C 
ATOM     24  O   UNL A   1      45.605  18.826  23.892  1.00  0.00    -0.246 OA
BRANCH  23  25
ATOM     25  C   UNL A   1      44.998  20.967  24.683  1.00  0.00     0.060 A 
ATOM     26  C   UNL A   1      45.450  21.263  25.974  1.00  0.00     0.016 A 
ATOM     27  C   UNL A   1      44.727  21.991  23.775  1.00  0.00     0.016 A 
ATOM     28  C   UNL A   1      45.631  22.589  26.362  1.00  0.00     0.010 A 
ATOM     29  C   UNL A   1      44.910  23.320  24.165  1.00  0.00     0.010 A 
ATOM     30  C   UNL A   1      45.355  23.628  25.463  1.00  0.00    -0.014 A 
BRANCH  30  31
ATOM     31  C   UNL A   1      45.502  25.040  25.890  1.00  0.00     0.031 A 
ATOM     32  C   UNL A   1      46.834  25.721  25.778  1.00  0.00     0.074 A 
ATOM     33  C   UNL A   1      44.440  25.705  26.378  1.00  0.00     0.049 A 
ATOM     34  N   UNL A   1      47.190  26.915  26.178  1.00  0.00    -0.248 NA
ATOM     35  C   UNL A   1      47.909  24.957  25.128  1.00  0.00     0.031 C 
ATOM     36  C   UNL A   1      43.089  25.161  26.502  1.00  0.00     0.029 A 
ATOM     37  N   UNL A   1      44.335  26.983  26.868  1.00  0.00    -0.354 N 
ATOM     38  C   UNL A   1      48.531  27.042  25.842  1.00  0.00     0.074 A 
ATOM     39  C   UNL A   1      48.931  25.797  25.221  1.00  0.00     0.031 C 
ATOM     40  C   UNL A   1      42.290  26.095  27.042  1.00  0.00     0.029 A 
ATOM     41  C   UNL A   1      43.082  27.286  27.339  1.00  0.00     0.049 A 
ATOM     42  H   UNL A   1      45.085  27.620  26.882  1.00  0.00     0.167 HD
ATOM     43  C   UNL A   1      49.350  28.104  26.032  1.00  0.00     0.037 A 
ATOM     44  C   UNL A   1      42.633  28.389  27.966  1.00  0.00     0.037 A 
ATOM     45  C   UNL A   1      48.948  29.343  26.645  1.00  0.00     0.049 A 
ATOM     46  C   UNL A   1      43.577  29.533  28.216  1.00  0.00     0.074 A 
ATOM     47  C   UNL A   1      49.704  30.480  26.874  1.00  0.00     0.029 A 
ATOM     48  N   UNL A   1      47.674  29.606  27.127  1.00  0.00    -0.354 N 
ATOM     49  N   UNL A   1      44.844  29.644  27.896  1.00  0.00    -0.248 NA
ATOM     50  C   UNL A   1      43.032  30.702  28.921  1.00  0.00     0.031 C 
ATOM     51  C   UNL A   1      48.898  31.418  27.529  1.00  0.00     0.029 A 
ATOM     52  C   UNL A   1      47.628  30.881  27.669  1.00  0.00     0.049 A 
ATOM     53  H   UNL A   1      46.916  28.981  27.089  1.00  0.00     0.167 HD
ATOM     54  C   UNL A   1      45.240  30.898  28.340  1.00  0.00     0.074 A 
ATOM     55  C   UNL A   1      44.078  31.517  28.942  1.00  0.00     0.031 C 
ATOM     56  C   UNL A   1      46.461  31.483  28.259  1.00  0.00     0.037 A 
BRANCH  43  57
ATOM     57  C   UNL A   1      50.777  27.964  25.592  1.00  0.00     0.064 A 
ATOM     58  C   UNL A   1      51.152  28.129  24.251  1.00  0.00     0.173 A 
ATOM     59  C   UNL A   1      51.786  27.698  26.529  1.00  0.00     0.173 A 
ATOM     60  F   UNL A   1      50.222  28.370  23.314  1.00  0.00    -0.203 F 
ATOM     61  C   UNL A   1      52.484  28.013  23.861  1.00  0.00     0.198 A 
ATOM     62  C   UNL A   1      53.120  27.607  26.139  1.00  0.00     0.198 A 
ATOM     63  F   UNL A   1      51.480  27.536  27.825  1.00  0.00    -0.203 F 
ATOM     64  F   UNL A   1      52.815  28.135  22.568  1.00  0.00    -0.200 F 
ATOM     65  C   UNL A   1      53.467  27.759  24.806  1.00  0.00     0.200 A 
ATOM     66  F   UNL A   1      54.069  27.369  27.055  1.00  0.00    -0.200 F 
ATOM     67  F   UNL A   1      54.749  27.652  24.430  1.00  0.00    -0.200 F 
ENDBRANCH  43  57
BRANCH  44  68
ATOM     68  C   UNL A   1      41.220  28.454  28.422  1.00  0.00     0.064 A 
ATOM     69  C   UNL A   1      40.858  28.041  29.711  1.00  0.00     0.173 A 
ATOM     70  C   UNL A   1      40.206  28.926  27.576  1.00  0.00     0.173 A 
ATOM     71  F   UNL A   1      41.789  27.557  30.546  1.00  0.00    -0.203 F 
ATOM     72  C   UNL A   1      39.531  28.088  30.133  1.00  0.00     0.198 A 
ATOM     73  C   UNL A   1      38.884  28.996  28.008  1.00  0.00     0.198 A 
ATOM     74  F   UNL A   1      40.503  29.329  26.332  1.00  0.00    -0.203 F 
ATOM     75  F   UNL A   1      39.203  27.649  31.356  1.00  0.00    -0.200 F 
ATOM     76  C   UNL A   1      38.546  28.571  29.284  1.00  0.00     0.200 A 
ATOM     77  F   UNL A   1      37.938  29.472  27.188  1.00  0.00    -0.200 F 
ATOM     78  F   UNL A   1      37.271  28.618  29.692  1.00  0.00    -0.200 F 
ENDBRANCH  44  68
BRANCH  56  79
ATOM     79  C   UNL A   1      46.592  32.872  28.808  1.00  0.00     0.064 A 
ATOM     80  C   UNL A   1      46.331  34.000  28.017  1.00  0.00     0.173 A 
ATOM     81  C   UNL A   1      46.944  33.076  30.150  1.00  0.00     0.173 A 
ATOM     82  F   UNL A   1      46.007  33.857  26.724  1.00  0.00    -0.203 F 
ATOM     83  C   UNL A   1      46.437  35.284  28.546  1.00  0.00     0.198 A 
ATOM     84  C   UNL A   1      47.025  34.359  30.683  1.00  0.00     0.198 A 
ATOM     85  F   UNL A   1      47.198  32.028  30.949  1.00  0.00    -0.203 F 
ATOM     86  F   UNL A   1      46.221  36.350  27.763  1.00  0.00    -0.200 F 
ATOM     87  C   UNL A   1      46.777  35.462  29.879  1.00  0.00     0.200 A 
ATOM     88  F   UNL A   1      47.344  34.528  31.974  1.00  0.00    -0.200 F 
ATOM     89  F   UNL A   1      46.873  36.698  30.389  1.00  0.00    -0.200 F 
ENDBRANCH  56  79
ENDBRANCH  30  31
ENDBRANCH  23  25
ENDBRANCH  22  23
ENDBRANCH  21  22
ENDBRANCH  20  21
ENDBRANCH   1  20
TORSDOF 16
ENDMDL
