MODEL 1
REMARK VINA RESULT:     -12.4      0.000      0.000
REMARK SMILES CC(C)(C)OC(=O)N[C@@H](C(=O)OCCOC(=O)c1ccc(-c2c3nc(c(-c4c(F)c(F)c(F)c(F)c4F)c4ccc([nH]4)c(-c4c(F)c(F)c(F)c(F)c4F)c4nc(c(-c5c(F)c(F)c(F)c(F)c5F)c5ccc2[nH]5)C=C4)C=C3)cc1)c1ccc([N+](=O)[O-])cc1
REMARK SMILES IDX 13 1 12 2 10 3 11 4 9 5 8 6 6 7 7 8 5 10 2 11 1 12 3 13 4 14
REMARK SMILES IDX 81 15 82 16 89 17 83 18 88 19 84 20 85 21 86 22 87 23 14 24
REMARK SMILES IDX 15 25 16 26 17 27 18 28 19 29 80 30 20 31 79 32 21 33 22 34
REMARK SMILES IDX 23 35 73 36 24 37 78 38 72 39 74 40 25 41 77 42 71 43 70 44
REMARK SMILES IDX 26 46 58 47 38 48 57 49 39 50 42 51 56 52 75 53 40 54 41 55
REMARK SMILES IDX 55 57 76 58 43 59 27 60 28 61 36 62 29 63 30 64 34 65 37 66
REMARK SMILES IDX 31 67 32 68 35 69 33 70 59 71 60 72 68 73 61 74 62 75 66 76
REMARK SMILES IDX 69 77 63 78 64 79 67 80 65 81 44 82 45 83 53 84 46 85 47 86
REMARK SMILES IDX 51 87 54 88 48 89 49 90 52 91 50 92
REMARK H PARENT 8 9 74 45 42 56
REMARK Flexibility Score: inf
ROOT
ATOM      1  C   UNL A   1      31.850  28.267  26.598  1.00  0.00     0.274 C 
ENDROOT
BRANCH   1   2
ATOM      2  O   UNL A   1      31.906  28.072  25.171  1.00  0.00    -0.460 OA
BRANCH   2   3
ATOM      3  C   UNL A   1      30.836  27.469  24.577  1.00  0.00     0.333 C 
ATOM      4  O   UNL A   1      30.094  26.675  25.147  1.00  0.00    -0.249 OA
BRANCH   3   5
ATOM      5  C   UNL A   1      30.719  27.841  23.079  1.00  0.00     0.226 C 
BRANCH   5   6
ATOM      6  N   UNL A   1      32.001  27.756  22.392  1.00  0.00    -0.304 N 
ATOM      7  C   UNL A   1      32.579  26.620  21.917  1.00  0.00     0.408 C 
ATOM      8  O   UNL A   1      33.642  26.639  21.325  1.00  0.00    -0.225 OA
ATOM      9  H   UNL A   1      32.494  28.598  22.260  1.00  0.00     0.168 HD
BRANCH   7  10
ATOM     10  O   UNL A   1      31.837  25.524  22.197  1.00  0.00    -0.444 OA
BRANCH  10  11
ATOM     11  C   UNL A   1      32.384  24.408  22.939  1.00  0.00     0.106 C 
ATOM     12  C   UNL A   1      31.147  23.689  23.500  1.00  0.00     0.056 C 
ATOM     13  C   UNL A   1      33.254  24.870  24.112  1.00  0.00     0.056 C 
ATOM     14  C   UNL A   1      33.131  23.459  22.001  1.00  0.00     0.056 C 
ENDBRANCH  10  11
ENDBRANCH   7  10
ENDBRANCH   5   6
BRANCH   5  15
ATOM     15  C   UNL A   1      30.032  29.190  22.839  1.00  0.00    -0.014 A 
ATOM     16  C   UNL A   1      29.578  29.597  21.569  1.00  0.00     0.013 A 
ATOM     17  C   UNL A   1      29.862  30.077  23.921  1.00  0.00     0.013 A 
ATOM     18  C   UNL A   1      28.988  30.853  21.381  1.00  0.00     0.086 A 
ATOM     19  C   UNL A   1      29.284  31.338  23.741  1.00  0.00     0.086 A 
ATOM     20  C   UNL A   1      28.853  31.725  22.467  1.00  0.00     0.269 A 
BRANCH  20  21
ATOM     21  N   UNL A   1      28.323  33.080  22.258  1.00  0.00     0.062 N 
ATOM     22  O   UNL A   1      28.564  33.930  23.125  1.00  0.00    -0.258 OA
ATOM     23  O   UNL A   1      27.653  33.283  21.235  1.00  0.00    -0.258 OA
ENDBRANCH  20  21
ENDBRANCH   5  15
ENDBRANCH   3   5
ENDBRANCH   2   3
ENDBRANCH   1   2
BRANCH   1  24
ATOM     24  C   UNL A   1      31.806  29.760  26.934  1.00  0.00     0.275 C 
BRANCH  24  25
ATOM     25  O   UNL A   1      32.963  30.450  26.421  1.00  0.00    -0.458 OA
BRANCH  25  26
ATOM     26  C   UNL A   1      33.482  31.380  27.250  1.00  0.00     0.338 C 
ATOM     27  O   UNL A   1      32.895  32.291  27.813  1.00  0.00    -0.246 OA
BRANCH  26  28
ATOM     28  C   UNL A   1      34.886  31.072  27.547  1.00  0.00     0.060 A 
ATOM     29  C   UNL A   1      35.230  29.730  27.629  1.00  0.00     0.016 A 
ATOM     30  C   UNL A   1      35.776  32.052  27.985  1.00  0.00     0.016 A 
ATOM     31  C   UNL A   1      36.389  29.357  28.300  1.00  0.00     0.010 A 
ATOM     32  C   UNL A   1      36.992  31.665  28.577  1.00  0.00     0.010 A 
ATOM     33  C   UNL A   1      37.276  30.308  28.822  1.00  0.00    -0.014 A 
BRANCH  33  34
ATOM     34  C   UNL A   1      38.387  29.867  29.732  1.00  0.00     0.031 A 
ATOM     35  C   UNL A   1      39.531  29.033  29.192  1.00  0.00     0.074 A 
ATOM     36  C   UNL A   1      38.469  30.302  31.007  1.00  0.00     0.049 A 
ATOM     37  N   UNL A   1      40.505  28.435  29.836  1.00  0.00    -0.248 NA
ATOM     38  C   UNL A   1      39.581  28.834  27.735  1.00  0.00     0.031 C 
ATOM     39  C   UNL A   1      37.511  31.188  31.667  1.00  0.00     0.029 A 
ATOM     40  N   UNL A   1      39.439  30.102  31.964  1.00  0.00    -0.354 N 
ATOM     41  C   UNL A   1      41.222  27.725  28.878  1.00  0.00     0.074 A 
ATOM     42  C   UNL A   1      40.576  27.970  27.607  1.00  0.00     0.031 C 
ATOM     43  C   UNL A   1      37.996  31.552  32.863  1.00  0.00     0.029 A 
ATOM     44  C   UNL A   1      39.232  30.818  33.119  1.00  0.00     0.049 A 
ATOM     45  H   UNL A   1      40.208  29.503  31.833  1.00  0.00     0.167 HD
ATOM     46  C   UNL A   1      42.315  26.939  29.041  1.00  0.00     0.037 A 
ATOM     47  C   UNL A   1      39.931  30.859  34.271  1.00  0.00     0.037 A 
ATOM     48  C   UNL A   1      43.023  26.772  30.285  1.00  0.00     0.049 A 
ATOM     49  C   UNL A   1      41.126  29.959  34.439  1.00  0.00     0.074 A 
ATOM     50  C   UNL A   1      44.117  25.968  30.558  1.00  0.00     0.029 A 
ATOM     51  N   UNL A   1      42.733  27.458  31.455  1.00  0.00    -0.354 N 
ATOM     52  N   UNL A   1      41.701  29.168  33.569  1.00  0.00    -0.248 NA
ATOM     53  C   UNL A   1      41.744  29.929  35.774  1.00  0.00     0.031 C 
ATOM     54  C   UNL A   1      44.468  26.140  31.902  1.00  0.00     0.029 A 
ATOM     55  C   UNL A   1      43.624  27.090  32.452  1.00  0.00     0.049 A 
ATOM     56  H   UNL A   1      42.003  28.109  31.562  1.00  0.00     0.167 HD
ATOM     57  C   UNL A   1      42.752  28.560  34.242  1.00  0.00     0.074 A 
ATOM     58  C   UNL A   1      42.754  29.093  35.587  1.00  0.00     0.031 C 
ATOM     59  C   UNL A   1      43.630  27.632  33.786  1.00  0.00     0.037 A 
BRANCH  46  60
ATOM     60  C   UNL A   1      42.783  26.144  27.853  1.00  0.00     0.064 A 
ATOM     61  C   UNL A   1      42.311  24.854  27.575  1.00  0.00     0.173 A 
ATOM     62  C   UNL A   1      43.716  26.705  26.964  1.00  0.00     0.173 A 
ATOM     63  F   UNL A   1      41.432  24.264  28.397  1.00  0.00    -0.203 F 
ATOM     64  C   UNL A   1      42.780  24.142  26.471  1.00  0.00     0.198 A 
ATOM     65  C   UNL A   1      44.155  26.005  25.844  1.00  0.00     0.198 A 
ATOM     66  F   UNL A   1      44.195  27.939  27.176  1.00  0.00    -0.203 F 
ATOM     67  F   UNL A   1      42.360  22.887  26.257  1.00  0.00    -0.200 F 
ATOM     68  C   UNL A   1      43.695  24.721  25.604  1.00  0.00     0.200 A 
ATOM     69  F   UNL A   1      45.028  26.573  25.000  1.00  0.00    -0.200 F 
ATOM     70  F   UNL A   1      44.142  24.035  24.542  1.00  0.00    -0.200 F 
ENDBRANCH  46  60
BRANCH  47  71
ATOM     71  C   UNL A   1      39.496  31.748  35.385  1.00  0.00     0.064 A 
ATOM     72  C   UNL A   1      38.564  31.307  36.336  1.00  0.00     0.173 A 
ATOM     73  C   UNL A   1      39.977  33.060  35.508  1.00  0.00     0.173 A 
ATOM     74  F   UNL A   1      38.036  30.078  36.240  1.00  0.00    -0.203 F 
ATOM     75  C   UNL A   1      38.127  32.147  37.360  1.00  0.00     0.198 A 
ATOM     76  C   UNL A   1      39.570  33.884  36.554  1.00  0.00     0.198 A 
ATOM     77  F   UNL A   1      40.856  33.542  34.617  1.00  0.00    -0.203 F 
ATOM     78  F   UNL A   1      37.194  31.721  38.222  1.00  0.00    -0.200 F 
ATOM     79  C   UNL A   1      38.639  33.430  37.475  1.00  0.00     0.200 A 
ATOM     80  F   UNL A   1      40.078  35.119  36.667  1.00  0.00    -0.200 F 
ATOM     81  F   UNL A   1      38.224  34.234  38.463  1.00  0.00    -0.200 F 
ENDBRANCH  47  71
BRANCH  59  82
ATOM     82  C   UNL A   1      44.691  27.162  34.739  1.00  0.00     0.064 A 
ATOM     83  C   UNL A   1      45.921  27.824  34.860  1.00  0.00     0.173 A 
ATOM     84  C   UNL A   1      44.464  26.043  35.556  1.00  0.00     0.173 A 
ATOM     85  F   UNL A   1      46.193  28.890  34.093  1.00  0.00    -0.203 F 
ATOM     86  C   UNL A   1      46.899  27.364  35.739  1.00  0.00     0.198 A 
ATOM     87  C   UNL A   1      45.433  25.603  36.455  1.00  0.00     0.198 A 
ATOM     88  F   UNL A   1      43.301  25.378  35.486  1.00  0.00    -0.203 F 
ATOM     89  F   UNL A   1      48.088  27.980  35.799  1.00  0.00    -0.200 F 
ATOM     90  C   UNL A   1      46.652  26.258  36.539  1.00  0.00     0.200 A 
ATOM     91  F   UNL A   1      45.188  24.543  37.236  1.00  0.00    -0.200 F 
ATOM     92  F   UNL A   1      47.594  25.818  37.385  1.00  0.00    -0.200 F 
ENDBRANCH  59  82
ENDBRANCH  33  34
ENDBRANCH  26  28
ENDBRANCH  25  26
ENDBRANCH  24  25
ENDBRANCH   1  24
TORSDOF 16
ENDMDL
MODEL 2
REMARK VINA RESULT:     -12.2      1.078      2.402
REMARK SMILES CC(C)(C)OC(=O)N[C@@H](C(=O)OCCOC(=O)c1ccc(-c2c3nc(c(-c4c(F)c(F)c(F)c(F)c4F)c4ccc([nH]4)c(-c4c(F)c(F)c(F)c(F)c4F)c4nc(c(-c5c(F)c(F)c(F)c(F)c5F)c5ccc2[nH]5)C=C4)C=C3)cc1)c1ccc([N+](=O)[O-])cc1
REMARK SMILES IDX 13 1 12 2 10 3 11 4 9 5 8 6 6 7 7 8 5 10 2 11 1 12 3 13 4 14
REMARK SMILES IDX 81 15 82 16 89 17 83 18 88 19 84 20 85 21 86 22 87 23 14 24
REMARK SMILES IDX 15 25 16 26 17 27 18 28 19 29 80 30 20 31 79 32 21 33 22 34
REMARK SMILES IDX 23 35 73 36 24 37 78 38 72 39 74 40 25 41 77 42 71 43 70 44
REMARK SMILES IDX 26 46 58 47 38 48 57 49 39 50 42 51 56 52 75 53 40 54 41 55
REMARK SMILES IDX 55 57 76 58 43 59 27 60 28 61 36 62 29 63 30 64 34 65 37 66
REMARK SMILES IDX 31 67 32 68 35 69 33 70 59 71 60 72 68 73 61 74 62 75 66 76
REMARK SMILES IDX 69 77 63 78 64 79 67 80 65 81 44 82 45 83 53 84 46 85 47 86
REMARK SMILES IDX 51 87 54 88 48 89 49 90 52 91 50 92
REMARK H PARENT 8 9 74 45 42 56
REMARK Flexibility Score: inf
ROOT
ATOM      1  C   UNL A   1      31.843  28.321  27.622  1.00  0.00     0.274 C 
ENDROOT
BRANCH   1   2
ATOM      2  O   UNL A   1      31.467  27.254  26.729  1.00  0.00    -0.460 OA
BRANCH   2   3
ATOM      3  C   UNL A   1      32.430  26.763  25.896  1.00  0.00     0.333 C 
ATOM      4  O   UNL A   1      33.632  26.803  26.140  1.00  0.00    -0.249 OA
BRANCH   3   5
ATOM      5  C   UNL A   1      31.833  26.226  24.573  1.00  0.00     0.226 C 
BRANCH   5   6
ATOM      6  N   UNL A   1      32.865  25.765  23.654  1.00  0.00    -0.304 N 
ATOM      7  C   UNL A   1      33.070  24.479  23.262  1.00  0.00     0.408 C 
ATOM      8  O   UNL A   1      33.938  24.181  22.464  1.00  0.00    -0.225 OA
ATOM      9  H   UNL A   1      33.471  26.447  23.283  1.00  0.00     0.168 HD
BRANCH   7  10
ATOM     10  O   UNL A   1      32.214  23.626  23.870  1.00  0.00    -0.444 OA
BRANCH  10  11
ATOM     11  C   UNL A   1      32.676  22.636  24.819  1.00  0.00     0.106 C 
ATOM     12  C   UNL A   1      31.433  22.320  25.666  1.00  0.00     0.056 C 
ATOM     13  C   UNL A   1      33.767  23.190  25.741  1.00  0.00     0.056 C 
ATOM     14  C   UNL A   1      33.121  21.367  24.092  1.00  0.00     0.056 C 
ENDBRANCH  10  11
ENDBRANCH   7  10
ENDBRANCH   5   6
BRANCH   5  15
ATOM     15  C   UNL A   1      30.866  27.205  23.899  1.00  0.00    -0.014 A 
ATOM     16  C   UNL A   1      31.289  28.420  23.326  1.00  0.00     0.013 A 
ATOM     17  C   UNL A   1      29.490  26.899  23.865  1.00  0.00     0.013 A 
ATOM     18  C   UNL A   1      30.370  29.308  22.752  1.00  0.00     0.086 A 
ATOM     19  C   UNL A   1      28.563  27.783  23.303  1.00  0.00     0.086 A 
ATOM     20  C   UNL A   1      29.008  28.991  22.753  1.00  0.00     0.269 A 
BRANCH  20  21
ATOM     21  N   UNL A   1      28.029  29.960  22.239  1.00  0.00     0.062 N 
ATOM     22  O   UNL A   1      28.028  30.183  21.021  1.00  0.00    -0.258 OA
ATOM     23  O   UNL A   1      27.279  30.508  23.059  1.00  0.00    -0.258 OA
ENDBRANCH  20  21
ENDBRANCH   5  15
ENDBRANCH   3   5
ENDBRANCH   2   3
ENDBRANCH   1   2
BRANCH   1  24
ATOM     24  C   UNL A   1      31.672  29.679  26.939  1.00  0.00     0.275 C 
BRANCH  24  25
ATOM     25  O   UNL A   1      32.931  30.190  26.459  1.00  0.00    -0.458 OA
BRANCH  25  26
ATOM     26  C   UNL A   1      33.430  31.223  27.170  1.00  0.00     0.338 C 
ATOM     27  O   UNL A   1      32.824  32.180  27.626  1.00  0.00    -0.246 OA
BRANCH  26  28
ATOM     28  C   UNL A   1      34.843  30.986  27.492  1.00  0.00     0.060 A 
ATOM     29  C   UNL A   1      35.266  29.665  27.519  1.00  0.00     0.016 A 
ATOM     30  C   UNL A   1      35.660  31.994  28.001  1.00  0.00     0.016 A 
ATOM     31  C   UNL A   1      36.428  29.329  28.204  1.00  0.00     0.010 A 
ATOM     32  C   UNL A   1      36.882  31.652  28.608  1.00  0.00     0.010 A 
ATOM     33  C   UNL A   1      37.242  30.305  28.795  1.00  0.00    -0.014 A 
BRANCH  33  34
ATOM     34  C   UNL A   1      38.355  29.886  29.714  1.00  0.00     0.031 A 
ATOM     35  C   UNL A   1      39.519  29.076  29.183  1.00  0.00     0.074 A 
ATOM     36  C   UNL A   1      38.418  30.323  30.990  1.00  0.00     0.049 A 
ATOM     37  N   UNL A   1      40.501  28.497  29.835  1.00  0.00    -0.248 NA
ATOM     38  C   UNL A   1      39.584  28.877  27.728  1.00  0.00     0.031 C 
ATOM     39  C   UNL A   1      37.437  31.191  31.642  1.00  0.00     0.029 A 
ATOM     40  N   UNL A   1      39.384  30.144  31.954  1.00  0.00    -0.354 N 
ATOM     41  C   UNL A   1      41.239  27.801  28.884  1.00  0.00     0.074 A 
ATOM     42  C   UNL A   1      40.598  28.032  27.608  1.00  0.00     0.031 C 
ATOM     43  C   UNL A   1      37.906  31.564  32.842  1.00  0.00     0.029 A 
ATOM     44  C   UNL A   1      39.154  30.856  33.107  1.00  0.00     0.049 A 
ATOM     45  H   UNL A   1      40.167  29.559  31.830  1.00  0.00     0.167 HD
ATOM     46  C   UNL A   1      42.346  27.038  29.055  1.00  0.00     0.037 A 
ATOM     47  C   UNL A   1      39.843  30.911  34.265  1.00  0.00     0.037 A 
ATOM     48  C   UNL A   1      43.048  26.885  30.305  1.00  0.00     0.049 A 
ATOM     49  C   UNL A   1      41.055  30.036  34.443  1.00  0.00     0.074 A 
ATOM     50  C   UNL A   1      44.156  26.103  30.587  1.00  0.00     0.029 A 
ATOM     51  N   UNL A   1      42.735  27.566  31.473  1.00  0.00    -0.354 N 
ATOM     52  N   UNL A   1      41.653  29.256  33.577  1.00  0.00    -0.248 NA
ATOM     53  C   UNL A   1      41.663  30.019  35.782  1.00  0.00     0.031 C 
ATOM     54  C   UNL A   1      44.492  26.283  31.933  1.00  0.00     0.029 A 
ATOM     55  C   UNL A   1      43.625  27.217  32.477  1.00  0.00     0.049 A 
ATOM     56  H   UNL A   1      41.991  28.202  31.573  1.00  0.00     0.167 HD
ATOM     57  C   UNL A   1      42.711  28.670  34.259  1.00  0.00     0.074 A 
ATOM     58  C   UNL A   1      42.691  29.203  35.604  1.00  0.00     0.031 C 
ATOM     59  C   UNL A   1      43.610  27.759  33.810  1.00  0.00     0.037 A 
BRANCH  46  60
ATOM     60  C   UNL A   1      42.839  26.251  27.871  1.00  0.00     0.064 A 
ATOM     61  C   UNL A   1      43.789  26.757  26.973  1.00  0.00     0.173 A 
ATOM     62  C   UNL A   1      42.357  24.950  27.650  1.00  0.00     0.173 A 
ATOM     63  F   UNL A   1      44.271  27.998  27.127  1.00  0.00    -0.203 F 
ATOM     64  C   UNL A   1      44.211  26.003  25.878  1.00  0.00     0.198 A 
ATOM     65  C   UNL A   1      42.807  24.188  26.576  1.00  0.00     0.198 A 
ATOM     66  F   UNL A   1      41.454  24.413  28.483  1.00  0.00    -0.203 F 
ATOM     67  F   UNL A   1      45.075  26.529  24.998  1.00  0.00    -0.200 F 
ATOM     68  C   UNL A   1      43.726  24.718  25.685  1.00  0.00     0.200 A 
ATOM     69  F   UNL A   1      42.347  22.942  26.401  1.00  0.00    -0.200 F 
ATOM     70  F   UNL A   1      44.136  23.995  24.634  1.00  0.00    -0.200 F 
ENDBRANCH  46  60
BRANCH  47  71
ATOM     71  C   UNL A   1      39.382  31.792  35.374  1.00  0.00     0.064 A 
ATOM     72  C   UNL A   1      39.854  33.108  35.493  1.00  0.00     0.173 A 
ATOM     73  C   UNL A   1      38.486  31.334  36.352  1.00  0.00     0.173 A 
ATOM     74  F   UNL A   1      40.748  33.583  34.612  1.00  0.00    -0.203 F 
ATOM     75  C   UNL A   1      39.453  33.925  36.549  1.00  0.00     0.198 A 
ATOM     76  C   UNL A   1      38.056  32.164  37.383  1.00  0.00     0.198 A 
ATOM     77  F   UNL A   1      38.016  30.079  36.300  1.00  0.00    -0.203 F 
ATOM     78  F   UNL A   1      39.963  35.159  36.670  1.00  0.00    -0.200 F 
ATOM     79  C   UNL A   1      38.545  33.457  37.486  1.00  0.00     0.200 A 
ATOM     80  F   UNL A   1      37.169  31.710  38.280  1.00  0.00    -0.200 F 
ATOM     81  F   UNL A   1      38.154  34.245  38.497  1.00  0.00    -0.200 F 
ENDBRANCH  47  71
BRANCH  59  82
ATOM     82  C   UNL A   1      44.673  27.311  34.772  1.00  0.00     0.064 A 
ATOM     83  C   UNL A   1      44.500  26.185  35.590  1.00  0.00     0.173 A 
ATOM     84  C   UNL A   1      45.888  28.007  34.862  1.00  0.00     0.173 A 
ATOM     85  F   UNL A   1      43.352  25.492  35.553  1.00  0.00    -0.203 F 
ATOM     86  C   UNL A   1      45.491  25.792  36.487  1.00  0.00     0.198 A 
ATOM     87  C   UNL A   1      46.889  27.594  35.738  1.00  0.00     0.198 A 
ATOM     88  F   UNL A   1      46.108  29.086  34.095  1.00  0.00    -0.203 F 
ATOM     89  F   UNL A   1      45.283  24.745  37.298  1.00  0.00    -0.200 F 
ATOM     90  C   UNL A   1      46.686  26.494  36.556  1.00  0.00     0.200 A 
ATOM     91  F   UNL A   1      48.047  28.265  35.795  1.00  0.00    -0.200 F 
ATOM     92  F   UNL A   1      47.638  26.114  37.419  1.00  0.00    -0.200 F 
ENDBRANCH  59  82
ENDBRANCH  33  34
ENDBRANCH  26  28
ENDBRANCH  25  26
ENDBRANCH  24  25
ENDBRANCH   1  24
TORSDOF 16
ENDMDL
MODEL 3
REMARK VINA RESULT:     -12.2      5.080     10.562
REMARK SMILES CC(C)(C)OC(=O)N[C@@H](C(=O)OCCOC(=O)c1ccc(-c2c3nc(c(-c4c(F)c(F)c(F)c(F)c4F)c4ccc([nH]4)c(-c4c(F)c(F)c(F)c(F)c4F)c4nc(c(-c5c(F)c(F)c(F)c(F)c5F)c5ccc2[nH]5)C=C4)C=C3)cc1)c1ccc([N+](=O)[O-])cc1
REMARK SMILES IDX 13 1 12 2 10 3 11 4 9 5 8 6 6 7 7 8 5 10 2 11 1 12 3 13 4 14
REMARK SMILES IDX 81 15 82 16 89 17 83 18 88 19 84 20 85 21 86 22 87 23 14 24
REMARK SMILES IDX 15 25 16 26 17 27 18 28 19 29 80 30 20 31 79 32 21 33 22 34
REMARK SMILES IDX 23 35 73 36 24 37 78 38 72 39 74 40 25 41 77 42 71 43 70 44
REMARK SMILES IDX 26 46 58 47 38 48 57 49 39 50 42 51 56 52 75 53 40 54 41 55
REMARK SMILES IDX 55 57 76 58 43 59 27 60 28 61 36 62 29 63 30 64 34 65 37 66
REMARK SMILES IDX 31 67 32 68 35 69 33 70 59 71 60 72 68 73 61 74 62 75 66 76
REMARK SMILES IDX 69 77 63 78 64 79 67 80 65 81 44 82 45 83 53 84 46 85 47 86
REMARK SMILES IDX 51 87 54 88 48 89 49 90 52 91 50 92
REMARK H PARENT 8 9 74 45 42 56
REMARK Flexibility Score: inf
ROOT
ATOM      1  C   UNL A   1      36.641  22.628  23.761  1.00  0.00     0.274 C 
ENDROOT
BRANCH   1   2
ATOM      2  O   UNL A   1      35.422  22.836  24.501  1.00  0.00    -0.460 OA
BRANCH   2   3
ATOM      3  C   UNL A   1      34.258  22.889  23.792  1.00  0.00     0.333 C 
ATOM      4  O   UNL A   1      34.097  23.579  22.789  1.00  0.00    -0.249 OA
BRANCH   3   5
ATOM      5  C   UNL A   1      33.141  22.042  24.448  1.00  0.00     0.226 C 
BRANCH   5   6
ATOM      6  N   UNL A   1      32.983  22.346  25.864  1.00  0.00    -0.304 N 
ATOM      7  C   UNL A   1      31.972  23.068  26.419  1.00  0.00     0.408 C 
ATOM      8  O   UNL A   1      31.897  23.251  27.619  1.00  0.00    -0.225 OA
ATOM      9  H   UNL A   1      33.672  21.998  26.476  1.00  0.00     0.168 HD
BRANCH   7  10
ATOM     10  O   UNL A   1      31.115  23.534  25.481  1.00  0.00    -0.444 OA
BRANCH  10  11
ATOM     11  C   UNL A   1      31.071  24.936  25.125  1.00  0.00     0.106 C 
ATOM     12  C   UNL A   1      30.811  24.929  23.610  1.00  0.00     0.056 C 
ATOM     13  C   UNL A   1      32.407  25.637  25.388  1.00  0.00     0.056 C 
ATOM     14  C   UNL A   1      29.904  25.629  25.829  1.00  0.00     0.056 C 
ENDBRANCH  10  11
ENDBRANCH   7  10
ENDBRANCH   5   6
BRANCH   5  15
ATOM     15  C   UNL A   1      33.294  20.537  24.202  1.00  0.00    -0.014 A 
ATOM     16  C   UNL A   1      32.376  19.794  23.434  1.00  0.00     0.013 A 
ATOM     17  C   UNL A   1      34.381  19.853  24.782  1.00  0.00     0.013 A 
ATOM     18  C   UNL A   1      32.529  18.412  23.262  1.00  0.00     0.086 A 
ATOM     19  C   UNL A   1      34.537  18.472  24.626  1.00  0.00     0.086 A 
ATOM     20  C   UNL A   1      33.604  17.754  23.869  1.00  0.00     0.269 A 
BRANCH  20  21
ATOM     21  N   UNL A   1      33.715  16.291  23.772  1.00  0.00     0.062 N 
ATOM     22  O   UNL A   1      33.133  15.614  24.629  1.00  0.00    -0.258 OA
ATOM     23  O   UNL A   1      34.401  15.827  22.849  1.00  0.00    -0.258 OA
ENDBRANCH  20  21
ENDBRANCH   5  15
ENDBRANCH   3   5
ENDBRANCH   2   3
ENDBRANCH   1   2
BRANCH   1  24
ATOM     24  C   UNL A   1      37.400  21.417  24.307  1.00  0.00     0.275 C 
BRANCH  24  25
ATOM     25  O   UNL A   1      37.662  21.550  25.718  1.00  0.00    -0.458 OA
BRANCH  25  26
ATOM     26  C   UNL A   1      38.963  21.455  26.064  1.00  0.00     0.338 C 
ATOM     27  O   UNL A   1      39.771  20.609  25.713  1.00  0.00    -0.246 OA
BRANCH  26  28
ATOM     28  C   UNL A   1      39.374  22.637  26.833  1.00  0.00     0.060 A 
ATOM     29  C   UNL A   1      38.752  23.837  26.518  1.00  0.00     0.016 A 
ATOM     30  C   UNL A   1      40.505  22.626  27.648  1.00  0.00     0.016 A 
ATOM     31  C   UNL A   1      39.353  25.037  26.877  1.00  0.00     0.010 A 
ATOM     32  C   UNL A   1      41.051  23.845  28.086  1.00  0.00     0.010 A 
ATOM     33  C   UNL A   1      40.532  25.073  27.634  1.00  0.00    -0.014 A 
BRANCH  33  34
ATOM     34  C   UNL A   1      41.267  26.372  27.802  1.00  0.00     0.031 A 
ATOM     35  C   UNL A   1      40.705  27.458  28.697  1.00  0.00     0.074 A 
ATOM     36  C   UNL A   1      42.496  26.561  27.276  1.00  0.00     0.049 A 
ATOM     37  N   UNL A   1      41.108  28.696  28.864  1.00  0.00    -0.248 NA
ATOM     38  C   UNL A   1      39.524  27.112  29.503  1.00  0.00     0.031 C 
ATOM     39  C   UNL A   1      43.235  25.589  26.470  1.00  0.00     0.029 A 
ATOM     40  N   UNL A   1      43.370  27.618  27.391  1.00  0.00    -0.354 N 
ATOM     41  C   UNL A   1      40.185  29.291  29.717  1.00  0.00     0.074 A 
ATOM     42  C   UNL A   1      39.203  28.279  30.040  1.00  0.00     0.031 C 
ATOM     43  C   UNL A   1      44.482  26.039  26.269  1.00  0.00     0.029 A 
ATOM     44  C   UNL A   1      44.595  27.390  26.810  1.00  0.00     0.049 A 
ATOM     45  H   UNL A   1      43.140  28.460  27.847  1.00  0.00     0.167 HD
ATOM     46  C   UNL A   1      40.154  30.562  30.186  1.00  0.00     0.037 A 
ATOM     47  C   UNL A   1      45.678  28.183  26.689  1.00  0.00     0.037 A 
ATOM     48  C   UNL A   1      41.182  31.545  29.951  1.00  0.00     0.049 A 
ATOM     49  C   UNL A   1      45.613  29.600  27.195  1.00  0.00     0.074 A 
ATOM     50  C   UNL A   1      41.223  32.870  30.352  1.00  0.00     0.029 A 
ATOM     51  N   UNL A   1      42.375  31.295  29.288  1.00  0.00    -0.354 N 
ATOM     52  N   UNL A   1      44.663  30.202  27.865  1.00  0.00    -0.248 NA
ATOM     53  C   UNL A   1      46.765  30.462  26.884  1.00  0.00     0.031 C 
ATOM     54  C   UNL A   1      42.423  33.431  29.903  1.00  0.00     0.029 A 
ATOM     55  C   UNL A   1      43.154  32.442  29.266  1.00  0.00     0.049 A 
ATOM     56  H   UNL A   1      42.630  30.431  28.892  1.00  0.00     0.167 HD
ATOM     57  C   UNL A   1      45.105  31.502  28.069  1.00  0.00     0.074 A 
ATOM     58  C   UNL A   1      46.421  31.596  27.475  1.00  0.00     0.031 C 
ATOM     59  C   UNL A   1      44.468  32.528  28.685  1.00  0.00     0.037 A 
BRANCH  46  60
ATOM     60  C   UNL A   1      38.936  30.991  30.957  1.00  0.00     0.064 A 
ATOM     61  C   UNL A   1      37.804  31.537  30.337  1.00  0.00     0.173 A 
ATOM     62  C   UNL A   1      38.902  30.827  32.352  1.00  0.00     0.173 A 
ATOM     63  F   UNL A   1      37.788  31.731  29.010  1.00  0.00    -0.203 F 
ATOM     64  C   UNL A   1      36.698  31.936  31.087  1.00  0.00     0.198 A 
ATOM     65  C   UNL A   1      37.782  31.193  33.094  1.00  0.00     0.198 A 
ATOM     66  F   UNL A   1      39.953  30.301  32.998  1.00  0.00    -0.203 F 
ATOM     67  F   UNL A   1      35.651  32.512  30.480  1.00  0.00    -0.200 F 
ATOM     68  C   UNL A   1      36.686  31.757  32.463  1.00  0.00     0.200 A 
ATOM     69  F   UNL A   1      37.768  31.006  34.421  1.00  0.00    -0.200 F 
ATOM     70  F   UNL A   1      35.621  32.139  33.181  1.00  0.00    -0.200 F 
ENDBRANCH  46  60
BRANCH  47  71
ATOM     71  C   UNL A   1      46.908  27.680  26.017  1.00  0.00     0.064 A 
ATOM     72  C   UNL A   1      47.989  27.191  26.765  1.00  0.00     0.173 A 
ATOM     73  C   UNL A   1      47.044  27.701  24.620  1.00  0.00     0.173 A 
ATOM     74  F   UNL A   1      47.932  27.190  28.106  1.00  0.00    -0.203 F 
ATOM     75  C   UNL A   1      49.157  26.751  26.144  1.00  0.00     0.198 A 
ATOM     76  C   UNL A   1      48.195  27.225  23.999  1.00  0.00     0.198 A 
ATOM     77  F   UNL A   1      46.051  28.175  23.854  1.00  0.00    -0.203 F 
ATOM     78  F   UNL A   1      50.196  26.342  26.884  1.00  0.00    -0.200 F 
ATOM     79  C   UNL A   1      49.255  26.757  24.761  1.00  0.00     0.200 A 
ATOM     80  F   UNL A   1      48.279  27.222  22.661  1.00  0.00    -0.200 F 
ATOM     81  F   UNL A   1      50.374  26.328  24.163  1.00  0.00    -0.200 F 
ENDBRANCH  47  71
BRANCH  59  82
ATOM     82  C   UNL A   1      45.202  33.835  28.781  1.00  0.00     0.064 A 
ATOM     83  C   UNL A   1      46.052  34.126  29.858  1.00  0.00     0.173 A 
ATOM     84  C   UNL A   1      45.067  34.800  27.771  1.00  0.00     0.173 A 
ATOM     85  F   UNL A   1      46.205  33.244  30.856  1.00  0.00    -0.203 F 
ATOM     86  C   UNL A   1      46.714  35.350  29.938  1.00  0.00     0.198 A 
ATOM     87  C   UNL A   1      45.753  36.011  27.839  1.00  0.00     0.198 A 
ATOM     88  F   UNL A   1      44.273  34.569  26.715  1.00  0.00    -0.203 F 
ATOM     89  F   UNL A   1      47.478  35.629  31.003  1.00  0.00    -0.200 F 
ATOM     90  C   UNL A   1      46.568  36.288  28.926  1.00  0.00     0.200 A 
ATOM     91  F   UNL A   1      45.622  36.910  26.856  1.00  0.00    -0.200 F 
ATOM     92  F   UNL A   1      47.206  37.463  29.005  1.00  0.00    -0.200 F 
ENDBRANCH  59  82
ENDBRANCH  33  34
ENDBRANCH  26  28
ENDBRANCH  25  26
ENDBRANCH  24  25
ENDBRANCH   1  24
TORSDOF 16
ENDMDL
