MODEL 1
REMARK VINA RESULT:     -11.9      0.000      0.000
REMARK SMILES CC(C)CSc1cc2c(cc1Cl)C=C(C(=O)OCCOC(=O)c1ccc(-c3c4nc(c(-c5c(F)c(F)c(F)c(F)c5F)c5ccc([nH]5)c(-c5c(F)c(F)c(F)c(F)c5F)c5nc(c(-c6c(F)c(F)c(F)c(F)c6F)c6ccc3[nH]6)C=C5)C=C4)cc1)[C@@H](C(F)(F)F)O2
REMARK SMILES IDX 18 1 17 2 15 3 16 4 14 5 6 6 7 7 11 8 8 9 10 10 12 11 9 12
REMARK SMILES IDX 91 13 13 14 86 15 5 16 4 17 2 18 1 19 3 20 87 21 88 22 89 23
REMARK SMILES IDX 90 24 19 25 20 26 21 27 22 28 23 29 24 30 85 31 25 32 84 33
REMARK SMILES IDX 26 34 27 35 28 36 78 37 29 38 83 39 77 40 79 41 30 42 82 43
REMARK SMILES IDX 76 44 75 45 31 47 63 48 43 49 62 50 44 51 47 52 61 53 80 54
REMARK SMILES IDX 45 55 46 56 60 58 81 59 48 60 32 61 33 62 41 63 34 64 35 65
REMARK SMILES IDX 39 66 42 67 36 68 37 69 40 70 38 71 64 72 65 73 73 74 66 75
REMARK SMILES IDX 67 76 71 77 74 78 68 79 69 80 72 81 70 82 49 83 50 84 58 85
REMARK SMILES IDX 51 86 52 87 56 88 59 89 53 90 54 91 57 92 55 93
REMARK H PARENT 79 46 47 57
REMARK Flexibility Score: inf
ROOT
ATOM      1  C   UNL A   1      36.006  20.172  25.015  1.00  0.00     0.275 C 
ENDROOT
BRANCH   1   2
ATOM      2  O   UNL A   1      35.330  21.308  24.429  1.00  0.00    -0.459 OA
BRANCH   2   3
ATOM      3  C   UNL A   1      33.980  21.262  24.482  1.00  0.00     0.338 C 
ATOM      4  O   UNL A   1      33.273  20.287  24.277  1.00  0.00    -0.246 OA
BRANCH   3   5
ATOM      5  C   UNL A   1      33.425  22.575  24.860  1.00  0.00     0.087 C 
ATOM      6  C   UNL A   1      32.768  27.530  25.403  1.00  0.00     0.030 A 
ATOM      7  C   UNL A   1      32.378  26.400  26.145  1.00  0.00     0.063 A 
ATOM      8  C   UNL A   1      33.489  27.341  24.211  1.00  0.00     0.055 A 
ATOM      9  C   UNL A   1      32.673  25.111  25.697  1.00  0.00     0.129 A 
ATOM     10  C   UNL A   1      33.782  26.052  23.765  1.00  0.00     0.033 A 
ATOM     11  Cl  UNL A   1      34.027  28.652  23.217  1.00  0.00    -0.083 Cl
ATOM     12  C   UNL A   1      33.378  24.942  24.511  1.00  0.00     0.019 A 
ATOM     13  O   UNL A   1      32.224  24.070  26.461  1.00  0.00    -0.475 OA
ATOM     14  C   UNL A   1      33.737  23.612  24.076  1.00  0.00     0.027 C 
ATOM     15  C   UNL A   1      32.690  22.720  26.162  1.00  0.00     0.316 C 
BRANCH   6  16
ATOM     16  S   UNL A   1      32.357  29.165  26.000  1.00  0.00    -0.124 SA
BRANCH  16  17
ATOM     17  C   UNL A   1      33.421  29.311  27.479  1.00  0.00     0.078 C 
BRANCH  17  18
ATOM     18  C   UNL A   1      34.692  30.162  27.299  1.00  0.00    -0.007 C 
ATOM     19  C   UNL A   1      34.530  31.617  27.746  1.00  0.00     0.008 C 
ATOM     20  C   UNL A   1      35.828  29.523  28.108  1.00  0.00     0.008 C 
ENDBRANCH  17  18
ENDBRANCH  16  17
ENDBRANCH   6  16
BRANCH  15  21
ATOM     21  C   UNL A   1      33.530  22.217  27.346  1.00  0.00     0.430 C 
ATOM     22  F   UNL A   1      33.616  20.866  27.350  1.00  0.00    -0.167 F 
ATOM     23  F   UNL A   1      34.799  22.687  27.293  1.00  0.00    -0.167 F 
ATOM     24  F   UNL A   1      33.007  22.594  28.535  1.00  0.00    -0.167 F 
ENDBRANCH  15  21
ENDBRANCH   3   5
ENDBRANCH   2   3
ENDBRANCH   1   2
BRANCH   1  25
ATOM     25  C   UNL A   1      37.524  20.288  24.872  1.00  0.00     0.275 C 
BRANCH  25  26
ATOM     26  O   UNL A   1      38.025  21.356  25.698  1.00  0.00    -0.458 OA
BRANCH  26  27
ATOM     27  C   UNL A   1      39.262  21.168  26.210  1.00  0.00     0.338 C 
ATOM     28  O   UNL A   1      39.927  20.147  26.202  1.00  0.00    -0.246 OA
BRANCH  27  29
ATOM     29  C   UNL A   1      39.768  22.436  26.755  1.00  0.00     0.060 A 
ATOM     30  C   UNL A   1      40.816  22.456  27.669  1.00  0.00     0.016 A 
ATOM     31  C   UNL A   1      39.288  23.627  26.222  1.00  0.00     0.016 A 
ATOM     32  C   UNL A   1      41.372  23.685  28.045  1.00  0.00     0.010 A 
ATOM     33  C   UNL A   1      39.937  24.830  26.482  1.00  0.00     0.010 A 
ATOM     34  C   UNL A   1      40.971  24.885  27.423  1.00  0.00    -0.014 A 
BRANCH  34  35
ATOM     35  C   UNL A   1      41.613  26.192  27.747  1.00  0.00     0.031 A 
ATOM     36  C   UNL A   1      42.985  26.534  27.216  1.00  0.00     0.074 A 
ATOM     37  C   UNL A   1      40.989  27.060  28.570  1.00  0.00     0.049 A 
ATOM     38  N   UNL A   1      43.715  27.602  27.431  1.00  0.00    -0.248 NA
ATOM     39  C   UNL A   1      43.647  25.529  26.368  1.00  0.00     0.031 C 
ATOM     40  C   UNL A   1      39.706  26.824  29.234  1.00  0.00     0.029 A 
ATOM     41  N   UNL A   1      41.343  28.322  28.979  1.00  0.00    -0.354 N 
ATOM     42  C   UNL A   1      44.924  27.375  26.782  1.00  0.00     0.074 A 
ATOM     43  C   UNL A   1      44.857  26.045  26.219  1.00  0.00     0.031 C 
ATOM     44  C   UNL A   1      39.346  27.929  29.906  1.00  0.00     0.029 A 
ATOM     45  C   UNL A   1      40.390  28.938  29.756  1.00  0.00     0.049 A 
ATOM     46  H   UNL A   1      42.198  28.746  28.740  1.00  0.00     0.167 HD
ATOM     47  C   UNL A   1      45.980  28.209  26.632  1.00  0.00     0.037 A 
ATOM     48  C   UNL A   1      40.352  30.181  30.273  1.00  0.00     0.037 A 
ATOM     49  C   UNL A   1      46.022  29.560  27.125  1.00  0.00     0.049 A 
ATOM     50  C   UNL A   1      41.497  31.120  30.022  1.00  0.00     0.074 A 
ATOM     51  C   UNL A   1      47.014  30.510  26.960  1.00  0.00     0.029 A 
ATOM     52  N   UNL A   1      45.013  30.158  27.865  1.00  0.00    -0.354 N 
ATOM     53  N   UNL A   1      42.606  30.910  29.357  1.00  0.00    -0.248 NA
ATOM     54  C   UNL A   1      41.382  32.472  30.587  1.00  0.00     0.031 C 
ATOM     55  C   UNL A   1      46.615  31.679  27.616  1.00  0.00     0.029 A 
ATOM     56  C   UNL A   1      45.359  31.467  28.160  1.00  0.00     0.049 A 
ATOM     57  H   UNL A   1      44.177  29.718  28.142  1.00  0.00     0.167 HD
ATOM     58  C   UNL A   1      43.314  32.102  29.409  1.00  0.00     0.074 A 
ATOM     59  C   UNL A   1      42.499  33.040  30.153  1.00  0.00     0.031 C 
ATOM     60  C   UNL A   1      44.532  32.392  28.891  1.00  0.00     0.037 A 
BRANCH  47  61
ATOM     61  C   UNL A   1      47.167  27.703  25.862  1.00  0.00     0.064 A 
ATOM     62  C   UNL A   1      47.221  27.788  24.463  1.00  0.00     0.173 A 
ATOM     63  C   UNL A   1      48.283  27.176  26.530  1.00  0.00     0.173 A 
ATOM     64  F   UNL A   1      46.178  28.276  23.774  1.00  0.00    -0.203 F 
ATOM     65  C   UNL A   1      48.335  27.338  23.758  1.00  0.00     0.198 A 
ATOM     66  C   UNL A   1      49.408  26.755  25.824  1.00  0.00     0.198 A 
ATOM     67  F   UNL A   1      48.289  27.081  27.868  1.00  0.00    -0.203 F 
ATOM     68  F   UNL A   1      48.343  27.388  22.419  1.00  0.00    -0.200 F 
ATOM     69  C   UNL A   1      49.431  26.830  24.439  1.00  0.00     0.200 A 
ATOM     70  F   UNL A   1      50.473  26.279  26.485  1.00  0.00    -0.200 F 
ATOM     71  F   UNL A   1      50.506  26.409  23.760  1.00  0.00    -0.200 F 
ENDBRANCH  47  61
BRANCH  48  72
ATOM     72  C   UNL A   1      39.145  30.628  31.014  1.00  0.00     0.064 A 
ATOM     73  C   UNL A   1      39.032  30.396  32.393  1.00  0.00     0.173 A 
ATOM     74  C   UNL A   1      38.103  31.319  30.380  1.00  0.00     0.173 A 
ATOM     75  F   UNL A   1      39.996  29.723  33.039  1.00  0.00    -0.203 F 
ATOM     76  C   UNL A   1      37.919  30.832  33.108  1.00  0.00     0.198 A 
ATOM     77  C   UNL A   1      37.002  31.775  31.101  1.00  0.00     0.198 A 
ATOM     78  F   UNL A   1      38.169  31.572  29.065  1.00  0.00    -0.203 F 
ATOM     79  F   UNL A   1      37.824  30.573  34.419  1.00  0.00    -0.200 F 
ATOM     80  C   UNL A   1      36.908  31.528  32.462  1.00  0.00     0.200 A 
ATOM     81  F   UNL A   1      36.033  32.462  30.479  1.00  0.00    -0.200 F 
ATOM     82  F   UNL A   1      35.844  31.960  33.153  1.00  0.00    -0.200 F 
ENDBRANCH  48  72
BRANCH  60  83
ATOM     83  C   UNL A   1      45.054  33.783  29.087  1.00  0.00     0.064 A 
ATOM     84  C   UNL A   1      45.846  34.117  30.193  1.00  0.00     0.173 A 
ATOM     85  C   UNL A   1      44.809  34.774  28.125  1.00  0.00     0.173 A 
ATOM     86  F   UNL A   1      46.097  33.206  31.145  1.00  0.00    -0.203 F 
ATOM     87  C   UNL A   1      46.362  35.402  30.339  1.00  0.00     0.198 A 
ATOM     88  C   UNL A   1      45.347  36.050  28.262  1.00  0.00     0.198 A 
ATOM     89  F   UNL A   1      44.064  34.498  27.045  1.00  0.00    -0.203 F 
ATOM     90  F   UNL A   1      47.089  35.711  31.422  1.00  0.00    -0.200 F 
ATOM     91  C   UNL A   1      46.119  36.364  29.369  1.00  0.00     0.200 A 
ATOM     92  F   UNL A   1      45.121  36.976  27.319  1.00  0.00    -0.200 F 
ATOM     93  F   UNL A   1      46.625  37.598  29.507  1.00  0.00    -0.200 F 
ENDBRANCH  60  83
ENDBRANCH  34  35
ENDBRANCH  27  29
ENDBRANCH  26  27
ENDBRANCH  25  26
ENDBRANCH   1  25
TORSDOF 15
ENDMDL
MODEL 2
REMARK VINA RESULT:     -11.8      0.294      1.653
REMARK SMILES CC(C)CSc1cc2c(cc1Cl)C=C(C(=O)OCCOC(=O)c1ccc(-c3c4nc(c(-c5c(F)c(F)c(F)c(F)c5F)c5ccc([nH]5)c(-c5c(F)c(F)c(F)c(F)c5F)c5nc(c(-c6c(F)c(F)c(F)c(F)c6F)c6ccc3[nH]6)C=C5)C=C4)cc1)[C@@H](C(F)(F)F)O2
REMARK SMILES IDX 18 1 17 2 15 3 16 4 14 5 6 6 7 7 11 8 8 9 10 10 12 11 9 12
REMARK SMILES IDX 91 13 13 14 86 15 5 16 4 17 2 18 1 19 3 20 87 21 88 22 89 23
REMARK SMILES IDX 90 24 19 25 20 26 21 27 22 28 23 29 24 30 85 31 25 32 84 33
REMARK SMILES IDX 26 34 27 35 28 36 78 37 29 38 83 39 77 40 79 41 30 42 82 43
REMARK SMILES IDX 76 44 75 45 31 47 63 48 43 49 62 50 44 51 47 52 61 53 80 54
REMARK SMILES IDX 45 55 46 56 60 58 81 59 48 60 32 61 33 62 41 63 34 64 35 65
REMARK SMILES IDX 39 66 42 67 36 68 37 69 40 70 38 71 64 72 65 73 73 74 66 75
REMARK SMILES IDX 67 76 71 77 74 78 68 79 69 80 72 81 70 82 49 83 50 84 58 85
REMARK SMILES IDX 51 86 52 87 56 88 59 89 53 90 54 91 57 92 55 93
REMARK H PARENT 79 46 47 57
REMARK Flexibility Score: inf
ROOT
ATOM      1  C   UNL A   1      36.263  19.983  24.999  1.00  0.00     0.275 C 
ENDROOT
BRANCH   1   2
ATOM      2  O   UNL A   1      35.573  21.232  24.770  1.00  0.00    -0.459 OA
BRANCH   2   3
ATOM      3  C   UNL A   1      34.230  21.135  24.653  1.00  0.00     0.338 C 
ATOM      4  O   UNL A   1      33.590  20.125  24.400  1.00  0.00    -0.246 OA
BRANCH   3   5
ATOM      5  C   UNL A   1      33.585  22.437  24.901  1.00  0.00     0.087 C 
ATOM      6  C   UNL A   1      32.637  27.372  25.045  1.00  0.00     0.030 A 
ATOM      7  C   UNL A   1      32.261  26.276  25.843  1.00  0.00     0.063 A 
ATOM      8  C   UNL A   1      33.439  27.142  23.913  1.00  0.00     0.055 A 
ATOM      9  C   UNL A   1      32.651  24.978  25.508  1.00  0.00     0.129 A 
ATOM     10  C   UNL A   1      33.826  25.844  23.580  1.00  0.00     0.033 A 
ATOM     11  Cl  UNL A   1      33.968  28.410  22.860  1.00  0.00    -0.083 Cl
ATOM     12  C   UNL A   1      33.435  24.768  24.380  1.00  0.00     0.019 A 
ATOM     13  O   UNL A   1      32.210  23.969  26.318  1.00  0.00    -0.475 OA
ATOM     14  C   UNL A   1      33.890  23.433  24.064  1.00  0.00     0.027 C 
ATOM     15  C   UNL A   1      32.764  22.630  26.145  1.00  0.00     0.316 C 
BRANCH   6  16
ATOM     16  S   UNL A   1      32.105  29.019  25.497  1.00  0.00    -0.124 SA
BRANCH  16  17
ATOM     17  C   UNL A   1      32.916  29.252  27.119  1.00  0.00     0.078 C 
BRANCH  17  18
ATOM     18  C   UNL A   1      34.168  30.149  27.110  1.00  0.00    -0.007 C 
ATOM     19  C   UNL A   1      33.963  31.501  27.798  1.00  0.00     0.008 C 
ATOM     20  C   UNL A   1      35.308  29.407  27.816  1.00  0.00     0.008 C 
ENDBRANCH  17  18
ENDBRANCH  16  17
ENDBRANCH   6  16
BRANCH  15  21
ATOM     21  C   UNL A   1      33.554  22.258  27.409  1.00  0.00     0.430 C 
ATOM     22  F   UNL A   1      34.741  22.909  27.457  1.00  0.00    -0.167 F 
ATOM     23  F   UNL A   1      32.882  22.596  28.535  1.00  0.00    -0.167 F 
ATOM     24  F   UNL A   1      33.814  20.933  27.473  1.00  0.00    -0.167 F 
ENDBRANCH  15  21
ENDBRANCH   3   5
ENDBRANCH   2   3
ENDBRANCH   1   2
BRANCH   1  25
ATOM     25  C   UNL A   1      37.775  20.137  24.833  1.00  0.00     0.275 C 
BRANCH  25  26
ATOM     26  O   UNL A   1      38.250  21.260  25.600  1.00  0.00    -0.458 OA
BRANCH  26  27
ATOM     27  C   UNL A   1      39.414  21.067  26.259  1.00  0.00     0.338 C 
ATOM     28  O   UNL A   1      40.048  20.031  26.370  1.00  0.00    -0.246 OA
BRANCH  27  29
ATOM     29  C   UNL A   1      39.889  22.346  26.808  1.00  0.00     0.060 A 
ATOM     30  C   UNL A   1      40.964  22.393  27.688  1.00  0.00     0.016 A 
ATOM     31  C   UNL A   1      39.347  23.525  26.308  1.00  0.00     0.016 A 
ATOM     32  C   UNL A   1      41.485  23.638  28.065  1.00  0.00     0.010 A 
ATOM     33  C   UNL A   1      39.957  24.748  26.566  1.00  0.00     0.010 A 
ATOM     34  C   UNL A   1      41.018  24.830  27.474  1.00  0.00    -0.014 A 
BRANCH  34  35
ATOM     35  C   UNL A   1      41.620  26.156  27.798  1.00  0.00     0.031 A 
ATOM     36  C   UNL A   1      42.996  26.526  27.296  1.00  0.00     0.074 A 
ATOM     37  C   UNL A   1      40.955  27.018  28.595  1.00  0.00     0.049 A 
ATOM     38  N   UNL A   1      43.695  27.613  27.516  1.00  0.00    -0.248 NA
ATOM     39  C   UNL A   1      43.703  25.527  26.477  1.00  0.00     0.031 C 
ATOM     40  C   UNL A   1      39.662  26.757  29.231  1.00  0.00     0.029 A 
ATOM     41  N   UNL A   1      41.268  28.293  28.997  1.00  0.00    -0.354 N 
ATOM     42  C   UNL A   1      44.924  27.409  26.899  1.00  0.00     0.074 A 
ATOM     43  C   UNL A   1      44.903  26.072  26.351  1.00  0.00     0.031 C 
ATOM     44  C   UNL A   1      39.259  27.861  29.880  1.00  0.00     0.029 A 
ATOM     45  C   UNL A   1      40.282  28.893  29.743  1.00  0.00     0.049 A 
ATOM     46  H   UNL A   1      42.119  28.735  28.774  1.00  0.00     0.167 HD
ATOM     47  C   UNL A   1      45.962  28.268  26.764  1.00  0.00     0.037 A 
ATOM     48  C   UNL A   1      40.200  30.141  30.244  1.00  0.00     0.037 A 
ATOM     49  C   UNL A   1      45.959  29.625  27.242  1.00  0.00     0.049 A 
ATOM     50  C   UNL A   1      41.328  31.105  30.009  1.00  0.00     0.074 A 
ATOM     51  C   UNL A   1      46.932  30.597  27.089  1.00  0.00     0.029 A 
ATOM     52  N   UNL A   1      44.919  30.206  27.951  1.00  0.00    -0.354 N 
ATOM     53  N   UNL A   1      42.458  30.915  29.374  1.00  0.00    -0.248 NA
ATOM     54  C   UNL A   1      41.166  32.461  30.556  1.00  0.00     0.031 C 
ATOM     55  C   UNL A   1      46.489  31.762  27.721  1.00  0.00     0.029 A 
ATOM     56  C   UNL A   1      45.225  31.526  28.237  1.00  0.00     0.049 A 
ATOM     57  H   UNL A   1      44.087  29.749  28.212  1.00  0.00     0.167 HD
ATOM     58  C   UNL A   1      43.135  32.125  29.429  1.00  0.00     0.074 A 
ATOM     59  C   UNL A   1      42.280  33.051  30.141  1.00  0.00     0.031 C 
ATOM     60  C   UNL A   1      44.358  32.438  28.937  1.00  0.00     0.037 A 
BRANCH  47  61
ATOM     61  C   UNL A   1      47.180  27.782  26.030  1.00  0.00     0.064 A 
ATOM     62  C   UNL A   1      48.296  27.280  26.716  1.00  0.00     0.173 A 
ATOM     63  C   UNL A   1      47.214  27.769  24.627  1.00  0.00     0.173 A 
ATOM     64  F   UNL A   1      48.320  27.278  28.058  1.00  0.00    -0.203 F 
ATOM     65  C   UNL A   1      49.412  26.810  26.027  1.00  0.00     0.198 A 
ATOM     66  C   UNL A   1      48.318  27.269  23.941  1.00  0.00     0.198 A 
ATOM     67  F   UNL A   1      46.169  28.227  23.920  1.00  0.00    -0.203 F 
ATOM     68  F   UNL A   1      50.483  26.379  26.707  1.00  0.00    -0.200 F 
ATOM     69  C   UNL A   1      49.419  26.797  24.641  1.00  0.00     0.200 A 
ATOM     70  F   UNL A   1      48.318  27.242  22.600  1.00  0.00    -0.200 F 
ATOM     71  F   UNL A   1      50.488  26.333  23.980  1.00  0.00    -0.200 F 
ENDBRANCH  47  61
BRANCH  48  72
ATOM     72  C   UNL A   1      38.965  30.567  30.950  1.00  0.00     0.064 A 
ATOM     73  C   UNL A   1      38.877  30.471  32.347  1.00  0.00     0.173 A 
ATOM     74  C   UNL A   1      37.869  31.104  30.262  1.00  0.00     0.173 A 
ATOM     75  F   UNL A   1      39.894  29.947  33.047  1.00  0.00    -0.203 F 
ATOM     76  C   UNL A   1      37.736  30.891  33.027  1.00  0.00     0.198 A 
ATOM     77  C   UNL A   1      36.738  31.545  30.945  1.00  0.00     0.198 A 
ATOM     78  F   UNL A   1      37.909  31.223  28.927  1.00  0.00    -0.203 F 
ATOM     79  F   UNL A   1      37.668  30.763  34.359  1.00  0.00    -0.200 F 
ATOM     80  C   UNL A   1      36.671  31.434  32.326  1.00  0.00     0.200 A 
ATOM     81  F   UNL A   1      35.715  32.085  30.268  1.00  0.00    -0.200 F 
ATOM     82  F   UNL A   1      35.578  31.851  32.982  1.00  0.00    -0.200 F 
ENDBRANCH  48  72
BRANCH  60  83
ATOM     83  C   UNL A   1      44.841  33.844  29.129  1.00  0.00     0.064 A 
ATOM     84  C   UNL A   1      44.533  34.854  28.209  1.00  0.00     0.173 A 
ATOM     85  C   UNL A   1      45.567  34.194  30.277  1.00  0.00     0.173 A 
ATOM     86  F   UNL A   1      43.851  34.565  27.090  1.00  0.00    -0.203 F 
ATOM     87  C   UNL A   1      44.949  36.166  28.423  1.00  0.00     0.198 A 
ATOM     88  C   UNL A   1      45.961  35.510  30.499  1.00  0.00     0.198 A 
ATOM     89  F   UNL A   1      45.879  33.263  31.190  1.00  0.00    -0.203 F 
ATOM     90  F   UNL A   1      44.673  37.111  27.513  1.00  0.00    -0.200 F 
ATOM     91  C   UNL A   1      45.655  36.494  29.571  1.00  0.00     0.200 A 
ATOM     92  F   UNL A   1      46.633  35.828  31.615  1.00  0.00    -0.200 F 
ATOM     93  F   UNL A   1      46.047  37.758  29.779  1.00  0.00    -0.200 F 
ENDBRANCH  60  83
ENDBRANCH  34  35
ENDBRANCH  27  29
ENDBRANCH  26  27
ENDBRANCH  25  26
ENDBRANCH   1  25
TORSDOF 15
ENDMDL
MODEL 3
REMARK VINA RESULT:     -11.6      1.730      2.531
REMARK SMILES CC(C)CSc1cc2c(cc1Cl)C=C(C(=O)OCCOC(=O)c1ccc(-c3c4nc(c(-c5c(F)c(F)c(F)c(F)c5F)c5ccc([nH]5)c(-c5c(F)c(F)c(F)c(F)c5F)c5nc(c(-c6c(F)c(F)c(F)c(F)c6F)c6ccc3[nH]6)C=C5)C=C4)cc1)[C@@H](C(F)(F)F)O2
REMARK SMILES IDX 18 1 17 2 15 3 16 4 14 5 6 6 7 7 11 8 8 9 10 10 12 11 9 12
REMARK SMILES IDX 91 13 13 14 86 15 5 16 4 17 2 18 1 19 3 20 87 21 88 22 89 23
REMARK SMILES IDX 90 24 19 25 20 26 21 27 22 28 23 29 24 30 85 31 25 32 84 33
REMARK SMILES IDX 26 34 27 35 28 36 78 37 29 38 83 39 77 40 79 41 30 42 82 43
REMARK SMILES IDX 76 44 75 45 31 47 63 48 43 49 62 50 44 51 47 52 61 53 80 54
REMARK SMILES IDX 45 55 46 56 60 58 81 59 48 60 32 61 33 62 41 63 34 64 35 65
REMARK SMILES IDX 39 66 42 67 36 68 37 69 40 70 38 71 64 72 65 73 73 74 66 75
REMARK SMILES IDX 67 76 71 77 74 78 68 79 69 80 72 81 70 82 49 83 50 84 58 85
REMARK SMILES IDX 51 86 52 87 56 88 59 89 53 90 54 91 57 92 55 93
REMARK H PARENT 79 46 47 57
REMARK Flexibility Score: inf
ROOT
ATOM      1  C   UNL A   1      35.257  20.653  24.937  1.00  0.00     0.275 C 
ENDROOT
BRANCH   1   2
ATOM      2  O   UNL A   1      34.963  22.028  24.603  1.00  0.00    -0.459 OA
BRANCH   2   3
ATOM      3  C   UNL A   1      34.337  22.734  25.570  1.00  0.00     0.338 C 
ATOM      4  O   UNL A   1      34.287  22.458  26.760  1.00  0.00    -0.246 OA
BRANCH   3   5
ATOM      5  C   UNL A   1      33.713  23.949  25.014  1.00  0.00     0.087 C 
ATOM      6  C   UNL A   1      31.472  28.429  24.594  1.00  0.00     0.030 A 
ATOM      7  C   UNL A   1      31.509  27.271  23.796  1.00  0.00     0.063 A 
ATOM      8  C   UNL A   1      32.214  28.453  25.789  1.00  0.00     0.055 A 
ATOM      9  C   UNL A   1      32.288  26.172  24.164  1.00  0.00     0.129 A 
ATOM     10  C   UNL A   1      32.991  27.354  26.153  1.00  0.00     0.033 A 
ATOM     11  Cl  UNL A   1      32.243  29.818  26.853  1.00  0.00    -0.083 Cl
ATOM     12  C   UNL A   1      33.022  26.216  25.343  1.00  0.00     0.019 A 
ATOM     13  O   UNL A   1      32.294  25.103  23.312  1.00  0.00    -0.475 OA
ATOM     14  C   UNL A   1      33.782  25.058  25.756  1.00  0.00     0.027 C 
ATOM     15  C   UNL A   1      32.908  23.853  23.750  1.00  0.00     0.316 C 
BRANCH   6  16
ATOM     16  S   UNL A   1      30.476  29.824  24.082  1.00  0.00    -0.124 SA
BRANCH  16  17
ATOM     17  C   UNL A   1      29.551  29.134  22.664  1.00  0.00     0.078 C 
BRANCH  17  18
ATOM     18  C   UNL A   1      28.081  29.580  22.552  1.00  0.00    -0.007 C 
ATOM     19  C   UNL A   1      27.085  28.576  23.138  1.00  0.00     0.008 C 
ATOM     20  C   UNL A   1      27.918  30.918  23.284  1.00  0.00     0.008 C 
ENDBRANCH  17  18
ENDBRANCH  16  17
ENDBRANCH   6  16
BRANCH  15  21
ATOM     21  C   UNL A   1      31.813  22.780  23.854  1.00  0.00     0.430 C 
ATOM     22  F   UNL A   1      32.255  21.580  23.407  1.00  0.00    -0.167 F 
ATOM     23  F   UNL A   1      31.418  22.594  25.136  1.00  0.00    -0.167 F 
ATOM     24  F   UNL A   1      30.716  23.103  23.134  1.00  0.00    -0.167 F 
ENDBRANCH  15  21
ENDBRANCH   3   5
ENDBRANCH   2   3
ENDBRANCH   1   2
BRANCH   1  25
ATOM     25  C   UNL A   1      36.764  20.400  24.999  1.00  0.00     0.275 C 
BRANCH  25  26
ATOM     26  O   UNL A   1      37.421  21.460  25.720  1.00  0.00    -0.458 OA
BRANCH  26  27
ATOM     27  C   UNL A   1      38.730  21.260  25.990  1.00  0.00     0.338 C 
ATOM     28  O   UNL A   1      39.397  20.267  25.757  1.00  0.00    -0.246 OA
BRANCH  27  29
ATOM     29  C   UNL A   1      39.305  22.479  26.576  1.00  0.00     0.060 A 
ATOM     30  C   UNL A   1      40.485  22.434  27.309  1.00  0.00     0.016 A 
ATOM     31  C   UNL A   1      38.734  23.705  26.252  1.00  0.00     0.016 A 
ATOM     32  C   UNL A   1      41.083  23.633  27.717  1.00  0.00     0.010 A 
ATOM     33  C   UNL A   1      39.405  24.892  26.529  1.00  0.00     0.010 A 
ATOM     34  C   UNL A   1      40.576  24.879  27.295  1.00  0.00    -0.014 A 
BRANCH  34  35
ATOM     35  C   UNL A   1      41.249  26.163  27.646  1.00  0.00     0.031 A 
ATOM     36  C   UNL A   1      42.652  26.457  27.171  1.00  0.00     0.074 A 
ATOM     37  C   UNL A   1      40.622  27.052  28.444  1.00  0.00     0.049 A 
ATOM     38  N   UNL A   1      43.410  27.499  27.418  1.00  0.00    -0.248 NA
ATOM     39  C   UNL A   1      43.314  25.430  26.350  1.00  0.00     0.031 C 
ATOM     40  C   UNL A   1      39.306  26.861  29.055  1.00  0.00     0.029 A 
ATOM     41  N   UNL A   1      41.003  28.301  28.869  1.00  0.00    -0.354 N 
ATOM     42  C   UNL A   1      44.635  27.230  26.818  1.00  0.00     0.074 A 
ATOM     43  C   UNL A   1      44.545  25.904  26.251  1.00  0.00     0.031 C 
ATOM     44  C   UNL A   1      38.958  27.978  29.713  1.00  0.00     0.029 A 
ATOM     45  C   UNL A   1      40.042  28.949  29.607  1.00  0.00     0.049 A 
ATOM     46  H   UNL A   1      41.882  28.695  28.665  1.00  0.00     0.167 HD
ATOM     47  C   UNL A   1      45.725  28.027  26.712  1.00  0.00     0.037 A 
ATOM     48  C   UNL A   1      40.025  30.193  30.124  1.00  0.00     0.037 A 
ATOM     49  C   UNL A   1      45.794  29.376  27.209  1.00  0.00     0.049 A 
ATOM     50  C   UNL A   1      41.211  31.092  29.921  1.00  0.00     0.074 A 
ATOM     51  C   UNL A   1      46.824  30.291  27.085  1.00  0.00     0.029 A 
ATOM     52  N   UNL A   1      44.777  30.008  27.908  1.00  0.00    -0.354 N 
ATOM     53  N   UNL A   1      42.339  30.844  29.301  1.00  0.00    -0.248 NA
ATOM     54  C   UNL A   1      41.121  32.447  30.483  1.00  0.00     0.031 C 
ATOM     55  C   UNL A   1      46.440  31.472  27.726  1.00  0.00     0.029 A 
ATOM     56  C   UNL A   1      45.156  31.305  28.218  1.00  0.00     0.049 A 
ATOM     57  H   UNL A   1      43.916  29.598  28.150  1.00  0.00     0.167 HD
ATOM     58  C   UNL A   1      43.085  32.011  29.384  1.00  0.00     0.074 A 
ATOM     59  C   UNL A   1      42.274  32.977  30.095  1.00  0.00     0.031 C 
ATOM     60  C   UNL A   1      44.333  32.257  28.917  1.00  0.00     0.037 A 
BRANCH  47  61
ATOM     61  C   UNL A   1      46.924  27.480  25.991  1.00  0.00     0.064 A 
ATOM     62  C   UNL A   1      47.061  27.605  24.600  1.00  0.00     0.173 A 
ATOM     63  C   UNL A   1      47.971  26.871  26.700  1.00  0.00     0.173 A 
ATOM     64  F   UNL A   1      46.085  28.171  23.874  1.00  0.00    -0.203 F 
ATOM     65  C   UNL A   1      48.186  27.116  23.942  1.00  0.00     0.198 A 
ATOM     66  C   UNL A   1      49.110  26.411  26.042  1.00  0.00     0.198 A 
ATOM     67  F   UNL A   1      47.898  26.735  28.032  1.00  0.00    -0.203 F 
ATOM     68  F   UNL A   1      48.272  27.207  22.607  1.00  0.00    -0.200 F 
ATOM     69  C   UNL A   1      49.214  26.527  24.663  1.00  0.00     0.200 A 
ATOM     70  F   UNL A   1      50.109  25.856  26.742  1.00  0.00    -0.200 F 
ATOM     71  F   UNL A   1      50.301  26.069  24.029  1.00  0.00    -0.200 F 
ENDBRANCH  47  61
BRANCH  48  72
ATOM     72  C   UNL A   1      38.805  30.682  30.815  1.00  0.00     0.064 A 
ATOM     73  C   UNL A   1      37.724  31.186  30.077  1.00  0.00     0.173 A 
ATOM     74  C   UNL A   1      38.676  30.629  32.210  1.00  0.00     0.173 A 
ATOM     75  F   UNL A   1      37.810  31.273  28.741  1.00  0.00    -0.203 F 
ATOM     76  C   UNL A   1      36.562  31.624  30.709  1.00  0.00     0.198 A 
ATOM     77  C   UNL A   1      37.504  31.045  32.839  1.00  0.00     0.198 A 
ATOM     78  F   UNL A   1      39.679  30.148  32.959  1.00  0.00    -0.203 F 
ATOM     79  F   UNL A   1      35.556  32.126  29.980  1.00  0.00    -0.200 F 
ATOM     80  C   UNL A   1      36.451  31.546  32.088  1.00  0.00     0.200 A 
ATOM     81  F   UNL A   1      37.391  30.954  34.171  1.00  0.00    -0.200 F 
ATOM     82  F   UNL A   1      35.327  31.955  32.695  1.00  0.00    -0.200 F 
ENDBRANCH  48  72
BRANCH  60  83
ATOM     83  C   UNL A   1      44.894  33.630  29.135  1.00  0.00     0.064 A 
ATOM     84  C   UNL A   1      45.673  33.930  30.260  1.00  0.00     0.173 A 
ATOM     85  C   UNL A   1      44.700  34.636  28.177  1.00  0.00     0.173 A 
ATOM     86  F   UNL A   1      45.876  33.003  31.209  1.00  0.00    -0.203 F 
ATOM     87  C   UNL A   1      46.226  35.197  30.427  1.00  0.00     0.198 A 
ATOM     88  C   UNL A   1      45.275  35.893  28.336  1.00  0.00     0.198 A 
ATOM     89  F   UNL A   1      43.968  34.393  27.080  1.00  0.00    -0.203 F 
ATOM     90  F   UNL A   1      46.940  35.473  31.527  1.00  0.00    -0.200 F 
ATOM     91  C   UNL A   1      46.034  36.174  29.462  1.00  0.00     0.200 A 
ATOM     92  F   UNL A   1      45.097  36.834  27.397  1.00  0.00    -0.200 F 
ATOM     93  F   UNL A   1      46.576  37.389  29.621  1.00  0.00    -0.200 F 
ENDBRANCH  60  83
ENDBRANCH  34  35
ENDBRANCH  27  29
ENDBRANCH  26  27
ENDBRANCH  25  26
ENDBRANCH   1  25
TORSDOF 15
ENDMDL
