MODEL 1
REMARK VINA RESULT:     -11.5      0.000      0.000
REMARK SMILES C[NH2+][C@]1(C(=O)OCCOC(=O)c2ccc(-c3c4nc(c(-c5c(F)c(F)c(F)c(F)c5F)c5ccc([nH]5)c(-c5c(F)c(F)c(F)c(F)c5F)c5nc(c(-c6c(F)c(F)c(F)c(F)c6F)c6ccc3[nH]6)C=C5)C=C4)cc2)CCC[C@@H]1CCSc1cccc(Cl)c1
REMARK SMILES IDX 7 1 6 2 4 3 5 4 3 5 75 6 78 7 76 8 77 9 2 10 1 11 79 14
REMARK SMILES IDX 80 15 81 16 82 17 83 18 88 19 84 20 86 21 85 22 87 23 8 24
REMARK SMILES IDX 9 25 10 26 11 27 12 28 13 29 74 30 14 31 73 32 15 33 16 34
REMARK SMILES IDX 17 35 67 36 18 37 72 38 66 39 68 40 19 41 71 42 65 43 64 44
REMARK SMILES IDX 20 46 52 47 32 48 51 49 33 50 36 51 50 52 69 53 34 54 35 55
REMARK SMILES IDX 49 57 70 58 37 59 21 60 22 61 30 62 23 63 24 64 28 65 31 66
REMARK SMILES IDX 25 67 26 68 29 69 27 70 53 71 54 72 62 73 55 74 56 75 60 76
REMARK SMILES IDX 63 77 57 78 58 79 61 80 59 81 38 82 39 83 47 84 40 85 41 86
REMARK SMILES IDX 45 87 48 88 42 89 43 90 46 91 44 92
REMARK H PARENT 2 12 2 13 68 45 36 56
REMARK Flexibility Score: inf
ROOT
ATOM      1  C   UNL A   1      31.445  28.965  25.322  1.00  0.00     0.274 C 
ENDROOT
BRANCH   1   2
ATOM      2  O   UNL A   1      32.576  28.286  24.743  1.00  0.00    -0.457 OA
BRANCH   2   3
ATOM      3  C   UNL A   1      32.891  27.097  25.332  1.00  0.00     0.368 C 
ATOM      4  O   UNL A   1      33.280  27.001  26.492  1.00  0.00    -0.245 OA
BRANCH   3   5
ATOM      5  C   UNL A   1      32.575  25.877  24.410  1.00  0.00     0.197 C 
ATOM      6  C   UNL A   1      32.236  26.328  22.970  1.00  0.00     0.081 C 
ATOM      7  C   UNL A   1      33.923  25.151  24.134  1.00  0.00     0.063 C 
ATOM      8  C   UNL A   1      32.730  25.215  22.034  1.00  0.00     0.008 C 
ATOM      9  C   UNL A   1      33.688  24.350  22.853  1.00  0.00     0.011 C 
BRANCH   5  10
ATOM     10  N   UNL A   1      31.546  25.054  25.094  1.00  0.00    -0.334 N 
ATOM     11  C   UNL A   1      30.180  25.548  25.152  1.00  0.00     0.331 C 
ATOM     12  H   UNL A   1      31.519  24.152  24.619  1.00  0.00     0.347 HD
ATOM     13  H   UNL A   1      31.846  25.043  26.069  1.00  0.00     0.347 HD
ENDBRANCH   5  10
BRANCH   7  14
ATOM     14  C   UNL A   1      34.569  24.329  25.261  1.00  0.00     0.022 C 
BRANCH  14  15
ATOM     15  C   UNL A   1      35.380  23.125  24.745  1.00  0.00     0.075 C 
BRANCH  15  16
ATOM     16  S   UNL A   1      35.309  21.614  25.802  1.00  0.00    -0.126 SA
BRANCH  16  17
ATOM     17  C   UNL A   1      34.217  20.532  24.894  1.00  0.00     0.009 A 
ATOM     18  C   UNL A   1      33.053  21.000  24.274  1.00  0.00     0.015 A 
ATOM     19  C   UNL A   1      34.553  19.177  24.781  1.00  0.00     0.035 A 
ATOM     20  C   UNL A   1      32.271  20.143  23.495  1.00  0.00     0.003 A 
ATOM     21  C   UNL A   1      33.766  18.324  24.007  1.00  0.00     0.042 A 
ATOM     22  C   UNL A   1      32.633  18.804  23.354  1.00  0.00     0.020 A 
ATOM     23  Cl  UNL A   1      34.209  16.669  23.833  1.00  0.00    -0.084 Cl
ENDBRANCH  16  17
ENDBRANCH  15  16
ENDBRANCH  14  15
ENDBRANCH   7  14
ENDBRANCH   3   5
ENDBRANCH   2   3
ENDBRANCH   1   2
BRANCH   1  24
ATOM     24  C   UNL A   1      31.783  30.398  25.734  1.00  0.00     0.275 C 
BRANCH  24  25
ATOM     25  O   UNL A   1      32.396  30.466  27.035  1.00  0.00    -0.458 OA
BRANCH  25  26
ATOM     26  C   UNL A   1      33.130  31.577  27.258  1.00  0.00     0.338 C 
ATOM     27  O   UNL A   1      32.750  32.740  27.213  1.00  0.00    -0.246 OA
BRANCH  26  28
ATOM     28  C   UNL A   1      34.503  31.240  27.650  1.00  0.00     0.060 A 
ATOM     29  C   UNL A   1      34.812  29.909  27.920  1.00  0.00     0.016 A 
ATOM     30  C   UNL A   1      35.403  32.255  27.980  1.00  0.00     0.016 A 
ATOM     31  C   UNL A   1      35.973  29.594  28.619  1.00  0.00     0.010 A 
ATOM     32  C   UNL A   1      36.612  31.926  28.605  1.00  0.00     0.010 A 
ATOM     33  C   UNL A   1      36.888  30.596  28.971  1.00  0.00    -0.014 A 
BRANCH  33  34
ATOM     34  C   UNL A   1      38.100  30.257  29.763  1.00  0.00     0.031 A 
ATOM     35  C   UNL A   1      39.188  29.406  29.164  1.00  0.00     0.074 A 
ATOM     36  C   UNL A   1      38.251  30.738  31.011  1.00  0.00     0.049 A 
ATOM     37  N   UNL A   1      40.231  28.865  29.745  1.00  0.00    -0.248 NA
ATOM     38  C   UNL A   1      39.088  29.118  27.725  1.00  0.00     0.031 C 
ATOM     39  C   UNL A   1      37.306  31.620  31.698  1.00  0.00     0.029 A 
ATOM     40  N   UNL A   1      39.265  30.565  31.920  1.00  0.00    -0.354 N 
ATOM     41  C   UNL A   1      40.872  28.125  28.760  1.00  0.00     0.074 A 
ATOM     42  C   UNL A   1      40.115  28.300  27.538  1.00  0.00     0.031 C 
ATOM     43  C   UNL A   1      37.804  31.945  32.901  1.00  0.00     0.029 A 
ATOM     44  C   UNL A   1      39.064  31.234  33.101  1.00  0.00     0.049 A 
ATOM     45  H   UNL A   1      40.060  30.013  31.743  1.00  0.00     0.167 HD
ATOM     46  C   UNL A   1      41.987  27.362  28.871  1.00  0.00     0.037 A 
ATOM     47  C   UNL A   1      39.791  31.250  34.233  1.00  0.00     0.037 A 
ATOM     48  C   UNL A   1      42.776  27.237  30.068  1.00  0.00     0.049 A 
ATOM     49  C   UNL A   1      41.027  30.405  34.329  1.00  0.00     0.074 A 
ATOM     50  C   UNL A   1      43.912  26.475  30.281  1.00  0.00     0.029 A 
ATOM     51  N   UNL A   1      42.524  27.917  31.249  1.00  0.00    -0.354 N 
ATOM     52  N   UNL A   1      41.567  29.627  33.425  1.00  0.00    -0.248 NA
ATOM     53  C   UNL A   1      41.738  30.417  35.615  1.00  0.00     0.031 C 
ATOM     54  C   UNL A   1      44.342  26.687  31.597  1.00  0.00     0.029 A 
ATOM     55  C   UNL A   1      43.485  27.596  32.194  1.00  0.00     0.049 A 
ATOM     56  H   UNL A   1      41.773  28.537  31.395  1.00  0.00     0.167 HD
ATOM     57  C   UNL A   1      42.670  29.046  34.031  1.00  0.00     0.074 A 
ATOM     58  C   UNL A   1      42.742  29.585  35.375  1.00  0.00     0.031 C 
ATOM     59  C   UNL A   1      43.535  28.136  33.526  1.00  0.00     0.037 A 
BRANCH  46  60
ATOM     60  C   UNL A   1      42.402  26.567  27.672  1.00  0.00     0.064 A 
ATOM     61  C   UNL A   1      43.367  27.038  26.771  1.00  0.00     0.173 A 
ATOM     62  C   UNL A   1      41.855  25.294  27.448  1.00  0.00     0.173 A 
ATOM     63  F   UNL A   1      43.907  28.254  26.936  1.00  0.00    -0.203 F 
ATOM     64  C   UNL A   1      43.762  26.267  25.680  1.00  0.00     0.198 A 
ATOM     65  C   UNL A   1      42.264  24.520  26.368  1.00  0.00     0.198 A 
ATOM     66  F   UNL A   1      40.930  24.801  28.285  1.00  0.00    -0.203 F 
ATOM     67  F   UNL A   1      44.666  26.745  24.815  1.00  0.00    -0.200 F 
ATOM     68  C   UNL A   1      43.214  25.007  25.483  1.00  0.00     0.200 A 
ATOM     69  F   UNL A   1      41.739  23.300  26.181  1.00  0.00    -0.200 F 
ATOM     70  F   UNL A   1      43.599  24.263  24.437  1.00  0.00    -0.200 F 
ENDBRANCH  46  60
BRANCH  47  71
ATOM     71  C   UNL A   1      39.337  32.073  35.380  1.00  0.00     0.064 A 
ATOM     72  C   UNL A   1      39.697  33.423  35.481  1.00  0.00     0.173 A 
ATOM     73  C   UNL A   1      38.514  31.535  36.379  1.00  0.00     0.173 A 
ATOM     74  F   UNL A   1      40.504  33.971  34.560  1.00  0.00    -0.203 F 
ATOM     75  C   UNL A   1      39.247  34.206  36.541  1.00  0.00     0.198 A 
ATOM     76  C   UNL A   1      38.047  32.325  37.426  1.00  0.00     0.198 A 
ATOM     77  F   UNL A   1      38.146  30.246  36.324  1.00  0.00    -0.203 F 
ATOM     78  F   UNL A   1      39.624  35.489  36.629  1.00  0.00    -0.200 F 
ATOM     79  C   UNL A   1      38.416  33.659  37.507  1.00  0.00     0.200 A 
ATOM     80  F   UNL A   1      37.237  31.795  38.353  1.00  0.00    -0.200 F 
ATOM     81  F   UNL A   1      37.975  34.416  38.521  1.00  0.00    -0.200 F 
ENDBRANCH  47  71
BRANCH  59  82
ATOM     82  C   UNL A   1      44.628  27.663  34.433  1.00  0.00     0.064 A 
ATOM     83  C   UNL A   1      44.462  26.521  35.228  1.00  0.00     0.173 A 
ATOM     84  C   UNL A   1      45.854  28.339  34.488  1.00  0.00     0.173 A 
ATOM     85  F   UNL A   1      43.299  25.853  35.216  1.00  0.00    -0.203 F 
ATOM     86  C   UNL A   1      45.485  26.078  36.061  1.00  0.00     0.198 A 
ATOM     87  C   UNL A   1      46.880  27.886  35.312  1.00  0.00     0.198 A 
ATOM     88  F   UNL A   1      46.055  29.437  33.745  1.00  0.00    -0.203 F 
ATOM     89  F   UNL A   1      45.298  25.001  36.835  1.00  0.00    -0.200 F 
ATOM     90  C   UNL A   1      46.695  26.758  36.099  1.00  0.00     0.200 A 
ATOM     91  F   UNL A   1      48.048  28.543  35.349  1.00  0.00    -0.200 F 
ATOM     92  F   UNL A   1      47.678  26.333  36.903  1.00  0.00    -0.200 F 
ENDBRANCH  59  82
ENDBRANCH  33  34
ENDBRANCH  26  28
ENDBRANCH  25  26
ENDBRANCH  24  25
ENDBRANCH   1  24
TORSDOF 16
ENDMDL
MODEL 2
REMARK VINA RESULT:     -11.5      2.368      4.076
REMARK SMILES C[NH2+][C@]1(C(=O)OCCOC(=O)c2ccc(-c3c4nc(c(-c5c(F)c(F)c(F)c(F)c5F)c5ccc([nH]5)c(-c5c(F)c(F)c(F)c(F)c5F)c5nc(c(-c6c(F)c(F)c(F)c(F)c6F)c6ccc3[nH]6)C=C5)C=C4)cc2)CCC[C@@H]1CCSc1cccc(Cl)c1
REMARK SMILES IDX 7 1 6 2 4 3 5 4 3 5 75 6 78 7 76 8 77 9 2 10 1 11 79 14
REMARK SMILES IDX 80 15 81 16 82 17 83 18 88 19 84 20 86 21 85 22 87 23 8 24
REMARK SMILES IDX 9 25 10 26 11 27 12 28 13 29 74 30 14 31 73 32 15 33 16 34
REMARK SMILES IDX 17 35 67 36 18 37 72 38 66 39 68 40 19 41 71 42 65 43 64 44
REMARK SMILES IDX 20 46 52 47 32 48 51 49 33 50 36 51 50 52 69 53 34 54 35 55
REMARK SMILES IDX 49 57 70 58 37 59 21 60 22 61 30 62 23 63 24 64 28 65 31 66
REMARK SMILES IDX 25 67 26 68 29 69 27 70 53 71 54 72 62 73 55 74 56 75 60 76
REMARK SMILES IDX 63 77 57 78 58 79 61 80 59 81 38 82 39 83 47 84 40 85 41 86
REMARK SMILES IDX 45 87 48 88 42 89 43 90 46 91 44 92
REMARK H PARENT 2 12 2 13 68 45 36 56
REMARK Flexibility Score: inf
ROOT
ATOM      1  C   UNL A   1      31.987  28.330  27.244  1.00  0.00     0.274 C 
ENDROOT
BRANCH   1   2
ATOM      2  O   UNL A   1      31.771  27.239  26.327  1.00  0.00    -0.457 OA
BRANCH   2   3
ATOM      3  C   UNL A   1      32.891  26.524  26.018  1.00  0.00     0.368 C 
ATOM      4  O   UNL A   1      34.027  26.973  26.122  1.00  0.00    -0.245 OA
BRANCH   3   5
ATOM      5  C   UNL A   1      32.563  25.043  25.648  1.00  0.00     0.197 C 
ATOM      6  C   UNL A   1      31.377  24.498  26.478  1.00  0.00     0.081 C 
ATOM      7  C   UNL A   1      31.895  25.060  24.241  1.00  0.00     0.063 C 
ATOM      8  C   UNL A   1      30.640  23.493  25.584  1.00  0.00     0.008 C 
ATOM      9  C   UNL A   1      31.118  23.747  24.154  1.00  0.00     0.011 C 
BRANCH   5  10
ATOM     10  N   UNL A   1      33.827  24.270  25.733  1.00  0.00    -0.334 N 
ATOM     11  C   UNL A   1      34.037  23.398  26.878  1.00  0.00     0.331 C 
ATOM     12  H   UNL A   1      33.881  23.686  24.898  1.00  0.00     0.347 HD
ATOM     13  H   UNL A   1      34.549  24.985  25.832  1.00  0.00     0.347 HD
ENDBRANCH   5  10
BRANCH   7  14
ATOM     14  C   UNL A   1      32.769  25.339  23.007  1.00  0.00     0.022 C 
BRANCH  14  15
ATOM     15  C   UNL A   1      32.168  26.401  22.067  1.00  0.00     0.075 C 
BRANCH  15  16
ATOM     16  S   UNL A   1      32.090  28.111  22.756  1.00  0.00    -0.126 SA
BRANCH  16  17
ATOM     17  C   UNL A   1      30.344  28.480  22.731  1.00  0.00     0.009 A 
ATOM     18  C   UNL A   1      29.407  27.693  23.410  1.00  0.00     0.015 A 
ATOM     19  C   UNL A   1      29.904  29.610  22.028  1.00  0.00     0.035 A 
ATOM     20  C   UNL A   1      28.060  28.065  23.445  1.00  0.00     0.003 A 
ATOM     21  C   UNL A   1      28.558  29.974  22.061  1.00  0.00     0.042 A 
ATOM     22  C   UNL A   1      27.636  29.212  22.776  1.00  0.00     0.020 A 
ATOM     23  Cl  UNL A   1      28.030  31.389  21.234  1.00  0.00    -0.084 Cl
ENDBRANCH  16  17
ENDBRANCH  15  16
ENDBRANCH  14  15
ENDBRANCH   7  14
ENDBRANCH   3   5
ENDBRANCH   2   3
ENDBRANCH   1   2
BRANCH   1  24
ATOM     24  C   UNL A   1      31.776  29.691  26.578  1.00  0.00     0.275 C 
BRANCH  24  25
ATOM     25  O   UNL A   1      33.018  30.339  26.246  1.00  0.00    -0.458 OA
BRANCH  25  26
ATOM     26  C   UNL A   1      33.445  31.243  27.153  1.00  0.00     0.338 C 
ATOM     27  O   UNL A   1      32.812  32.178  27.626  1.00  0.00    -0.246 OA
BRANCH  26  28
ATOM     28  C   UNL A   1      34.811  30.946  27.600  1.00  0.00     0.060 A 
ATOM     29  C   UNL A   1      35.159  29.620  27.846  1.00  0.00     0.016 A 
ATOM     30  C   UNL A   1      35.654  31.984  28.001  1.00  0.00     0.016 A 
ATOM     31  C   UNL A   1      36.298  29.328  28.590  1.00  0.00     0.010 A 
ATOM     32  C   UNL A   1      36.845  31.683  28.673  1.00  0.00     0.010 A 
ATOM     33  C   UNL A   1      37.156  30.353  29.014  1.00  0.00    -0.014 A 
BRANCH  33  34
ATOM     34  C   UNL A   1      38.342  30.037  29.853  1.00  0.00     0.031 A 
ATOM     35  C   UNL A   1      39.460  29.191  29.303  1.00  0.00     0.074 A 
ATOM     36  C   UNL A   1      38.442  30.532  31.100  1.00  0.00     0.049 A 
ATOM     37  N   UNL A   1      40.487  28.668  29.927  1.00  0.00    -0.248 NA
ATOM     38  C   UNL A   1      39.415  28.887  27.864  1.00  0.00     0.031 C 
ATOM     39  C   UNL A   1      37.464  31.411  31.743  1.00  0.00     0.029 A 
ATOM     40  N   UNL A   1      39.425  30.380  32.047  1.00  0.00    -0.354 N 
ATOM     41  C   UNL A   1      41.171  27.925  28.974  1.00  0.00     0.074 A 
ATOM     42  C   UNL A   1      40.457  28.078  27.724  1.00  0.00     0.031 C 
ATOM     43  C   UNL A   1      37.914  31.754  32.959  1.00  0.00     0.029 A 
ATOM     44  C   UNL A   1      39.174  31.060  33.212  1.00  0.00     0.049 A 
ATOM     45  H   UNL A   1      40.231  29.835  31.904  1.00  0.00     0.167 HD
ATOM     46  C   UNL A   1      42.289  27.176  29.133  1.00  0.00     0.037 A 
ATOM     47  C   UNL A   1      39.860  31.096  34.369  1.00  0.00     0.037 A 
ATOM     48  C   UNL A   1      43.036  27.072  30.359  1.00  0.00     0.049 A 
ATOM     49  C   UNL A   1      41.100  30.266  34.520  1.00  0.00     0.074 A 
ATOM     50  C   UNL A   1      44.172  26.325  30.621  1.00  0.00     0.029 A 
ATOM     51  N   UNL A   1      42.734  27.762  31.523  1.00  0.00    -0.354 N 
ATOM     52  N   UNL A   1      41.680  29.484  33.644  1.00  0.00    -0.248 NA
ATOM     53  C   UNL A   1      41.764  30.300  35.830  1.00  0.00     0.031 C 
ATOM     54  C   UNL A   1      44.552  26.556  31.949  1.00  0.00     0.029 A 
ATOM     55  C   UNL A   1      43.664  27.462  32.505  1.00  0.00     0.049 A 
ATOM     56  H   UNL A   1      41.972  28.375  31.635  1.00  0.00     0.167 HD
ATOM     57  C   UNL A   1      42.767  28.922  34.296  1.00  0.00     0.074 A 
ATOM     58  C   UNL A   1      42.785  29.476  35.635  1.00  0.00     0.031 C 
ATOM     59  C   UNL A   1      43.660  28.016  33.832  1.00  0.00     0.037 A 
BRANCH  46  60
ATOM     60  C   UNL A   1      42.756  26.373  27.959  1.00  0.00     0.064 A 
ATOM     61  C   UNL A   1      42.283  25.077  27.714  1.00  0.00     0.173 A 
ATOM     62  C   UNL A   1      43.660  26.930  27.041  1.00  0.00     0.173 A 
ATOM     63  F   UNL A   1      41.429  24.498  28.570  1.00  0.00    -0.203 F 
ATOM     64  C   UNL A   1      42.707  24.361  26.596  1.00  0.00     0.198 A 
ATOM     65  C   UNL A   1      44.068  26.219  25.917  1.00  0.00     0.198 A 
ATOM     66  F   UNL A   1      44.139  28.169  27.233  1.00  0.00    -0.203 F 
ATOM     67  F   UNL A   1      42.264  23.113  26.393  1.00  0.00    -0.200 F 
ATOM     68  C   UNL A   1      43.594  24.935  25.697  1.00  0.00     0.200 A 
ATOM     69  F   UNL A   1      44.921  26.777  25.046  1.00  0.00    -0.200 F 
ATOM     70  F   UNL A   1      43.997  24.248  24.619  1.00  0.00    -0.200 F 
ENDBRANCH  46  60
BRANCH  47  71
ATOM     71  C   UNL A   1      39.355  31.926  35.490  1.00  0.00     0.064 A 
ATOM     72  C   UNL A   1      38.504  31.380  36.459  1.00  0.00     0.173 A 
ATOM     73  C   UNL A   1      39.736  33.268  35.628  1.00  0.00     0.173 A 
ATOM     74  F   UNL A   1      38.095  30.107  36.351  1.00  0.00    -0.203 F 
ATOM     75  C   UNL A   1      38.053  32.149  37.530  1.00  0.00     0.198 A 
ATOM     76  C   UNL A   1      39.301  34.028  36.711  1.00  0.00     0.198 A 
ATOM     77  F   UNL A   1      40.547  33.833  34.722  1.00  0.00    -0.203 F 
ATOM     78  F   UNL A   1      37.219  31.612  38.432  1.00  0.00    -0.200 F 
ATOM     79  C   UNL A   1      38.458  33.468  37.659  1.00  0.00     0.200 A 
ATOM     80  F   UNL A   1      39.703  35.300  36.837  1.00  0.00    -0.200 F 
ATOM     81  F   UNL A   1      38.032  34.204  38.695  1.00  0.00    -0.200 F 
ENDBRANCH  47  71
BRANCH  59  82
ATOM     82  C   UNL A   1      44.724  27.566  34.783  1.00  0.00     0.064 A 
ATOM     83  C   UNL A   1      45.934  28.266  34.897  1.00  0.00     0.173 A 
ATOM     84  C   UNL A   1      44.525  26.447  35.602  1.00  0.00     0.173 A 
ATOM     85  F   UNL A   1      46.171  29.334  34.121  1.00  0.00    -0.203 F 
ATOM     86  C   UNL A   1      46.915  27.851  35.791  1.00  0.00     0.198 A 
ATOM     87  C   UNL A   1      45.503  26.042  36.505  1.00  0.00     0.198 A 
ATOM     88  F   UNL A   1      43.383  25.747  35.525  1.00  0.00    -0.203 F 
ATOM     89  F   UNL A   1      48.076  28.515  35.866  1.00  0.00    -0.200 F 
ATOM     90  C   UNL A   1      46.698  26.742  36.598  1.00  0.00     0.200 A 
ATOM     91  F   UNL A   1      45.294  24.971  37.284  1.00  0.00    -0.200 F 
ATOM     92  F   UNL A   1      47.645  26.341  37.456  1.00  0.00    -0.200 F 
ENDBRANCH  59  82
ENDBRANCH  33  34
ENDBRANCH  26  28
ENDBRANCH  25  26
ENDBRANCH  24  25
ENDBRANCH   1  24
TORSDOF 16
ENDMDL
MODEL 3
REMARK VINA RESULT:     -11.5      0.198      1.971
REMARK SMILES C[NH2+][C@]1(C(=O)OCCOC(=O)c2ccc(-c3c4nc(c(-c5c(F)c(F)c(F)c(F)c5F)c5ccc([nH]5)c(-c5c(F)c(F)c(F)c(F)c5F)c5nc(c(-c6c(F)c(F)c(F)c(F)c6F)c6ccc3[nH]6)C=C5)C=C4)cc2)CCC[C@@H]1CCSc1cccc(Cl)c1
REMARK SMILES IDX 7 1 6 2 4 3 5 4 3 5 75 6 78 7 76 8 77 9 2 10 1 11 79 14
REMARK SMILES IDX 80 15 81 16 82 17 83 18 88 19 84 20 86 21 85 22 87 23 8 24
REMARK SMILES IDX 9 25 10 26 11 27 12 28 13 29 74 30 14 31 73 32 15 33 16 34
REMARK SMILES IDX 17 35 67 36 18 37 72 38 66 39 68 40 19 41 71 42 65 43 64 44
REMARK SMILES IDX 20 46 52 47 32 48 51 49 33 50 36 51 50 52 69 53 34 54 35 55
REMARK SMILES IDX 49 57 70 58 37 59 21 60 22 61 30 62 23 63 24 64 28 65 31 66
REMARK SMILES IDX 25 67 26 68 29 69 27 70 53 71 54 72 62 73 55 74 56 75 60 76
REMARK SMILES IDX 63 77 57 78 58 79 61 80 59 81 38 82 39 83 47 84 40 85 41 86
REMARK SMILES IDX 45 87 48 88 42 89 43 90 46 91 44 92
REMARK H PARENT 2 12 2 13 68 45 36 56
REMARK Flexibility Score: inf
ROOT
ATOM      1  C   UNL A   1      31.452  28.944  25.324  1.00  0.00     0.274 C 
ENDROOT
BRANCH   1   2
ATOM      2  O   UNL A   1      32.571  28.243  24.746  1.00  0.00    -0.457 OA
BRANCH   2   3
ATOM      3  C   UNL A   1      32.835  27.029  25.308  1.00  0.00     0.368 C 
ATOM      4  O   UNL A   1      33.171  26.887  26.479  1.00  0.00    -0.245 OA
BRANCH   3   5
ATOM      5  C   UNL A   1      32.534  25.847  24.332  1.00  0.00     0.197 C 
ATOM      6  C   UNL A   1      32.309  26.348  22.887  1.00  0.00     0.081 C 
ATOM      7  C   UNL A   1      33.870  25.075  24.124  1.00  0.00     0.063 C 
ATOM      8  C   UNL A   1      32.821  25.241  21.954  1.00  0.00     0.008 C 
ATOM      9  C   UNL A   1      33.689  24.318  22.809  1.00  0.00     0.011 C 
BRANCH   5  10
ATOM     10  N   UNL A   1      31.432  25.048  24.924  1.00  0.00    -0.334 N 
ATOM     11  C   UNL A   1      30.084  25.593  24.904  1.00  0.00     0.331 C 
ATOM     12  H   UNL A   1      31.403  24.159  24.425  1.00  0.00     0.347 HD
ATOM     13  H   UNL A   1      31.665  25.002  25.917  1.00  0.00     0.347 HD
ENDBRANCH   5  10
BRANCH   7  14
ATOM     14  C   UNL A   1      34.408  24.199  25.267  1.00  0.00     0.022 C 
BRANCH  14  15
ATOM     15  C   UNL A   1      35.260  23.014  24.773  1.00  0.00     0.075 C 
BRANCH  15  16
ATOM     16  S   UNL A   1      35.117  21.469  25.771  1.00  0.00    -0.126 SA
BRANCH  16  17
ATOM     17  C   UNL A   1      34.055  20.437  24.773  1.00  0.00     0.009 A 
ATOM     18  C   UNL A   1      32.934  20.947  24.107  1.00  0.00     0.015 A 
ATOM     19  C   UNL A   1      34.371  19.079  24.635  1.00  0.00     0.035 A 
ATOM     20  C   UNL A   1      32.179  20.130  23.261  1.00  0.00     0.003 A 
ATOM     21  C   UNL A   1      33.610  18.266  23.795  1.00  0.00     0.042 A 
ATOM     22  C   UNL A   1      32.523  18.788  23.098  1.00  0.00     0.020 A 
ATOM     23  Cl  UNL A   1      34.030  16.608  23.593  1.00  0.00    -0.084 Cl
ENDBRANCH  16  17
ENDBRANCH  15  16
ENDBRANCH  14  15
ENDBRANCH   7  14
ENDBRANCH   3   5
ENDBRANCH   2   3
ENDBRANCH   1   2
BRANCH   1  24
ATOM     24  C   UNL A   1      31.820  30.368  25.743  1.00  0.00     0.275 C 
BRANCH  24  25
ATOM     25  O   UNL A   1      32.430  30.416  27.047  1.00  0.00    -0.458 OA
BRANCH  25  26
ATOM     26  C   UNL A   1      33.175  31.518  27.283  1.00  0.00     0.338 C 
ATOM     27  O   UNL A   1      32.811  32.685  27.236  1.00  0.00    -0.246 OA
BRANCH  26  28
ATOM     28  C   UNL A   1      34.539  31.161  27.691  1.00  0.00     0.060 A 
ATOM     29  C   UNL A   1      34.818  29.832  27.997  1.00  0.00     0.016 A 
ATOM     30  C   UNL A   1      35.458  32.165  28.000  1.00  0.00     0.016 A 
ATOM     31  C   UNL A   1      35.968  29.510  28.711  1.00  0.00     0.010 A 
ATOM     32  C   UNL A   1      36.657  31.828  28.640  1.00  0.00     0.010 A 
ATOM     33  C   UNL A   1      36.903  30.502  29.042  1.00  0.00    -0.014 A 
BRANCH  33  34
ATOM     34  C   UNL A   1      38.103  30.158  29.850  1.00  0.00     0.031 A 
ATOM     35  C   UNL A   1      39.183  29.282  29.273  1.00  0.00     0.074 A 
ATOM     36  C   UNL A   1      38.250  30.656  31.092  1.00  0.00     0.049 A 
ATOM     37  N   UNL A   1      40.213  28.735  29.871  1.00  0.00    -0.248 NA
ATOM     38  C   UNL A   1      39.091  28.972  27.838  1.00  0.00     0.031 C 
ATOM     39  C   UNL A   1      37.313  31.563  31.756  1.00  0.00     0.029 A 
ATOM     40  N   UNL A   1      39.254  30.483  32.012  1.00  0.00    -0.354 N 
ATOM     41  C   UNL A   1      40.852  27.970  28.904  1.00  0.00     0.074 A 
ATOM     42  C   UNL A   1      40.107  28.136  27.673  1.00  0.00     0.031 C 
ATOM     43  C   UNL A   1      37.805  31.899  32.958  1.00  0.00     0.029 A 
ATOM     44  C   UNL A   1      39.053  31.174  33.180  1.00  0.00     0.049 A 
ATOM     45  H   UNL A   1      40.042  29.916  31.849  1.00  0.00     0.167 HD
ATOM     46  C   UNL A   1      41.954  27.193  29.036  1.00  0.00     0.037 A 
ATOM     47  C   UNL A   1      39.771  31.197  34.318  1.00  0.00     0.037 A 
ATOM     48  C   UNL A   1      42.731  27.076  30.242  1.00  0.00     0.049 A 
ATOM     49  C   UNL A   1      40.994  30.335  34.438  1.00  0.00     0.074 A 
ATOM     50  C   UNL A   1      43.854  26.300  30.476  1.00  0.00     0.029 A 
ATOM     51  N   UNL A   1      42.479  27.777  31.410  1.00  0.00    -0.354 N 
ATOM     52  N   UNL A   1      41.529  29.535  33.550  1.00  0.00    -0.248 NA
ATOM     53  C   UNL A   1      41.694  30.358  35.729  1.00  0.00     0.031 C 
ATOM     54  C   UNL A   1      44.277  26.527  31.792  1.00  0.00     0.029 A 
ATOM     55  C   UNL A   1      43.428  27.457  32.368  1.00  0.00     0.049 A 
ATOM     56  H   UNL A   1      41.737  28.410  31.540  1.00  0.00     0.167 HD
ATOM     57  C   UNL A   1      42.618  28.948  34.175  1.00  0.00     0.074 A 
ATOM     58  C   UNL A   1      42.688  29.507  35.510  1.00  0.00     0.031 C 
ATOM     59  C   UNL A   1      43.475  28.017  33.692  1.00  0.00     0.037 A 
BRANCH  46  60
ATOM     60  C   UNL A   1      42.367  26.373  27.854  1.00  0.00     0.064 A 
ATOM     61  C   UNL A   1      41.773  25.138  27.566  1.00  0.00     0.173 A 
ATOM     62  C   UNL A   1      43.345  26.857  26.971  1.00  0.00     0.173 A 
ATOM     63  F   UNL A   1      40.844  24.628  28.388  1.00  0.00    -0.203 F 
ATOM     64  C   UNL A   1      42.151  24.408  26.441  1.00  0.00     0.198 A 
ATOM     65  C   UNL A   1      43.709  26.133  25.839  1.00  0.00     0.198 A 
ATOM     66  F   UNL A   1      43.941  28.036  27.204  1.00  0.00    -0.203 F 
ATOM     67  F   UNL A   1      41.590  23.216  26.197  1.00  0.00    -0.200 F 
ATOM     68  C   UNL A   1      43.114  24.909  25.577  1.00  0.00     0.200 A 
ATOM     69  F   UNL A   1      44.635  26.621  25.002  1.00  0.00    -0.200 F 
ATOM     70  F   UNL A   1      43.473  24.209  24.492  1.00  0.00    -0.200 F 
ENDBRANCH  46  60
BRANCH  47  71
ATOM     71  C   UNL A   1      39.319  32.044  35.448  1.00  0.00     0.064 A 
ATOM     72  C   UNL A   1      38.459  31.533  36.427  1.00  0.00     0.173 A 
ATOM     73  C   UNL A   1      39.760  33.368  35.584  1.00  0.00     0.173 A 
ATOM     74  F   UNL A   1      37.993  30.279  36.322  1.00  0.00    -0.203 F 
ATOM     75  C   UNL A   1      38.057  32.317  37.506  1.00  0.00     0.198 A 
ATOM     76  C   UNL A   1      39.375  34.143  36.675  1.00  0.00     0.198 A 
ATOM     77  F   UNL A   1      40.583  33.900  34.668  1.00  0.00    -0.203 F 
ATOM     78  F   UNL A   1      37.214  31.815  38.419  1.00  0.00    -0.200 F 
ATOM     79  C   UNL A   1      38.522  33.617  37.633  1.00  0.00     0.200 A 
ATOM     80  F   UNL A   1      39.833  35.396  36.799  1.00  0.00    -0.200 F 
ATOM     81  F   UNL A   1      38.143  34.367  38.677  1.00  0.00    -0.200 F 
ENDBRANCH  47  71
BRANCH  59  82
ATOM     82  C   UNL A   1      44.553  27.544  34.615  1.00  0.00     0.064 A 
ATOM     83  C   UNL A   1      45.770  28.232  34.716  1.00  0.00     0.173 A 
ATOM     84  C   UNL A   1      44.359  26.414  35.421  1.00  0.00     0.173 A 
ATOM     85  F   UNL A   1      46.002  29.309  33.953  1.00  0.00    -0.203 F 
ATOM     86  C   UNL A   1      46.765  27.795  35.586  1.00  0.00     0.198 A 
ATOM     87  C   UNL A   1      45.351  25.987  36.299  1.00  0.00     0.198 A 
ATOM     88  F   UNL A   1      43.210  25.725  35.355  1.00  0.00    -0.203 F 
ATOM     89  F   UNL A   1      47.933  28.448  35.648  1.00  0.00    -0.200 F 
ATOM     90  C   UNL A   1      46.553  26.676  36.379  1.00  0.00     0.200 A 
ATOM     91  F   UNL A   1      45.147  24.907  37.065  1.00  0.00    -0.200 F 
ATOM     92  F   UNL A   1      47.513  26.254  37.214  1.00  0.00    -0.200 F 
ENDBRANCH  59  82
ENDBRANCH  33  34
ENDBRANCH  26  28
ENDBRANCH  25  26
ENDBRANCH  24  25
ENDBRANCH   1  24
TORSDOF 16
ENDMDL
