MODEL 1
REMARK VINA RESULT:     -10.8      0.000      0.000
REMARK SMILES CC[C@@H](C)[C@@H](NC(=O)C(F)(F)F)C(=O)OCCOC(=O)c1ccc(-c2c3nc(c(-c4c(F)c(F)c(F)c(F)c4F)c4ccc([nH]4)c(-c4c(F)c(F)c(F)c(F)c4F)c4nc(c(-c5c(F)c(F)c(F)c(F)c5F)c5ccc2[nH]5)C=C4)C=C3)cc1
REMARK SMILES IDX 16 1 15 2 13 3 14 4 5 5 3 6 4 7 2 8 1 9 6 10 7 11 8 13 9 14
REMARK SMILES IDX 10 15 11 16 12 17 17 18 18 19 19 20 20 21 21 22 22 23 83 24
REMARK SMILES IDX 23 25 82 26 24 27 25 28 26 29 76 30 27 31 81 32 75 33 77 34
REMARK SMILES IDX 28 35 80 36 74 37 73 38 29 40 61 41 41 42 60 43 42 44 45 45
REMARK SMILES IDX 59 46 78 47 43 48 44 49 58 51 79 52 46 53 30 54 31 55 39 56
REMARK SMILES IDX 32 57 33 58 37 59 40 60 34 61 35 62 38 63 36 64 62 65 63 66
REMARK SMILES IDX 71 67 64 68 65 69 69 70 72 71 66 72 67 73 70 74 68 75 47 76
REMARK SMILES IDX 48 77 56 78 49 79 50 80 54 81 57 82 51 83 52 84 55 85 53 86
REMARK H PARENT 6 12 77 39 45 50
REMARK Flexibility Score: inf
ROOT
ATOM      1  C   UNL A   1      35.555  20.742  25.500  1.00  0.00     0.274 C 
ENDROOT
BRANCH   1   2
ATOM      2  O   UNL A   1      34.620  20.075  24.628  1.00  0.00    -0.461 OA
BRANCH   2   3
ATOM      3  C   UNL A   1      33.306  20.279  24.899  1.00  0.00     0.329 C 
ATOM      4  O   UNL A   1      32.483  19.391  25.095  1.00  0.00    -0.250 OA
BRANCH   3   5
ATOM      5  C   UNL A   1      32.899  21.759  24.825  1.00  0.00     0.195 C 
BRANCH   5   6
ATOM      6  C   UNL A   1      32.662  22.404  23.421  1.00  0.00     0.019 C 
ATOM      7  C   UNL A   1      32.047  21.389  22.438  1.00  0.00     0.010 C 
BRANCH   6   8
ATOM      8  C   UNL A   1      34.012  22.923  22.843  1.00  0.00     0.002 C 
ATOM      9  C   UNL A   1      34.936  23.611  23.842  1.00  0.00     0.004 C 
ENDBRANCH   6   8
ENDBRANCH   5   6
BRANCH   5  10
ATOM     10  N   UNL A   1      31.927  22.178  25.859  1.00  0.00    -0.335 N 
ATOM     11  C   UNL A   1      31.708  23.345  26.548  1.00  0.00     0.326 C 
ATOM     12  H   UNL A   1      31.298  21.462  26.107  1.00  0.00     0.164 HD
ATOM     13  O   UNL A   1      30.915  23.250  27.497  1.00  0.00    -0.265 OA
BRANCH  11  14
ATOM     14  C   UNL A   1      32.311  24.708  26.132  1.00  0.00     0.471 C 
ATOM     15  F   UNL A   1      32.071  25.013  24.828  1.00  0.00    -0.162 F 
ATOM     16  F   UNL A   1      31.823  25.740  26.873  1.00  0.00    -0.162 F 
ATOM     17  F   UNL A   1      33.666  24.753  26.281  1.00  0.00    -0.162 F 
ENDBRANCH  11  14
ENDBRANCH   5  10
ENDBRANCH   3   5
ENDBRANCH   2   3
ENDBRANCH   1   2
BRANCH   1  18
ATOM     18  C   UNL A   1      37.001  20.419  25.128  1.00  0.00     0.275 C 
BRANCH  18  19
ATOM     19  O   UNL A   1      37.855  21.538  25.421  1.00  0.00    -0.458 OA
BRANCH  19  20
ATOM     20  C   UNL A   1      39.019  21.243  26.039  1.00  0.00     0.338 C 
ATOM     21  O   UNL A   1      39.579  20.165  26.118  1.00  0.00    -0.246 OA
BRANCH  20  22
ATOM     22  C   UNL A   1      39.597  22.474  26.590  1.00  0.00     0.060 A 
ATOM     23  C   UNL A   1      39.130  23.708  26.133  1.00  0.00     0.016 A 
ATOM     24  C   UNL A   1      40.681  22.400  27.462  1.00  0.00     0.016 A 
ATOM     25  C   UNL A   1      39.761  24.884  26.529  1.00  0.00     0.010 A 
ATOM     26  C   UNL A   1      41.303  23.579  27.873  1.00  0.00     0.010 A 
ATOM     27  C   UNL A   1      40.861  24.825  27.392  1.00  0.00    -0.014 A 
BRANCH  27  28
ATOM     28  C   UNL A   1      41.607  26.054  27.739  1.00  0.00     0.031 A 
ATOM     29  C   UNL A   1      40.921  27.133  28.522  1.00  0.00     0.074 A 
ATOM     30  C   UNL A   1      42.882  26.205  27.341  1.00  0.00     0.049 A 
ATOM     31  N   UNL A   1      41.321  28.351  28.784  1.00  0.00    -0.248 NA
ATOM     32  C   UNL A   1      39.603  26.796  29.084  1.00  0.00     0.031 C 
ATOM     33  C   UNL A   1      43.667  25.201  26.625  1.00  0.00     0.029 A 
ATOM     34  N   UNL A   1      43.733  27.273  27.469  1.00  0.00    -0.354 N 
ATOM     35  C   UNL A   1      40.295  28.935  29.513  1.00  0.00     0.074 A 
ATOM     36  C   UNL A   1      39.252  27.940  29.653  1.00  0.00     0.031 C 
ATOM     37  C   UNL A   1      44.883  25.707  26.359  1.00  0.00     0.029 A 
ATOM     38  C   UNL A   1      44.939  27.085  26.841  1.00  0.00     0.049 A 
ATOM     39  H   UNL A   1      43.502  28.092  27.962  1.00  0.00     0.167 HD
ATOM     40  C   UNL A   1      40.232  30.190  30.017  1.00  0.00     0.037 A 
ATOM     41  C   UNL A   1      45.954  27.946  26.642  1.00  0.00     0.037 A 
ATOM     42  C   UNL A   1      41.279  31.168  29.882  1.00  0.00     0.049 A 
ATOM     43  C   UNL A   1      45.840  29.351  27.162  1.00  0.00     0.074 A 
ATOM     44  C   UNL A   1      41.313  32.470  30.349  1.00  0.00     0.029 A 
ATOM     45  N   UNL A   1      42.483  30.944  29.231  1.00  0.00    -0.354 N 
ATOM     46  N   UNL A   1      44.854  29.910  27.822  1.00  0.00    -0.248 NA
ATOM     47  C   UNL A   1      46.974  30.248  26.903  1.00  0.00     0.031 C 
ATOM     48  C   UNL A   1      42.527  33.044  29.955  1.00  0.00     0.029 A 
ATOM     49  C   UNL A   1      43.263  32.087  29.274  1.00  0.00     0.049 A 
ATOM     50  H   UNL A   1      42.745  30.097  28.802  1.00  0.00     0.167 HD
ATOM     51  C   UNL A   1      45.251  31.218  28.067  1.00  0.00     0.074 A 
ATOM     52  C   UNL A   1      46.575  31.365  27.497  1.00  0.00     0.031 C 
ATOM     53  C   UNL A   1      44.580  32.208  28.702  1.00  0.00     0.037 A 
BRANCH  40  54
ATOM     54  C   UNL A   1      38.974  30.585  30.728  1.00  0.00     0.064 A 
ATOM     55  C   UNL A   1      38.839  30.447  32.116  1.00  0.00     0.173 A 
ATOM     56  C   UNL A   1      37.898  31.132  30.013  1.00  0.00     0.173 A 
ATOM     57  F   UNL A   1      39.833  29.912  32.841  1.00  0.00    -0.203 F 
ATOM     58  C   UNL A   1      37.663  30.823  32.761  1.00  0.00     0.198 A 
ATOM     59  C   UNL A   1      36.732  31.527  30.663  1.00  0.00     0.198 A 
ATOM     60  F   UNL A   1      37.979  31.284  28.682  1.00  0.00    -0.203 F 
ATOM     61  F   UNL A   1      37.540  30.646  34.084  1.00  0.00    -0.200 F 
ATOM     62  C   UNL A   1      36.614  31.368  32.035  1.00  0.00     0.200 A 
ATOM     63  F   UNL A   1      35.722  32.059  29.960  1.00  0.00    -0.200 F 
ATOM     64  F   UNL A   1      35.485  31.732  32.657  1.00  0.00    -0.200 F 
ENDBRANCH  40  54
BRANCH  41  65
ATOM     65  C   UNL A   1      47.150  27.506  25.880  1.00  0.00     0.064 A 
ATOM     66  C   UNL A   1      48.243  26.919  26.530  1.00  0.00     0.173 A 
ATOM     67  C   UNL A   1      47.220  27.658  24.487  1.00  0.00     0.173 A 
ATOM     68  F   UNL A   1      48.231  26.778  27.864  1.00  0.00    -0.203 F 
ATOM     69  C   UNL A   1      49.366  26.505  25.816  1.00  0.00     0.198 A 
ATOM     70  C   UNL A   1      48.332  27.221  23.772  1.00  0.00     0.198 A 
ATOM     71  F   UNL A   1      46.200  28.216  23.821  1.00  0.00    -0.203 F 
ATOM     72  F   UNL A   1      50.412  25.978  26.465  1.00  0.00    -0.200 F 
ATOM     73  C   UNL A   1      49.406  26.650  24.437  1.00  0.00     0.200 A 
ATOM     74  F   UNL A   1      48.363  27.354  22.439  1.00  0.00    -0.200 F 
ATOM     75  F   UNL A   1      50.484  26.246  23.750  1.00  0.00    -0.200 F 
ENDBRANCH  41  65
BRANCH  53  76
ATOM     76  C   UNL A   1      45.278  33.526  28.837  1.00  0.00     0.064 A 
ATOM     77  C   UNL A   1      46.124  33.798  29.922  1.00  0.00     0.173 A 
ATOM     78  C   UNL A   1      45.129  34.514  27.852  1.00  0.00     0.173 A 
ATOM     79  F   UNL A   1      46.284  32.889  30.896  1.00  0.00    -0.203 F 
ATOM     80  C   UNL A   1      46.782  35.020  30.026  1.00  0.00     0.198 A 
ATOM     81  C   UNL A   1      45.804  35.726  27.948  1.00  0.00     0.198 A 
ATOM     82  F   UNL A   1      44.334  34.297  26.793  1.00  0.00    -0.203 F 
ATOM     83  F   UNL A   1      47.557  35.274  31.089  1.00  0.00    -0.200 F 
ATOM     84  C   UNL A   1      46.626  35.980  29.036  1.00  0.00     0.200 A 
ATOM     85  F   UNL A   1      45.659  36.650  26.987  1.00  0.00    -0.200 F 
ATOM     86  F   UNL A   1      47.262  37.155  29.135  1.00  0.00    -0.200 F 
ENDBRANCH  53  76
ENDBRANCH  27  28
ENDBRANCH  20  22
ENDBRANCH  19  20
ENDBRANCH  18  19
ENDBRANCH   1  18
TORSDOF 15
ENDMDL
MODEL 2
REMARK VINA RESULT:     -10.8      5.177      8.996
REMARK SMILES CC[C@@H](C)[C@@H](NC(=O)C(F)(F)F)C(=O)OCCOC(=O)c1ccc(-c2c3nc(c(-c4c(F)c(F)c(F)c(F)c4F)c4ccc([nH]4)c(-c4c(F)c(F)c(F)c(F)c4F)c4nc(c(-c5c(F)c(F)c(F)c(F)c5F)c5ccc2[nH]5)C=C4)C=C3)cc1
REMARK SMILES IDX 16 1 15 2 13 3 14 4 5 5 3 6 4 7 2 8 1 9 6 10 7 11 8 13 9 14
REMARK SMILES IDX 10 15 11 16 12 17 17 18 18 19 19 20 20 21 21 22 22 23 83 24
REMARK SMILES IDX 23 25 82 26 24 27 25 28 26 29 76 30 27 31 81 32 75 33 77 34
REMARK SMILES IDX 28 35 80 36 74 37 73 38 29 40 61 41 41 42 60 43 42 44 45 45
REMARK SMILES IDX 59 46 78 47 43 48 44 49 58 51 79 52 46 53 30 54 31 55 39 56
REMARK SMILES IDX 32 57 33 58 37 59 40 60 34 61 35 62 38 63 36 64 62 65 63 66
REMARK SMILES IDX 71 67 64 68 65 69 69 70 72 71 66 72 67 73 70 74 68 75 47 76
REMARK SMILES IDX 48 77 56 78 49 79 50 80 54 81 57 82 51 83 52 84 55 85 53 86
REMARK H PARENT 6 12 77 39 45 50
REMARK Flexibility Score: inf
ROOT
ATOM      1  C   UNL A   1      33.095  33.813  27.893  1.00  0.00     0.274 C 
ENDROOT
BRANCH   1   2
ATOM      2  O   UNL A   1      32.654  34.348  29.157  1.00  0.00    -0.461 OA
BRANCH   2   3
ATOM      3  C   UNL A   1      33.284  35.474  29.578  1.00  0.00     0.329 C 
ATOM      4  O   UNL A   1      33.653  36.388  28.847  1.00  0.00    -0.250 OA
BRANCH   3   5
ATOM      5  C   UNL A   1      33.608  35.457  31.080  1.00  0.00     0.195 C 
BRANCH   5   6
ATOM      6  C   UNL A   1      32.801  36.397  32.033  1.00  0.00     0.019 C 
ATOM      7  C   UNL A   1      33.652  36.831  33.241  1.00  0.00     0.010 C 
BRANCH   6   8
ATOM      8  C   UNL A   1      31.525  35.665  32.542  1.00  0.00     0.002 C 
ATOM      9  C   UNL A   1      30.512  36.538  33.274  1.00  0.00     0.004 C 
ENDBRANCH   6   8
ENDBRANCH   5   6
BRANCH   5  10
ATOM     10  N   UNL A   1      33.872  34.111  31.633  1.00  0.00    -0.335 N 
ATOM     11  C   UNL A   1      34.986  33.312  31.715  1.00  0.00     0.326 C 
ATOM     12  H   UNL A   1      33.072  33.696  32.032  1.00  0.00     0.164 HD
ATOM     13  O   UNL A   1      34.766  32.146  32.074  1.00  0.00    -0.265 OA
BRANCH  11  14
ATOM     14  C   UNL A   1      36.425  33.829  31.480  1.00  0.00     0.471 C 
ATOM     15  F   UNL A   1      36.707  34.947  32.201  1.00  0.00    -0.162 F 
ATOM     16  F   UNL A   1      37.368  32.904  31.806  1.00  0.00    -0.162 F 
ATOM     17  F   UNL A   1      36.663  34.156  30.177  1.00  0.00    -0.162 F 
ENDBRANCH  11  14
ENDBRANCH   5  10
ENDBRANCH   3   5
ENDBRANCH   2   3
ENDBRANCH   1   2
BRANCH   1  18
ATOM     18  C   UNL A   1      34.433  33.088  28.024  1.00  0.00     0.275 C 
BRANCH  18  19
ATOM     19  O   UNL A   1      34.266  31.856  28.748  1.00  0.00    -0.458 OA
BRANCH  19  20
ATOM     20  C   UNL A   1      34.404  30.725  28.023  1.00  0.00     0.338 C 
ATOM     21  O   UNL A   1      33.615  30.232  27.238  1.00  0.00    -0.246 OA
BRANCH  20  22
ATOM     22  C   UNL A   1      35.734  30.157  28.267  1.00  0.00     0.060 A 
ATOM     23  C   UNL A   1      36.060  29.714  29.551  1.00  0.00     0.016 A 
ATOM     24  C   UNL A   1      36.693  30.181  27.257  1.00  0.00     0.016 A 
ATOM     25  C   UNL A   1      37.360  29.310  29.842  1.00  0.00     0.010 A 
ATOM     26  C   UNL A   1      37.992  29.759  27.542  1.00  0.00     0.010 A 
ATOM     27  C   UNL A   1      38.337  29.343  28.841  1.00  0.00    -0.014 A 
BRANCH  27  28
ATOM     28  C   UNL A   1      39.745  29.017  29.159  1.00  0.00     0.031 A 
ATOM     29  C   UNL A   1      40.595  30.035  29.859  1.00  0.00     0.074 A 
ATOM     30  C   UNL A   1      40.257  27.826  28.808  1.00  0.00     0.049 A 
ATOM     31  N   UNL A   1      41.884  30.031  30.078  1.00  0.00    -0.248 NA
ATOM     32  C   UNL A   1      39.897  31.221  30.382  1.00  0.00     0.031 C 
ATOM     33  C   UNL A   1      39.511  26.739  28.175  1.00  0.00     0.029 A 
ATOM     34  N   UNL A   1      41.535  27.339  28.920  1.00  0.00    -0.354 N 
ATOM     35  C   UNL A   1      42.158  31.222  30.735  1.00  0.00     0.074 A 
ATOM     36  C   UNL A   1      40.902  31.928  30.879  1.00  0.00     0.031 C 
ATOM     37  C   UNL A   1      40.349  25.717  27.936  1.00  0.00     0.029 A 
ATOM     38  C   UNL A   1      41.696  26.100  28.352  1.00  0.00     0.049 A 
ATOM     39  H   UNL A   1      42.264  27.831  29.362  1.00  0.00     0.167 HD
ATOM     40  C   UNL A   1      43.353  31.683  31.173  1.00  0.00     0.037 A 
ATOM     41  C   UNL A   1      42.814  25.377  28.153  1.00  0.00     0.037 A 
ATOM     42  C   UNL A   1      44.595  30.969  31.035  1.00  0.00     0.049 A 
ATOM     43  C   UNL A   1      44.137  25.933  28.600  1.00  0.00     0.074 A 
ATOM     44  C   UNL A   1      45.862  31.350  31.439  1.00  0.00     0.029 A 
ATOM     45  N   UNL A   1      44.720  29.719  30.447  1.00  0.00    -0.354 N 
ATOM     46  N   UNL A   1      44.397  27.075  29.190  1.00  0.00    -0.248 NA
ATOM     47  C   UNL A   1      45.324  25.105  28.345  1.00  0.00     0.031 C 
ATOM     48  C   UNL A   1      46.760  30.342  31.069  1.00  0.00     0.029 A 
ATOM     49  C   UNL A   1      46.046  29.318  30.467  1.00  0.00     0.049 A 
ATOM     50  H   UNL A   1      43.977  29.194  30.071  1.00  0.00     0.167 HD
ATOM     51  C   UNL A   1      45.771  27.099  29.387  1.00  0.00     0.074 A 
ATOM     52  C   UNL A   1      46.289  25.850  28.867  1.00  0.00     0.031 C 
ATOM     53  C   UNL A   1      46.536  28.068  29.945  1.00  0.00     0.037 A 
BRANCH  40  54
ATOM     54  C   UNL A   1      43.377  33.039  31.812  1.00  0.00     0.064 A 
ATOM     55  C   UNL A   1      43.279  33.200  33.200  1.00  0.00     0.173 A 
ATOM     56  C   UNL A   1      43.523  34.190  31.023  1.00  0.00     0.173 A 
ATOM     57  F   UNL A   1      43.118  32.131  33.994  1.00  0.00    -0.203 F 
ATOM     58  C   UNL A   1      43.307  34.467  33.777  1.00  0.00     0.198 A 
ATOM     59  C   UNL A   1      43.573  35.454  31.603  1.00  0.00     0.198 A 
ATOM     60  F   UNL A   1      43.621  34.087  29.689  1.00  0.00    -0.203 F 
ATOM     61  F   UNL A   1      43.172  34.602  35.103  1.00  0.00    -0.200 F 
ATOM     62  C   UNL A   1      43.459  35.592  32.979  1.00  0.00     0.200 A 
ATOM     63  F   UNL A   1      43.726  36.539  30.831  1.00  0.00    -0.200 F 
ATOM     64  F   UNL A   1      43.489  36.811  33.535  1.00  0.00    -0.200 F 
ENDBRANCH  40  54
BRANCH  41  65
ATOM     65  C   UNL A   1      42.728  24.066  27.465  1.00  0.00     0.064 A 
ATOM     66  C   UNL A   1      42.407  22.900  28.172  1.00  0.00     0.173 A 
ATOM     67  C   UNL A   1      42.957  23.953  26.085  1.00  0.00     0.173 A 
ATOM     68  F   UNL A   1      42.205  22.956  29.497  1.00  0.00    -0.203 F 
ATOM     69  C   UNL A   1      42.324  21.668  27.526  1.00  0.00     0.198 A 
ATOM     70  C   UNL A   1      42.850  22.725  25.437  1.00  0.00     0.198 A 
ATOM     71  F   UNL A   1      43.270  25.040  25.366  1.00  0.00    -0.203 F 
ATOM     72  F   UNL A   1      42.049  20.562  28.231  1.00  0.00    -0.200 F 
ATOM     73  C   UNL A   1      42.539  21.583  26.158  1.00  0.00     0.200 A 
ATOM     74  F   UNL A   1      43.049  22.649  24.114  1.00  0.00    -0.200 F 
ATOM     75  F   UNL A   1      42.453  20.399  25.537  1.00  0.00    -0.200 F 
ENDBRANCH  41  65
BRANCH  53  76
ATOM     76  C   UNL A   1      48.006  27.803  30.044  1.00  0.00     0.064 A 
ATOM     77  C   UNL A   1      48.891  28.203  29.032  1.00  0.00     0.173 A 
ATOM     78  C   UNL A   1      48.541  27.176  31.179  1.00  0.00     0.173 A 
ATOM     79  F   UNL A   1      48.423  28.792  27.921  1.00  0.00    -0.203 F 
ATOM     80  C   UNL A   1      50.258  27.969  29.145  1.00  0.00     0.198 A 
ATOM     81  C   UNL A   1      49.911  26.962  31.298  1.00  0.00     0.198 A 
ATOM     82  F   UNL A   1      47.734  26.780  32.175  1.00  0.00    -0.203 F 
ATOM     83  F   UNL A   1      51.083  28.326  28.151  1.00  0.00    -0.200 F 
ATOM     84  C   UNL A   1      50.767  27.354  30.280  1.00  0.00     0.200 A 
ATOM     85  F   UNL A   1      50.402  26.375  32.399  1.00  0.00    -0.200 F 
ATOM     86  F   UNL A   1      52.084  27.131  30.389  1.00  0.00    -0.200 F 
ENDBRANCH  53  76
ENDBRANCH  27  28
ENDBRANCH  20  22
ENDBRANCH  19  20
ENDBRANCH  18  19
ENDBRANCH   1  18
TORSDOF 15
ENDMDL
MODEL 3
REMARK VINA RESULT:     -10.7      4.866      9.975
REMARK SMILES CC[C@@H](C)[C@@H](NC(=O)C(F)(F)F)C(=O)OCCOC(=O)c1ccc(-c2c3nc(c(-c4c(F)c(F)c(F)c(F)c4F)c4ccc([nH]4)c(-c4c(F)c(F)c(F)c(F)c4F)c4nc(c(-c5c(F)c(F)c(F)c(F)c5F)c5ccc2[nH]5)C=C4)C=C3)cc1
REMARK SMILES IDX 16 1 15 2 13 3 14 4 5 5 3 6 4 7 2 8 1 9 6 10 7 11 8 13 9 14
REMARK SMILES IDX 10 15 11 16 12 17 17 18 18 19 19 20 20 21 21 22 22 23 83 24
REMARK SMILES IDX 23 25 82 26 24 27 25 28 26 29 76 30 27 31 81 32 75 33 77 34
REMARK SMILES IDX 28 35 80 36 74 37 73 38 29 40 61 41 41 42 60 43 42 44 45 45
REMARK SMILES IDX 59 46 78 47 43 48 44 49 58 51 79 52 46 53 30 54 31 55 39 56
REMARK SMILES IDX 32 57 33 58 37 59 40 60 34 61 35 62 38 63 36 64 62 65 63 66
REMARK SMILES IDX 71 67 64 68 65 69 69 70 72 71 66 72 67 73 70 74 68 75 47 76
REMARK SMILES IDX 48 77 56 78 49 79 50 80 54 81 57 82 51 83 52 84 55 85 53 86
REMARK H PARENT 6 12 77 39 45 50
REMARK Flexibility Score: inf
ROOT
ATOM      1  C   UNL A   1      31.784  28.379  27.256  1.00  0.00     0.274 C 
ENDROOT
BRANCH   1   2
ATOM      2  O   UNL A   1      32.022  27.556  26.097  1.00  0.00    -0.461 OA
BRANCH   2   3
ATOM      3  C   UNL A   1      30.975  26.800  25.680  1.00  0.00     0.329 C 
ATOM      4  O   UNL A   1      30.254  26.133  26.414  1.00  0.00    -0.250 OA
BRANCH   3   5
ATOM      5  C   UNL A   1      30.833  26.760  24.150  1.00  0.00     0.195 C 
BRANCH   5   6
ATOM      6  C   UNL A   1      31.535  25.608  23.361  1.00  0.00     0.019 C 
ATOM      7  C   UNL A   1      31.767  26.000  21.890  1.00  0.00     0.010 C 
BRANCH   6   8
ATOM      8  C   UNL A   1      30.661  24.320  23.416  1.00  0.00     0.002 C 
ATOM      9  C   UNL A   1      31.093  23.273  24.436  1.00  0.00     0.004 C 
ENDBRANCH   6   8
ENDBRANCH   5   6
BRANCH   5  10
ATOM     10  N   UNL A   1      29.483  27.104  23.653  1.00  0.00    -0.335 N 
ATOM     11  C   UNL A   1      28.896  28.262  23.203  1.00  0.00     0.326 C 
ATOM     12  H   UNL A   1      28.870  26.334  23.639  1.00  0.00     0.164 HD
ATOM     13  O   UNL A   1      27.666  28.202  23.059  1.00  0.00    -0.265 OA
BRANCH  11  14
ATOM     14  C   UNL A   1      29.696  29.524  22.804  1.00  0.00     0.471 C 
ATOM     15  F   UNL A   1      31.022  29.275  22.631  1.00  0.00    -0.162 F 
ATOM     16  F   UNL A   1      29.247  30.079  21.646  1.00  0.00    -0.162 F 
ATOM     17  F   UNL A   1      29.623  30.513  23.740  1.00  0.00    -0.162 F 
ENDBRANCH  11  14
ENDBRANCH   5  10
ENDBRANCH   3   5
ENDBRANCH   2   3
ENDBRANCH   1   2
BRANCH   1  18
ATOM     18  C   UNL A   1      31.751  29.863  26.896  1.00  0.00     0.275 C 
BRANCH  18  19
ATOM     19  O   UNL A   1      33.059  30.313  26.503  1.00  0.00    -0.458 OA
BRANCH  19  20
ATOM     20  C   UNL A   1      33.537  31.386  27.169  1.00  0.00     0.338 C 
ATOM     21  O   UNL A   1      32.996  32.461  27.352  1.00  0.00    -0.246 OA
BRANCH  20  22
ATOM     22  C   UNL A   1      34.850  31.056  27.733  1.00  0.00     0.060 A 
ATOM     23  C   UNL A   1      35.118  29.738  28.108  1.00  0.00     0.016 A 
ATOM     24  C   UNL A   1      35.762  32.074  28.005  1.00  0.00     0.016 A 
ATOM     25  C   UNL A   1      36.297  29.429  28.780  1.00  0.00     0.010 A 
ATOM     26  C   UNL A   1      36.952  31.762  28.662  1.00  0.00     0.010 A 
ATOM     27  C   UNL A   1      37.215  30.442  29.073  1.00  0.00    -0.014 A 
BRANCH  27  28
ATOM     28  C   UNL A   1      38.422  30.150  29.877  1.00  0.00     0.031 A 
ATOM     29  C   UNL A   1      39.472  29.236  29.320  1.00  0.00     0.074 A 
ATOM     30  C   UNL A   1      38.565  30.687  31.100  1.00  0.00     0.049 A 
ATOM     31  N   UNL A   1      40.513  28.710  29.911  1.00  0.00    -0.248 NA
ATOM     32  C   UNL A   1      39.328  28.861  27.903  1.00  0.00     0.031 C 
ATOM     33  C   UNL A   1      37.638  31.632  31.721  1.00  0.00     0.029 A 
ATOM     34  N   UNL A   1      39.539  30.498  32.047  1.00  0.00    -0.354 N 
ATOM     35  C   UNL A   1      41.131  27.919  28.952  1.00  0.00     0.074 A 
ATOM     36  C   UNL A   1      40.349  28.032  27.739  1.00  0.00     0.031 C 
ATOM     37  C   UNL A   1      38.078  31.927  32.955  1.00  0.00     0.029 A 
ATOM     38  C   UNL A   1      39.286  31.152  33.226  1.00  0.00     0.049 A 
ATOM     39  H   UNL A   1      40.340  29.946  31.895  1.00  0.00     0.167 HD
ATOM     40  C   UNL A   1      42.249  27.166  29.078  1.00  0.00     0.037 A 
ATOM     41  C   UNL A   1      39.935  31.097  34.404  1.00  0.00     0.037 A 
ATOM     42  C   UNL A   1      43.026  27.068  30.286  1.00  0.00     0.049 A 
ATOM     43  C   UNL A   1      41.142  30.212  34.537  1.00  0.00     0.074 A 
ATOM     44  C   UNL A   1      44.171  26.329  30.521  1.00  0.00     0.029 A 
ATOM     45  N   UNL A   1      42.733  27.740  31.464  1.00  0.00    -0.354 N 
ATOM     46  N   UNL A   1      41.703  29.439  33.638  1.00  0.00    -0.248 NA
ATOM     47  C   UNL A   1      41.801  30.182  35.850  1.00  0.00     0.031 C 
ATOM     48  C   UNL A   1      44.555  26.530  31.851  1.00  0.00     0.029 A 
ATOM     49  C   UNL A   1      43.670  27.424  32.433  1.00  0.00     0.049 A 
ATOM     50  H   UNL A   1      41.972  28.352  31.591  1.00  0.00     0.167 HD
ATOM     51  C   UNL A   1      42.785  28.841  34.270  1.00  0.00     0.074 A 
ATOM     52  C   UNL A   1      42.811  29.352  35.625  1.00  0.00     0.031 C 
ATOM     53  C   UNL A   1      43.676  27.948  33.775  1.00  0.00     0.037 A 
BRANCH  40  54
ATOM     54  C   UNL A   1      42.675  26.360  27.889  1.00  0.00     0.064 A 
ATOM     55  C   UNL A   1      43.613  26.847  26.968  1.00  0.00     0.173 A 
ATOM     56  C   UNL A   1      42.155  25.074  27.681  1.00  0.00     0.173 A 
ATOM     57  F   UNL A   1      44.125  28.079  27.114  1.00  0.00    -0.203 F 
ATOM     58  C   UNL A   1      44.001  26.083  25.870  1.00  0.00     0.198 A 
ATOM     59  C   UNL A   1      42.560  24.304  26.595  1.00  0.00     0.198 A 
ATOM     60  F   UNL A   1      41.254  24.564  28.535  1.00  0.00    -0.203 F 
ATOM     61  F   UNL A   1      44.869  26.583  24.981  1.00  0.00    -0.200 F 
ATOM     62  C   UNL A   1      43.479  24.811  25.688  1.00  0.00     0.200 A 
ATOM     63  F   UNL A   1      42.059  23.072  26.425  1.00  0.00    -0.200 F 
ATOM     64  F   UNL A   1      43.855  24.075  24.633  1.00  0.00    -0.200 F 
ENDBRANCH  40  54
BRANCH  41  65
ATOM     65  C   UNL A   1      39.427  31.878  35.559  1.00  0.00     0.064 A 
ATOM     66  C   UNL A   1      38.491  31.329  36.445  1.00  0.00     0.173 A 
ATOM     67  C   UNL A   1      39.873  33.185  35.804  1.00  0.00     0.173 A 
ATOM     68  F   UNL A   1      38.017  30.091  36.235  1.00  0.00    -0.203 F 
ATOM     69  C   UNL A   1      38.015  32.061  37.531  1.00  0.00     0.198 A 
ATOM     70  C   UNL A   1      39.414  33.907  36.903  1.00  0.00     0.198 A 
ATOM     71  F   UNL A   1      40.766  33.755  34.983  1.00  0.00    -0.203 F 
ATOM     72  F   UNL A   1      37.094  31.526  38.344  1.00  0.00    -0.200 F 
ATOM     73  C   UNL A   1      38.481  33.347  37.763  1.00  0.00     0.200 A 
ATOM     74  F   UNL A   1      39.875  35.145  37.129  1.00  0.00    -0.200 F 
ATOM     75  F   UNL A   1      38.027  34.047  38.811  1.00  0.00    -0.200 F 
ENDBRANCH  41  65
BRANCH  53  76
ATOM     76  C   UNL A   1      44.764  27.489  34.696  1.00  0.00     0.064 A 
ATOM     77  C   UNL A   1      45.974  28.189  34.803  1.00  0.00     0.173 A 
ATOM     78  C   UNL A   1      44.580  26.359  35.506  1.00  0.00     0.173 A 
ATOM     79  F   UNL A   1      46.200  29.267  34.036  1.00  0.00    -0.203 F 
ATOM     80  C   UNL A   1      46.970  27.764  35.677  1.00  0.00     0.198 A 
ATOM     81  C   UNL A   1      45.569  25.947  36.393  1.00  0.00     0.198 A 
ATOM     82  F   UNL A   1      43.437  25.660  35.440  1.00  0.00    -0.203 F 
ATOM     83  F   UNL A   1      48.133  28.425  35.739  1.00  0.00    -0.200 F 
ATOM     84  C   UNL A   1      46.765  26.647  36.475  1.00  0.00     0.200 A 
ATOM     85  F   UNL A   1      45.367  24.873  37.169  1.00  0.00    -0.200 F 
ATOM     86  F   UNL A   1      47.723  26.239  37.318  1.00  0.00    -0.200 F 
ENDBRANCH  53  76
ENDBRANCH  27  28
ENDBRANCH  20  22
ENDBRANCH  19  20
ENDBRANCH  18  19
ENDBRANCH   1  18
TORSDOF 15
ENDMDL
