MODEL 1
REMARK VINA RESULT:     -11.9      0.000      0.000
REMARK SMILES CC(C)(C)OC(=O)N1C[C@H](Oc2ccncc2)C[C@H]1C(=O)OCCOC(=O)c1ccc(-c2c3nc(c(-c4c(F)c(F)c(F)c(F)c4F)c4ccc([nH]4)c(-c4c(F)c(F)c(F)c(F)c4F)c4nc(c(-c5c(F)c(F)c(F)c(F)c5F)c5ccc2[nH]5)C=C4)C=C3)cc1
REMARK SMILES IDX 23 1 22 2 20 3 21 4 19 5 8 6 9 7 10 8 18 9 6 10 7 11 5 12
REMARK SMILES IDX 2 13 1 14 3 15 4 16 11 17 12 18 13 19 17 20 14 21 16 22
REMARK SMILES IDX 15 23 24 24 25 25 26 26 27 27 28 28 29 29 90 30 30 31 89 32
REMARK SMILES IDX 31 33 32 34 33 35 83 36 34 37 88 38 82 39 84 40 35 41 87 42
REMARK SMILES IDX 81 43 80 44 36 46 68 47 48 48 67 49 49 50 52 51 66 52 85 53
REMARK SMILES IDX 50 54 51 55 65 57 86 58 53 59 37 60 38 61 46 62 39 63 40 64
REMARK SMILES IDX 44 65 47 66 41 67 42 68 45 69 43 70 69 71 70 72 78 73 71 74
REMARK SMILES IDX 72 75 76 76 79 77 73 78 74 79 77 80 75 81 54 82 55 83 63 84
REMARK SMILES IDX 56 85 57 86 61 87 64 88 58 89 59 90 62 91 60 92
REMARK H PARENT 84 45 52 56
REMARK Flexibility Score: inf
ROOT
ATOM      1  C   UNL A   1      36.525  23.120  24.250  1.00  0.00     0.274 C 
ENDROOT
BRANCH   1   2
ATOM      2  O   UNL A   1      35.092  23.014  24.370  1.00  0.00    -0.461 OA
BRANCH   2   3
ATOM      3  C   UNL A   1      34.633  22.894  25.649  1.00  0.00     0.329 C 
ATOM      4  O   UNL A   1      34.940  23.652  26.563  1.00  0.00    -0.250 OA
BRANCH   3   5
ATOM      5  C   UNL A   1      33.651  21.715  25.785  1.00  0.00     0.202 C 
ATOM      6  N   UNL A   1      32.299  22.140  25.418  1.00  0.00    -0.291 N 
ATOM      7  C   UNL A   1      31.800  21.463  24.238  1.00  0.00     0.169 C 
ATOM      8  C   UNL A   1      32.627  20.184  24.166  1.00  0.00     0.195 C 
ATOM      9  C   UNL A   1      33.967  20.551  24.832  1.00  0.00     0.084 C 
BRANCH   6  10
ATOM     10  C   UNL A   1      31.600  22.997  26.230  1.00  0.00     0.411 C 
ATOM     11  O   UNL A   1      31.701  22.989  27.441  1.00  0.00    -0.224 OA
BRANCH  10  12
ATOM     12  O   UNL A   1      30.771  23.791  25.509  1.00  0.00    -0.444 OA
BRANCH  12  13
ATOM     13  C   UNL A   1      31.150  25.136  25.121  1.00  0.00     0.106 C 
ATOM     14  C   UNL A   1      29.887  25.973  25.368  1.00  0.00     0.056 C 
ATOM     15  C   UNL A   1      31.482  25.129  23.629  1.00  0.00     0.056 C 
ATOM     16  C   UNL A   1      32.291  25.745  25.946  1.00  0.00     0.056 C 
ENDBRANCH  12  13
ENDBRANCH  10  12
ENDBRANCH   6  10
BRANCH   8  17
ATOM     17  O   UNL A   1      31.979  19.011  24.697  1.00  0.00    -0.488 OA
BRANCH  17  18
ATOM     18  C   UNL A   1      32.687  17.845  24.651  1.00  0.00     0.122 A 
ATOM     19  C   UNL A   1      33.364  17.449  23.505  1.00  0.00     0.066 A 
ATOM     20  C   UNL A   1      32.801  17.096  25.813  1.00  0.00     0.066 A 
ATOM     21  C   UNL A   1      34.026  16.236  23.529  1.00  0.00     0.115 A 
ATOM     22  C   UNL A   1      33.512  15.911  25.746  1.00  0.00     0.115 A 
ATOM     23  N   UNL A   1      34.106  15.452  24.624  1.00  0.00    -0.264 NA
ENDBRANCH  17  18
ENDBRANCH   8  17
ENDBRANCH   3   5
ENDBRANCH   2   3
ENDBRANCH   1   2
BRANCH   1  24
ATOM     24  C   UNL A   1      37.231  21.790  24.520  1.00  0.00     0.275 C 
BRANCH  24  25
ATOM     25  O   UNL A   1      37.620  21.673  25.902  1.00  0.00    -0.458 OA
BRANCH  25  26
ATOM     26  C   UNL A   1      38.939  21.476  26.122  1.00  0.00     0.338 C 
ATOM     27  O   UNL A   1      39.612  20.507  25.815  1.00  0.00    -0.246 OA
BRANCH  26  28
ATOM     28  C   UNL A   1      39.536  22.680  26.721  1.00  0.00     0.060 A 
ATOM     29  C   UNL A   1      39.085  23.923  26.291  1.00  0.00     0.016 A 
ATOM     30  C   UNL A   1      40.645  22.595  27.558  1.00  0.00     0.016 A 
ATOM     31  C   UNL A   1      39.774  25.081  26.624  1.00  0.00     0.010 A 
ATOM     32  C   UNL A   1      41.289  23.773  27.966  1.00  0.00     0.010 A 
ATOM     33  C   UNL A   1      40.875  25.027  27.480  1.00  0.00    -0.014 A 
BRANCH  33  34
ATOM     34  C   UNL A   1      41.607  26.283  27.800  1.00  0.00     0.031 A 
ATOM     35  C   UNL A   1      40.950  27.335  28.648  1.00  0.00     0.074 A 
ATOM     36  C   UNL A   1      42.880  26.457  27.391  1.00  0.00     0.049 A 
ATOM     37  N   UNL A   1      41.332  28.563  28.890  1.00  0.00    -0.248 NA
ATOM     38  C   UNL A   1      39.694  26.955  29.314  1.00  0.00     0.031 C 
ATOM     39  C   UNL A   1      43.678  25.475  26.654  1.00  0.00     0.029 A 
ATOM     40  N   UNL A   1      43.733  27.523  27.544  1.00  0.00    -0.354 N 
ATOM     41  C   UNL A   1      40.336  29.120  29.682  1.00  0.00     0.074 A 
ATOM     42  C   UNL A   1      39.337  28.094  29.889  1.00  0.00     0.031 C 
ATOM     43  C   UNL A   1      44.905  25.972  26.443  1.00  0.00     0.029 A 
ATOM     44  C   UNL A   1      44.949  27.346  26.930  1.00  0.00     0.049 A 
ATOM     45  H   UNL A   1      43.495  28.337  28.047  1.00  0.00     0.167 HD
ATOM     46  C   UNL A   1      40.264  30.378  30.179  1.00  0.00     0.037 A 
ATOM     47  C   UNL A   1      45.960  28.210  26.720  1.00  0.00     0.037 A 
ATOM     48  C   UNL A   1      41.288  31.376  30.005  1.00  0.00     0.049 A 
ATOM     49  C   UNL A   1      45.819  29.625  27.209  1.00  0.00     0.074 A 
ATOM     50  C   UNL A   1      41.311  32.680  30.466  1.00  0.00     0.029 A 
ATOM     51  N   UNL A   1      42.479  31.174  29.321  1.00  0.00    -0.354 N 
ATOM     52  N   UNL A   1      44.843  30.172  27.891  1.00  0.00    -0.248 NA
ATOM     53  C   UNL A   1      46.911  30.550  26.877  1.00  0.00     0.031 C 
ATOM     54  C   UNL A   1      42.491  33.282  30.018  1.00  0.00     0.029 A 
ATOM     55  C   UNL A   1      43.232  32.336  29.328  1.00  0.00     0.049 A 
ATOM     56  H   UNL A   1      42.749  30.328  28.894  1.00  0.00     0.167 HD
ATOM     57  C   UNL A   1      45.209  31.497  28.086  1.00  0.00     0.074 A 
ATOM     58  C   UNL A   1      46.507  31.667  27.467  1.00  0.00     0.031 C 
ATOM     59  C   UNL A   1      44.529  32.485  28.717  1.00  0.00     0.037 A 
BRANCH  46  60
ATOM     60  C   UNL A   1      39.010  30.769  30.906  1.00  0.00     0.064 A 
ATOM     61  C   UNL A   1      38.898  30.697  32.301  1.00  0.00     0.173 A 
ATOM     62  C   UNL A   1      37.909  31.258  30.184  1.00  0.00     0.173 A 
ATOM     63  F   UNL A   1      39.914  30.222  33.037  1.00  0.00    -0.203 F 
ATOM     64  C   UNL A   1      37.721  31.076  32.944  1.00  0.00     0.198 A 
ATOM     65  C   UNL A   1      36.746  31.665  30.833  1.00  0.00     0.198 A 
ATOM     66  F   UNL A   1      37.964  31.352  28.847  1.00  0.00    -0.203 F 
ATOM     67  F   UNL A   1      37.618  30.952  34.275  1.00  0.00    -0.200 F 
ATOM     68  C   UNL A   1      36.650  31.565  32.211  1.00  0.00     0.200 A 
ATOM     69  F   UNL A   1      35.718  32.150  30.123  1.00  0.00    -0.200 F 
ATOM     70  F   UNL A   1      35.522  31.935  32.833  1.00  0.00    -0.200 F 
ENDBRANCH  46  60
BRANCH  47  71
ATOM     71  C   UNL A   1      47.157  27.783  25.948  1.00  0.00     0.064 A 
ATOM     72  C   UNL A   1      47.164  27.804  24.547  1.00  0.00     0.173 A 
ATOM     73  C   UNL A   1      48.318  27.331  26.596  1.00  0.00     0.173 A 
ATOM     74  F   UNL A   1      46.070  28.199  23.879  1.00  0.00    -0.203 F 
ATOM     75  C   UNL A   1      48.278  27.376  23.825  1.00  0.00     0.198 A 
ATOM     76  C   UNL A   1      49.443  26.940  25.876  1.00  0.00     0.198 A 
ATOM     77  F   UNL A   1      48.365  27.284  27.936  1.00  0.00    -0.203 F 
ATOM     78  F   UNL A   1      48.238  27.359  22.486  1.00  0.00    -0.200 F 
ATOM     79  C   UNL A   1      49.419  26.953  24.490  1.00  0.00     0.200 A 
ATOM     80  F   UNL A   1      50.548  26.547  26.524  1.00  0.00    -0.200 F 
ATOM     81  F   UNL A   1      50.492  26.550  23.795  1.00  0.00    -0.200 F 
ENDBRANCH  47  71
BRANCH  59  82
ATOM     82  C   UNL A   1      45.194  33.826  28.809  1.00  0.00     0.064 A 
ATOM     83  C   UNL A   1      45.044  34.795  27.807  1.00  0.00     0.173 A 
ATOM     84  C   UNL A   1      45.960  34.159  29.937  1.00  0.00     0.173 A 
ATOM     85  F   UNL A   1      44.336  34.519  26.701  1.00  0.00    -0.203 F 
ATOM     86  C   UNL A   1      45.655  36.041  27.920  1.00  0.00     0.198 A 
ATOM     87  C   UNL A   1      46.543  35.416  30.061  1.00  0.00     0.198 A 
ATOM     88  F   UNL A   1      46.130  33.269  30.926  1.00  0.00    -0.203 F 
ATOM     89  F   UNL A   1      45.538  36.935  26.929  1.00  0.00    -0.200 F 
ATOM     90  C   UNL A   1      46.397  36.354  29.049  1.00  0.00     0.200 A 
ATOM     91  F   UNL A   1      47.248  35.721  31.160  1.00  0.00    -0.200 F 
ATOM     92  F   UNL A   1      46.977  37.557  29.160  1.00  0.00    -0.200 F 
ENDBRANCH  59  82
ENDBRANCH  33  34
ENDBRANCH  26  28
ENDBRANCH  25  26
ENDBRANCH  24  25
ENDBRANCH   1  24
TORSDOF 16
ENDMDL
MODEL 2
REMARK VINA RESULT:     -11.7      4.531      9.708
REMARK SMILES CC(C)(C)OC(=O)N1C[C@H](Oc2ccncc2)C[C@H]1C(=O)OCCOC(=O)c1ccc(-c2c3nc(c(-c4c(F)c(F)c(F)c(F)c4F)c4ccc([nH]4)c(-c4c(F)c(F)c(F)c(F)c4F)c4nc(c(-c5c(F)c(F)c(F)c(F)c5F)c5ccc2[nH]5)C=C4)C=C3)cc1
REMARK SMILES IDX 23 1 22 2 20 3 21 4 19 5 8 6 9 7 10 8 18 9 6 10 7 11 5 12
REMARK SMILES IDX 2 13 1 14 3 15 4 16 11 17 12 18 13 19 17 20 14 21 16 22
REMARK SMILES IDX 15 23 24 24 25 25 26 26 27 27 28 28 29 29 90 30 30 31 89 32
REMARK SMILES IDX 31 33 32 34 33 35 83 36 34 37 88 38 82 39 84 40 35 41 87 42
REMARK SMILES IDX 81 43 80 44 36 46 68 47 48 48 67 49 49 50 52 51 66 52 85 53
REMARK SMILES IDX 50 54 51 55 65 57 86 58 53 59 37 60 38 61 46 62 39 63 40 64
REMARK SMILES IDX 44 65 47 66 41 67 42 68 45 69 43 70 69 71 70 72 78 73 71 74
REMARK SMILES IDX 72 75 76 76 79 77 73 78 74 79 77 80 75 81 54 82 55 83 63 84
REMARK SMILES IDX 56 85 57 86 61 87 64 88 58 89 59 90 62 91 60 92
REMARK H PARENT 84 45 52 56
REMARK Flexibility Score: inf
ROOT
ATOM      1  C   UNL A   1      31.832  28.877  27.235  1.00  0.00     0.274 C 
ENDROOT
BRANCH   1   2
ATOM      2  O   UNL A   1      32.161  28.017  26.126  1.00  0.00    -0.461 OA
BRANCH   2   3
ATOM      3  C   UNL A   1      31.420  26.874  26.050  1.00  0.00     0.329 C 
ATOM      4  O   UNL A   1      30.547  26.567  26.855  1.00  0.00    -0.250 OA
BRANCH   3   5
ATOM      5  C   UNL A   1      31.791  26.045  24.807  1.00  0.00     0.202 C 
ATOM      6  N   UNL A   1      31.463  26.787  23.589  1.00  0.00    -0.291 N 
ATOM      7  C   UNL A   1      32.634  27.127  22.807  1.00  0.00     0.169 C 
ATOM      8  C   UNL A   1      33.681  26.109  23.245  1.00  0.00     0.195 C 
ATOM      9  C   UNL A   1      33.298  25.761  24.697  1.00  0.00     0.084 C 
BRANCH   6  10
ATOM     10  C   UNL A   1      30.153  26.990  23.235  1.00  0.00     0.411 C 
ATOM     11  O   UNL A   1      29.242  26.304  23.656  1.00  0.00    -0.224 OA
BRANCH  10  12
ATOM     12  O   UNL A   1      30.035  28.000  22.339  1.00  0.00    -0.444 OA
BRANCH  12  13
ATOM     13  C   UNL A   1      29.299  29.211  22.647  1.00  0.00     0.106 C 
ATOM     14  C   UNL A   1      29.487  30.096  21.408  1.00  0.00     0.056 C 
ATOM     15  C   UNL A   1      29.950  29.873  23.860  1.00  0.00     0.056 C 
ATOM     16  C   UNL A   1      27.793  29.009  22.859  1.00  0.00     0.056 C 
ENDBRANCH  12  13
ENDBRANCH  10  12
ENDBRANCH   6  10
BRANCH   8  17
ATOM     17  O   UNL A   1      33.839  24.980  22.364  1.00  0.00    -0.488 OA
BRANCH  17  18
ATOM     18  C   UNL A   1      33.832  23.744  22.943  1.00  0.00     0.122 A 
ATOM     19  C   UNL A   1      32.738  22.895  22.835  1.00  0.00     0.066 A 
ATOM     20  C   UNL A   1      34.988  23.301  23.568  1.00  0.00     0.066 A 
ATOM     21  C   UNL A   1      32.797  21.676  23.482  1.00  0.00     0.115 A 
ATOM     22  C   UNL A   1      34.961  22.051  24.159  1.00  0.00     0.115 A 
ATOM     23  N   UNL A   1      33.882  21.238  24.152  1.00  0.00    -0.264 NA
ENDBRANCH  17  18
ENDBRANCH   8  17
ENDBRANCH   3   5
ENDBRANCH   2   3
ENDBRANCH   1   2
BRANCH   1  24
ATOM     24  C   UNL A   1      31.830  30.356  26.843  1.00  0.00     0.275 C 
BRANCH  24  25
ATOM     25  O   UNL A   1      33.157  30.817  26.527  1.00  0.00    -0.458 OA
BRANCH  25  26
ATOM     26  C   UNL A   1      33.632  31.810  27.312  1.00  0.00     0.338 C 
ATOM     27  O   UNL A   1      33.064  32.835  27.646  1.00  0.00    -0.246 OA
BRANCH  26  28
ATOM     28  C   UNL A   1      34.959  31.450  27.835  1.00  0.00     0.060 A 
ATOM     29  C   UNL A   1      35.162  30.147  28.276  1.00  0.00     0.016 A 
ATOM     30  C   UNL A   1      35.934  32.418  28.058  1.00  0.00     0.016 A 
ATOM     31  C   UNL A   1      36.295  29.814  29.005  1.00  0.00     0.010 A 
ATOM     32  C   UNL A   1      37.119  32.061  28.719  1.00  0.00     0.010 A 
ATOM     33  C   UNL A   1      37.299  30.759  29.224  1.00  0.00    -0.014 A 
BRANCH  33  34
ATOM     34  C   UNL A   1      38.491  30.379  30.030  1.00  0.00     0.031 A 
ATOM     35  C   UNL A   1      39.539  29.482  29.435  1.00  0.00     0.074 A 
ATOM     36  C   UNL A   1      38.671  30.884  31.267  1.00  0.00     0.049 A 
ATOM     37  N   UNL A   1      40.549  28.887  30.017  1.00  0.00    -0.248 NA
ATOM     38  C   UNL A   1      39.439  29.219  27.991  1.00  0.00     0.031 C 
ATOM     39  C   UNL A   1      37.790  31.850  31.927  1.00  0.00     0.029 A 
ATOM     40  N   UNL A   1      39.665  30.663  32.189  1.00  0.00    -0.354 N 
ATOM     41  C   UNL A   1      41.166  28.132  29.027  1.00  0.00     0.074 A 
ATOM     42  C   UNL A   1      40.423  28.351  27.805  1.00  0.00     0.031 C 
ATOM     43  C   UNL A   1      38.293  32.155  33.132  1.00  0.00     0.029 A 
ATOM     44  C   UNL A   1      39.469  31.327  33.376  1.00  0.00     0.049 A 
ATOM     45  H   UNL A   1      40.442  30.083  32.016  1.00  0.00     0.167 HD
ATOM     46  C   UNL A   1      42.246  27.324  29.138  1.00  0.00     0.037 A 
ATOM     47  C   UNL A   1      40.119  31.234  34.551  1.00  0.00     0.037 A 
ATOM     48  C   UNL A   1      43.005  27.151  30.351  1.00  0.00     0.049 A 
ATOM     49  C   UNL A   1      41.264  30.266  34.673  1.00  0.00     0.074 A 
ATOM     50  C   UNL A   1      44.115  26.354  30.569  1.00  0.00     0.029 A 
ATOM     51  N   UNL A   1      42.735  27.797  31.550  1.00  0.00    -0.354 N 
ATOM     52  N   UNL A   1      41.797  29.495  33.757  1.00  0.00    -0.248 NA
ATOM     53  C   UNL A   1      41.882  30.137  36.000  1.00  0.00     0.031 C 
ATOM     54  C   UNL A   1      44.485  26.478  31.912  1.00  0.00     0.029 A 
ATOM     55  C   UNL A   1      43.643  27.398  32.517  1.00  0.00     0.049 A 
ATOM     56  H   UNL A   1      42.006  28.443  31.691  1.00  0.00     0.167 HD
ATOM     57  C   UNL A   1      42.823  28.805  34.388  1.00  0.00     0.074 A 
ATOM     58  C   UNL A   1      42.850  29.262  35.762  1.00  0.00     0.031 C 
ATOM     59  C   UNL A   1      43.663  27.872  33.877  1.00  0.00     0.037 A 
BRANCH  46  60
ATOM     60  C   UNL A   1      42.639  26.515  27.936  1.00  0.00     0.064 A 
ATOM     61  C   UNL A   1      42.099  25.248  27.675  1.00  0.00     0.173 A 
ATOM     62  C   UNL A   1      43.554  27.041  27.010  1.00  0.00     0.173 A 
ATOM     63  F   UNL A   1      41.233  24.692  28.535  1.00  0.00    -0.203 F 
ATOM     64  C   UNL A   1      42.481  24.528  26.545  1.00  0.00     0.198 A 
ATOM     65  C   UNL A   1      43.909  26.331  25.866  1.00  0.00     0.198 A 
ATOM     66  F   UNL A   1      44.098  28.251  27.210  1.00  0.00    -0.203 F 
ATOM     67  F   UNL A   1      41.989  23.297  26.340  1.00  0.00    -0.200 F 
ATOM     68  C   UNL A   1      43.378  25.072  25.639  1.00  0.00     0.200 A 
ATOM     69  F   UNL A   1      44.767  26.866  24.987  1.00  0.00    -0.200 F 
ATOM     70  F   UNL A   1      43.738  24.380  24.549  1.00  0.00    -0.200 F 
ENDBRANCH  46  60
BRANCH  47  71
ATOM     71  C   UNL A   1      39.655  32.020  35.725  1.00  0.00     0.064 A 
ATOM     72  C   UNL A   1      38.630  31.548  36.556  1.00  0.00     0.173 A 
ATOM     73  C   UNL A   1      40.218  33.269  36.033  1.00  0.00     0.173 A 
ATOM     74  F   UNL A   1      38.039  30.375  36.289  1.00  0.00    -0.203 F 
ATOM     75  C   UNL A   1      38.177  32.300  37.639  1.00  0.00     0.198 A 
ATOM     76  C   UNL A   1      39.791  34.002  37.137  1.00  0.00     0.198 A 
ATOM     77  F   UNL A   1      41.198  33.772  35.268  1.00  0.00    -0.203 F 
ATOM     78  F   UNL A   1      37.161  31.849  38.387  1.00  0.00    -0.200 F 
ATOM     79  C   UNL A   1      38.764  33.522  37.934  1.00  0.00     0.200 A 
ATOM     80  F   UNL A   1      40.372  35.175  37.425  1.00  0.00    -0.200 F 
ATOM     81  F   UNL A   1      38.333  34.241  38.980  1.00  0.00    -0.200 F 
ENDBRANCH  47  71
BRANCH  59  82
ATOM     82  C   UNL A   1      44.712  27.316  34.795  1.00  0.00     0.064 A 
ATOM     83  C   UNL A   1      45.980  27.905  34.909  1.00  0.00     0.173 A 
ATOM     84  C   UNL A   1      44.429  26.202  35.598  1.00  0.00     0.173 A 
ATOM     85  F   UNL A   1      46.305  28.961  34.149  1.00  0.00    -0.203 F 
ATOM     86  C   UNL A   1      46.933  27.384  35.780  1.00  0.00     0.198 A 
ATOM     87  C   UNL A   1      45.373  25.703  36.490  1.00  0.00     0.198 A 
ATOM     88  F   UNL A   1      43.229  25.606  35.530  1.00  0.00    -0.203 F 
ATOM     89  F   UNL A   1      48.154  27.933  35.839  1.00  0.00    -0.200 F 
ATOM     90  C   UNL A   1      46.628  26.290  36.575  1.00  0.00     0.200 A 
ATOM     91  F   UNL A   1      45.071  24.655  37.269  1.00  0.00    -0.200 F 
ATOM     92  F   UNL A   1      47.544  25.796  37.419  1.00  0.00    -0.200 F 
ENDBRANCH  59  82
ENDBRANCH  33  34
ENDBRANCH  26  28
ENDBRANCH  25  26
ENDBRANCH  24  25
ENDBRANCH   1  24
TORSDOF 16
ENDMDL
MODEL 3
REMARK VINA RESULT:     -11.7      0.362      1.697
REMARK SMILES CC(C)(C)OC(=O)N1C[C@H](Oc2ccncc2)C[C@H]1C(=O)OCCOC(=O)c1ccc(-c2c3nc(c(-c4c(F)c(F)c(F)c(F)c4F)c4ccc([nH]4)c(-c4c(F)c(F)c(F)c(F)c4F)c4nc(c(-c5c(F)c(F)c(F)c(F)c5F)c5ccc2[nH]5)C=C4)C=C3)cc1
REMARK SMILES IDX 23 1 22 2 20 3 21 4 19 5 8 6 9 7 10 8 18 9 6 10 7 11 5 12
REMARK SMILES IDX 2 13 1 14 3 15 4 16 11 17 12 18 13 19 17 20 14 21 16 22
REMARK SMILES IDX 15 23 24 24 25 25 26 26 27 27 28 28 29 29 90 30 30 31 89 32
REMARK SMILES IDX 31 33 32 34 33 35 83 36 34 37 88 38 82 39 84 40 35 41 87 42
REMARK SMILES IDX 81 43 80 44 36 46 68 47 48 48 67 49 49 50 52 51 66 52 85 53
REMARK SMILES IDX 50 54 51 55 65 57 86 58 53 59 37 60 38 61 46 62 39 63 40 64
REMARK SMILES IDX 44 65 47 66 41 67 42 68 45 69 43 70 69 71 70 72 78 73 71 74
REMARK SMILES IDX 72 75 76 76 79 77 73 78 74 79 77 80 75 81 54 82 55 83 63 84
REMARK SMILES IDX 56 85 57 86 61 87 64 88 58 89 59 90 62 91 60 92
REMARK H PARENT 84 45 52 56
REMARK Flexibility Score: inf
ROOT
ATOM      1  C   UNL A   1      36.823  22.967  23.931  1.00  0.00     0.274 C 
ENDROOT
BRANCH   1   2
ATOM      2  O   UNL A   1      35.383  23.023  23.898  1.00  0.00    -0.461 OA
BRANCH   2   3
ATOM      3  C   UNL A   1      34.788  23.143  25.119  1.00  0.00     0.329 C 
ATOM      4  O   UNL A   1      35.032  24.042  25.917  1.00  0.00    -0.250 OA
BRANCH   3   5
ATOM      5  C   UNL A   1      33.744  22.033  25.347  1.00  0.00     0.202 C 
ATOM      6  N   UNL A   1      32.469  22.408  24.733  1.00  0.00    -0.291 N 
ATOM      7  C   UNL A   1      32.089  21.527  23.647  1.00  0.00     0.169 C 
ATOM      8  C   UNL A   1      32.859  20.241  23.926  1.00  0.00     0.195 C 
ATOM      9  C   UNL A   1      34.122  20.701  24.679  1.00  0.00     0.084 C 
BRANCH   6  10
ATOM     10  C   UNL A   1      31.715  23.420  25.270  1.00  0.00     0.411 C 
ATOM     11  O   UNL A   1      31.489  23.515  26.461  1.00  0.00    -0.224 OA
BRANCH  10  12
ATOM     12  O   UNL A   1      31.233  24.241  24.304  1.00  0.00    -0.444 OA
BRANCH  12  13
ATOM     13  C   UNL A   1      31.407  25.679  24.369  1.00  0.00     0.106 C 
ATOM     14  C   UNL A   1      30.015  26.215  24.729  1.00  0.00     0.056 C 
ATOM     15  C   UNL A   1      31.810  26.176  22.981  1.00  0.00     0.056 C 
ATOM     16  C   UNL A   1      32.392  26.159  25.443  1.00  0.00     0.056 C 
ENDBRANCH  12  13
ENDBRANCH  10  12
ENDBRANCH   6  10
BRANCH   8  17
ATOM     17  O   UNL A   1      32.097  19.206  24.580  1.00  0.00    -0.488 OA
BRANCH  17  18
ATOM     18  C   UNL A   1      32.666  17.967  24.636  1.00  0.00     0.122 A 
ATOM     19  C   UNL A   1      32.529  17.152  25.751  1.00  0.00     0.066 A 
ATOM     20  C   UNL A   1      33.312  17.486  23.506  1.00  0.00     0.066 A 
ATOM     21  C   UNL A   1      33.168  15.926  25.742  1.00  0.00     0.115 A 
ATOM     22  C   UNL A   1      33.893  16.233  23.583  1.00  0.00     0.115 A 
ATOM     23  N   UNL A   1      33.857  15.453  24.684  1.00  0.00    -0.264 NA
ENDBRANCH  17  18
ENDBRANCH   8  17
ENDBRANCH   3   5
ENDBRANCH   2   3
ENDBRANCH   1   2
BRANCH   1  24
ATOM     24  C   UNL A   1      37.341  21.624  24.448  1.00  0.00     0.275 C 
BRANCH  24  25
ATOM     25  O   UNL A   1      37.693  21.698  25.843  1.00  0.00    -0.458 OA
BRANCH  25  26
ATOM     26  C   UNL A   1      38.999  21.496  26.127  1.00  0.00     0.338 C 
ATOM     27  O   UNL A   1      39.675  20.513  25.877  1.00  0.00    -0.246 OA
BRANCH  26  28
ATOM     28  C   UNL A   1      39.581  22.710  26.720  1.00  0.00     0.060 A 
ATOM     29  C   UNL A   1      39.167  23.944  26.232  1.00  0.00     0.016 A 
ATOM     30  C   UNL A   1      40.648  22.638  27.612  1.00  0.00     0.016 A 
ATOM     31  C   UNL A   1      39.853  25.104  26.565  1.00  0.00     0.010 A 
ATOM     32  C   UNL A   1      41.286  23.820  28.017  1.00  0.00     0.010 A 
ATOM     33  C   UNL A   1      40.911  25.064  27.475  1.00  0.00    -0.014 A 
BRANCH  33  34
ATOM     34  C   UNL A   1      41.642  26.320  27.794  1.00  0.00     0.031 A 
ATOM     35  C   UNL A   1      40.987  27.370  28.646  1.00  0.00     0.074 A 
ATOM     36  C   UNL A   1      42.913  26.498  27.379  1.00  0.00     0.049 A 
ATOM     37  N   UNL A   1      41.368  28.598  28.889  1.00  0.00    -0.248 NA
ATOM     38  C   UNL A   1      39.734  26.987  29.317  1.00  0.00     0.031 C 
ATOM     39  C   UNL A   1      43.709  25.518  26.637  1.00  0.00     0.029 A 
ATOM     40  N   UNL A   1      43.764  27.565  27.531  1.00  0.00    -0.354 N 
ATOM     41  C   UNL A   1      40.374  29.153  29.685  1.00  0.00     0.074 A 
ATOM     42  C   UNL A   1      39.377  28.124  29.895  1.00  0.00     0.031 C 
ATOM     43  C   UNL A   1      44.935  26.018  26.422  1.00  0.00     0.029 A 
ATOM     44  C   UNL A   1      44.978  27.391  26.911  1.00  0.00     0.049 A 
ATOM     45  H   UNL A   1      43.527  28.377  28.036  1.00  0.00     0.167 HD
ATOM     46  C   UNL A   1      40.301  30.409  30.184  1.00  0.00     0.037 A 
ATOM     47  C   UNL A   1      45.987  28.257  26.699  1.00  0.00     0.037 A 
ATOM     48  C   UNL A   1      41.323  31.409  30.008  1.00  0.00     0.049 A 
ATOM     49  C   UNL A   1      45.846  29.671  27.190  1.00  0.00     0.074 A 
ATOM     50  C   UNL A   1      41.345  32.713  30.471  1.00  0.00     0.029 A 
ATOM     51  N   UNL A   1      42.512  31.210  29.319  1.00  0.00    -0.354 N 
ATOM     52  N   UNL A   1      44.871  30.215  27.877  1.00  0.00    -0.248 NA
ATOM     53  C   UNL A   1      46.935  30.598  26.855  1.00  0.00     0.031 C 
ATOM     54  C   UNL A   1      42.523  33.317  30.019  1.00  0.00     0.029 A 
ATOM     55  C   UNL A   1      43.263  32.374  29.325  1.00  0.00     0.049 A 
ATOM     56  H   UNL A   1      42.781  30.366  28.889  1.00  0.00     0.167 HD
ATOM     57  C   UNL A   1      45.235  31.540  28.073  1.00  0.00     0.074 A 
ATOM     58  C   UNL A   1      46.531  31.714  27.448  1.00  0.00     0.031 C 
ATOM     59  C   UNL A   1      44.556  32.526  28.708  1.00  0.00     0.037 A 
BRANCH  46  60
ATOM     60  C   UNL A   1      39.050  30.797  30.917  1.00  0.00     0.064 A 
ATOM     61  C   UNL A   1      38.925  30.671  32.307  1.00  0.00     0.173 A 
ATOM     62  C   UNL A   1      37.965  31.338  30.208  1.00  0.00     0.173 A 
ATOM     63  F   UNL A   1      39.924  30.145  33.031  1.00  0.00    -0.203 F 
ATOM     64  C   UNL A   1      37.751  31.048  32.957  1.00  0.00     0.198 A 
ATOM     65  C   UNL A   1      36.806  31.742  30.864  1.00  0.00     0.198 A 
ATOM     66  F   UNL A   1      38.034  31.485  28.876  1.00  0.00    -0.203 F 
ATOM     67  F   UNL A   1      37.634  30.873  34.281  1.00  0.00    -0.200 F 
ATOM     68  C   UNL A   1      36.697  31.589  32.236  1.00  0.00     0.200 A 
ATOM     69  F   UNL A   1      35.794  32.277  30.166  1.00  0.00    -0.200 F 
ATOM     70  F   UNL A   1      35.571  31.958  32.865  1.00  0.00    -0.200 F 
ENDBRANCH  46  60
BRANCH  47  71
ATOM     71  C   UNL A   1      47.182  27.833  25.921  1.00  0.00     0.064 A 
ATOM     72  C   UNL A   1      48.362  27.436  26.562  1.00  0.00     0.173 A 
ATOM     73  C   UNL A   1      47.172  27.829  24.516  1.00  0.00     0.173 A 
ATOM     74  F   UNL A   1      48.434  27.449  27.901  1.00  0.00    -0.203 F 
ATOM     75  C   UNL A   1      49.490  27.066  25.830  1.00  0.00     0.198 A 
ATOM     76  C   UNL A   1      48.286  27.424  23.786  1.00  0.00     0.198 A 
ATOM     77  F   UNL A   1      46.070  28.206  23.850  1.00  0.00    -0.203 F 
ATOM     78  F   UNL A   1      50.622  26.740  26.467  1.00  0.00    -0.200 F 
ATOM     79  C   UNL A   1      49.448  27.052  24.443  1.00  0.00     0.200 A 
ATOM     80  F   UNL A   1      48.234  27.398  22.448  1.00  0.00    -0.200 F 
ATOM     81  F   UNL A   1      50.530  26.689  23.741  1.00  0.00    -0.200 F 
ENDBRANCH  47  71
BRANCH  59  82
ATOM     82  C   UNL A   1      45.220  33.869  28.800  1.00  0.00     0.064 A 
ATOM     83  C   UNL A   1      46.090  34.192  29.851  1.00  0.00     0.173 A 
ATOM     84  C   UNL A   1      45.010  34.830  27.800  1.00  0.00     0.173 A 
ATOM     85  F   UNL A   1      46.309  33.313  30.840  1.00  0.00    -0.203 F 
ATOM     86  C   UNL A   1      46.709  35.437  29.908  1.00  0.00     0.198 A 
ATOM     87  C   UNL A   1      45.655  36.062  27.844  1.00  0.00     0.198 A 
ATOM     88  F   UNL A   1      44.190  34.568  26.771  1.00  0.00    -0.203 F 
ATOM     89  F   UNL A   1      47.501  35.742  30.946  1.00  0.00    -0.200 F 
ATOM     90  C   UNL A   1      46.499  36.368  28.902  1.00  0.00     0.200 A 
ATOM     91  F   UNL A   1      45.462  36.954  26.863  1.00  0.00    -0.200 F 
ATOM     92  F   UNL A   1      47.104  37.563  28.954  1.00  0.00    -0.200 F 
ENDBRANCH  59  82
ENDBRANCH  33  34
ENDBRANCH  26  28
ENDBRANCH  25  26
ENDBRANCH  24  25
ENDBRANCH   1  24
TORSDOF 16
ENDMDL
