MODEL 1
REMARK VINA RESULT:     -11.7      0.000      0.000
REMARK SMILES CC[C@H]1CCCC[N@H+]1[C@@H]1CC(=O)N(c2nc(CC(=O)OCCOC(=O)c3ccc(-c4c5nc(c(-c6c(F)c(F)c(F)c(F)c6F)c6ccc([nH]6)c(-c6c(F)c(F)c(F)c(F)c6F)c6nc(c(-c7c(F)c(F)c(F)c(F)c7F)c7ccc4[nH]7)C=C6)C=C5)cc3)cs2)C1=O
REMARK SMILES IDX 21 1 20 2 18 3 19 4 17 5 16 6 14 7 15 8 90 9 89 10 13 11
REMARK SMILES IDX 9 12 10 13 91 14 11 15 92 16 12 17 8 18 3 19 4 20 5 21 7 22
REMARK SMILES IDX 6 24 2 25 1 26 22 27 23 28 24 29 25 30 26 31 27 32 88 33
REMARK SMILES IDX 28 34 87 35 29 36 30 37 31 38 81 39 32 40 86 41 80 42 82 43
REMARK SMILES IDX 33 44 85 45 79 46 78 47 34 49 66 50 46 51 65 52 47 53 50 54
REMARK SMILES IDX 64 55 83 56 48 57 49 58 63 60 84 61 51 62 35 63 36 64 44 65
REMARK SMILES IDX 37 66 38 67 42 68 45 69 39 70 40 71 43 72 41 73 67 74 68 75
REMARK SMILES IDX 76 76 69 77 70 78 74 79 77 80 71 81 72 82 75 83 73 84 52 85
REMARK SMILES IDX 53 86 61 87 54 88 55 89 59 90 62 91 56 92 57 93 60 94 58 95
REMARK H PARENT 8 23 82 48 50 59
REMARK Flexibility Score: inf
ROOT
ATOM      1  C   UNL A   1      34.035  35.241  28.689  1.00  0.00     0.274 C 
ENDROOT
BRANCH   1   2
ATOM      2  O   UNL A   1      33.989  33.826  28.951  1.00  0.00    -0.462 OA
BRANCH   2   3
ATOM      3  C   UNL A   1      34.836  33.049  28.224  1.00  0.00     0.312 C 
ATOM      4  O   UNL A   1      35.666  33.478  27.428  1.00  0.00    -0.252 OA
BRANCH   3   5
ATOM      5  C   UNL A   1      34.638  31.572  28.456  1.00  0.00     0.179 C 
BRANCH   5   6
ATOM      6  C   UNL A   1      33.692  30.908  27.514  1.00  0.00     0.065 A 
ATOM      7  C   UNL A   1      33.118  29.177  26.254  1.00  0.00     0.199 A 
ATOM      8  N   UNL A   1      33.985  29.613  27.136  1.00  0.00    -0.224 NA
ATOM      9  S   UNL A   1      31.862  30.270  25.860  1.00  0.00    -0.104 S 
ATOM     10  C   UNL A   1      32.503  31.385  26.993  1.00  0.00     0.093 A 
BRANCH   7  11
ATOM     11  N   UNL A   1      33.089  27.909  25.745  1.00  0.00    -0.219 N 
ATOM     12  C   UNL A   1      32.641  25.641  25.401  1.00  0.00     0.285 C 
ATOM     13  C   UNL A   1      33.471  26.187  24.244  1.00  0.00     0.176 C 
ATOM     14  C   UNL A   1      32.451  26.845  26.325  1.00  0.00     0.294 C 
ATOM     15  C   UNL A   1      33.648  27.639  24.531  1.00  0.00     0.242 C 
ATOM     16  O   UNL A   1      31.780  26.829  27.349  1.00  0.00    -0.267 OA
ATOM     17  O   UNL A   1      34.274  28.373  23.778  1.00  0.00    -0.274 OA
BRANCH  12  18
ATOM     18  N   UNL A   1      33.169  24.480  26.138  1.00  0.00    -0.322 N 
ATOM     19  C   UNL A   1      32.172  23.647  26.843  1.00  0.00     0.184 C 
ATOM     20  C   UNL A   1      32.911  22.730  27.842  1.00  0.00     0.065 C 
ATOM     21  C   UNL A   1      33.998  21.896  27.174  1.00  0.00     0.012 C 
ATOM     22  C   UNL A   1      34.233  23.729  25.463  1.00  0.00     0.263 C 
ATOM     23  H   UNL A   1      33.658  24.938  26.906  1.00  0.00     0.349 HD
ATOM     24  C   UNL A   1      34.966  22.806  26.436  1.00  0.00     0.062 C 
BRANCH  19  25
ATOM     25  C   UNL A   1      31.231  22.808  25.942  1.00  0.00     0.061 C 
ATOM     26  C   UNL A   1      29.919  22.427  26.618  1.00  0.00     0.010 C 
ENDBRANCH  19  25
ENDBRANCH  12  18
ENDBRANCH   7  11
ENDBRANCH   5   6
ENDBRANCH   3   5
ENDBRANCH   2   3
ENDBRANCH   1   2
BRANCH   1  27
ATOM     27  C   UNL A   1      32.963  35.971  29.495  1.00  0.00     0.275 C 
BRANCH  27  28
ATOM     28  O   UNL A   1      32.508  35.133  30.575  1.00  0.00    -0.458 OA
BRANCH  28  29
ATOM     29  C   UNL A   1      32.668  35.635  31.815  1.00  0.00     0.338 C 
ATOM     30  O   UNL A   1      31.975  36.462  32.386  1.00  0.00    -0.246 OA
BRANCH  29  31
ATOM     31  C   UNL A   1      33.817  34.997  32.466  1.00  0.00     0.060 A 
ATOM     32  C   UNL A   1      35.059  35.637  32.457  1.00  0.00     0.016 A 
ATOM     33  C   UNL A   1      33.692  33.693  32.942  1.00  0.00     0.016 A 
ATOM     34  C   UNL A   1      36.197  34.953  32.883  1.00  0.00     0.010 A 
ATOM     35  C   UNL A   1      34.825  33.021  33.403  1.00  0.00     0.010 A 
ATOM     36  C   UNL A   1      36.090  33.634  33.343  1.00  0.00    -0.014 A 
BRANCH  36  37
ATOM     37  C   UNL A   1      37.308  32.860  33.682  1.00  0.00     0.031 A 
ATOM     38  C   UNL A   1      38.008  33.112  34.987  1.00  0.00     0.074 A 
ATOM     39  C   UNL A   1      37.784  31.939  32.827  1.00  0.00     0.049 A 
ATOM     40  N   UNL A   1      39.142  32.628  35.428  1.00  0.00    -0.248 NA
ATOM     41  C   UNL A   1      37.345  34.038  35.919  1.00  0.00     0.031 C 
ATOM     42  C   UNL A   1      37.175  31.580  31.547  1.00  0.00     0.029 A 
ATOM     43  N   UNL A   1      38.896  31.140  32.908  1.00  0.00    -0.354 N 
ATOM     44  C   UNL A   1      39.345  33.216  36.669  1.00  0.00     0.074 A 
ATOM     45  C   UNL A   1      38.222  34.096  36.911  1.00  0.00     0.031 C 
ATOM     46  C   UNL A   1      37.923  30.631  30.960  1.00  0.00     0.029 A 
ATOM     47  C   UNL A   1      39.081  30.346  31.804  1.00  0.00     0.049 A 
ATOM     48  H   UNL A   1      39.503  31.136  33.683  1.00  0.00     0.167 HD
ATOM     49  C   UNL A   1      40.375  33.035  37.528  1.00  0.00     0.037 A 
ATOM     50  C   UNL A   1      40.085  29.503  31.499  1.00  0.00     0.037 A 
ATOM     51  C   UNL A   1      41.478  32.138  37.301  1.00  0.00     0.049 A 
ATOM     52  C   UNL A   1      41.222  29.326  32.466  1.00  0.00     0.074 A 
ATOM     53  C   UNL A   1      42.566  31.880  38.115  1.00  0.00     0.029 A 
ATOM     54  N   UNL A   1      41.625  31.344  36.174  1.00  0.00    -0.354 N 
ATOM     55  N   UNL A   1      41.415  29.898  33.629  1.00  0.00    -0.248 NA
ATOM     56  C   UNL A   1      42.282  28.387  32.075  1.00  0.00     0.031 C 
ATOM     57  C   UNL A   1      43.385  30.946  37.470  1.00  0.00     0.029 A 
ATOM     58  C   UNL A   1      42.789  30.599  36.268  1.00  0.00     0.049 A 
ATOM     59  H   UNL A   1      40.995  31.314  35.418  1.00  0.00     0.167 HD
ATOM     60  C   UNL A   1      42.606  29.378  34.117  1.00  0.00     0.074 A 
ATOM     61  C   UNL A   1      43.086  28.433  33.129  1.00  0.00     0.031 C 
ATOM     62  C   UNL A   1      43.245  29.659  35.278  1.00  0.00     0.037 A 
BRANCH  49  63
ATOM     63  C   UNL A   1      40.372  33.850  38.786  1.00  0.00     0.064 A 
ATOM     64  C   UNL A   1      39.702  33.420  39.940  1.00  0.00     0.173 A 
ATOM     65  C   UNL A   1      41.064  35.069  38.840  1.00  0.00     0.173 A 
ATOM     66  F   UNL A   1      39.012  32.270  39.931  1.00  0.00    -0.203 F 
ATOM     67  C   UNL A   1      39.708  34.192  41.099  1.00  0.00     0.198 A 
ATOM     68  C   UNL A   1      41.087  35.828  40.007  1.00  0.00     0.198 A 
ATOM     69  F   UNL A   1      41.722  35.522  37.763  1.00  0.00    -0.203 F 
ATOM     70  F   UNL A   1      39.028  33.783  42.179  1.00  0.00    -0.200 F 
ATOM     71  C   UNL A   1      40.404  35.392  41.133  1.00  0.00     0.200 A 
ATOM     72  F   UNL A   1      41.765  36.984  40.041  1.00  0.00    -0.200 F 
ATOM     73  F   UNL A   1      40.410  36.134  42.250  1.00  0.00    -0.200 F 
ENDBRANCH  49  63
BRANCH  50  74
ATOM     74  C   UNL A   1      40.056  28.766  30.212  1.00  0.00     0.064 A 
ATOM     75  C   UNL A   1      40.637  29.309  29.059  1.00  0.00     0.173 A 
ATOM     76  C   UNL A   1      39.459  27.501  30.114  1.00  0.00     0.173 A 
ATOM     77  F   UNL A   1      41.197  30.527  29.103  1.00  0.00    -0.203 F 
ATOM     78  C   UNL A   1      40.615  28.617  27.851  1.00  0.00     0.198 A 
ATOM     79  C   UNL A   1      39.457  26.800  28.909  1.00  0.00     0.198 A 
ATOM     80  F   UNL A   1      38.889  26.942  31.191  1.00  0.00    -0.203 F 
ATOM     81  F   UNL A   1      41.149  29.173  26.754  1.00  0.00    -0.200 F 
ATOM     82  C   UNL A   1      40.030  27.361  27.778  1.00  0.00     0.200 A 
ATOM     83  F   UNL A   1      38.899  25.584  28.845  1.00  0.00    -0.200 F 
ATOM     84  F   UNL A   1      40.015  26.694  26.617  1.00  0.00    -0.200 F 
ENDBRANCH  50  74
BRANCH  62  85
ATOM     85  C   UNL A   1      44.513  28.912  35.557  1.00  0.00     0.064 A 
ATOM     86  C   UNL A   1      45.760  29.410  35.151  1.00  0.00     0.173 A 
ATOM     87  C   UNL A   1      44.484  27.702  36.264  1.00  0.00     0.173 A 
ATOM     88  F   UNL A   1      45.835  30.556  34.458  1.00  0.00    -0.203 F 
ATOM     89  C   UNL A   1      46.931  28.710  35.427  1.00  0.00     0.198 A 
ATOM     90  C   UNL A   1      45.659  27.015  36.556  1.00  0.00     0.198 A 
ATOM     91  F   UNL A   1      43.314  27.187  36.676  1.00  0.00    -0.203 F 
ATOM     92  F   UNL A   1      48.109  29.183  34.997  1.00  0.00    -0.200 F 
ATOM     93  C   UNL A   1      46.881  27.516  36.133  1.00  0.00     0.200 A 
ATOM     94  F   UNL A   1      45.609  25.865  37.243  1.00  0.00    -0.200 F 
ATOM     95  F   UNL A   1      48.009  26.845  36.398  1.00  0.00    -0.200 F 
ENDBRANCH  62  85
ENDBRANCH  36  37
ENDBRANCH  29  31
ENDBRANCH  28  29
ENDBRANCH  27  28
ENDBRANCH   1  27
TORSDOF 15
ENDMDL
MODEL 2
REMARK VINA RESULT:     -11.5      2.201      3.707
REMARK SMILES CC[C@H]1CCCC[N@H+]1[C@@H]1CC(=O)N(c2nc(CC(=O)OCCOC(=O)c3ccc(-c4c5nc(c(-c6c(F)c(F)c(F)c(F)c6F)c6ccc([nH]6)c(-c6c(F)c(F)c(F)c(F)c6F)c6nc(c(-c7c(F)c(F)c(F)c(F)c7F)c7ccc4[nH]7)C=C6)C=C5)cc3)cs2)C1=O
REMARK SMILES IDX 21 1 20 2 18 3 19 4 17 5 16 6 14 7 15 8 90 9 89 10 13 11
REMARK SMILES IDX 9 12 10 13 91 14 11 15 92 16 12 17 8 18 3 19 4 20 5 21 7 22
REMARK SMILES IDX 6 24 2 25 1 26 22 27 23 28 24 29 25 30 26 31 27 32 88 33
REMARK SMILES IDX 28 34 87 35 29 36 30 37 31 38 81 39 32 40 86 41 80 42 82 43
REMARK SMILES IDX 33 44 85 45 79 46 78 47 34 49 66 50 46 51 65 52 47 53 50 54
REMARK SMILES IDX 64 55 83 56 48 57 49 58 63 60 84 61 51 62 35 63 36 64 44 65
REMARK SMILES IDX 37 66 38 67 42 68 45 69 39 70 40 71 43 72 41 73 67 74 68 75
REMARK SMILES IDX 76 76 69 77 70 78 74 79 77 80 71 81 72 82 75 83 73 84 52 85
REMARK SMILES IDX 53 86 61 87 54 88 55 89 59 90 62 91 56 92 57 93 60 94 58 95
REMARK H PARENT 8 23 82 48 50 59
REMARK Flexibility Score: inf
ROOT
ATOM      1  C   UNL A   1      31.649  32.188  26.963  1.00  0.00     0.274 C 
ENDROOT
BRANCH   1   2
ATOM      2  O   UNL A   1      32.517  31.079  27.264  1.00  0.00    -0.462 OA
BRANCH   2   3
ATOM      3  C   UNL A   1      32.227  29.900  26.649  1.00  0.00     0.312 C 
ATOM      4  O   UNL A   1      31.637  28.964  27.179  1.00  0.00    -0.252 OA
BRANCH   3   5
ATOM      5  C   UNL A   1      32.738  29.825  25.233  1.00  0.00     0.179 C 
BRANCH   5   6
ATOM      6  C   UNL A   1      32.025  28.850  24.357  1.00  0.00     0.065 A 
ATOM      7  C   UNL A   1      31.920  26.882  23.344  1.00  0.00     0.199 A 
ATOM      8  N   UNL A   1      32.608  27.610  24.192  1.00  0.00    -0.224 NA
ATOM      9  S   UNL A   1      30.500  27.614  22.734  1.00  0.00    -0.104 S 
ATOM     10  C   UNL A   1      30.807  28.985  23.716  1.00  0.00     0.093 A 
BRANCH   7  11
ATOM     11  N   UNL A   1      32.193  25.579  23.031  1.00  0.00    -0.219 N 
ATOM     12  C   UNL A   1      32.267  23.243  23.022  1.00  0.00     0.285 C 
ATOM     13  C   UNL A   1      33.015  23.791  21.810  1.00  0.00     0.176 C 
ATOM     14  C   UNL A   1      31.774  24.494  23.752  1.00  0.00     0.294 C 
ATOM     15  C   UNL A   1      32.857  25.272  21.880  1.00  0.00     0.242 C 
ATOM     16  O   UNL A   1      31.073  24.474  24.756  1.00  0.00    -0.267 OA
ATOM     17  O   UNL A   1      33.344  26.012  21.036  1.00  0.00    -0.274 OA
BRANCH  12  18
ATOM     18  N   UNL A   1      32.998  22.346  23.932  1.00  0.00    -0.322 N 
ATOM     19  C   UNL A   1      32.379  21.028  24.185  1.00  0.00     0.184 C 
ATOM     20  C   UNL A   1      33.057  20.390  25.417  1.00  0.00     0.065 C 
ATOM     21  C   UNL A   1      34.572  20.301  25.267  1.00  0.00     0.012 C 
ATOM     22  C   UNL A   1      34.455  22.320  23.765  1.00  0.00     0.263 C 
ATOM     23  H   UNL A   1      32.874  22.823  24.825  1.00  0.00     0.349 HD
ATOM     24  C   UNL A   1      35.142  21.679  24.971  1.00  0.00     0.062 C 
BRANCH  19  25
ATOM     25  C   UNL A   1      32.387  20.035  22.995  1.00  0.00     0.061 C 
ATOM     26  C   UNL A   1      32.305  18.573  23.420  1.00  0.00     0.010 C 
ENDBRANCH  19  25
ENDBRANCH  12  18
ENDBRANCH   7  11
ENDBRANCH   5   6
ENDBRANCH   3   5
ENDBRANCH   2   3
ENDBRANCH   1   2
BRANCH   1  27
ATOM     27  C   UNL A   1      32.437  33.496  26.943  1.00  0.00     0.275 C 
BRANCH  27  28
ATOM     28  O   UNL A   1      32.464  34.070  28.264  1.00  0.00    -0.458 OA
BRANCH  28  29
ATOM     29  C   UNL A   1      33.569  34.776  28.575  1.00  0.00     0.338 C 
ATOM     30  O   UNL A   1      33.702  35.989  28.611  1.00  0.00    -0.246 OA
BRANCH  29  31
ATOM     31  C   UNL A   1      34.656  33.861  28.940  1.00  0.00     0.060 A 
ATOM     32  C   UNL A   1      34.364  32.679  29.625  1.00  0.00     0.016 A 
ATOM     33  C   UNL A   1      35.977  34.262  28.744  1.00  0.00     0.016 A 
ATOM     34  C   UNL A   1      35.397  31.911  30.160  1.00  0.00     0.010 A 
ATOM     35  C   UNL A   1      37.013  33.473  29.248  1.00  0.00     0.010 A 
ATOM     36  C   UNL A   1      36.728  32.312  29.989  1.00  0.00    -0.014 A 
BRANCH  36  37
ATOM     37  C   UNL A   1      37.824  31.569  30.657  1.00  0.00     0.031 A 
ATOM     38  C   UNL A   1      38.160  31.872  32.089  1.00  0.00     0.074 A 
ATOM     39  C   UNL A   1      38.512  30.630  29.985  1.00  0.00     0.049 A 
ATOM     40  N   UNL A   1      39.145  31.421  32.823  1.00  0.00    -0.248 NA
ATOM     41  C   UNL A   1      37.271  32.815  32.787  1.00  0.00     0.031 C 
ATOM     42  C   UNL A   1      38.258  30.222  28.604  1.00  0.00     0.029 A 
ATOM     43  N   UNL A   1      39.572  29.852  30.378  1.00  0.00    -0.354 N 
ATOM     44  C   UNL A   1      39.016  32.049  34.055  1.00  0.00     0.074 A 
ATOM     45  C   UNL A   1      37.861  32.917  33.969  1.00  0.00     0.031 C 
ATOM     46  C   UNL A   1      39.139  29.268  28.263  1.00  0.00     0.029 A 
ATOM     47  C   UNL A   1      40.042  29.029  29.386  1.00  0.00     0.049 A 
ATOM     48  H   UNL A   1      39.958  29.882  31.282  1.00  0.00     0.167 HD
ATOM     49  C   UNL A   1      39.791  31.911  35.156  1.00  0.00     0.037 A 
ATOM     50  C   UNL A   1      41.097  28.193  29.379  1.00  0.00     0.037 A 
ATOM     51  C   UNL A   1      40.922  31.026  35.252  1.00  0.00     0.049 A 
ATOM     52  C   UNL A   1      41.948  28.065  30.612  1.00  0.00     0.074 A 
ATOM     53  C   UNL A   1      41.765  30.812  36.328  1.00  0.00     0.029 A 
ATOM     54  N   UNL A   1      41.362  30.201  34.228  1.00  0.00    -0.354 N 
ATOM     55  N   UNL A   1      41.829  28.675  31.766  1.00  0.00    -0.248 NA
ATOM     56  C   UNL A   1      43.080  27.132  30.540  1.00  0.00     0.031 C 
ATOM     57  C   UNL A   1      42.730  29.872  35.947  1.00  0.00     0.029 A 
ATOM     58  C   UNL A   1      42.468  29.479  34.645  1.00  0.00     0.049 A 
ATOM     59  H   UNL A   1      40.949  30.138  33.336  1.00  0.00     0.167 HD
ATOM     60  C   UNL A   1      42.857  28.190  32.562  1.00  0.00     0.074 A 
ATOM     61  C   UNL A   1      43.584  27.223  31.764  1.00  0.00     0.031 C 
ATOM     62  C   UNL A   1      43.171  28.516  33.839  1.00  0.00     0.037 A 
BRANCH  49  63
ATOM     63  C   UNL A   1      39.456  32.765  36.343  1.00  0.00     0.064 A 
ATOM     64  C   UNL A   1      40.044  34.023  36.533  1.00  0.00     0.173 A 
ATOM     65  C   UNL A   1      38.520  32.322  37.290  1.00  0.00     0.173 A 
ATOM     66  F   UNL A   1      40.955  34.481  35.664  1.00  0.00    -0.203 F 
ATOM     67  C   UNL A   1      39.721  34.801  37.643  1.00  0.00     0.198 A 
ATOM     68  C   UNL A   1      38.184  33.112  38.386  1.00  0.00     0.198 A 
ATOM     69  F   UNL A   1      37.930  31.126  37.151  1.00  0.00    -0.203 F 
ATOM     70  F   UNL A   1      40.324  35.983  37.828  1.00  0.00    -0.200 F 
ATOM     71  C   UNL A   1      38.789  34.347  38.565  1.00  0.00     0.200 A 
ATOM     72  F   UNL A   1      37.279  32.675  39.273  1.00  0.00    -0.200 F 
ATOM     73  F   UNL A   1      38.479  35.097  39.632  1.00  0.00    -0.200 F 
ENDBRANCH  49  63
BRANCH  50  74
ATOM     74  C   UNL A   1      41.409  27.417  28.154  1.00  0.00     0.064 A 
ATOM     75  C   UNL A   1      40.876  26.137  27.959  1.00  0.00     0.173 A 
ATOM     76  C   UNL A   1      42.235  27.945  27.151  1.00  0.00     0.173 A 
ATOM     77  F   UNL A   1      40.101  25.584  28.904  1.00  0.00    -0.203 F 
ATOM     78  C   UNL A   1      41.164  25.407  26.808  1.00  0.00     0.198 A 
ATOM     79  C   UNL A   1      42.504  27.223  25.990  1.00  0.00     0.198 A 
ATOM     80  F   UNL A   1      42.768  29.166  27.294  1.00  0.00    -0.203 F 
ATOM     81  F   UNL A   1      40.668  24.171  26.660  1.00  0.00    -0.200 F 
ATOM     82  C   UNL A   1      41.973  25.954  25.822  1.00  0.00     0.200 A 
ATOM     83  F   UNL A   1      43.278  27.757  25.037  1.00  0.00    -0.200 F 
ATOM     84  F   UNL A   1      42.244  25.254  24.713  1.00  0.00    -0.200 F 
ENDBRANCH  50  74
BRANCH  62  85
ATOM     85  C   UNL A   1      44.331  27.800  34.460  1.00  0.00     0.064 A 
ATOM     86  C   UNL A   1      44.167  26.570  35.114  1.00  0.00     0.173 A 
ATOM     87  C   UNL A   1      45.625  28.333  34.371  1.00  0.00     0.173 A 
ATOM     88  F   UNL A   1      42.946  26.029  35.236  1.00  0.00    -0.203 F 
ATOM     89  C   UNL A   1      45.256  25.910  35.676  1.00  0.00     0.198 A 
ATOM     90  C   UNL A   1      46.715  27.661  34.917  1.00  0.00     0.198 A 
ATOM     91  F   UNL A   1      45.832  29.506  33.752  1.00  0.00    -0.203 F 
ATOM     92  F   UNL A   1      45.073  24.755  36.330  1.00  0.00    -0.200 F 
ATOM     93  C   UNL A   1      46.529  26.453  35.573  1.00  0.00     0.200 A 
ATOM     94  F   UNL A   1      47.945  28.183  34.812  1.00  0.00    -0.200 F 
ATOM     95  F   UNL A   1      47.576  25.816  36.114  1.00  0.00    -0.200 F 
ENDBRANCH  62  85
ENDBRANCH  36  37
ENDBRANCH  29  31
ENDBRANCH  28  29
ENDBRANCH  27  28
ENDBRANCH   1  27
TORSDOF 15
ENDMDL
MODEL 3
REMARK VINA RESULT:     -11.4      4.442      9.522
REMARK SMILES CC[C@H]1CCCC[N@H+]1[C@@H]1CC(=O)N(c2nc(CC(=O)OCCOC(=O)c3ccc(-c4c5nc(c(-c6c(F)c(F)c(F)c(F)c6F)c6ccc([nH]6)c(-c6c(F)c(F)c(F)c(F)c6F)c6nc(c(-c7c(F)c(F)c(F)c(F)c7F)c7ccc4[nH]7)C=C6)C=C5)cc3)cs2)C1=O
REMARK SMILES IDX 21 1 20 2 18 3 19 4 17 5 16 6 14 7 15 8 90 9 89 10 13 11
REMARK SMILES IDX 9 12 10 13 91 14 11 15 92 16 12 17 8 18 3 19 4 20 5 21 7 22
REMARK SMILES IDX 6 24 2 25 1 26 22 27 23 28 24 29 25 30 26 31 27 32 88 33
REMARK SMILES IDX 28 34 87 35 29 36 30 37 31 38 81 39 32 40 86 41 80 42 82 43
REMARK SMILES IDX 33 44 85 45 79 46 78 47 34 49 66 50 46 51 65 52 47 53 50 54
REMARK SMILES IDX 64 55 83 56 48 57 49 58 63 60 84 61 51 62 35 63 36 64 44 65
REMARK SMILES IDX 37 66 38 67 42 68 45 69 39 70 40 71 43 72 41 73 67 74 68 75
REMARK SMILES IDX 76 76 69 77 70 78 74 79 77 80 71 81 72 82 75 83 73 84 52 85
REMARK SMILES IDX 53 86 61 87 54 88 55 89 59 90 62 91 56 92 57 93 60 94 58 95
REMARK H PARENT 8 23 82 48 50 59
REMARK Flexibility Score: inf
ROOT
ATOM      1  C   UNL A   1      44.495  21.219  25.354  1.00  0.00     0.274 C 
ENDROOT
BRANCH   1   2
ATOM      2  O   UNL A   1      43.253  20.558  25.046  1.00  0.00    -0.462 OA
BRANCH   2   3
ATOM      3  C   UNL A   1      43.022  19.378  25.685  1.00  0.00     0.312 C 
ATOM      4  O   UNL A   1      43.383  18.280  25.274  1.00  0.00    -0.252 OA
BRANCH   3   5
ATOM      5  C   UNL A   1      42.230  19.536  26.959  1.00  0.00     0.179 C 
BRANCH   5   6
ATOM      6  C   UNL A   1      41.256  20.667  26.958  1.00  0.00     0.065 A 
ATOM      7  C   UNL A   1      39.362  21.582  26.264  1.00  0.00     0.199 A 
ATOM      8  N   UNL A   1      40.090  20.492  26.241  1.00  0.00    -0.224 NA
ATOM      9  S   UNL A   1      40.000  22.870  27.192  1.00  0.00    -0.104 S 
ATOM     10  C   UNL A   1      41.322  21.872  27.633  1.00  0.00     0.093 A 
BRANCH   7  11
ATOM     11  N   UNL A   1      38.115  21.703  25.716  1.00  0.00    -0.219 N 
ATOM     12  C   UNL A   1      36.057  22.536  24.986  1.00  0.00     0.285 C 
ATOM     13  C   UNL A   1      36.221  21.089  24.533  1.00  0.00     0.176 C 
ATOM     14  C   UNL A   1      37.348  22.836  25.752  1.00  0.00     0.294 C 
ATOM     15  C   UNL A   1      37.577  20.677  24.995  1.00  0.00     0.242 C 
ATOM     16  O   UNL A   1      37.629  23.928  26.228  1.00  0.00    -0.267 OA
ATOM     17  O   UNL A   1      38.018  19.556  24.780  1.00  0.00    -0.274 OA
BRANCH  12  18
ATOM     18  N   UNL A   1      34.870  22.876  25.787  1.00  0.00    -0.322 N 
ATOM     19  C   UNL A   1      33.761  23.534  25.064  1.00  0.00     0.184 C 
ATOM     20  C   UNL A   1      32.789  24.144  26.097  1.00  0.00     0.065 C 
ATOM     21  C   UNL A   1      32.294  23.117  27.109  1.00  0.00     0.012 C 
ATOM     22  C   UNL A   1      34.453  21.865  26.766  1.00  0.00     0.263 C 
ATOM     23  H   UNL A   1      35.232  23.630  26.370  1.00  0.00     0.349 HD
ATOM     24  C   UNL A   1      33.479  22.450  27.789  1.00  0.00     0.062 C 
BRANCH  19  25
ATOM     25  C   UNL A   1      32.986  22.646  24.059  1.00  0.00     0.061 C 
ATOM     26  C   UNL A   1      33.195  23.047  22.603  1.00  0.00     0.010 C 
ENDBRANCH  19  25
ENDBRANCH  12  18
ENDBRANCH   7  11
ENDBRANCH   5   6
ENDBRANCH   3   5
ENDBRANCH   2   3
ENDBRANCH   1   2
BRANCH   1  27
ATOM     27  C   UNL A   1      44.736  22.381  24.394  1.00  0.00     0.275 C 
BRANCH  27  28
ATOM     28  O   UNL A   1      43.958  23.523  24.805  1.00  0.00    -0.458 OA
BRANCH  28  29
ATOM     29  C   UNL A   1      44.654  24.653  25.039  1.00  0.00     0.338 C 
ATOM     30  O   UNL A   1      45.731  24.984  24.569  1.00  0.00    -0.246 OA
BRANCH  29  31
ATOM     31  C   UNL A   1      43.898  25.524  25.946  1.00  0.00     0.060 A 
ATOM     32  C   UNL A   1      44.155  26.897  25.958  1.00  0.00     0.016 A 
ATOM     33  C   UNL A   1      43.053  24.949  26.893  1.00  0.00     0.016 A 
ATOM     34  C   UNL A   1      43.600  27.699  26.954  1.00  0.00     0.010 A 
ATOM     35  C   UNL A   1      42.468  25.759  27.868  1.00  0.00     0.010 A 
ATOM     36  C   UNL A   1      42.766  27.132  27.926  1.00  0.00    -0.014 A 
BRANCH  36  37
ATOM     37  C   UNL A   1      42.271  27.954  29.057  1.00  0.00     0.031 A 
ATOM     38  C   UNL A   1      43.051  27.996  30.340  1.00  0.00     0.074 A 
ATOM     39  C   UNL A   1      41.132  28.656  28.935  1.00  0.00     0.049 A 
ATOM     40  N   UNL A   1      42.742  28.559  31.481  1.00  0.00    -0.248 NA
ATOM     41  C   UNL A   1      44.352  27.309  30.340  1.00  0.00     0.031 C 
ATOM     42  C   UNL A   1      40.304  28.721  27.731  1.00  0.00     0.029 A 
ATOM     43  N   UNL A   1      40.471  29.444  29.843  1.00  0.00    -0.354 N 
ATOM     44  C   UNL A   1      43.790  28.264  32.342  1.00  0.00     0.074 A 
ATOM     45  C   UNL A   1      44.742  27.470  31.596  1.00  0.00     0.031 C 
ATOM     46  C   UNL A   1      39.243  29.509  27.975  1.00  0.00     0.029 A 
ATOM     47  C   UNL A   1      39.297  29.967  29.361  1.00  0.00     0.049 A 
ATOM     48  H   UNL A   1      40.805  29.617  30.753  1.00  0.00     0.167 HD
ATOM     49  C   UNL A   1      43.943  28.626  33.638  1.00  0.00     0.037 A 
ATOM     50  C   UNL A   1      38.361  30.713  29.977  1.00  0.00     0.037 A 
ATOM     51  C   UNL A   1      43.011  29.441  34.372  1.00  0.00     0.049 A 
ATOM     52  C   UNL A   1      38.550  31.094  31.419  1.00  0.00     0.074 A 
ATOM     53  C   UNL A   1      43.081  29.867  35.686  1.00  0.00     0.029 A 
ATOM     54  N   UNL A   1      41.837  29.960  33.846  1.00  0.00    -0.354 N 
ATOM     55  N   UNL A   1      39.535  30.797  32.231  1.00  0.00    -0.248 NA
ATOM     56  C   UNL A   1      37.494  31.914  32.030  1.00  0.00     0.031 C 
ATOM     57  C   UNL A   1      41.938  30.625  35.963  1.00  0.00     0.029 A 
ATOM     58  C   UNL A   1      41.172  30.697  34.811  1.00  0.00     0.049 A 
ATOM     59  H   UNL A   1      41.523  29.823  32.923  1.00  0.00     0.167 HD
ATOM     60  C   UNL A   1      39.229  31.405  33.440  1.00  0.00     0.074 A 
ATOM     61  C   UNL A   1      37.971  32.100  33.253  1.00  0.00     0.031 C 
ATOM     62  C   UNL A   1      39.926  31.388  34.602  1.00  0.00     0.037 A 
BRANCH  49  63
ATOM     63  C   UNL A   1      45.156  28.115  34.355  1.00  0.00     0.064 A 
ATOM     64  C   UNL A   1      45.143  26.893  35.044  1.00  0.00     0.173 A 
ATOM     65  C   UNL A   1      46.350  28.850  34.337  1.00  0.00     0.173 A 
ATOM     66  F   UNL A   1      44.020  26.164  35.103  1.00  0.00    -0.203 F 
ATOM     67  C   UNL A   1      46.279  26.436  35.706  1.00  0.00     0.198 A 
ATOM     68  C   UNL A   1      47.491  28.379  34.982  1.00  0.00     0.198 A 
ATOM     69  F   UNL A   1      46.412  30.024  33.691  1.00  0.00    -0.203 F 
ATOM     70  F   UNL A   1      46.235  25.285  36.392  1.00  0.00    -0.200 F 
ATOM     71  C   UNL A   1      47.453  27.176  35.671  1.00  0.00     0.200 A 
ATOM     72  F   UNL A   1      48.625  29.092  34.942  1.00  0.00    -0.200 F 
ATOM     73  F   UNL A   1      48.545  26.733  36.308  1.00  0.00    -0.200 F 
ENDBRANCH  49  63
BRANCH  50  74
ATOM     74  C   UNL A   1      37.156  31.142  29.227  1.00  0.00     0.064 A 
ATOM     75  C   UNL A   1      36.115  30.243  28.963  1.00  0.00     0.173 A 
ATOM     76  C   UNL A   1      37.017  32.460  28.769  1.00  0.00     0.173 A 
ATOM     77  F   UNL A   1      36.218  28.966  29.361  1.00  0.00    -0.203 F 
ATOM     78  C   UNL A   1      34.981  30.644  28.262  1.00  0.00     0.198 A 
ATOM     79  C   UNL A   1      35.872  32.866  28.087  1.00  0.00     0.198 A 
ATOM     80  F   UNL A   1      37.989  33.356  28.996  1.00  0.00    -0.203 F 
ATOM     81  F   UNL A   1      34.013  29.756  27.994  1.00  0.00    -0.200 F 
ATOM     82  C   UNL A   1      34.858  31.956  27.830  1.00  0.00     0.200 A 
ATOM     83  F   UNL A   1      35.753  34.136  27.678  1.00  0.00    -0.200 F 
ATOM     84  F   UNL A   1      33.763  32.343  27.161  1.00  0.00    -0.200 F 
ENDBRANCH  50  74
BRANCH  62  85
ATOM     85  C   UNL A   1      39.360  32.169  35.749  1.00  0.00     0.064 A 
ATOM     86  C   UNL A   1      39.683  33.519  35.946  1.00  0.00     0.173 A 
ATOM     87  C   UNL A   1      38.460  31.567  36.641  1.00  0.00     0.173 A 
ATOM     88  F   UNL A   1      40.551  34.131  35.127  1.00  0.00    -0.203 F 
ATOM     89  C   UNL A   1      39.140  34.234  37.009  1.00  0.00     0.198 A 
ATOM     90  C   UNL A   1      37.903  32.291  37.691  1.00  0.00     0.198 A 
ATOM     91  F   UNL A   1      38.118  30.278  36.491  1.00  0.00    -0.203 F 
ATOM     92  F   UNL A   1      39.491  35.513  37.203  1.00  0.00    -0.200 F 
ATOM     93  C   UNL A   1      38.247  33.622  37.878  1.00  0.00     0.200 A 
ATOM     94  F   UNL A   1      37.036  31.701  38.525  1.00  0.00    -0.200 F 
ATOM     95  F   UNL A   1      37.725  34.312  38.900  1.00  0.00    -0.200 F 
ENDBRANCH  62  85
ENDBRANCH  36  37
ENDBRANCH  29  31
ENDBRANCH  28  29
ENDBRANCH  27  28
ENDBRANCH   1  27
TORSDOF 15
ENDMDL
