MODEL 1
REMARK VINA RESULT:     -10.7      0.000      0.000
REMARK SMILES COc1ccc(/C=C2/SC(=S)N(c3ccc(C(=O)OCCOC(=O)c4ccc(-c5c6nc(c(-c7c(F)c(F)c(F)c(F)c7F)c7ccc([nH]7)c(-c7c(F)c(F)c(F)c(F)c7F)c7nc(c(-c8c(F)c(F)c(F)c(F)c8F)c8ccc5[nH]8)C=C7)C=C6)cc4)c(O)c3)C2=O)cc1OC
REMARK SMILES IDX 20 1 19 2 17 3 18 4 16 5 13 6 14 7 90 8 15 9 88 10 12 11
REMARK SMILES IDX 7 12 8 13 9 14 91 15 10 16 92 17 11 18 6 19 3 20 4 21 94 22
REMARK SMILES IDX 5 23 93 24 2 25 1 26 95 27 96 28 89 29 21 31 22 32 23 33
REMARK SMILES IDX 24 34 25 35 26 36 87 37 27 38 86 39 28 40 29 41 30 42 80 43
REMARK SMILES IDX 31 44 85 45 79 46 81 47 32 48 84 49 78 50 77 51 33 53 65 54
REMARK SMILES IDX 45 55 64 56 46 57 49 58 63 59 82 60 47 61 48 62 62 64 83 65
REMARK SMILES IDX 50 66 34 67 35 68 43 69 36 70 37 71 41 72 44 73 38 74 39 75
REMARK SMILES IDX 42 76 40 77 66 78 67 79 75 80 68 81 69 82 73 83 76 84 70 85
REMARK SMILES IDX 71 86 74 87 72 88 51 89 52 90 60 91 53 92 54 93 58 94 61 95
REMARK SMILES IDX 55 96 56 97 59 98 57 99
REMARK H PARENT 89 30 81 52 49 63
REMARK Flexibility Score: inf
ROOT
ATOM      1  C   UNL A   1      44.153  38.272  31.231  1.00  0.00     0.275 C 
ENDROOT
BRANCH   1   2
ATOM      2  O   UNL A   1      44.186  36.890  31.639  1.00  0.00    -0.458 OA
BRANCH   2   3
ATOM      3  C   UNL A   1      43.972  36.666  32.958  1.00  0.00     0.342 C 
ATOM      4  O   UNL A   1      44.658  37.076  33.884  1.00  0.00    -0.246 OA
BRANCH   3   5
ATOM      5  C   UNL A   1      42.700  35.950  33.201  1.00  0.00     0.101 A 
ATOM      6  C   UNL A   1      40.371  34.541  33.944  1.00  0.00     0.054 A 
ATOM      7  C   UNL A   1      40.831  35.612  34.716  1.00  0.00     0.028 A 
ATOM      8  C   UNL A   1      41.068  34.205  32.772  1.00  0.00     0.073 A 
ATOM      9  C   UNL A   1      41.999  36.281  34.366  1.00  0.00     0.022 A 
ATOM     10  C   UNL A   1      42.222  34.914  32.397  1.00  0.00     0.132 A 
BRANCH   6  11
ATOM     11  N   UNL A   1      39.226  33.812  34.387  1.00  0.00    -0.261 N 
ATOM     12  C   UNL A   1      35.675  33.052  34.002  1.00  0.00     0.029 C 
ATOM     13  C   UNL A   1      36.933  33.224  34.438  1.00  0.00     0.081 C 
ATOM     14  S   UNL A   1      37.600  32.326  35.745  1.00  0.00    -0.054 SA
ATOM     15  C   UNL A   1      37.976  34.119  33.854  1.00  0.00     0.270 C 
ATOM     16  C   UNL A   1      39.243  32.892  35.425  1.00  0.00     0.152 C 
ATOM     17  O   UNL A   1      37.729  35.000  33.041  1.00  0.00    -0.268 OA
ATOM     18  S   UNL A   1      40.517  32.387  36.386  1.00  0.00    -0.051 S 
BRANCH  12  19
ATOM     19  C   UNL A   1      35.153  33.621  32.755  1.00  0.00    -0.020 A 
ATOM     20  C   UNL A   1      34.034  34.722  30.430  1.00  0.00     0.160 A 
ATOM     21  C   UNL A   1      34.845  33.579  30.360  1.00  0.00     0.051 A 
ATOM     22  C   UNL A   1      33.781  35.329  31.664  1.00  0.00     0.161 A 
ATOM     23  C   UNL A   1      35.411  33.033  31.518  1.00  0.00     0.012 A 
ATOM     24  C   UNL A   1      34.366  34.780  32.810  1.00  0.00     0.058 A 
BRANCH  20  25
ATOM     25  O   UNL A   1      33.425  35.162  29.285  1.00  0.00    -0.493 OA
ATOM     26  C   UNL A   1      34.361  35.740  28.376  1.00  0.00     0.278 C 
ENDBRANCH  20  25
BRANCH  22  27
ATOM     27  O   UNL A   1      33.012  36.424  31.950  1.00  0.00    -0.493 OA
ATOM     28  C   UNL A   1      33.653  37.670  32.164  1.00  0.00     0.278 C 
ENDBRANCH  22  27
ENDBRANCH  12  19
ENDBRANCH   6  11
BRANCH  10  29
ATOM     29  O   UNL A   1      42.901  34.549  31.269  1.00  0.00    -0.507 OA
ATOM     30  H   UNL A   1      43.558  33.882  31.314  1.00  0.00     0.293 HD
ENDBRANCH  10  29
ENDBRANCH   3   5
ENDBRANCH   2   3
ENDBRANCH   1   2
BRANCH   1  31
ATOM     31  C   UNL A   1      44.705  38.441  29.818  1.00  0.00     0.275 C 
BRANCH  31  32
ATOM     32  O   UNL A   1      45.702  37.436  29.559  1.00  0.00    -0.458 OA
BRANCH  32  33
ATOM     33  C   UNL A   1      45.850  37.072  28.268  1.00  0.00     0.338 C 
ATOM     34  O   UNL A   1      46.101  37.792  27.311  1.00  0.00    -0.246 OA
BRANCH  33  35
ATOM     35  C   UNL A   1      45.667  35.618  28.132  1.00  0.00     0.060 A 
ATOM     36  C   UNL A   1      44.997  35.110  27.023  1.00  0.00     0.016 A 
ATOM     37  C   UNL A   1      46.032  34.768  29.173  1.00  0.00     0.016 A 
ATOM     38  C   UNL A   1      44.583  33.777  27.002  1.00  0.00     0.010 A 
ATOM     39  C   UNL A   1      45.719  33.405  29.096  1.00  0.00     0.010 A 
ATOM     40  C   UNL A   1      44.948  32.898  28.033  1.00  0.00    -0.014 A 
BRANCH  40  41
ATOM     41  C   UNL A   1      44.500  31.471  28.029  1.00  0.00     0.031 A 
ATOM     42  C   UNL A   1      45.326  30.419  27.327  1.00  0.00     0.074 A 
ATOM     43  C   UNL A   1      43.359  31.100  28.644  1.00  0.00     0.049 A 
ATOM     44  N   UNL A   1      45.012  29.183  27.021  1.00  0.00    -0.248 NA
ATOM     45  C   UNL A   1      46.676  30.812  26.894  1.00  0.00     0.031 C 
ATOM     46  C   UNL A   1      42.472  31.986  29.399  1.00  0.00     0.029 A 
ATOM     47  N   UNL A   1      42.748  29.871  28.734  1.00  0.00    -0.354 N 
ATOM     48  C   UNL A   1      46.087  28.684  26.296  1.00  0.00     0.074 A 
ATOM     49  C   UNL A   1      47.071  29.743  26.217  1.00  0.00     0.031 C 
ATOM     50  C   UNL A   1      41.460  31.269  29.912  1.00  0.00     0.029 A 
ATOM     51  C   UNL A   1      41.569  29.892  29.443  1.00  0.00     0.049 A 
ATOM     52  H   UNL A   1      43.118  29.054  28.329  1.00  0.00     0.167 HD
ATOM     53  C   UNL A   1      46.237  27.457  25.742  1.00  0.00     0.037 A 
ATOM     54  C   UNL A   1      40.653  28.929  29.656  1.00  0.00     0.037 A 
ATOM     55  C   UNL A   1      45.306  26.369  25.901  1.00  0.00     0.049 A 
ATOM     56  C   UNL A   1      40.845  27.574  29.033  1.00  0.00     0.074 A 
ATOM     57  C   UNL A   1      45.401  25.074  25.420  1.00  0.00     0.029 A 
ATOM     58  N   UNL A   1      44.120  26.444  26.615  1.00  0.00    -0.354 N 
ATOM     59  N   UNL A   1      41.839  27.131  28.305  1.00  0.00    -0.248 NA
ATOM     60  C   UNL A   1      39.770  26.592  29.240  1.00  0.00     0.031 C 
ATOM     61  C   UNL A   1      44.258  24.373  25.817  1.00  0.00     0.029 A 
ATOM     62  C   UNL A   1      43.470  25.221  26.576  1.00  0.00     0.049 A 
ATOM     63  H   UNL A   1      43.789  27.246  27.080  1.00  0.00     0.167 HD
ATOM     64  C   UNL A   1      41.518  25.821  27.977  1.00  0.00     0.074 A 
ATOM     65  C   UNL A   1      40.246  25.531  28.605  1.00  0.00     0.031 C 
ATOM     66  C   UNL A   1      42.211  24.941  27.216  1.00  0.00     0.037 A 
BRANCH  53  67
ATOM     67  C   UNL A   1      47.441  27.215  24.879  1.00  0.00     0.064 A 
ATOM     68  C   UNL A   1      47.500  27.637  23.544  1.00  0.00     0.173 A 
ATOM     69  C   UNL A   1      48.586  26.618  25.432  1.00  0.00     0.173 A 
ATOM     70  F   UNL A   1      46.433  28.209  22.969  1.00  0.00    -0.203 F 
ATOM     71  C   UNL A   1      48.656  27.453  22.788  1.00  0.00     0.198 A 
ATOM     72  C   UNL A   1      49.746  26.459  24.680  1.00  0.00     0.198 A 
ATOM     73  F   UNL A   1      48.585  26.207  26.710  1.00  0.00    -0.203 F 
ATOM     74  F   UNL A   1      48.684  27.840  21.505  1.00  0.00    -0.200 F 
ATOM     75  C   UNL A   1      49.780  26.873  23.359  1.00  0.00     0.200 A 
ATOM     76  F   UNL A   1      50.836  25.914  25.240  1.00  0.00    -0.200 F 
ATOM     77  F   UNL A   1      50.896  26.715  22.634  1.00  0.00    -0.200 F 
ENDBRANCH  53  67
BRANCH  54  78
ATOM     78  C   UNL A   1      39.438  29.221  30.464  1.00  0.00     0.064 A 
ATOM     79  C   UNL A   1      38.210  29.488  29.844  1.00  0.00     0.173 A 
ATOM     80  C   UNL A   1      39.484  29.253  31.865  1.00  0.00     0.173 A 
ATOM     81  F   UNL A   1      38.123  29.500  28.506  1.00  0.00    -0.203 F 
ATOM     82  C   UNL A   1      37.076  29.790  30.596  1.00  0.00     0.198 A 
ATOM     83  C   UNL A   1      38.343  29.523  32.617  1.00  0.00     0.198 A 
ATOM     84  F   UNL A   1      40.636  29.011  32.506  1.00  0.00    -0.203 F 
ATOM     85  F   UNL A   1      35.925  30.088  29.978  1.00  0.00    -0.200 F 
ATOM     86  C   UNL A   1      37.141  29.799  31.982  1.00  0.00     0.200 A 
ATOM     87  F   UNL A   1      38.408  29.519  33.954  1.00  0.00    -0.200 F 
ATOM     88  F   UNL A   1      36.049  30.083  32.704  1.00  0.00    -0.200 F 
ENDBRANCH  54  78
BRANCH  66  89
ATOM     89  C   UNL A   1      41.626  23.572  27.050  1.00  0.00     0.064 A 
ATOM     90  C   UNL A   1      42.223  22.445  27.633  1.00  0.00     0.173 A 
ATOM     91  C   UNL A   1      40.442  23.388  26.322  1.00  0.00     0.173 A 
ATOM     92  F   UNL A   1      43.367  22.568  28.324  1.00  0.00    -0.203 F 
ATOM     93  C   UNL A   1      41.668  21.179  27.473  1.00  0.00     0.198 A 
ATOM     94  C   UNL A   1      39.876  22.125  26.184  1.00  0.00     0.198 A 
ATOM     95  F   UNL A   1      39.831  24.437  25.749  1.00  0.00    -0.203 F 
ATOM     96  F   UNL A   1      42.278  20.109  28.001  1.00  0.00    -0.200 F 
ATOM     97  C   UNL A   1      40.492  21.021  26.753  1.00  0.00     0.200 A 
ATOM     98  F   UNL A   1      38.736  21.974  25.495  1.00  0.00    -0.200 F 
ATOM     99  F   UNL A   1      39.958  19.801  26.601  1.00  0.00    -0.200 F 
ENDBRANCH  66  89
ENDBRANCH  40  41
ENDBRANCH  33  35
ENDBRANCH  32  33
ENDBRANCH  31  32
ENDBRANCH   1  31
TORSDOF 16
ENDMDL
MODEL 2
REMARK VINA RESULT:     -10.7      6.293     12.638
REMARK SMILES COc1ccc(/C=C2/SC(=S)N(c3ccc(C(=O)OCCOC(=O)c4ccc(-c5c6nc(c(-c7c(F)c(F)c(F)c(F)c7F)c7ccc([nH]7)c(-c7c(F)c(F)c(F)c(F)c7F)c7nc(c(-c8c(F)c(F)c(F)c(F)c8F)c8ccc5[nH]8)C=C7)C=C6)cc4)c(O)c3)C2=O)cc1OC
REMARK SMILES IDX 20 1 19 2 17 3 18 4 16 5 13 6 14 7 90 8 15 9 88 10 12 11
REMARK SMILES IDX 7 12 8 13 9 14 91 15 10 16 92 17 11 18 6 19 3 20 4 21 94 22
REMARK SMILES IDX 5 23 93 24 2 25 1 26 95 27 96 28 89 29 21 31 22 32 23 33
REMARK SMILES IDX 24 34 25 35 26 36 87 37 27 38 86 39 28 40 29 41 30 42 80 43
REMARK SMILES IDX 31 44 85 45 79 46 81 47 32 48 84 49 78 50 77 51 33 53 65 54
REMARK SMILES IDX 45 55 64 56 46 57 49 58 63 59 82 60 47 61 48 62 62 64 83 65
REMARK SMILES IDX 50 66 34 67 35 68 43 69 36 70 37 71 41 72 44 73 38 74 39 75
REMARK SMILES IDX 42 76 40 77 66 78 67 79 75 80 68 81 69 82 73 83 76 84 70 85
REMARK SMILES IDX 71 86 74 87 72 88 51 89 52 90 60 91 53 92 54 93 58 94 61 95
REMARK SMILES IDX 55 96 56 97 59 98 57 99
REMARK H PARENT 89 30 81 52 49 63
REMARK Flexibility Score: inf
ROOT
ATOM      1  C   UNL A   1      33.838  34.946  29.115  1.00  0.00     0.275 C 
ENDROOT
BRANCH   1   2
ATOM      2  O   UNL A   1      33.230  33.973  28.242  1.00  0.00    -0.458 OA
BRANCH   2   3
ATOM      3  C   UNL A   1      33.695  32.707  28.366  1.00  0.00     0.342 C 
ATOM      4  O   UNL A   1      34.421  32.284  29.255  1.00  0.00    -0.246 OA
BRANCH   3   5
ATOM      5  C   UNL A   1      33.120  31.801  27.347  1.00  0.00     0.101 A 
ATOM      6  C   UNL A   1      31.783  30.055  25.580  1.00  0.00     0.054 A 
ATOM      7  C   UNL A   1      31.149  31.206  26.058  1.00  0.00     0.028 A 
ATOM      8  C   UNL A   1      33.110  29.805  25.966  1.00  0.00     0.073 A 
ATOM      9  C   UNL A   1      31.798  32.046  26.956  1.00  0.00     0.022 A 
ATOM     10  C   UNL A   1      33.778  30.681  26.838  1.00  0.00     0.132 A 
BRANCH   6  11
ATOM     11  N   UNL A   1      31.051  29.162  24.739  1.00  0.00    -0.261 N 
ATOM     12  C   UNL A   1      30.431  25.742  23.619  1.00  0.00     0.029 C 
ATOM     13  C   UNL A   1      30.528  27.075  23.751  1.00  0.00     0.081 C 
ATOM     14  S   UNL A   1      29.502  28.175  22.917  1.00  0.00    -0.054 SA
ATOM     15  C   UNL A   1      31.439  27.826  24.665  1.00  0.00     0.270 C 
ATOM     16  C   UNL A   1      30.045  29.559  23.871  1.00  0.00     0.152 C 
ATOM     17  O   UNL A   1      32.394  27.314  25.235  1.00  0.00    -0.268 OA
ATOM     18  S   UNL A   1      29.422  31.085  23.582  1.00  0.00    -0.051 S 
BRANCH  12  19
ATOM     19  C   UNL A   1      31.121  24.778  24.483  1.00  0.00    -0.020 A 
ATOM     20  C   UNL A   1      32.443  22.848  26.030  1.00  0.00     0.160 A 
ATOM     21  C   UNL A   1      31.329  23.533  26.541  1.00  0.00     0.051 A 
ATOM     22  C   UNL A   1      32.910  23.128  24.742  1.00  0.00     0.161 A 
ATOM     23  C   UNL A   1      30.673  24.501  25.773  1.00  0.00     0.012 A 
ATOM     24  C   UNL A   1      32.252  24.110  23.993  1.00  0.00     0.058 A 
BRANCH  20  25
ATOM     25  O   UNL A   1      32.991  21.842  26.780  1.00  0.00    -0.493 OA
ATOM     26  C   UNL A   1      34.054  22.315  27.606  1.00  0.00     0.278 C 
ENDBRANCH  20  25
BRANCH  22  27
ATOM     27  O   UNL A   1      33.952  22.568  24.057  1.00  0.00    -0.493 OA
ATOM     28  C   UNL A   1      35.146  23.316  23.901  1.00  0.00     0.278 C 
ENDBRANCH  22  27
ENDBRANCH  12  19
ENDBRANCH   6  11
BRANCH  10  29
ATOM     29  O   UNL A   1      35.058  30.400  27.224  1.00  0.00    -0.507 OA
ATOM     30  H   UNL A   1      35.344  30.617  28.090  1.00  0.00     0.293 HD
ENDBRANCH  10  29
ENDBRANCH   3   5
ENDBRANCH   2   3
ENDBRANCH   1   2
BRANCH   1  31
ATOM     31  C   UNL A   1      32.847  36.046  29.486  1.00  0.00     0.275 C 
BRANCH  31  32
ATOM     32  O   UNL A   1      33.148  36.551  30.800  1.00  0.00    -0.458 OA
BRANCH  32  33
ATOM     33  C   UNL A   1      32.700  35.806  31.834  1.00  0.00     0.338 C 
ATOM     34  O   UNL A   1      31.549  35.696  32.233  1.00  0.00    -0.246 OA
BRANCH  33  35
ATOM     35  C   UNL A   1      33.824  35.096  32.464  1.00  0.00     0.060 A 
ATOM     36  C   UNL A   1      35.078  35.698  32.512  1.00  0.00     0.016 A 
ATOM     37  C   UNL A   1      33.671  33.775  32.880  1.00  0.00     0.016 A 
ATOM     38  C   UNL A   1      36.204  34.949  32.860  1.00  0.00     0.010 A 
ATOM     39  C   UNL A   1      34.783  33.062  33.342  1.00  0.00     0.010 A 
ATOM     40  C   UNL A   1      36.074  33.621  33.293  1.00  0.00    -0.014 A 
BRANCH  40  41
ATOM     41  C   UNL A   1      37.273  32.805  33.657  1.00  0.00     0.031 A 
ATOM     42  C   UNL A   1      37.941  32.994  34.998  1.00  0.00     0.074 A 
ATOM     43  C   UNL A   1      37.778  31.893  32.800  1.00  0.00     0.049 A 
ATOM     44  N   UNL A   1      39.102  32.552  35.418  1.00  0.00    -0.248 NA
ATOM     45  C   UNL A   1      37.219  33.801  35.994  1.00  0.00     0.031 C 
ATOM     46  C   UNL A   1      37.226  31.563  31.486  1.00  0.00     0.029 A 
ATOM     47  N   UNL A   1      38.875  31.072  32.910  1.00  0.00    -0.354 N 
ATOM     48  C   UNL A   1      39.281  33.093  36.686  1.00  0.00     0.074 A 
ATOM     49  C   UNL A   1      38.104  33.883  36.977  1.00  0.00     0.031 C 
ATOM     50  C   UNL A   1      37.954  30.581  30.933  1.00  0.00     0.029 A 
ATOM     51  C   UNL A   1      39.083  30.279  31.806  1.00  0.00     0.049 A 
ATOM     52  H   UNL A   1      39.458  31.053  33.704  1.00  0.00     0.167 HD
ATOM     53  C   UNL A   1      40.333  32.946  37.527  1.00  0.00     0.037 A 
ATOM     54  C   UNL A   1      40.090  29.437  31.503  1.00  0.00     0.037 A 
ATOM     55  C   UNL A   1      41.460  32.083  37.284  1.00  0.00     0.049 A 
ATOM     56  C   UNL A   1      41.243  29.290  32.456  1.00  0.00     0.074 A 
ATOM     57  C   UNL A   1      42.547  31.831  38.105  1.00  0.00     0.029 A 
ATOM     58  N   UNL A   1      41.632  31.312  36.145  1.00  0.00    -0.354 N 
ATOM     59  N   UNL A   1      41.426  29.848  33.627  1.00  0.00    -0.248 NA
ATOM     60  C   UNL A   1      42.346  28.415  32.030  1.00  0.00     0.031 C 
ATOM     61  C   UNL A   1      43.392  30.930  37.449  1.00  0.00     0.029 A 
ATOM     62  C   UNL A   1      42.813  30.594  36.237  1.00  0.00     0.049 A 
ATOM     63  H   UNL A   1      41.008  31.280  35.384  1.00  0.00     0.167 HD
ATOM     64  C   UNL A   1      42.653  29.385  34.082  1.00  0.00     0.074 A 
ATOM     65  C   UNL A   1      43.162  28.482  33.072  1.00  0.00     0.031 C 
ATOM     66  C   UNL A   1      43.302  29.689  35.231  1.00  0.00     0.037 A 
BRANCH  53  67
ATOM     67  C   UNL A   1      40.343  33.758  38.790  1.00  0.00     0.064 A 
ATOM     68  C   UNL A   1      41.021  34.980  38.886  1.00  0.00     0.173 A 
ATOM     69  C   UNL A   1      39.590  33.334  39.897  1.00  0.00     0.173 A 
ATOM     70  F   UNL A   1      41.757  35.427  37.859  1.00  0.00    -0.203 F 
ATOM     71  C   UNL A   1      40.961  35.741  40.053  1.00  0.00     0.198 A 
ATOM     72  C   UNL A   1      39.512  34.108  41.051  1.00  0.00     0.198 A 
ATOM     73  F   UNL A   1      38.912  32.177  39.851  1.00  0.00    -0.203 F 
ATOM     74  F   UNL A   1      41.638  36.894  40.135  1.00  0.00    -0.200 F 
ATOM     75  C   UNL A   1      40.199  35.309  41.129  1.00  0.00     0.200 A 
ATOM     76  F   UNL A   1      38.762  33.697  42.083  1.00  0.00    -0.200 F 
ATOM     77  F   UNL A   1      40.128  36.052  42.243  1.00  0.00    -0.200 F 
ENDBRANCH  53  67
BRANCH  54  78
ATOM     78  C   UNL A   1      40.079  28.696  30.213  1.00  0.00     0.064 A 
ATOM     79  C   UNL A   1      39.478  27.434  30.114  1.00  0.00     0.173 A 
ATOM     80  C   UNL A   1      40.680  29.227  29.062  1.00  0.00     0.173 A 
ATOM     81  F   UNL A   1      38.918  26.872  31.195  1.00  0.00    -0.203 F 
ATOM     82  C   UNL A   1      39.489  26.725  28.914  1.00  0.00     0.198 A 
ATOM     83  C   UNL A   1      40.663  28.531  27.856  1.00  0.00     0.198 A 
ATOM     84  F   UNL A   1      41.274  30.427  29.106  1.00  0.00    -0.203 F 
ATOM     85  F   UNL A   1      38.950  25.500  28.857  1.00  0.00    -0.200 F 
ATOM     86  C   UNL A   1      40.074  27.277  27.784  1.00  0.00     0.200 A 
ATOM     87  F   UNL A   1      41.219  29.073  26.764  1.00  0.00    -0.200 F 
ATOM     88  F   UNL A   1      40.081  26.596  26.630  1.00  0.00    -0.200 F 
ENDBRANCH  54  78
BRANCH  66  89
ATOM     89  C   UNL A   1      44.618  29.013  35.472  1.00  0.00     0.064 A 
ATOM     90  C   UNL A   1      45.827  29.603  35.079  1.00  0.00     0.173 A 
ATOM     91  C   UNL A   1      44.671  27.773  36.126  1.00  0.00     0.173 A 
ATOM     92  F   UNL A   1      45.826  30.780  34.433  1.00  0.00    -0.203 F 
ATOM     93  C   UNL A   1      47.043  28.965  35.311  1.00  0.00     0.198 A 
ATOM     94  C   UNL A   1      45.889  27.150  36.378  1.00  0.00     0.198 A 
ATOM     95  F   UNL A   1      43.540  27.170  36.525  1.00  0.00    -0.203 F 
ATOM     96  F   UNL A   1      48.184  29.526  34.888  1.00  0.00    -0.200 F 
ATOM     97  C   UNL A   1      47.073  27.742  35.965  1.00  0.00     0.200 A 
ATOM     98  F   UNL A   1      45.917  25.972  37.017  1.00  0.00    -0.200 F 
ATOM     99  F   UNL A   1      48.244  27.130  36.189  1.00  0.00    -0.200 F 
ENDBRANCH  66  89
ENDBRANCH  40  41
ENDBRANCH  33  35
ENDBRANCH  32  33
ENDBRANCH  31  32
ENDBRANCH   1  31
TORSDOF 16
ENDMDL
MODEL 3
REMARK VINA RESULT:     -10.7      3.839      9.577
REMARK SMILES COc1ccc(/C=C2/SC(=S)N(c3ccc(C(=O)OCCOC(=O)c4ccc(-c5c6nc(c(-c7c(F)c(F)c(F)c(F)c7F)c7ccc([nH]7)c(-c7c(F)c(F)c(F)c(F)c7F)c7nc(c(-c8c(F)c(F)c(F)c(F)c8F)c8ccc5[nH]8)C=C7)C=C6)cc4)c(O)c3)C2=O)cc1OC
REMARK SMILES IDX 20 1 19 2 17 3 18 4 16 5 13 6 14 7 90 8 15 9 88 10 12 11
REMARK SMILES IDX 7 12 8 13 9 14 91 15 10 16 92 17 11 18 6 19 3 20 4 21 94 22
REMARK SMILES IDX 5 23 93 24 2 25 1 26 95 27 96 28 89 29 21 31 22 32 23 33
REMARK SMILES IDX 24 34 25 35 26 36 87 37 27 38 86 39 28 40 29 41 30 42 80 43
REMARK SMILES IDX 31 44 85 45 79 46 81 47 32 48 84 49 78 50 77 51 33 53 65 54
REMARK SMILES IDX 45 55 64 56 46 57 49 58 63 59 82 60 47 61 48 62 62 64 83 65
REMARK SMILES IDX 50 66 34 67 35 68 43 69 36 70 37 71 41 72 44 73 38 74 39 75
REMARK SMILES IDX 42 76 40 77 66 78 67 79 75 80 68 81 69 82 73 83 76 84 70 85
REMARK SMILES IDX 71 86 74 87 72 88 51 89 52 90 60 91 53 92 54 93 58 94 61 95
REMARK SMILES IDX 55 96 56 97 59 98 57 99
REMARK H PARENT 89 30 81 52 49 63
REMARK Flexibility Score: inf
ROOT
ATOM      1  C   UNL A   1      34.741  33.245  28.570  1.00  0.00     0.275 C 
ENDROOT
BRANCH   1   2
ATOM      2  O   UNL A   1      35.743  32.776  29.495  1.00  0.00    -0.458 OA
BRANCH   2   3
ATOM      3  C   UNL A   1      35.375  32.767  30.798  1.00  0.00     0.342 C 
ATOM      4  O   UNL A   1      34.231  32.791  31.229  1.00  0.00    -0.246 OA
BRANCH   3   5
ATOM      5  C   UNL A   1      36.533  32.590  31.702  1.00  0.00     0.101 A 
ATOM      6  C   UNL A   1      38.546  32.253  33.650  1.00  0.00     0.054 A 
ATOM      7  C   UNL A   1      37.430  31.412  33.628  1.00  0.00     0.028 A 
ATOM      8  C   UNL A   1      38.665  33.244  32.661  1.00  0.00     0.073 A 
ATOM      9  C   UNL A   1      36.423  31.603  32.688  1.00  0.00     0.022 A 
ATOM     10  C   UNL A   1      37.667  33.404  31.686  1.00  0.00     0.132 A 
BRANCH   6  11
ATOM     11  N   UNL A   1      39.511  32.093  34.691  1.00  0.00    -0.261 N 
ATOM     12  C   UNL A   1      42.043  30.009  36.297  1.00  0.00     0.029 C 
ATOM     13  C   UNL A   1      41.103  30.917  35.991  1.00  0.00     0.081 C 
ATOM     14  S   UNL A   1      40.940  32.413  36.823  1.00  0.00    -0.054 SA
ATOM     15  C   UNL A   1      40.118  30.852  34.870  1.00  0.00     0.270 C 
ATOM     16  C   UNL A   1      39.801  33.062  35.639  1.00  0.00     0.152 C 
ATOM     17  O   UNL A   1      39.886  29.830  34.236  1.00  0.00    -0.268 OA
ATOM     18  S   UNL A   1      39.166  34.599  35.827  1.00  0.00    -0.051 S 
BRANCH  12  19
ATOM     19  C   UNL A   1      42.361  28.842  35.467  1.00  0.00    -0.020 A 
ATOM     20  C   UNL A   1      42.989  26.539  33.993  1.00  0.00     0.160 A 
ATOM     21  C   UNL A   1      43.541  27.782  33.646  1.00  0.00     0.051 A 
ATOM     22  C   UNL A   1      42.112  26.438  35.078  1.00  0.00     0.161 A 
ATOM     23  C   UNL A   1      43.222  28.934  34.376  1.00  0.00     0.012 A 
ATOM     24  C   UNL A   1      41.792  27.601  35.787  1.00  0.00     0.058 A 
BRANCH  20  25
ATOM     25  O   UNL A   1      43.405  25.427  33.311  1.00  0.00    -0.493 OA
ATOM     26  C   UNL A   1      44.700  25.608  32.742  1.00  0.00     0.278 C 
ENDBRANCH  20  25
BRANCH  22  27
ATOM     27  O   UNL A   1      41.488  25.333  35.588  1.00  0.00    -0.493 OA
ATOM     28  C   UNL A   1      41.170  25.307  36.970  1.00  0.00     0.278 C 
ENDBRANCH  22  27
ENDBRANCH  12  19
ENDBRANCH   6  11
BRANCH  10  29
ATOM     29  O   UNL A   1      37.789  34.395  30.753  1.00  0.00    -0.507 OA
ATOM     30  H   UNL A   1      37.662  34.201  29.845  1.00  0.00     0.293 HD
ENDBRANCH  10  29
ENDBRANCH   3   5
ENDBRANCH   2   3
ENDBRANCH   1   2
BRANCH   1  31
ATOM     31  C   UNL A   1      33.828  32.106  28.125  1.00  0.00     0.275 C 
BRANCH  31  32
ATOM     32  O   UNL A   1      34.547  31.217  27.252  1.00  0.00    -0.458 OA
BRANCH  32  33
ATOM     33  C   UNL A   1      34.757  29.969  27.724  1.00  0.00     0.338 C 
ATOM     34  O   UNL A   1      33.949  29.055  27.806  1.00  0.00    -0.246 OA
BRANCH  33  35
ATOM     35  C   UNL A   1      36.157  29.825  28.155  1.00  0.00     0.060 A 
ATOM     36  C   UNL A   1      37.184  30.081  27.251  1.00  0.00     0.016 A 
ATOM     37  C   UNL A   1      36.450  29.297  29.410  1.00  0.00     0.016 A 
ATOM     38  C   UNL A   1      38.493  29.700  27.550  1.00  0.00     0.010 A 
ATOM     39  C   UNL A   1      37.780  29.026  29.752  1.00  0.00     0.010 A 
ATOM     40  C   UNL A   1      38.816  29.177  28.811  1.00  0.00    -0.014 A 
BRANCH  40  41
ATOM     41  C   UNL A   1      40.213  28.754  29.139  1.00  0.00     0.031 A 
ATOM     42  C   UNL A   1      41.104  29.652  29.964  1.00  0.00     0.074 A 
ATOM     43  C   UNL A   1      40.699  27.573  28.706  1.00  0.00     0.049 A 
ATOM     44  N   UNL A   1      42.396  29.576  30.173  1.00  0.00    -0.248 NA
ATOM     45  C   UNL A   1      40.463  30.800  30.626  1.00  0.00     0.031 C 
ATOM     46  C   UNL A   1      39.955  26.576  27.936  1.00  0.00     0.029 A 
ATOM     47  N   UNL A   1      41.945  27.008  28.856  1.00  0.00    -0.354 N 
ATOM     48  C   UNL A   1      42.730  30.701  30.918  1.00  0.00     0.074 A 
ATOM     49  C   UNL A   1      41.505  31.439  31.139  1.00  0.00     0.031 C 
ATOM     50  C   UNL A   1      40.737  25.507  27.721  1.00  0.00     0.029 A 
ATOM     51  C   UNL A   1      42.069  25.779  28.251  1.00  0.00     0.049 A 
ATOM     52  H   UNL A   1      42.678  27.442  29.350  1.00  0.00     0.167 HD
ATOM     53  C   UNL A   1      43.948  31.085  31.371  1.00  0.00     0.037 A 
ATOM     54  C   UNL A   1      43.140  24.978  28.095  1.00  0.00     0.037 A 
ATOM     55  C   UNL A   1      45.152  30.305  31.239  1.00  0.00     0.049 A 
ATOM     56  C   UNL A   1      44.480  25.427  28.610  1.00  0.00     0.074 A 
ATOM     57  C   UNL A   1      46.421  30.590  31.714  1.00  0.00     0.029 A 
ATOM     58  N   UNL A   1      45.229  29.075  30.605  1.00  0.00    -0.354 N 
ATOM     59  N   UNL A   1      44.792  26.517  29.265  1.00  0.00    -0.248 NA
ATOM     60  C   UNL A   1      45.622  24.542  28.339  1.00  0.00     0.031 C 
ATOM     61  C   UNL A   1      47.274  29.547  31.341  1.00  0.00     0.029 A 
ATOM     62  C   UNL A   1      46.528  28.595  30.666  1.00  0.00     0.049 A 
ATOM     63  H   UNL A   1      44.475  28.612  30.175  1.00  0.00     0.167 HD
ATOM     64  C   UNL A   1      46.159  26.445  29.494  1.00  0.00     0.074 A 
ATOM     65  C   UNL A   1      46.615  25.193  28.929  1.00  0.00     0.031 C 
ATOM     66  C   UNL A   1      46.966  27.342  30.111  1.00  0.00     0.037 A 
BRANCH  53  67
ATOM     67  C   UNL A   1      44.062  32.427  32.033  1.00  0.00     0.064 A 
ATOM     68  C   UNL A   1      44.098  32.572  33.426  1.00  0.00     0.173 A 
ATOM     69  C   UNL A   1      44.216  33.580  31.247  1.00  0.00     0.173 A 
ATOM     70  F   UNL A   1      43.950  31.502  34.220  1.00  0.00    -0.203 F 
ATOM     71  C   UNL A   1      44.267  33.826  34.010  1.00  0.00     0.198 A 
ATOM     72  C   UNL A   1      44.410  34.828  31.833  1.00  0.00     0.198 A 
ATOM     73  F   UNL A   1      44.201  33.494  29.908  1.00  0.00    -0.203 F 
ATOM     74  F   UNL A   1      44.273  33.947  35.344  1.00  0.00    -0.200 F 
ATOM     75  C   UNL A   1      44.432  34.950  33.213  1.00  0.00     0.200 A 
ATOM     76  F   UNL A   1      44.586  35.910  31.061  1.00  0.00    -0.200 F 
ATOM     77  F   UNL A   1      44.613  36.153  33.778  1.00  0.00    -0.200 F 
ENDBRANCH  53  67
BRANCH  54  78
ATOM     78  C   UNL A   1      43.005  23.683  27.376  1.00  0.00     0.064 A 
ATOM     79  C   UNL A   1      42.459  22.561  28.014  1.00  0.00     0.173 A 
ATOM     80  C   UNL A   1      43.429  23.538  26.047  1.00  0.00     0.173 A 
ATOM     81  F   UNL A   1      42.067  22.642  29.294  1.00  0.00    -0.203 F 
ATOM     82  C   UNL A   1      42.355  21.338  27.353  1.00  0.00     0.198 A 
ATOM     83  C   UNL A   1      43.295  22.324  25.377  1.00  0.00     0.198 A 
ATOM     84  F   UNL A   1      43.964  24.579  25.394  1.00  0.00    -0.203 F 
ATOM     85  F   UNL A   1      41.874  20.268  28.000  1.00  0.00    -0.200 F 
ATOM     86  C   UNL A   1      42.765  21.223  26.033  1.00  0.00     0.200 A 
ATOM     87  F   UNL A   1      43.683  22.221  24.099  1.00  0.00    -0.200 F 
ATOM     88  F   UNL A   1      42.660  20.049  25.397  1.00  0.00    -0.200 F 
ENDBRANCH  54  78
BRANCH  66  89
ATOM     89  C   UNL A   1      48.415  26.985  30.236  1.00  0.00     0.064 A 
ATOM     90  C   UNL A   1      48.881  26.167  31.276  1.00  0.00     0.173 A 
ATOM     91  C   UNL A   1      49.345  27.444  29.291  1.00  0.00     0.173 A 
ATOM     92  F   UNL A   1      48.033  25.719  32.214  1.00  0.00    -0.203 F 
ATOM     93  C   UNL A   1      50.231  25.841  31.379  1.00  0.00     0.198 A 
ATOM     94  C   UNL A   1      50.689  27.096  29.383  1.00  0.00     0.198 A 
ATOM     95  F   UNL A   1      48.947  28.225  28.275  1.00  0.00    -0.203 F 
ATOM     96  F   UNL A   1      50.662  25.095  32.405  1.00  0.00    -0.200 F 
ATOM     97  C   UNL A   1      51.132  26.301  30.429  1.00  0.00     0.200 A 
ATOM     98  F   UNL A   1      51.557  27.534  28.461  1.00  0.00    -0.200 F 
ATOM     99  F   UNL A   1      52.430  25.985  30.529  1.00  0.00    -0.200 F 
ENDBRANCH  66  89
ENDBRANCH  40  41
ENDBRANCH  33  35
ENDBRANCH  32  33
ENDBRANCH  31  32
ENDBRANCH   1  31
TORSDOF 16
ENDMDL
