MODEL 1
REMARK VINA RESULT:     -12.8      0.000      0.000
REMARK SMILES Cc1ccc2c(c1)=C1S[C@H](C(=O)OCCOC(=O)c3ccc(-c4c5nc(c(-c6c(F)c(F)c(F)c(F)c6F)c6ccc([nH]6)c(-c6c(F)c(F)c(F)c(F)c6F)c6nc(c(-c7c(F)c(F)c(F)c(F)c7F)c7ccc4[nH]7)C=C6)C=C5)cc3)C=C1C(=O)N=2
REMARK SMILES IDX 15 1 14 2 13 3 11 4 12 5 10 6 1 7 2 8 3 9 7 10 4 11 6 12
REMARK SMILES IDX 5 13 8 14 86 15 9 16 83 17 84 18 82 19 85 20 16 21 17 22
REMARK SMILES IDX 18 23 19 24 20 25 81 26 21 27 80 28 22 29 23 30 24 31 74 32
REMARK SMILES IDX 25 33 79 34 73 35 75 36 26 37 78 38 72 39 71 40 27 42 59 43
REMARK SMILES IDX 39 44 58 45 40 46 43 47 57 48 76 49 41 50 42 51 56 53 77 54
REMARK SMILES IDX 44 55 28 56 29 57 37 58 30 59 31 60 35 61 38 62 32 63 33 64
REMARK SMILES IDX 36 65 34 66 60 67 61 68 69 69 62 70 63 71 67 72 70 73 64 74
REMARK SMILES IDX 65 75 68 76 66 77 45 78 46 79 54 80 47 81 48 82 52 83 55 84
REMARK SMILES IDX 49 85 50 86 53 87 51 88
REMARK H PARENT 75 41 43 52
REMARK Flexibility Score: inf
ROOT
ATOM      1  C   UNL A   1      31.828  30.158  26.010  1.00  0.00     0.275 C 
ENDROOT
BRANCH   1   2
ATOM      2  C   UNL A   1      31.707  29.327  24.726  1.00  0.00     0.274 C 
BRANCH   2   3
ATOM      3  O   UNL A   1      31.098  28.056  25.023  1.00  0.00    -0.461 OA
BRANCH   3   4
ATOM      4  C   UNL A   1      30.328  27.488  24.048  1.00  0.00     0.323 C 
ATOM      5  O   UNL A   1      29.980  28.057  23.020  1.00  0.00    -0.251 OA
BRANCH   4   6
ATOM      6  C   UNL A   1      30.029  26.005  24.337  1.00  0.00     0.185 C 
ATOM      7  C   UNL A   1      36.775  23.757  25.751  1.00  0.00     0.044 C 
ATOM      8  C   UNL A   1      35.569  23.536  24.893  1.00  0.00    -0.050 A 
ATOM      9  C   UNL A   1      35.348  22.189  24.351  1.00  0.00     0.005 A 
ATOM     10  C   UNL A   1      34.581  24.449  24.762  1.00  0.00     0.015 A 
ATOM     11  C   UNL A   1      34.106  21.669  24.312  1.00  0.00     0.029 A 
ATOM     12  C   UNL A   1      33.293  23.963  24.238  1.00  0.00     0.015 A 
ATOM     13  C   UNL A   1      33.084  22.600  24.857  1.00  0.00     0.076 A 
ATOM     14  C   UNL A   1      32.165  24.655  24.393  1.00  0.00     0.030 C 
ATOM     15  N   UNL A   1      32.328  22.321  25.870  1.00  0.00    -0.209 NA
ATOM     16  S   UNL A   1      31.014  24.947  23.122  1.00  0.00    -0.105 SA
ATOM     17  C   UNL A   1      31.406  24.544  25.607  1.00  0.00     0.054 C 
ATOM     18  C   UNL A   1      31.652  23.365  26.485  1.00  0.00     0.278 C 
ATOM     19  C   UNL A   1      30.369  25.395  25.673  1.00  0.00     0.014 C 
ATOM     20  O   UNL A   1      31.211  23.327  27.626  1.00  0.00    -0.267 OA
ENDBRANCH   4   6
ENDBRANCH   3   4
ENDBRANCH   2   3
ENDBRANCH   1   2
BRANCH   1  21
ATOM     21  O   UNL A   1      33.222  30.416  26.259  1.00  0.00    -0.458 OA
BRANCH  21  22
ATOM     22  C   UNL A   1      33.511  31.399  27.143  1.00  0.00     0.338 C 
ATOM     23  O   UNL A   1      32.897  32.423  27.362  1.00  0.00    -0.246 OA
BRANCH  22  24
ATOM     24  C   UNL A   1      34.783  31.035  27.785  1.00  0.00     0.060 A 
ATOM     25  C   UNL A   1      34.984  29.720  28.192  1.00  0.00     0.016 A 
ATOM     26  C   UNL A   1      35.765  32.002  28.001  1.00  0.00     0.016 A 
ATOM     27  C   UNL A   1      36.153  29.394  28.879  1.00  0.00     0.010 A 
ATOM     28  C   UNL A   1      36.953  31.669  28.643  1.00  0.00     0.010 A 
ATOM     29  C   UNL A   1      37.143  30.368  29.115  1.00  0.00    -0.014 A 
BRANCH  29  30
ATOM     30  C   UNL A   1      38.381  30.013  29.844  1.00  0.00     0.031 A 
ATOM     31  C   UNL A   1      38.640  30.548  31.222  1.00  0.00     0.074 A 
ATOM     32  C   UNL A   1      39.269  29.194  29.253  1.00  0.00     0.049 A 
ATOM     33  N   UNL A   1      39.622  30.269  32.044  1.00  0.00    -0.248 NA
ATOM     34  C   UNL A   1      37.682  31.534  31.743  1.00  0.00     0.031 C 
ATOM     35  C   UNL A   1      39.136  28.656  27.899  1.00  0.00     0.029 A 
ATOM     36  N   UNL A   1      40.440  28.656  29.716  1.00  0.00    -0.354 N 
ATOM     37  C   UNL A   1      39.387  31.026  33.183  1.00  0.00     0.074 A 
ATOM     38  C   UNL A   1      38.214  31.832  32.920  1.00  0.00     0.031 C 
ATOM     39  C   UNL A   1      40.154  27.817  27.662  1.00  0.00     0.029 A 
ATOM     40  C   UNL A   1      41.026  27.785  28.832  1.00  0.00     0.049 A 
ATOM     41  H   UNL A   1      40.823  28.872  30.597  1.00  0.00     0.167 HD
ATOM     42  C   UNL A   1      40.070  31.022  34.354  1.00  0.00     0.037 A 
ATOM     43  C   UNL A   1      42.133  27.031  28.962  1.00  0.00     0.037 A 
ATOM     44  C   UNL A   1      41.245  30.225  34.597  1.00  0.00     0.049 A 
ATOM     45  C   UNL A   1      42.902  27.078  30.251  1.00  0.00     0.074 A 
ATOM     46  C   UNL A   1      42.002  30.130  35.752  1.00  0.00     0.029 A 
ATOM     47  N   UNL A   1      41.843  29.392  33.659  1.00  0.00    -0.354 N 
ATOM     48  N   UNL A   1      42.638  27.747  31.347  1.00  0.00    -0.248 NA
ATOM     49  C   UNL A   1      44.120  26.260  30.323  1.00  0.00     0.031 C 
ATOM     50  C   UNL A   1      43.084  29.281  35.497  1.00  0.00     0.029 A 
ATOM     51  C   UNL A   1      42.974  28.801  34.201  1.00  0.00     0.049 A 
ATOM     52  H   UNL A   1      41.512  29.244  32.744  1.00  0.00     0.167 HD
ATOM     53  C   UNL A   1      43.646  27.424  32.245  1.00  0.00     0.074 A 
ATOM     54  C   UNL A   1      44.513  26.478  31.571  1.00  0.00     0.031 C 
ATOM     55  C   UNL A   1      43.835  27.871  33.511  1.00  0.00     0.037 A 
BRANCH  42  56
ATOM     56  C   UNL A   1      39.552  31.897  35.459  1.00  0.00     0.064 A 
ATOM     57  C   UNL A   1      38.625  31.418  36.398  1.00  0.00     0.173 A 
ATOM     58  C   UNL A   1      40.006  33.217  35.607  1.00  0.00     0.173 A 
ATOM     59  F   UNL A   1      38.152  30.166  36.302  1.00  0.00    -0.203 F 
ATOM     60  C   UNL A   1      38.145  32.236  37.419  1.00  0.00     0.198 A 
ATOM     61  C   UNL A   1      39.548  34.022  36.649  1.00  0.00     0.198 A 
ATOM     62  F   UNL A   1      40.898  33.727  34.744  1.00  0.00    -0.203 F 
ATOM     63  F   UNL A   1      37.219  31.770  38.270  1.00  0.00    -0.200 F 
ATOM     64  C   UNL A   1      38.612  33.534  37.547  1.00  0.00     0.200 A 
ATOM     65  F   UNL A   1      40.013  35.273  36.781  1.00  0.00    -0.200 F 
ATOM     66  F   UNL A   1      38.154  34.317  38.534  1.00  0.00    -0.200 F 
ENDBRANCH  42  56
BRANCH  43  67
ATOM     67  C   UNL A   1      42.525  26.126  27.852  1.00  0.00     0.064 A 
ATOM     68  C   UNL A   1      41.922  24.869  27.709  1.00  0.00     0.173 A 
ATOM     69  C   UNL A   1      43.453  26.522  26.877  1.00  0.00     0.173 A 
ATOM     70  F   UNL A   1      41.041  24.442  28.625  1.00  0.00    -0.203 F 
ATOM     71  C   UNL A   1      42.229  24.043  26.630  1.00  0.00     0.198 A 
ATOM     72  C   UNL A   1      43.738  25.706  25.784  1.00  0.00     0.198 A 
ATOM     73  F   UNL A   1      44.051  27.718  26.966  1.00  0.00    -0.203 F 
ATOM     74  F   UNL A   1      41.650  22.840  26.526  1.00  0.00    -0.200 F 
ATOM     75  C   UNL A   1      43.127  24.467  25.663  1.00  0.00     0.200 A 
ATOM     76  F   UNL A   1      44.593  26.127  24.842  1.00  0.00    -0.200 F 
ATOM     77  F   UNL A   1      43.403  23.683  24.612  1.00  0.00    -0.200 F 
ENDBRANCH  43  67
BRANCH  55  78
ATOM     78  C   UNL A   1      45.030  27.347  34.255  1.00  0.00     0.064 A 
ATOM     79  C   UNL A   1      46.273  27.995  34.195  1.00  0.00     0.173 A 
ATOM     80  C   UNL A   1      44.919  26.216  35.078  1.00  0.00     0.173 A 
ATOM     81  F   UNL A   1      46.436  29.072  33.413  1.00  0.00    -0.203 F 
ATOM     82  C   UNL A   1      47.364  27.518  34.916  1.00  0.00     0.198 A 
ATOM     83  C   UNL A   1      46.004  25.761  35.822  1.00  0.00     0.198 A 
ATOM     84  F   UNL A   1      43.751  25.563  35.178  1.00  0.00    -0.203 F 
ATOM     85  F   UNL A   1      48.554  28.127  34.808  1.00  0.00    -0.200 F 
ATOM     86  C   UNL A   1      47.227  26.407  35.735  1.00  0.00     0.200 A 
ATOM     87  F   UNL A   1      45.864  24.698  36.627  1.00  0.00    -0.200 F 
ATOM     88  F   UNL A   1      48.276  25.958  36.439  1.00  0.00    -0.200 F 
ENDBRANCH  55  78
ENDBRANCH  29  30
ENDBRANCH  22  24
ENDBRANCH  21  22
ENDBRANCH   1  21
TORSDOF 11
ENDMDL
MODEL 2
REMARK VINA RESULT:     -12.7      0.161      1.628
REMARK SMILES Cc1ccc2c(c1)=C1S[C@H](C(=O)OCCOC(=O)c3ccc(-c4c5nc(c(-c6c(F)c(F)c(F)c(F)c6F)c6ccc([nH]6)c(-c6c(F)c(F)c(F)c(F)c6F)c6nc(c(-c7c(F)c(F)c(F)c(F)c7F)c7ccc4[nH]7)C=C6)C=C5)cc3)C=C1C(=O)N=2
REMARK SMILES IDX 15 1 14 2 13 3 11 4 12 5 10 6 1 7 2 8 3 9 7 10 4 11 6 12
REMARK SMILES IDX 5 13 8 14 86 15 9 16 83 17 84 18 82 19 85 20 16 21 17 22
REMARK SMILES IDX 18 23 19 24 20 25 81 26 21 27 80 28 22 29 23 30 24 31 74 32
REMARK SMILES IDX 25 33 79 34 73 35 75 36 26 37 78 38 72 39 71 40 27 42 59 43
REMARK SMILES IDX 39 44 58 45 40 46 43 47 57 48 76 49 41 50 42 51 56 53 77 54
REMARK SMILES IDX 44 55 28 56 29 57 37 58 30 59 31 60 35 61 38 62 32 63 33 64
REMARK SMILES IDX 36 65 34 66 60 67 61 68 69 69 62 70 63 71 67 72 70 73 64 74
REMARK SMILES IDX 65 75 68 76 66 77 45 78 46 79 54 80 47 81 48 82 52 83 55 84
REMARK SMILES IDX 49 85 50 86 53 87 51 88
REMARK H PARENT 75 41 43 52
REMARK Flexibility Score: inf
ROOT
ATOM      1  C   UNL A   1      31.862  30.131  26.392  1.00  0.00     0.275 C 
ENDROOT
BRANCH   1   2
ATOM      2  C   UNL A   1      31.532  29.567  25.004  1.00  0.00     0.274 C 
BRANCH   2   3
ATOM      3  O   UNL A   1      31.231  28.161  25.108  1.00  0.00    -0.461 OA
BRANCH   3   4
ATOM      4  C   UNL A   1      30.504  27.602  24.096  1.00  0.00     0.323 C 
ATOM      5  O   UNL A   1      30.215  28.173  23.051  1.00  0.00    -0.251 OA
BRANCH   4   6
ATOM      6  C   UNL A   1      30.172  26.123  24.372  1.00  0.00     0.185 C 
ATOM      7  C   UNL A   1      36.871  23.703  25.722  1.00  0.00     0.044 C 
ATOM      8  C   UNL A   1      35.655  23.519  24.869  1.00  0.00    -0.050 A 
ATOM      9  C   UNL A   1      35.400  22.183  24.315  1.00  0.00     0.005 A 
ATOM     10  C   UNL A   1      34.688  24.456  24.753  1.00  0.00     0.015 A 
ATOM     11  C   UNL A   1      34.145  21.693  24.278  1.00  0.00     0.029 A 
ATOM     12  C   UNL A   1      33.387  24.006  24.232  1.00  0.00     0.015 A 
ATOM     13  C   UNL A   1      33.149  22.642  24.839  1.00  0.00     0.076 A 
ATOM     14  C   UNL A   1      32.276  24.723  24.401  1.00  0.00     0.030 C 
ATOM     15  N   UNL A   1      32.393  22.371  25.854  1.00  0.00    -0.209 NA
ATOM     16  S   UNL A   1      31.124  25.054  23.140  1.00  0.00    -0.105 SA
ATOM     17  C   UNL A   1      31.522  24.617  25.618  1.00  0.00     0.054 C 
ATOM     18  C   UNL A   1      31.745  23.424  26.483  1.00  0.00     0.278 C 
ATOM     19  C   UNL A   1      30.506  25.492  25.699  1.00  0.00     0.014 C 
ATOM     20  O   UNL A   1      31.309  23.384  27.626  1.00  0.00    -0.267 OA
ENDBRANCH   4   6
ENDBRANCH   3   4
ENDBRANCH   2   3
ENDBRANCH   1   2
BRANCH   1  21
ATOM     21  O   UNL A   1      33.252  30.502  26.418  1.00  0.00    -0.458 OA
BRANCH  21  22
ATOM     22  C   UNL A   1      33.598  31.511  27.251  1.00  0.00     0.338 C 
ATOM     23  O   UNL A   1      33.033  32.570  27.431  1.00  0.00    -0.246 OA
BRANCH  22  24
ATOM     24  C   UNL A   1      34.863  31.120  27.890  1.00  0.00     0.060 A 
ATOM     25  C   UNL A   1      35.011  29.820  28.361  1.00  0.00     0.016 A 
ATOM     26  C   UNL A   1      35.892  32.051  28.041  1.00  0.00     0.016 A 
ATOM     27  C   UNL A   1      36.176  29.475  29.045  1.00  0.00     0.010 A 
ATOM     28  C   UNL A   1      37.075  31.695  28.680  1.00  0.00     0.010 A 
ATOM     29  C   UNL A   1      37.214  30.412  29.216  1.00  0.00    -0.014 A 
BRANCH  29  30
ATOM     30  C   UNL A   1      38.447  30.037  29.943  1.00  0.00     0.031 A 
ATOM     31  C   UNL A   1      38.706  30.547  31.330  1.00  0.00     0.074 A 
ATOM     32  C   UNL A   1      39.331  29.222  29.340  1.00  0.00     0.049 A 
ATOM     33  N   UNL A   1      39.683  30.248  32.149  1.00  0.00    -0.248 NA
ATOM     34  C   UNL A   1      37.753  31.532  31.864  1.00  0.00     0.031 C 
ATOM     35  C   UNL A   1      39.198  28.706  27.978  1.00  0.00     0.029 A 
ATOM     36  N   UNL A   1      40.497  28.668  29.798  1.00  0.00    -0.354 N 
ATOM     37  C   UNL A   1      39.450  30.988  33.301  1.00  0.00     0.074 A 
ATOM     38  C   UNL A   1      38.284  31.806  33.048  1.00  0.00     0.031 C 
ATOM     39  C   UNL A   1      40.212  27.864  27.730  1.00  0.00     0.029 A 
ATOM     40  C   UNL A   1      41.080  27.808  28.902  1.00  0.00     0.049 A 
ATOM     41  H   UNL A   1      40.879  28.867  30.684  1.00  0.00     0.167 HD
ATOM     42  C   UNL A   1      40.130  30.960  34.473  1.00  0.00     0.037 A 
ATOM     43  C   UNL A   1      42.182  27.044  29.023  1.00  0.00     0.037 A 
ATOM     44  C   UNL A   1      41.299  30.152  34.707  1.00  0.00     0.049 A 
ATOM     45  C   UNL A   1      42.947  27.065  30.315  1.00  0.00     0.074 A 
ATOM     46  C   UNL A   1      42.051  30.032  35.862  1.00  0.00     0.029 A 
ATOM     47  N   UNL A   1      41.893  29.330  33.757  1.00  0.00    -0.354 N 
ATOM     48  N   UNL A   1      42.684  27.717  31.421  1.00  0.00    -0.248 NA
ATOM     49  C   UNL A   1      44.159  26.238  30.376  1.00  0.00     0.031 C 
ATOM     50  C   UNL A   1      43.128  29.180  35.597  1.00  0.00     0.029 A 
ATOM     51  C   UNL A   1      43.019  28.722  34.293  1.00  0.00     0.049 A 
ATOM     52  H   UNL A   1      41.564  29.199  32.839  1.00  0.00     0.167 HD
ATOM     53  C   UNL A   1      43.687  27.373  32.316  1.00  0.00     0.074 A 
ATOM     54  C   UNL A   1      44.550  26.432  31.629  1.00  0.00     0.031 C 
ATOM     55  C   UNL A   1      43.876  27.798  33.590  1.00  0.00     0.037 A 
BRANCH  42  56
ATOM     56  C   UNL A   1      39.614  31.821  35.591  1.00  0.00     0.064 A 
ATOM     57  C   UNL A   1      40.072  33.136  35.773  1.00  0.00     0.173 A 
ATOM     58  C   UNL A   1      38.631  31.345  36.473  1.00  0.00     0.173 A 
ATOM     59  F   UNL A   1      41.016  33.640  34.964  1.00  0.00    -0.203 F 
ATOM     60  C   UNL A   1      39.592  33.928  36.815  1.00  0.00     0.198 A 
ATOM     61  C   UNL A   1      38.130  32.151  37.494  1.00  0.00     0.198 A 
ATOM     62  F   UNL A   1      38.150  30.100  36.343  1.00  0.00    -0.203 F 
ATOM     63  F   UNL A   1      40.086  35.161  36.999  1.00  0.00    -0.200 F 
ATOM     64  C   UNL A   1      38.618  33.438  37.669  1.00  0.00     0.200 A 
ATOM     65  F   UNL A   1      37.176  31.682  38.309  1.00  0.00    -0.200 F 
ATOM     66  F   UNL A   1      38.153  34.203  38.666  1.00  0.00    -0.200 F 
ENDBRANCH  42  56
BRANCH  43  67
ATOM     67  C   UNL A   1      42.571  26.155  27.899  1.00  0.00     0.064 A 
ATOM     68  C   UNL A   1      41.971  24.897  27.744  1.00  0.00     0.173 A 
ATOM     69  C   UNL A   1      43.491  26.566  26.924  1.00  0.00     0.173 A 
ATOM     70  F   UNL A   1      41.097  24.455  28.660  1.00  0.00    -0.203 F 
ATOM     71  C   UNL A   1      42.276  24.086  26.653  1.00  0.00     0.198 A 
ATOM     72  C   UNL A   1      43.774  25.765  25.820  1.00  0.00     0.198 A 
ATOM     73  F   UNL A   1      44.086  27.764  27.025  1.00  0.00    -0.203 F 
ATOM     74  F   UNL A   1      41.700  22.882  26.537  1.00  0.00    -0.200 F 
ATOM     75  C   UNL A   1      43.167  24.526  25.686  1.00  0.00     0.200 A 
ATOM     76  F   UNL A   1      44.622  26.201  24.879  1.00  0.00    -0.200 F 
ATOM     77  F   UNL A   1      43.440  23.756  24.624  1.00  0.00    -0.200 F 
ENDBRANCH  43  67
BRANCH  55  78
ATOM     78  C   UNL A   1      45.064  27.254  34.328  1.00  0.00     0.064 A 
ATOM     79  C   UNL A   1      44.989  26.057  35.058  1.00  0.00     0.173 A 
ATOM     80  C   UNL A   1      46.306  27.904  34.263  1.00  0.00     0.173 A 
ATOM     81  F   UNL A   1      43.823  25.403  35.163  1.00  0.00    -0.203 F 
ATOM     82  C   UNL A   1      46.107  25.546  35.711  1.00  0.00     0.198 A 
ATOM     83  C   UNL A   1      47.429  27.372  34.891  1.00  0.00     0.198 A 
ATOM     84  F   UNL A   1      46.435  29.048  33.573  1.00  0.00    -0.203 F 
ATOM     85  F   UNL A   1      46.000  24.425  36.440  1.00  0.00    -0.200 F 
ATOM     86  C   UNL A   1      47.327  26.198  35.620  1.00  0.00     0.200 A 
ATOM     87  F   UNL A   1      48.611  27.995  34.787  1.00  0.00    -0.200 F 
ATOM     88  F   UNL A   1      48.405  25.696  36.239  1.00  0.00    -0.200 F 
ENDBRANCH  55  78
ENDBRANCH  29  30
ENDBRANCH  22  24
ENDBRANCH  21  22
ENDBRANCH   1  21
TORSDOF 11
ENDMDL
MODEL 3
REMARK VINA RESULT:     -12.7      1.420      2.341
REMARK SMILES Cc1ccc2c(c1)=C1S[C@H](C(=O)OCCOC(=O)c3ccc(-c4c5nc(c(-c6c(F)c(F)c(F)c(F)c6F)c6ccc([nH]6)c(-c6c(F)c(F)c(F)c(F)c6F)c6nc(c(-c7c(F)c(F)c(F)c(F)c7F)c7ccc4[nH]7)C=C6)C=C5)cc3)C=C1C(=O)N=2
REMARK SMILES IDX 15 1 14 2 13 3 11 4 12 5 10 6 1 7 2 8 3 9 7 10 4 11 6 12
REMARK SMILES IDX 5 13 8 14 86 15 9 16 83 17 84 18 82 19 85 20 16 21 17 22
REMARK SMILES IDX 18 23 19 24 20 25 81 26 21 27 80 28 22 29 23 30 24 31 74 32
REMARK SMILES IDX 25 33 79 34 73 35 75 36 26 37 78 38 72 39 71 40 27 42 59 43
REMARK SMILES IDX 39 44 58 45 40 46 43 47 57 48 76 49 41 50 42 51 56 53 77 54
REMARK SMILES IDX 44 55 28 56 29 57 37 58 30 59 31 60 35 61 38 62 32 63 33 64
REMARK SMILES IDX 36 65 34 66 60 67 61 68 69 69 62 70 63 71 67 72 70 73 64 74
REMARK SMILES IDX 65 75 68 76 66 77 45 78 46 79 54 80 47 81 48 82 52 83 55 84
REMARK SMILES IDX 49 85 50 86 53 87 51 88
REMARK H PARENT 75 41 43 52
REMARK Flexibility Score: inf
ROOT
ATOM      1  C   UNL A   1      31.722  32.387  26.908  1.00  0.00     0.275 C 
ENDROOT
BRANCH   1   2
ATOM      2  C   UNL A   1      31.778  30.912  26.491  1.00  0.00     0.274 C 
BRANCH   2   3
ATOM      3  O   UNL A   1      33.148  30.515  26.282  1.00  0.00    -0.461 OA
BRANCH   3   4
ATOM      4  C   UNL A   1      33.474  29.219  26.562  1.00  0.00     0.323 C 
ATOM      5  O   UNL A   1      34.429  28.877  27.249  1.00  0.00    -0.251 OA
BRANCH   4   6
ATOM      6  C   UNL A   1      32.438  28.227  26.001  1.00  0.00     0.185 C 
ATOM      7  C   UNL A   1      36.592  22.290  25.746  1.00  0.00     0.044 C 
ATOM      8  C   UNL A   1      35.722  23.208  24.944  1.00  0.00    -0.050 A 
ATOM      9  C   UNL A   1      35.049  22.657  23.761  1.00  0.00     0.005 A 
ATOM     10  C   UNL A   1      35.371  24.443  25.365  1.00  0.00     0.015 A 
ATOM     11  C   UNL A   1      33.777  23.004  23.482  1.00  0.00     0.029 A 
ATOM     12  C   UNL A   1      34.213  25.066  24.701  1.00  0.00     0.015 A 
ATOM     13  C   UNL A   1      33.216  23.952  24.479  1.00  0.00     0.076 A 
ATOM     14  C   UNL A   1      33.560  26.093  25.244  1.00  0.00     0.030 C 
ATOM     15  N   UNL A   1      32.169  23.701  25.197  1.00  0.00    -0.209 NA
ATOM     16  S   UNL A   1      33.096  27.527  24.375  1.00  0.00    -0.105 SA
ATOM     17  C   UNL A   1      32.533  25.863  26.222  1.00  0.00     0.054 C 
ATOM     18  C   UNL A   1      31.930  24.503  26.303  1.00  0.00     0.278 C 
ATOM     19  C   UNL A   1      32.056  26.991  26.774  1.00  0.00     0.014 C 
ATOM     20  O   UNL A   1      31.223  24.183  27.250  1.00  0.00    -0.267 OA
ENDBRANCH   4   6
ENDBRANCH   3   4
ENDBRANCH   2   3
ENDBRANCH   1   2
BRANCH   1  21
ATOM     21  O   UNL A   1      33.063  32.910  26.925  1.00  0.00    -0.458 OA
BRANCH  21  22
ATOM     22  C   UNL A   1      33.414  33.651  28.001  1.00  0.00     0.338 C 
ATOM     23  O   UNL A   1      32.897  34.666  28.422  1.00  0.00    -0.246 OA
BRANCH  22  24
ATOM     24  C   UNL A   1      34.618  33.030  28.572  1.00  0.00     0.060 A 
ATOM     25  C   UNL A   1      34.506  31.802  29.216  1.00  0.00     0.016 A 
ATOM     26  C   UNL A   1      35.852  33.676  28.487  1.00  0.00     0.016 A 
ATOM     27  C   UNL A   1      35.630  31.255  29.833  1.00  0.00     0.010 A 
ATOM     28  C   UNL A   1      36.985  33.109  29.060  1.00  0.00     0.010 A 
ATOM     29  C   UNL A   1      36.876  31.907  29.765  1.00  0.00    -0.014 A 
BRANCH  29  30
ATOM     30  C   UNL A   1      38.065  31.319  30.423  1.00  0.00     0.031 A 
ATOM     31  C   UNL A   1      38.401  31.659  31.845  1.00  0.00     0.074 A 
ATOM     32  C   UNL A   1      38.836  30.467  29.725  1.00  0.00     0.049 A 
ATOM     33  N   UNL A   1      39.346  31.167  32.609  1.00  0.00    -0.248 NA
ATOM     34  C   UNL A   1      37.582  32.693  32.494  1.00  0.00     0.031 C 
ATOM     35  C   UNL A   1      38.624  30.106  28.323  1.00  0.00     0.029 A 
ATOM     36  N   UNL A   1      39.932  29.736  30.099  1.00  0.00    -0.354 N 
ATOM     37  C   UNL A   1      39.219  31.815  33.830  1.00  0.00     0.074 A 
ATOM     38  C   UNL A   1      38.157  32.787  33.684  1.00  0.00     0.031 C 
ATOM     39  C   UNL A   1      39.524  29.177  27.972  1.00  0.00     0.029 A 
ATOM     40  C   UNL A   1      40.395  28.904  29.112  1.00  0.00     0.049 A 
ATOM     41  H   UNL A   1      40.346  29.802  30.990  1.00  0.00     0.167 HD
ATOM     42  C   UNL A   1      39.906  31.593  34.977  1.00  0.00     0.037 A 
ATOM     43  C   UNL A   1      41.397  28.006  29.132  1.00  0.00     0.037 A 
ATOM     44  C   UNL A   1      40.971  30.632  35.105  1.00  0.00     0.049 A 
ATOM     45  C   UNL A   1      42.176  27.810  30.401  1.00  0.00     0.074 A 
ATOM     46  C   UNL A   1      41.719  30.312  36.225  1.00  0.00     0.029 A 
ATOM     47  N   UNL A   1      41.450  29.841  34.068  1.00  0.00    -0.354 N 
ATOM     48  N   UNL A   1      42.008  28.379  31.570  1.00  0.00    -0.248 NA
ATOM     49  C   UNL A   1      43.280  26.842  30.355  1.00  0.00     0.031 C 
ATOM     50  C   UNL A   1      42.681  29.367  35.854  1.00  0.00     0.029 A 
ATOM     51  C   UNL A   1      42.500  29.054  34.515  1.00  0.00     0.049 A 
ATOM     52  H   UNL A   1      41.095  29.840  33.149  1.00  0.00     0.167 HD
ATOM     53  C   UNL A   1      42.974  27.833  32.404  1.00  0.00     0.074 A 
ATOM     54  C   UNL A   1      43.708  26.866  31.610  1.00  0.00     0.031 C 
ATOM     55  C   UNL A   1      43.229  28.107  33.707  1.00  0.00     0.037 A 
BRANCH  42  56
ATOM     56  C   UNL A   1      39.513  32.396  36.184  1.00  0.00     0.064 A 
ATOM     57  C   UNL A   1      40.173  33.591  36.515  1.00  0.00     0.173 A 
ATOM     58  C   UNL A   1      38.447  31.992  37.004  1.00  0.00     0.173 A 
ATOM     59  F   UNL A   1      41.203  34.021  35.770  1.00  0.00    -0.203 F 
ATOM     60  C   UNL A   1      39.806  34.329  37.638  1.00  0.00     0.198 A 
ATOM     61  C   UNL A   1      38.062  32.751  38.108  1.00  0.00     0.198 A 
ATOM     62  F   UNL A   1      37.774  30.864  36.733  1.00  0.00    -0.203 F 
ATOM     63  F   UNL A   1      40.489  35.437  37.961  1.00  0.00    -0.200 F 
ATOM     64  C   UNL A   1      38.748  33.913  38.429  1.00  0.00     0.200 A 
ATOM     65  F   UNL A   1      37.028  32.355  38.863  1.00  0.00    -0.200 F 
ATOM     66  F   UNL A   1      38.392  34.628  39.505  1.00  0.00    -0.200 F 
ENDBRANCH  42  56
BRANCH  43  67
ATOM     67  C   UNL A   1      41.661  27.190  27.920  1.00  0.00     0.064 A 
ATOM     68  C   UNL A   1      42.619  27.596  26.981  1.00  0.00     0.173 A 
ATOM     69  C   UNL A   1      41.018  25.962  27.711  1.00  0.00     0.173 A 
ATOM     70  F   UNL A   1      43.247  28.771  27.131  1.00  0.00    -0.203 F 
ATOM     71  C   UNL A   1      42.926  26.802  25.879  1.00  0.00     0.198 A 
ATOM     72  C   UNL A   1      41.346  25.156  26.622  1.00  0.00     0.198 A 
ATOM     73  F   UNL A   1      40.100  25.526  28.585  1.00  0.00    -0.203 F 
ATOM     74  F   UNL A   1      43.833  27.222  24.987  1.00  0.00    -0.200 F 
ATOM     75  C   UNL A   1      42.299  25.578  25.707  1.00  0.00     0.200 A 
ATOM     76  F   UNL A   1      40.751  23.965  26.470  1.00  0.00    -0.200 F 
ATOM     77  F   UNL A   1      42.613  24.802  24.660  1.00  0.00    -0.200 F 
ENDBRANCH  43  67
BRANCH  55  78
ATOM     78  C   UNL A   1      44.353  27.356  34.361  1.00  0.00     0.064 A 
ATOM     79  C   UNL A   1      45.642  27.902  34.457  1.00  0.00     0.173 A 
ATOM     80  C   UNL A   1      44.127  26.101  34.947  1.00  0.00     0.173 A 
ATOM     81  F   UNL A   1      45.914  29.092  33.902  1.00  0.00    -0.203 F 
ATOM     82  C   UNL A   1      46.667  27.209  35.095  1.00  0.00     0.198 A 
ATOM     83  C   UNL A   1      45.147  25.426  35.613  1.00  0.00     0.198 A 
ATOM     84  F   UNL A   1      42.911  25.536  34.891  1.00  0.00    -0.203 F 
ATOM     85  F   UNL A   1      47.902  27.730  35.134  1.00  0.00    -0.200 F 
ATOM     86  C   UNL A   1      46.417  25.977  35.680  1.00  0.00     0.200 A 
ATOM     87  F   UNL A   1      44.899  24.243  36.192  1.00  0.00    -0.200 F 
ATOM     88  F   UNL A   1      47.403  25.318  36.306  1.00  0.00    -0.200 F 
ENDBRANCH  55  78
ENDBRANCH  29  30
ENDBRANCH  22  24
ENDBRANCH  21  22
ENDBRANCH   1  21
TORSDOF 11
ENDMDL
