MODEL 1
REMARK VINA RESULT:     -13.5      0.000      0.000
REMARK SMILES Cc1ccc(CCC(=O)N2CCC3(CC2)[C@H](C(=O)OCCOC(=O)c2ccc(-c4c5nc(c(-c6c(F)c(F)c(F)c(F)c6F)c6ccc([nH]6)c(-c6c(F)c(F)c(F)c(F)c6F)c6nc(c(-c7c(F)c(F)c(F)c(F)c7F)c7ccc4[nH]7)C=C6)C=C5)cc2)CC(=O)N3C)cc1
REMARK SMILES IDX 20 1 19 2 17 3 18 4 16 5 8 6 9 7 10 8 11 9 15 10 12 11 14 12
REMARK SMILES IDX 13 13 91 14 88 15 89 16 92 17 90 18 7 19 6 20 5 21 1 22 2 23
REMARK SMILES IDX 3 24 94 25 4 26 93 27 21 28 22 29 23 30 24 31 25 32 26 33
REMARK SMILES IDX 87 34 27 35 86 36 28 37 29 38 30 39 80 40 31 41 85 42 79 43
REMARK SMILES IDX 81 44 32 45 84 46 78 47 77 48 33 50 65 51 45 52 64 53 46 54
REMARK SMILES IDX 49 55 63 56 82 57 47 58 48 59 62 61 83 62 50 63 34 64 35 65
REMARK SMILES IDX 43 66 36 67 37 68 41 69 44 70 38 71 39 72 42 73 40 74 66 75
REMARK SMILES IDX 67 76 75 77 68 78 69 79 73 80 76 81 70 82 71 83 74 84 72 85
REMARK SMILES IDX 51 86 52 87 60 88 53 89 54 90 58 91 61 92 55 93 56 94 59 95
REMARK SMILES IDX 57 96
REMARK H PARENT 81 49 49 60
REMARK Flexibility Score: inf
ROOT
ATOM      1  C   UNL A   1      31.769  28.090  27.473  1.00  0.00     0.274 C 
ENDROOT
BRANCH   1   2
ATOM      2  O   UNL A   1      31.562  27.155  26.374  1.00  0.00    -0.462 OA
BRANCH   2   3
ATOM      3  C   UNL A   1      32.506  26.238  26.122  1.00  0.00     0.311 C 
ATOM      4  O   UNL A   1      32.644  25.200  26.760  1.00  0.00    -0.252 OA
BRANCH   3   5
ATOM      5  C   UNL A   1      33.390  26.440  24.941  1.00  0.00     0.134 C 
ATOM      6  C   UNL A   1      32.714  21.446  24.746  1.00  0.00     0.222 C 
ATOM      7  O   UNL A   1      31.702  20.777  24.978  1.00  0.00    -0.275 OA
ATOM      8  N   UNL A   1      32.647  22.560  23.921  1.00  0.00    -0.343 N 
ATOM      9  C   UNL A   1      31.416  23.275  23.647  1.00  0.00     0.122 C 
ATOM     10  C   UNL A   1      33.760  23.102  23.211  1.00  0.00     0.122 C 
ATOM     11  C   UNL A   1      31.558  24.771  23.988  1.00  0.00     0.051 C 
ATOM     12  C   UNL A   1      34.155  24.411  23.822  1.00  0.00     0.051 C 
ATOM     13  C   UNL A   1      32.996  25.429  23.826  1.00  0.00     0.060 C 
ATOM     14  N   UNL A   1      33.011  26.294  22.631  1.00  0.00    -0.339 N 
ATOM     15  C   UNL A   1      33.685  27.779  24.306  1.00  0.00     0.118 C 
ATOM     16  C   UNL A   1      33.303  27.623  22.874  1.00  0.00     0.223 C 
ATOM     17  C   UNL A   1      32.913  25.827  21.268  1.00  0.00     0.147 C 
ATOM     18  O   UNL A   1      33.337  28.522  22.049  1.00  0.00    -0.275 OA
BRANCH   6  19
ATOM     19  C   UNL A   1      34.023  21.133  25.520  1.00  0.00     0.105 C 
BRANCH  19  20
ATOM     20  C   UNL A   1      35.118  20.203  24.938  1.00  0.00     0.045 C 
BRANCH  20  21
ATOM     21  C   UNL A   1      36.527  20.784  24.998  1.00  0.00    -0.047 A 
ATOM     22  C   UNL A   1      40.246  22.032  26.724  1.00  0.00     0.044 C 
ATOM     23  C   UNL A   1      39.016  21.674  25.944  1.00  0.00    -0.051 A 
ATOM     24  C   UNL A   1      37.947  22.568  25.833  1.00  0.00     0.004 A 
ATOM     25  C   UNL A   1      38.889  20.398  25.386  1.00  0.00     0.004 A 
ATOM     26  C   UNL A   1      36.726  22.140  25.305  1.00  0.00     0.004 A 
ATOM     27  C   UNL A   1      37.648  19.950  24.924  1.00  0.00     0.004 A 
ENDBRANCH  20  21
ENDBRANCH  19  20
ENDBRANCH   6  19
ENDBRANCH   3   5
ENDBRANCH   2   3
ENDBRANCH   1   2
BRANCH   1  28
ATOM     28  C   UNL A   1      32.100  29.609  27.243  1.00  0.00     0.275 C 
BRANCH  28  29
ATOM     29  O   UNL A   1      33.447  30.204  27.078  1.00  0.00    -0.458 OA
BRANCH  29  30
ATOM     30  C   UNL A   1      33.932  31.363  27.619  1.00  0.00     0.338 C 
ATOM     31  O   UNL A   1      33.325  32.424  27.669  1.00  0.00    -0.246 OA
BRANCH  30  32
ATOM     32  C   UNL A   1      35.359  31.261  27.966  1.00  0.00     0.060 A 
ATOM     33  C   UNL A   1      36.259  32.347  27.969  1.00  0.00     0.016 A 
ATOM     34  C   UNL A   1      35.715  30.042  28.502  1.00  0.00     0.016 A 
ATOM     35  C   UNL A   1      37.501  32.196  28.598  1.00  0.00     0.010 A 
ATOM     36  C   UNL A   1      36.747  30.018  29.385  1.00  0.00     0.010 A 
ATOM     37  C   UNL A   1      37.714  31.025  29.327  1.00  0.00    -0.014 A 
BRANCH  37  38
ATOM     38  C   UNL A   1      38.994  30.443  29.709  1.00  0.00     0.031 A 
ATOM     39  C   UNL A   1      39.559  29.293  28.992  1.00  0.00     0.074 A 
ATOM     40  C   UNL A   1      39.682  31.359  30.435  1.00  0.00     0.049 A 
ATOM     41  N   UNL A   1      40.110  28.267  29.551  1.00  0.00    -0.248 NA
ATOM     42  C   UNL A   1      39.484  29.180  27.531  1.00  0.00     0.031 C 
ATOM     43  C   UNL A   1      41.094  31.604  30.622  1.00  0.00     0.029 A 
ATOM     44  N   UNL A   1      39.084  32.421  31.146  1.00  0.00    -0.354 N 
ATOM     45  C   UNL A   1      40.769  27.611  28.524  1.00  0.00     0.074 A 
ATOM     46  C   UNL A   1      40.112  28.020  27.305  1.00  0.00     0.031 C 
ATOM     47  C   UNL A   1      41.244  32.477  31.643  1.00  0.00     0.029 A 
ATOM     48  C   UNL A   1      39.921  32.763  32.197  1.00  0.00     0.049 A 
ATOM     49  H   UNL A   1      38.222  32.846  30.934  1.00  0.00     0.167 HD
ATOM     50  C   UNL A   1      42.084  27.256  28.664  1.00  0.00     0.037 A 
ATOM     51  C   UNL A   1      39.439  32.465  33.438  1.00  0.00     0.037 A 
ATOM     52  C   UNL A   1      42.637  27.937  29.829  1.00  0.00     0.049 A 
ATOM     53  C   UNL A   1      40.198  31.276  33.950  1.00  0.00     0.074 A 
ATOM     54  C   UNL A   1      43.406  29.085  29.922  1.00  0.00     0.029 A 
ATOM     55  N   UNL A   1      42.141  27.682  31.097  1.00  0.00    -0.354 N 
ATOM     56  N   UNL A   1      40.652  30.315  33.192  1.00  0.00    -0.248 NA
ATOM     57  C   UNL A   1      40.619  31.169  35.337  1.00  0.00     0.031 C 
ATOM     58  C   UNL A   1      43.384  29.513  31.270  1.00  0.00     0.029 A 
ATOM     59  C   UNL A   1      42.564  28.652  31.981  1.00  0.00     0.049 A 
ATOM     60  H   UNL A   1      41.567  26.918  31.333  1.00  0.00     0.167 HD
ATOM     61  C   UNL A   1      41.504  29.542  33.932  1.00  0.00     0.074 A 
ATOM     62  C   UNL A   1      41.424  30.096  35.274  1.00  0.00     0.031 C 
ATOM     63  C   UNL A   1      42.263  28.544  33.394  1.00  0.00     0.037 A 
BRANCH  50  64
ATOM     64  C   UNL A   1      42.969  26.657  27.587  1.00  0.00     0.064 A 
ATOM     65  C   UNL A   1      43.082  25.256  27.426  1.00  0.00     0.173 A 
ATOM     66  C   UNL A   1      43.663  27.417  26.625  1.00  0.00     0.173 A 
ATOM     67  F   UNL A   1      42.401  24.401  28.200  1.00  0.00    -0.203 F 
ATOM     68  C   UNL A   1      43.880  24.668  26.442  1.00  0.00     0.198 A 
ATOM     69  C   UNL A   1      44.480  26.826  25.650  1.00  0.00     0.198 A 
ATOM     70  F   UNL A   1      43.538  28.752  26.578  1.00  0.00    -0.203 F 
ATOM     71  F   UNL A   1      43.944  23.331  26.353  1.00  0.00    -0.200 F 
ATOM     72  C   UNL A   1      44.593  25.452  25.563  1.00  0.00     0.200 A 
ATOM     73  F   UNL A   1      45.151  27.598  24.783  1.00  0.00    -0.200 F 
ATOM     74  F   UNL A   1      45.360  24.886  24.622  1.00  0.00    -0.200 F 
ENDBRANCH  50  64
BRANCH  51  75
ATOM     75  C   UNL A   1      37.950  32.694  33.545  1.00  0.00     0.064 A 
ATOM     76  C   UNL A   1      37.505  34.007  33.840  1.00  0.00     0.173 A 
ATOM     77  C   UNL A   1      36.988  31.810  33.037  1.00  0.00     0.173 A 
ATOM     78  F   UNL A   1      38.376  34.916  34.309  1.00  0.00    -0.203 F 
ATOM     79  C   UNL A   1      36.210  34.438  33.545  1.00  0.00     0.198 A 
ATOM     80  C   UNL A   1      35.679  32.240  32.764  1.00  0.00     0.198 A 
ATOM     81  F   UNL A   1      37.322  30.555  32.711  1.00  0.00    -0.203 F 
ATOM     82  F   UNL A   1      35.876  35.724  33.723  1.00  0.00    -0.200 F 
ATOM     83  C   UNL A   1      35.300  33.556  32.992  1.00  0.00     0.200 A 
ATOM     84  F   UNL A   1      34.803  31.399  32.193  1.00  0.00    -0.200 F 
ATOM     85  F   UNL A   1      34.080  33.981  32.632  1.00  0.00    -0.200 F 
ENDBRANCH  51  75
BRANCH  63  86
ATOM     86  C   UNL A   1      42.910  27.429  34.170  1.00  0.00     0.064 A 
ATOM     87  C   UNL A   1      44.280  27.402  34.467  1.00  0.00     0.173 A 
ATOM     88  C   UNL A   1      42.127  26.429  34.801  1.00  0.00     0.173 A 
ATOM     89  F   UNL A   1      45.106  28.376  34.064  1.00  0.00    -0.203 F 
ATOM     90  C   UNL A   1      44.841  26.398  35.252  1.00  0.00     0.198 A 
ATOM     91  C   UNL A   1      42.680  25.482  35.653  1.00  0.00     0.198 A 
ATOM     92  F   UNL A   1      40.798  26.359  34.645  1.00  0.00    -0.203 F 
ATOM     93  F   UNL A   1      46.166  26.379  35.444  1.00  0.00    -0.200 F 
ATOM     94  C   UNL A   1      44.042  25.448  35.857  1.00  0.00     0.200 A 
ATOM     95  F   UNL A   1      41.879  24.618  36.294  1.00  0.00    -0.200 F 
ATOM     96  F   UNL A   1      44.581  24.518  36.653  1.00  0.00    -0.200 F 
ENDBRANCH  63  86
ENDBRANCH  37  38
ENDBRANCH  30  32
ENDBRANCH  29  30
ENDBRANCH  28  29
ENDBRANCH   1  28
TORSDOF 14
ENDMDL
MODEL 2
REMARK VINA RESULT:     -13.4      1.943      4.724
REMARK SMILES Cc1ccc(CCC(=O)N2CCC3(CC2)[C@H](C(=O)OCCOC(=O)c2ccc(-c4c5nc(c(-c6c(F)c(F)c(F)c(F)c6F)c6ccc([nH]6)c(-c6c(F)c(F)c(F)c(F)c6F)c6nc(c(-c7c(F)c(F)c(F)c(F)c7F)c7ccc4[nH]7)C=C6)C=C5)cc2)CC(=O)N3C)cc1
REMARK SMILES IDX 20 1 19 2 17 3 18 4 16 5 8 6 9 7 10 8 11 9 15 10 12 11 14 12
REMARK SMILES IDX 13 13 91 14 88 15 89 16 92 17 90 18 7 19 6 20 5 21 1 22 2 23
REMARK SMILES IDX 3 24 94 25 4 26 93 27 21 28 22 29 23 30 24 31 25 32 26 33
REMARK SMILES IDX 87 34 27 35 86 36 28 37 29 38 30 39 80 40 31 41 85 42 79 43
REMARK SMILES IDX 81 44 32 45 84 46 78 47 77 48 33 50 65 51 45 52 64 53 46 54
REMARK SMILES IDX 49 55 63 56 82 57 47 58 48 59 62 61 83 62 50 63 34 64 35 65
REMARK SMILES IDX 43 66 36 67 37 68 41 69 44 70 38 71 39 72 42 73 40 74 66 75
REMARK SMILES IDX 67 76 75 77 68 78 69 79 73 80 76 81 70 82 71 83 74 84 72 85
REMARK SMILES IDX 51 86 52 87 60 88 53 89 54 90 58 91 61 92 55 93 56 94 59 95
REMARK SMILES IDX 57 96
REMARK H PARENT 81 49 49 60
REMARK Flexibility Score: inf
ROOT
ATOM      1  C   UNL A   1      32.945  27.698  25.452  1.00  0.00     0.274 C 
ENDROOT
BRANCH   1   2
ATOM      2  O   UNL A   1      33.102  26.597  26.394  1.00  0.00    -0.462 OA
BRANCH   2   3
ATOM      3  C   UNL A   1      33.725  25.483  25.985  1.00  0.00     0.311 C 
ATOM      4  O   UNL A   1      34.920  25.421  25.718  1.00  0.00    -0.252 OA
BRANCH   3   5
ATOM      5  C   UNL A   1      32.944  24.216  25.931  1.00  0.00     0.134 C 
ATOM      6  C   UNL A   1      30.460  26.976  22.518  1.00  0.00     0.222 C 
ATOM      7  O   UNL A   1      30.895  27.773  21.680  1.00  0.00    -0.275 OA
ATOM      8  N   UNL A   1      31.031  25.719  22.656  1.00  0.00    -0.343 N 
ATOM      9  C   UNL A   1      32.374  25.401  22.208  1.00  0.00     0.122 C 
ATOM     10  C   UNL A   1      30.358  24.586  23.202  1.00  0.00     0.122 C 
ATOM     11  C   UNL A   1      33.215  24.815  23.359  1.00  0.00     0.051 C 
ATOM     12  C   UNL A   1      30.937  24.257  24.543  1.00  0.00     0.051 C 
ATOM     13  C   UNL A   1      32.453  23.977  24.474  1.00  0.00     0.060 C 
ATOM     14  N   UNL A   1      32.746  22.542  24.301  1.00  0.00    -0.339 N 
ATOM     15  C   UNL A   1      33.400  22.900  26.516  1.00  0.00     0.118 C 
ATOM     16  C   UNL A   1      33.354  21.934  25.383  1.00  0.00     0.223 C 
ATOM     17  C   UNL A   1      32.303  21.734  23.189  1.00  0.00     0.147 C 
ATOM     18  O   UNL A   1      33.717  20.770  25.453  1.00  0.00    -0.275 OA
BRANCH   6  19
ATOM     19  C   UNL A   1      29.385  27.453  23.532  1.00  0.00     0.105 C 
BRANCH  19  20
ATOM     20  C   UNL A   1      27.983  27.933  23.076  1.00  0.00     0.045 C 
BRANCH  20  21
ATOM     21  C   UNL A   1      27.888  29.436  22.832  1.00  0.00    -0.047 A 
ATOM     22  C   UNL A   1      28.988  33.575  23.018  1.00  0.00     0.044 C 
ATOM     23  C   UNL A   1      28.433  32.190  22.855  1.00  0.00    -0.051 A 
ATOM     24  C   UNL A   1      27.590  31.633  23.821  1.00  0.00     0.004 A 
ATOM     25  C   UNL A   1      28.827  31.403  21.768  1.00  0.00     0.004 A 
ATOM     26  C   UNL A   1      27.269  30.274  23.774  1.00  0.00     0.004 A 
ATOM     27  C   UNL A   1      28.565  30.030  21.761  1.00  0.00     0.004 A 
ENDBRANCH  20  21
ENDBRANCH  19  20
ENDBRANCH   6  19
ENDBRANCH   3   5
ENDBRANCH   2   3
ENDBRANCH   1   2
BRANCH   1  28
ATOM     28  C   UNL A   1      33.025  29.205  25.889  1.00  0.00     0.275 C 
BRANCH  28  29
ATOM     29  O   UNL A   1      33.365  29.716  27.239  1.00  0.00    -0.458 OA
BRANCH  29  30
ATOM     30  C   UNL A   1      33.829  30.956  27.582  1.00  0.00     0.338 C 
ATOM     31  O   UNL A   1      33.194  31.998  27.481  1.00  0.00    -0.246 OA
BRANCH  30  32
ATOM     32  C   UNL A   1      35.264  30.944  27.906  1.00  0.00     0.060 A 
ATOM     33  C   UNL A   1      36.105  32.074  27.847  1.00  0.00     0.016 A 
ATOM     34  C   UNL A   1      35.693  29.770  28.487  1.00  0.00     0.016 A 
ATOM     35  C   UNL A   1      37.364  32.016  28.459  1.00  0.00     0.010 A 
ATOM     36  C   UNL A   1      36.739  29.837  29.351  1.00  0.00     0.010 A 
ATOM     37  C   UNL A   1      37.650  30.890  29.232  1.00  0.00    -0.014 A 
BRANCH  37  38
ATOM     38  C   UNL A   1      38.965  30.393  29.615  1.00  0.00     0.031 A 
ATOM     39  C   UNL A   1      39.566  29.226  28.956  1.00  0.00     0.074 A 
ATOM     40  C   UNL A   1      39.626  31.383  30.263  1.00  0.00     0.049 A 
ATOM     41  N   UNL A   1      40.178  28.263  29.563  1.00  0.00    -0.248 NA
ATOM     42  C   UNL A   1      39.461  29.016  27.508  1.00  0.00     0.031 C 
ATOM     43  C   UNL A   1      41.030  31.703  30.396  1.00  0.00     0.029 A 
ATOM     44  N   UNL A   1      38.997  32.460  30.923  1.00  0.00    -0.354 N 
ATOM     45  C   UNL A   1      40.843  27.574  28.562  1.00  0.00     0.074 A 
ATOM     46  C   UNL A   1      40.137  27.874  27.338  1.00  0.00     0.031 C 
ATOM     47  C   UNL A   1      41.163  32.645  31.356  1.00  0.00     0.029 A 
ATOM     48  C   UNL A   1      39.842  32.905  31.927  1.00  0.00     0.049 A 
ATOM     49  H   UNL A   1      38.111  32.831  30.708  1.00  0.00     0.167 HD
ATOM     50  C   UNL A   1      42.176  27.289  28.688  1.00  0.00     0.037 A 
ATOM     51  C   UNL A   1      39.405  32.667  33.196  1.00  0.00     0.037 A 
ATOM     52  C   UNL A   1      42.724  28.067  29.792  1.00  0.00     0.049 A 
ATOM     53  C   UNL A   1      40.232  31.548  33.762  1.00  0.00     0.074 A 
ATOM     54  C   UNL A   1      43.440  29.253  29.792  1.00  0.00     0.029 A 
ATOM     55  N   UNL A   1      42.272  27.872  31.086  1.00  0.00    -0.354 N 
ATOM     56  N   UNL A   1      40.712  30.562  33.053  1.00  0.00    -0.248 NA
ATOM     57  C   UNL A   1      40.691  31.549  35.140  1.00  0.00     0.031 C 
ATOM     58  C   UNL A   1      43.431  29.764  31.111  1.00  0.00     0.029 A 
ATOM     59  C   UNL A   1      42.670  28.914  31.896  1.00  0.00     0.049 A 
ATOM     60  H   UNL A   1      41.740  27.098  31.386  1.00  0.00     0.167 HD
ATOM     61  C   UNL A   1      41.617  29.878  33.816  1.00  0.00     0.074 A 
ATOM     62  C   UNL A   1      41.544  30.512  35.122  1.00  0.00     0.031 C 
ATOM     63  C   UNL A   1      42.409  28.883  33.321  1.00  0.00     0.037 A 
BRANCH  50  64
ATOM     64  C   UNL A   1      43.062  26.663  27.626  1.00  0.00     0.064 A 
ATOM     65  C   UNL A   1      43.226  25.261  27.543  1.00  0.00     0.173 A 
ATOM     66  C   UNL A   1      43.704  27.393  26.607  1.00  0.00     0.173 A 
ATOM     67  F   UNL A   1      42.597  24.426  28.380  1.00  0.00    -0.203 F 
ATOM     68  C   UNL A   1      44.027  24.648  26.577  1.00  0.00     0.198 A 
ATOM     69  C   UNL A   1      44.524  26.778  25.649  1.00  0.00     0.198 A 
ATOM     70  F   UNL A   1      43.525  28.716  26.487  1.00  0.00    -0.203 F 
ATOM     71  F   UNL A   1      44.143  23.312  26.563  1.00  0.00    -0.200 F 
ATOM     72  C   UNL A   1      44.689  25.407  25.637  1.00  0.00     0.200 A 
ATOM     73  F   UNL A   1      45.144  27.524  24.723  1.00  0.00    -0.200 F 
ATOM     74  F   UNL A   1      45.459  24.818  24.713  1.00  0.00    -0.200 F 
ENDBRANCH  50  64
BRANCH  51  75
ATOM     75  C   UNL A   1      37.910  32.834  33.330  1.00  0.00     0.064 A 
ATOM     76  C   UNL A   1      37.413  34.135  33.590  1.00  0.00     0.173 A 
ATOM     77  C   UNL A   1      36.978  31.891  32.875  1.00  0.00     0.173 A 
ATOM     78  F   UNL A   1      38.253  35.098  34.007  1.00  0.00    -0.203 F 
ATOM     79  C   UNL A   1      36.094  34.499  33.310  1.00  0.00     0.198 A 
ATOM     80  C   UNL A   1      35.645  32.254  32.618  1.00  0.00     0.198 A 
ATOM     81  F   UNL A   1      37.360  30.641  32.585  1.00  0.00    -0.203 F 
ATOM     82  F   UNL A   1      35.708  35.775  33.450  1.00  0.00    -0.200 F 
ATOM     83  C   UNL A   1      35.214  33.559  32.809  1.00  0.00     0.200 A 
ATOM     84  F   UNL A   1      34.795  31.355  32.096  1.00  0.00    -0.200 F 
ATOM     85  F   UNL A   1      33.969  33.917  32.462  1.00  0.00    -0.200 F 
ENDBRANCH  51  75
BRANCH  63  86
ATOM     86  C   UNL A   1      43.126  27.851  34.147  1.00  0.00     0.064 A 
ATOM     87  C   UNL A   1      42.483  26.736  34.703  1.00  0.00     0.173 A 
ATOM     88  C   UNL A   1      44.540  27.857  34.255  1.00  0.00     0.173 A 
ATOM     89  F   UNL A   1      41.170  26.527  34.537  1.00  0.00    -0.203 F 
ATOM     90  C   UNL A   1      43.184  25.754  35.399  1.00  0.00     0.198 A 
ATOM     91  C   UNL A   1      45.242  26.830  34.874  1.00  0.00     0.198 A 
ATOM     92  F   UNL A   1      45.293  28.835  33.732  1.00  0.00    -0.203 F 
ATOM     93  F   UNL A   1      42.510  24.749  35.972  1.00  0.00    -0.200 F 
ATOM     94  C   UNL A   1      44.562  25.792  35.472  1.00  0.00     0.200 A 
ATOM     95  F   UNL A   1      46.583  26.844  34.866  1.00  0.00    -0.200 F 
ATOM     96  F   UNL A   1      45.234  24.817  36.096  1.00  0.00    -0.200 F 
ENDBRANCH  63  86
ENDBRANCH  37  38
ENDBRANCH  30  32
ENDBRANCH  29  30
ENDBRANCH  28  29
ENDBRANCH   1  28
TORSDOF 14
ENDMDL
MODEL 3
REMARK VINA RESULT:     -13.3      3.138      9.290
REMARK SMILES Cc1ccc(CCC(=O)N2CCC3(CC2)[C@H](C(=O)OCCOC(=O)c2ccc(-c4c5nc(c(-c6c(F)c(F)c(F)c(F)c6F)c6ccc([nH]6)c(-c6c(F)c(F)c(F)c(F)c6F)c6nc(c(-c7c(F)c(F)c(F)c(F)c7F)c7ccc4[nH]7)C=C6)C=C5)cc2)CC(=O)N3C)cc1
REMARK SMILES IDX 20 1 19 2 17 3 18 4 16 5 8 6 9 7 10 8 11 9 15 10 12 11 14 12
REMARK SMILES IDX 13 13 91 14 88 15 89 16 92 17 90 18 7 19 6 20 5 21 1 22 2 23
REMARK SMILES IDX 3 24 94 25 4 26 93 27 21 28 22 29 23 30 24 31 25 32 26 33
REMARK SMILES IDX 87 34 27 35 86 36 28 37 29 38 30 39 80 40 31 41 85 42 79 43
REMARK SMILES IDX 81 44 32 45 84 46 78 47 77 48 33 50 65 51 45 52 64 53 46 54
REMARK SMILES IDX 49 55 63 56 82 57 47 58 48 59 62 61 83 62 50 63 34 64 35 65
REMARK SMILES IDX 43 66 36 67 37 68 41 69 44 70 38 71 39 72 42 73 40 74 66 75
REMARK SMILES IDX 67 76 75 77 68 78 69 79 73 80 76 81 70 82 71 83 74 84 72 85
REMARK SMILES IDX 51 86 52 87 60 88 53 89 54 90 58 91 61 92 55 93 56 94 59 95
REMARK SMILES IDX 57 96
REMARK H PARENT 81 49 49 60
REMARK Flexibility Score: inf
ROOT
ATOM      1  C   UNL A   1      37.102  23.819  26.130  1.00  0.00     0.274 C 
ENDROOT
BRANCH   1   2
ATOM      2  O   UNL A   1      36.034  23.256  25.311  1.00  0.00    -0.462 OA
BRANCH   2   3
ATOM      3  C   UNL A   1      34.764  23.559  25.613  1.00  0.00     0.311 C 
ATOM      4  O   UNL A   1      34.373  24.687  25.893  1.00  0.00    -0.252 OA
BRANCH   3   5
ATOM      5  C   UNL A   1      33.739  22.482  25.517  1.00  0.00     0.134 C 
ATOM      6  C   UNL A   1      31.293  26.287  23.287  1.00  0.00     0.222 C 
ATOM      7  O   UNL A   1      31.720  27.160  22.524  1.00  0.00    -0.275 OA
ATOM      8  N   UNL A   1      31.603  24.952  23.071  1.00  0.00    -0.343 N 
ATOM      9  C   UNL A   1      32.741  24.516  22.284  1.00  0.00     0.122 C 
ATOM     10  C   UNL A   1      30.822  23.858  23.550  1.00  0.00     0.122 C 
ATOM     11  C   UNL A   1      33.641  23.564  23.094  1.00  0.00     0.051 C 
ATOM     12  C   UNL A   1      31.561  23.157  24.648  1.00  0.00     0.051 C 
ATOM     13  C   UNL A   1      32.944  22.648  24.190  1.00  0.00     0.060 C 
ATOM     14  N   UNL A   1      32.892  21.254  23.708  1.00  0.00    -0.339 N 
ATOM     15  C   UNL A   1      34.011  21.014  25.747  1.00  0.00     0.118 C 
ATOM     16  C   UNL A   1      33.551  20.335  24.503  1.00  0.00     0.223 C 
ATOM     17  C   UNL A   1      32.088  20.789  22.602  1.00  0.00     0.147 C 
ATOM     18  O   UNL A   1      33.668  19.139  24.285  1.00  0.00    -0.275 OA
BRANCH   6  19
ATOM     19  C   UNL A   1      30.552  26.710  24.584  1.00  0.00     0.105 C 
BRANCH  19  20
ATOM     20  C   UNL A   1      31.288  26.843  25.942  1.00  0.00     0.045 C 
BRANCH  20  21
ATOM     21  C   UNL A   1      32.149  28.095  26.065  1.00  0.00    -0.047 A 
ATOM     22  C   UNL A   1      33.818  31.619  27.846  1.00  0.00     0.044 C 
ATOM     23  C   UNL A   1      33.341  30.437  27.054  1.00  0.00    -0.051 A 
ATOM     24  C   UNL A   1      32.188  30.515  26.267  1.00  0.00     0.004 A 
ATOM     25  C   UNL A   1      34.002  29.210  27.164  1.00  0.00     0.004 A 
ATOM     26  C   UNL A   1      31.630  29.355  25.723  1.00  0.00     0.004 A 
ATOM     27  C   UNL A   1      33.405  28.041  26.681  1.00  0.00     0.004 A 
ENDBRANCH  20  21
ENDBRANCH  19  20
ENDBRANCH   6  19
ENDBRANCH   3   5
ENDBRANCH   2   3
ENDBRANCH   1   2
BRANCH   1  28
ATOM     28  C   UNL A   1      38.543  23.198  26.185  1.00  0.00     0.275 C 
BRANCH  28  29
ATOM     29  O   UNL A   1      39.531  23.355  27.280  1.00  0.00    -0.458 OA
BRANCH  29  30
ATOM     30  C   UNL A   1      40.783  23.901  27.217  1.00  0.00     0.338 C 
ATOM     31  O   UNL A   1      41.827  23.265  27.154  1.00  0.00    -0.246 OA
BRANCH  30  32
ATOM     32  C   UNL A   1      40.768  25.356  27.437  1.00  0.00     0.060 A 
ATOM     33  C   UNL A   1      40.616  26.316  26.415  1.00  0.00     0.016 A 
ATOM     34  C   UNL A   1      40.701  25.717  28.766  1.00  0.00     0.016 A 
ATOM     35  C   UNL A   1      40.316  27.639  26.766  1.00  0.00     0.010 A 
ATOM     36  C   UNL A   1      40.085  26.888  29.072  1.00  0.00     0.010 A 
ATOM     37  C   UNL A   1      40.027  27.898  28.107  1.00  0.00    -0.014 A 
BRANCH  37  38
ATOM     38  C   UNL A   1      40.094  29.181  28.793  1.00  0.00     0.031 A 
ATOM     39  C   UNL A   1      38.911  30.039  28.931  1.00  0.00     0.074 A 
ATOM     40  C   UNL A   1      41.193  29.187  29.587  1.00  0.00     0.049 A 
ATOM     41  N   UNL A   1      38.894  31.318  28.749  1.00  0.00    -0.248 NA
ATOM     42  C   UNL A   1      37.586  29.487  29.237  1.00  0.00     0.031 C 
ATOM     43  C   UNL A   1      41.504  29.861  30.827  1.00  0.00     0.029 A 
ATOM     44  N   UNL A   1      42.327  28.373  29.381  1.00  0.00    -0.354 N 
ATOM     45  C   UNL A   1      37.691  31.743  29.288  1.00  0.00     0.074 A 
ATOM     46  C   UNL A   1      36.824  30.587  29.282  1.00  0.00     0.031 C 
ATOM     47  C   UNL A   1      42.827  29.722  31.067  1.00  0.00     0.029 A 
ATOM     48  C   UNL A   1      43.424  29.011  29.938  1.00  0.00     0.049 A 
ATOM     49  H   UNL A   1      42.337  27.502  28.922  1.00  0.00     0.167 HD
ATOM     50  C   UNL A   1      37.661  32.782  30.179  1.00  0.00     0.037 A 
ATOM     51  C   UNL A   1      44.342  29.467  29.038  1.00  0.00     0.037 A 
ATOM     52  C   UNL A   1      39.021  33.063  30.625  1.00  0.00     0.049 A 
ATOM     53  C   UNL A   1      44.210  30.960  28.967  1.00  0.00     0.074 A 
ATOM     54  C   UNL A   1      39.688  32.686  31.778  1.00  0.00     0.029 A 
ATOM     55  N   UNL A   1      39.984  33.491  29.726  1.00  0.00    -0.354 N 
ATOM     56  N   UNL A   1      43.082  31.604  29.113  1.00  0.00    -0.248 NA
ATOM     57  C   UNL A   1      45.367  31.835  28.868  1.00  0.00     0.031 C 
ATOM     58  C   UNL A   1      41.070  32.910  31.572  1.00  0.00     0.029 A 
ATOM     59  C   UNL A   1      41.241  33.375  30.279  1.00  0.00     0.049 A 
ATOM     60  H   UNL A   1      39.797  33.829  28.820  1.00  0.00     0.167 HD
ATOM     61  C   UNL A   1      43.356  32.936  29.249  1.00  0.00     0.074 A 
ATOM     62  C   UNL A   1      44.793  33.034  29.055  1.00  0.00     0.031 C 
ATOM     63  C   UNL A   1      42.407  33.863  29.570  1.00  0.00     0.037 A 
BRANCH  50  64
ATOM     64  C   UNL A   1      36.446  33.267  30.948  1.00  0.00     0.064 A 
ATOM     65  C   UNL A   1      35.464  34.076  30.330  1.00  0.00     0.173 A 
ATOM     66  C   UNL A   1      36.152  32.893  32.273  1.00  0.00     0.173 A 
ATOM     67  F   UNL A   1      35.551  34.431  29.042  1.00  0.00    -0.203 F 
ATOM     68  C   UNL A   1      34.329  34.536  31.001  1.00  0.00     0.198 A 
ATOM     69  C   UNL A   1      35.022  33.372  32.954  1.00  0.00     0.198 A 
ATOM     70  F   UNL A   1      36.929  32.023  32.935  1.00  0.00    -0.203 F 
ATOM     71  F   UNL A   1      33.442  35.307  30.354  1.00  0.00    -0.200 F 
ATOM     72  C   UNL A   1      34.114  34.198  32.319  1.00  0.00     0.200 A 
ATOM     73  F   UNL A   1      34.810  33.016  34.229  1.00  0.00    -0.200 F 
ATOM     74  F   UNL A   1      33.027  34.642  32.963  1.00  0.00    -0.200 F 
ENDBRANCH  50  64
BRANCH  51  75
ATOM     75  C   UNL A   1      44.520  28.525  27.872  1.00  0.00     0.064 A 
ATOM     76  C   UNL A   1      45.101  27.259  28.130  1.00  0.00     0.173 A 
ATOM     77  C   UNL A   1      43.847  28.663  26.650  1.00  0.00     0.173 A 
ATOM     78  F   UNL A   1      45.744  27.045  29.291  1.00  0.00    -0.203 F 
ATOM     79  C   UNL A   1      44.928  26.170  27.272  1.00  0.00     0.198 A 
ATOM     80  C   UNL A   1      43.695  27.573  25.777  1.00  0.00     0.198 A 
ATOM     81  F   UNL A   1      43.251  29.818  26.328  1.00  0.00    -0.203 F 
ATOM     82  F   UNL A   1      45.386  24.961  27.625  1.00  0.00    -0.200 F 
ATOM     83  C   UNL A   1      44.210  26.325  26.101  1.00  0.00     0.200 A 
ATOM     84  F   UNL A   1      42.968  27.707  24.657  1.00  0.00    -0.200 F 
ATOM     85  F   UNL A   1      43.971  25.269  25.311  1.00  0.00    -0.200 F 
ENDBRANCH  51  75
BRANCH  63  86
ATOM     86  C   UNL A   1      42.537  35.348  29.364  1.00  0.00     0.064 A 
ATOM     87  C   UNL A   1      43.326  36.165  30.185  1.00  0.00     0.173 A 
ATOM     88  C   UNL A   1      42.006  35.973  28.208  1.00  0.00     0.173 A 
ATOM     89  F   UNL A   1      44.012  35.668  31.222  1.00  0.00    -0.203 F 
ATOM     90  C   UNL A   1      43.490  37.525  29.928  1.00  0.00     0.198 A 
ATOM     91  C   UNL A   1      42.245  37.309  27.909  1.00  0.00     0.198 A 
ATOM     92  F   UNL A   1      41.270  35.305  27.308  1.00  0.00    -0.203 F 
ATOM     93  F   UNL A   1      44.194  38.274  30.786  1.00  0.00    -0.200 F 
ATOM     94  C   UNL A   1      42.964  38.093  28.785  1.00  0.00     0.200 A 
ATOM     95  F   UNL A   1      41.794  37.823  26.756  1.00  0.00    -0.200 F 
ATOM     96  F   UNL A   1      43.171  39.387  28.515  1.00  0.00    -0.200 F 
ENDBRANCH  63  86
ENDBRANCH  37  38
ENDBRANCH  30  32
ENDBRANCH  29  30
ENDBRANCH  28  29
ENDBRANCH   1  28
TORSDOF 14
ENDMDL
