MODEL 1
REMARK VINA RESULT:     -12.6      0.000      0.000
REMARK SMILES CCc1ccnc(C(=O)c2[nH]c3ccc(OC(F)(F)F)cc3c2CC(=O)OCCOC(=O)c2ccc(-c3c4nc(c(-c5c(F)c(F)c(F)c(F)c5F)c5ccc([nH]5)c(-c5c(F)c(F)c(F)c(F)c5F)c5nc(c(-c6c(F)c(F)c(F)c(F)c6F)c6ccc3[nH]6)C=C5)C=C4)cc2)c1
REMARK SMILES IDX 28 1 27 2 25 3 26 4 24 5 23 6 10 7 11 8 12 9 22 11 13 12
REMARK SMILES IDX 21 13 14 14 15 15 8 16 9 17 7 18 3 19 4 20 96 21 5 22 6 23
REMARK SMILES IDX 2 24 1 25 16 26 17 27 18 28 19 29 20 30 29 31 30 32 31 33
REMARK SMILES IDX 32 34 33 35 34 36 95 37 35 38 94 39 36 40 37 41 38 42 88 43
REMARK SMILES IDX 39 44 93 45 87 46 89 47 40 48 92 49 86 50 85 51 41 53 73 54
REMARK SMILES IDX 53 55 72 56 54 57 57 58 71 59 90 60 55 61 56 62 70 64 91 65
REMARK SMILES IDX 58 66 42 67 43 68 51 69 44 70 45 71 49 72 52 73 46 74 47 75
REMARK SMILES IDX 50 76 48 77 74 78 75 79 83 80 76 81 77 82 81 83 84 84 78 85
REMARK SMILES IDX 79 86 82 87 80 88 59 89 60 90 68 91 61 92 62 93 66 94 69 95
REMARK SMILES IDX 63 96 64 97 67 98 65 99
REMARK H PARENT 11 10 89 52 57 63
REMARK Flexibility Score: inf
ROOT
ATOM      1  C   UNL A   1      32.966  29.348  24.771  1.00  0.00     0.274 C 
ENDROOT
BRANCH   1   2
ATOM      2  O   UNL A   1      33.051  27.971  25.204  1.00  0.00    -0.462 OA
BRANCH   2   3
ATOM      3  C   UNL A   1      33.338  27.057  24.245  1.00  0.00     0.310 C 
ATOM      4  O   UNL A   1      34.285  26.274  24.306  1.00  0.00    -0.252 OA
BRANCH   3   5
ATOM      5  C   UNL A   1      32.325  26.954  23.123  1.00  0.00     0.161 C 
BRANCH   5   6
ATOM      6  C   UNL A   1      30.882  26.755  23.466  1.00  0.00     0.000 A 
ATOM      7  C   UNL A   1      30.233  25.573  23.822  1.00  0.00     0.093 A 
ATOM      8  N   UNL A   1      28.921  25.897  24.077  1.00  0.00    -0.352 N 
ATOM      9  C   UNL A   1      28.643  27.160  23.635  1.00  0.00     0.046 A 
ATOM     10  H   UNL A   1      28.272  25.301  24.517  1.00  0.00     0.167 HD
ATOM     11  C   UNL A   1      29.859  27.757  23.320  1.00  0.00     0.008 A 
ATOM     12  C   UNL A   1      27.416  27.808  23.499  1.00  0.00     0.030 A 
ATOM     13  C   UNL A   1      29.844  29.103  22.894  1.00  0.00     0.057 A 
ATOM     14  C   UNL A   1      27.426  29.125  23.031  1.00  0.00     0.049 A 
ATOM     15  C   UNL A   1      28.623  29.780  22.742  1.00  0.00     0.130 A 
BRANCH   7  16
ATOM     16  C   UNL A   1      30.650  24.187  23.971  1.00  0.00     0.227 C 
ATOM     17  O   UNL A   1      30.347  23.349  23.124  1.00  0.00    -0.285 OA
BRANCH  16  18
ATOM     18  C   UNL A   1      31.732  23.851  24.973  1.00  0.00     0.113 A 
ATOM     19  C   UNL A   1      33.726  22.604  25.537  1.00  0.00    -0.044 A 
ATOM     20  C   UNL A   1      33.354  22.728  26.879  1.00  0.00     0.024 A 
ATOM     21  C   UNL A   1      32.897  23.189  24.569  1.00  0.00     0.036 A 
ATOM     22  C   UNL A   1      32.200  23.421  27.194  1.00  0.00     0.112 A 
ATOM     23  N   UNL A   1      31.388  23.987  26.281  1.00  0.00    -0.253 NA
BRANCH  19  24
ATOM     24  C   UNL A   1      34.893  21.712  25.185  1.00  0.00     0.032 C 
ATOM     25  C   UNL A   1      35.962  22.332  24.296  1.00  0.00     0.009 C 
ENDBRANCH  19  24
ENDBRANCH  16  18
ENDBRANCH   7  16
BRANCH  15  26
ATOM     26  O   UNL A   1      28.745  31.068  22.298  1.00  0.00    -0.406 OA
BRANCH  26  27
ATOM     27  C   UNL A   1      28.579  32.109  23.247  1.00  0.00     0.573 C 
ATOM     28  F   UNL A   1      29.320  31.881  24.353  1.00  0.00    -0.132 F 
ATOM     29  F   UNL A   1      28.912  33.308  22.722  1.00  0.00    -0.132 F 
ATOM     30  F   UNL A   1      27.280  32.160  23.614  1.00  0.00    -0.132 F 
ENDBRANCH  26  27
ENDBRANCH  15  26
ENDBRANCH   5   6
ENDBRANCH   3   5
ENDBRANCH   2   3
ENDBRANCH   1   2
BRANCH   1  31
ATOM     31  C   UNL A   1      32.030  30.173  25.665  1.00  0.00     0.275 C 
BRANCH  31  32
ATOM     32  O   UNL A   1      32.501  30.260  27.026  1.00  0.00    -0.458 OA
BRANCH  32  33
ATOM     33  C   UNL A   1      33.279  31.336  27.257  1.00  0.00     0.338 C 
ATOM     34  O   UNL A   1      32.949  32.512  27.171  1.00  0.00    -0.246 OA
BRANCH  33  35
ATOM     35  C   UNL A   1      34.600  30.979  27.764  1.00  0.00     0.060 A 
ATOM     36  C   UNL A   1      34.796  29.669  28.203  1.00  0.00     0.016 A 
ATOM     37  C   UNL A   1      35.541  31.973  28.032  1.00  0.00     0.016 A 
ATOM     38  C   UNL A   1      35.904  29.360  28.978  1.00  0.00     0.010 A 
ATOM     39  C   UNL A   1      36.693  31.643  28.751  1.00  0.00     0.010 A 
ATOM     40  C   UNL A   1      36.866  30.342  29.252  1.00  0.00    -0.014 A 
BRANCH  40  41
ATOM     41  C   UNL A   1      38.069  29.971  30.033  1.00  0.00     0.031 A 
ATOM     42  C   UNL A   1      39.098  29.032  29.477  1.00  0.00     0.074 A 
ATOM     43  C   UNL A   1      38.244  30.531  31.243  1.00  0.00     0.049 A 
ATOM     44  N   UNL A   1      40.214  28.616  30.017  1.00  0.00    -0.248 NA
ATOM     45  C   UNL A   1      38.848  28.499  28.130  1.00  0.00     0.031 C 
ATOM     46  C   UNL A   1      37.325  31.485  31.867  1.00  0.00     0.029 A 
ATOM     47  N   UNL A   1      39.248  30.381  32.161  1.00  0.00    -0.354 N 
ATOM     48  C   UNL A   1      40.809  27.789  29.074  1.00  0.00     0.074 A 
ATOM     49  C   UNL A   1      39.916  27.736  27.936  1.00  0.00     0.031 C 
ATOM     50  C   UNL A   1      37.811  31.840  33.065  1.00  0.00     0.029 A 
ATOM     51  C   UNL A   1      39.040  31.095  33.314  1.00  0.00     0.049 A 
ATOM     52  H   UNL A   1      40.041  29.817  32.010  1.00  0.00     0.167 HD
ATOM     53  C   UNL A   1      41.995  27.141  29.154  1.00  0.00     0.037 A 
ATOM     54  C   UNL A   1      39.741  31.116  34.461  1.00  0.00     0.037 A 
ATOM     55  C   UNL A   1      42.858  27.167  30.306  1.00  0.00     0.049 A 
ATOM     56  C   UNL A   1      40.977  30.276  34.576  1.00  0.00     0.074 A 
ATOM     57  C   UNL A   1      44.087  26.554  30.483  1.00  0.00     0.029 A 
ATOM     58  N   UNL A   1      42.566  27.827  31.492  1.00  0.00    -0.354 N 
ATOM     59  N   UNL A   1      41.548  29.522  33.668  1.00  0.00    -0.248 NA
ATOM     60  C   UNL A   1      41.658  30.278  35.876  1.00  0.00     0.031 C 
ATOM     61  C   UNL A   1      44.514  26.802  31.793  1.00  0.00     0.029 A 
ATOM     62  C   UNL A   1      43.570  27.600  32.419  1.00  0.00     0.049 A 
ATOM     63  H   UNL A   1      41.763  28.374  31.651  1.00  0.00     0.167 HD
ATOM     64  C   UNL A   1      42.659  28.966  34.282  1.00  0.00     0.074 A 
ATOM     65  C   UNL A   1      42.689  29.480  35.637  1.00  0.00     0.031 C 
ATOM     66  C   UNL A   1      43.573  28.107  33.768  1.00  0.00     0.037 A 
BRANCH  53  67
ATOM     67  C   UNL A   1      42.423  26.330  27.968  1.00  0.00     0.064 A 
ATOM     68  C   UNL A   1      43.291  26.857  27.000  1.00  0.00     0.173 A 
ATOM     69  C   UNL A   1      42.002  25.001  27.823  1.00  0.00     0.173 A 
ATOM     70  F   UNL A   1      43.707  28.130  27.086  1.00  0.00    -0.203 F 
ATOM     71  C   UNL A   1      43.717  26.082  25.924  1.00  0.00     0.198 A 
ATOM     72  C   UNL A   1      42.442  24.224  26.754  1.00  0.00     0.198 A 
ATOM     73  F   UNL A   1      41.170  24.453  28.721  1.00  0.00    -0.203 F 
ATOM     74  F   UNL A   1      44.527  26.612  24.998  1.00  0.00    -0.200 F 
ATOM     75  C   UNL A   1      43.297  24.765  25.805  1.00  0.00     0.200 A 
ATOM     76  F   UNL A   1      42.037  22.952  26.640  1.00  0.00    -0.200 F 
ATOM     77  F   UNL A   1      43.711  24.020  24.771  1.00  0.00    -0.200 F 
ENDBRANCH  53  67
BRANCH  54  78
ATOM     78  C   UNL A   1      39.247  31.933  35.595  1.00  0.00     0.064 A 
ATOM     79  C   UNL A   1      38.365  31.399  36.540  1.00  0.00     0.173 A 
ATOM     80  C   UNL A   1      39.686  33.254  35.775  1.00  0.00     0.173 A 
ATOM     81  F   UNL A   1      37.906  30.147  36.395  1.00  0.00    -0.203 F 
ATOM     82  C   UNL A   1      37.940  32.156  37.630  1.00  0.00     0.198 A 
ATOM     83  C   UNL A   1      39.280  34.001  36.877  1.00  0.00     0.198 A 
ATOM     84  F   UNL A   1      40.533  33.806  34.895  1.00  0.00    -0.203 F 
ATOM     85  F   UNL A   1      37.079  31.631  38.512  1.00  0.00    -0.200 F 
ATOM     86  C   UNL A   1      38.405  33.453  37.801  1.00  0.00     0.200 A 
ATOM     87  F   UNL A   1      39.742  35.247  37.046  1.00  0.00    -0.200 F 
ATOM     88  F   UNL A   1      38.007  34.174  38.858  1.00  0.00    -0.200 F 
ENDBRANCH  54  78
BRANCH  66  89
ATOM     89  C   UNL A   1      44.680  27.676  34.679  1.00  0.00     0.064 A 
ATOM     90  C   UNL A   1      44.577  26.508  35.447  1.00  0.00     0.173 A 
ATOM     91  C   UNL A   1      45.861  28.427  34.772  1.00  0.00     0.173 A 
ATOM     92  F   UNL A   1      43.458  25.769  35.404  1.00  0.00    -0.203 F 
ATOM     93  C   UNL A   1      45.612  26.116  36.291  1.00  0.00     0.198 A 
ATOM     94  C   UNL A   1      46.902  28.021  35.600  1.00  0.00     0.198 A 
ATOM     95  F   UNL A   1      46.004  29.552  34.054  1.00  0.00    -0.203 F 
ATOM     96  F   UNL A   1      45.478  25.017  37.047  1.00  0.00    -0.200 F 
ATOM     97  C   UNL A   1      46.775  26.869  36.363  1.00  0.00     0.200 A 
ATOM     98  F   UNL A   1      48.027  28.746  35.666  1.00  0.00    -0.200 F 
ATOM     99  F   UNL A   1      47.770  26.490  37.177  1.00  0.00    -0.200 F 
ENDBRANCH  66  89
ENDBRANCH  40  41
ENDBRANCH  33  35
ENDBRANCH  32  33
ENDBRANCH  31  32
ENDBRANCH   1  31
TORSDOF 17
ENDMDL
MODEL 2
REMARK VINA RESULT:     -12.3      1.268      2.502
REMARK SMILES CCc1ccnc(C(=O)c2[nH]c3ccc(OC(F)(F)F)cc3c2CC(=O)OCCOC(=O)c2ccc(-c3c4nc(c(-c5c(F)c(F)c(F)c(F)c5F)c5ccc([nH]5)c(-c5c(F)c(F)c(F)c(F)c5F)c5nc(c(-c6c(F)c(F)c(F)c(F)c6F)c6ccc3[nH]6)C=C5)C=C4)cc2)c1
REMARK SMILES IDX 28 1 27 2 25 3 26 4 24 5 23 6 10 7 11 8 12 9 22 11 13 12
REMARK SMILES IDX 21 13 14 14 15 15 8 16 9 17 7 18 3 19 4 20 96 21 5 22 6 23
REMARK SMILES IDX 2 24 1 25 16 26 17 27 18 28 19 29 20 30 29 31 30 32 31 33
REMARK SMILES IDX 32 34 33 35 34 36 95 37 35 38 94 39 36 40 37 41 38 42 88 43
REMARK SMILES IDX 39 44 93 45 87 46 89 47 40 48 92 49 86 50 85 51 41 53 73 54
REMARK SMILES IDX 53 55 72 56 54 57 57 58 71 59 90 60 55 61 56 62 70 64 91 65
REMARK SMILES IDX 58 66 42 67 43 68 51 69 44 70 45 71 49 72 52 73 46 74 47 75
REMARK SMILES IDX 50 76 48 77 74 78 75 79 83 80 76 81 77 82 81 83 84 84 78 85
REMARK SMILES IDX 79 86 82 87 80 88 59 89 60 90 68 91 61 92 62 93 66 94 69 95
REMARK SMILES IDX 63 96 64 97 67 98 65 99
REMARK H PARENT 11 10 89 52 57 63
REMARK Flexibility Score: inf
ROOT
ATOM      1  C   UNL A   1      32.186  30.804  26.842  1.00  0.00     0.274 C 
ENDROOT
BRANCH   1   2
ATOM      2  O   UNL A   1      33.223  30.285  25.978  1.00  0.00    -0.462 OA
BRANCH   2   3
ATOM      3  C   UNL A   1      33.577  28.992  26.174  1.00  0.00     0.310 C 
ATOM      4  O   UNL A   1      33.932  28.535  27.260  1.00  0.00    -0.252 OA
BRANCH   3   5
ATOM      5  C   UNL A   1      33.380  28.078  24.982  1.00  0.00     0.161 C 
BRANCH   5   6
ATOM      6  C   UNL A   1      32.068  27.379  24.814  1.00  0.00     0.000 A 
ATOM      7  C   UNL A   1      31.777  26.029  25.003  1.00  0.00     0.093 A 
ATOM      8  N   UNL A   1      30.433  25.870  24.761  1.00  0.00    -0.352 N 
ATOM      9  C   UNL A   1      29.917  26.985  24.163  1.00  0.00     0.046 A 
ATOM     10  H   UNL A   1      29.914  25.064  24.989  1.00  0.00     0.167 HD
ATOM     11  C   UNL A   1      30.887  27.978  24.251  1.00  0.00     0.008 A 
ATOM     12  C   UNL A   1      28.674  27.182  23.563  1.00  0.00     0.030 A 
ATOM     13  C   UNL A   1      30.567  29.260  23.753  1.00  0.00     0.057 A 
ATOM     14  C   UNL A   1      28.401  28.447  23.036  1.00  0.00     0.049 A 
ATOM     15  C   UNL A   1      29.325  29.487  23.138  1.00  0.00     0.130 A 
BRANCH   7  16
ATOM     16  C   UNL A   1      32.559  24.862  25.385  1.00  0.00     0.227 C 
ATOM     17  O   UNL A   1      33.237  24.874  26.411  1.00  0.00    -0.285 OA
BRANCH  16  18
ATOM     18  C   UNL A   1      32.273  23.536  24.717  1.00  0.00     0.113 A 
ATOM     19  C   UNL A   1      32.496  21.128  24.699  1.00  0.00    -0.044 A 
ATOM     20  C   UNL A   1      32.340  21.182  23.311  1.00  0.00     0.024 A 
ATOM     21  C   UNL A   1      32.450  22.335  25.412  1.00  0.00     0.036 A 
ATOM     22  C   UNL A   1      32.143  22.409  22.705  1.00  0.00     0.112 A 
ATOM     23  N   UNL A   1      32.099  23.579  23.370  1.00  0.00    -0.253 NA
BRANCH  19  24
ATOM     24  C   UNL A   1      32.873  19.812  25.338  1.00  0.00     0.032 C 
ATOM     25  C   UNL A   1      33.887  18.968  24.579  1.00  0.00     0.009 C 
ENDBRANCH  19  24
ENDBRANCH  16  18
ENDBRANCH   7  16
BRANCH  15  26
ATOM     26  O   UNL A   1      29.151  30.762  22.675  1.00  0.00    -0.406 OA
BRANCH  26  27
ATOM     27  C   UNL A   1      28.583  31.712  23.561  1.00  0.00     0.573 C 
ATOM     28  F   UNL A   1      28.457  32.918  22.966  1.00  0.00    -0.132 F 
ATOM     29  F   UNL A   1      27.377  31.303  24.010  1.00  0.00    -0.132 F 
ATOM     30  F   UNL A   1      29.400  31.854  24.628  1.00  0.00    -0.132 F 
ENDBRANCH  26  27
ENDBRANCH  15  26
ENDBRANCH   5   6
ENDBRANCH   3   5
ENDBRANCH   2   3
ENDBRANCH   1   2
BRANCH   1  31
ATOM     31  C   UNL A   1      32.167  32.339  26.856  1.00  0.00     0.275 C 
BRANCH  31  32
ATOM     32  O   UNL A   1      32.821  32.889  28.019  1.00  0.00    -0.458 OA
BRANCH  32  33
ATOM     33  C   UNL A   1      33.976  33.524  27.736  1.00  0.00     0.338 C 
ATOM     34  O   UNL A   1      34.099  34.630  27.227  1.00  0.00    -0.246 OA
BRANCH  33  35
ATOM     35  C   UNL A   1      35.149  32.802  28.219  1.00  0.00     0.060 A 
ATOM     36  C   UNL A   1      34.939  31.614  28.919  1.00  0.00     0.016 A 
ATOM     37  C   UNL A   1      36.404  33.409  28.198  1.00  0.00     0.016 A 
ATOM     38  C   UNL A   1      35.969  31.062  29.666  1.00  0.00     0.010 A 
ATOM     39  C   UNL A   1      37.460  32.813  28.893  1.00  0.00     0.010 A 
ATOM     40  C   UNL A   1      37.241  31.651  29.654  1.00  0.00    -0.014 A 
BRANCH  40  41
ATOM     41  C   UNL A   1      38.338  31.009  30.413  1.00  0.00     0.031 A 
ATOM     42  C   UNL A   1      39.223  29.979  29.779  1.00  0.00     0.074 A 
ATOM     43  C   UNL A   1      38.554  31.403  31.681  1.00  0.00     0.049 A 
ATOM     44  N   UNL A   1      40.238  29.331  30.293  1.00  0.00    -0.248 NA
ATOM     45  C   UNL A   1      38.943  29.638  28.377  1.00  0.00     0.031 C 
ATOM     46  C   UNL A   1      37.777  32.424  32.387  1.00  0.00     0.029 A 
ATOM     47  N   UNL A   1      39.486  30.996  32.597  1.00  0.00    -0.354 N 
ATOM     48  C   UNL A   1      40.727  28.522  29.277  1.00  0.00     0.074 A 
ATOM     49  C   UNL A   1      39.881  28.735  28.122  1.00  0.00     0.031 C 
ATOM     50  C   UNL A   1      38.268  32.567  33.626  1.00  0.00     0.029 A 
ATOM     51  C   UNL A   1      39.351  31.610  33.817  1.00  0.00     0.049 A 
ATOM     52  H   UNL A   1      40.183  30.329  32.401  1.00  0.00     0.167 HD
ATOM     53  C   UNL A   1      41.790  27.685  29.310  1.00  0.00     0.037 A 
ATOM     54  C   UNL A   1      40.003  31.396  34.973  1.00  0.00     0.037 A 
ATOM     55  C   UNL A   1      42.603  27.448  30.475  1.00  0.00     0.049 A 
ATOM     56  C   UNL A   1      41.083  30.358  35.020  1.00  0.00     0.074 A 
ATOM     57  C   UNL A   1      43.710  26.628  30.609  1.00  0.00     0.029 A 
ATOM     58  N   UNL A   1      42.375  28.018  31.720  1.00  0.00    -0.354 N 
ATOM     59  N   UNL A   1      41.560  29.620  34.047  1.00  0.00    -0.248 NA
ATOM     60  C   UNL A   1      41.706  30.112  36.327  1.00  0.00     0.031 C 
ATOM     61  C   UNL A   1      44.121  26.664  31.946  1.00  0.00     0.029 A 
ATOM     62  C   UNL A   1      43.294  27.535  32.637  1.00  0.00     0.049 A 
ATOM     63  H   UNL A   1      41.665  28.670  31.921  1.00  0.00     0.167 HD
ATOM     64  C   UNL A   1      42.544  28.828  34.619  1.00  0.00     0.074 A 
ATOM     65  C   UNL A   1      42.604  29.186  36.022  1.00  0.00     0.031 C 
ATOM     66  C   UNL A   1      43.327  27.890  34.032  1.00  0.00     0.037 A 
BRANCH  53  67
ATOM     67  C   UNL A   1      42.128  26.943  28.051  1.00  0.00     0.064 A 
ATOM     68  C   UNL A   1      41.552  25.698  27.761  1.00  0.00     0.173 A 
ATOM     69  C   UNL A   1      42.997  27.504  27.105  1.00  0.00     0.173 A 
ATOM     70  F   UNL A   1      40.729  25.112  28.644  1.00  0.00    -0.203 F 
ATOM     71  C   UNL A   1      41.840  25.037  26.570  1.00  0.00     0.198 A 
ATOM     72  C   UNL A   1      43.271  26.848  25.907  1.00  0.00     0.198 A 
ATOM     73  F   UNL A   1      43.575  28.692  27.337  1.00  0.00    -0.203 F 
ATOM     74  F   UNL A   1      41.298  23.836  26.324  1.00  0.00    -0.200 F 
ATOM     75  C   UNL A   1      42.694  25.614  25.641  1.00  0.00     0.200 A 
ATOM     76  F   UNL A   1      44.095  27.407  25.010  1.00  0.00    -0.200 F 
ATOM     77  F   UNL A   1      42.967  24.979  24.494  1.00  0.00    -0.200 F 
ENDBRANCH  53  67
BRANCH  54  78
ATOM     78  C   UNL A   1      39.603  32.159  36.180  1.00  0.00     0.064 A 
ATOM     79  C   UNL A   1      40.261  33.340  36.538  1.00  0.00     0.173 A 
ATOM     80  C   UNL A   1      38.524  31.739  36.972  1.00  0.00     0.173 A 
ATOM     81  F   UNL A   1      41.310  33.768  35.819  1.00  0.00    -0.203 F 
ATOM     82  C   UNL A   1      39.852  34.079  37.646  1.00  0.00     0.198 A 
ATOM     83  C   UNL A   1      38.101  32.489  38.065  1.00  0.00     0.198 A 
ATOM     84  F   UNL A   1      37.864  30.613  36.665  1.00  0.00    -0.203 F 
ATOM     85  F   UNL A   1      40.509  35.196  37.984  1.00  0.00    -0.200 F 
ATOM     86  C   UNL A   1      38.767  33.657  38.403  1.00  0.00     0.200 A 
ATOM     87  F   UNL A   1      37.045  32.086  38.784  1.00  0.00    -0.200 F 
ATOM     88  F   UNL A   1      38.365  34.376  39.460  1.00  0.00    -0.200 F 
ENDBRANCH  54  78
BRANCH  66  89
ATOM     89  C   UNL A   1      44.315  27.191  34.913  1.00  0.00     0.064 A 
ATOM     90  C   UNL A   1      45.571  27.752  35.187  1.00  0.00     0.173 A 
ATOM     91  C   UNL A   1      43.998  25.959  35.504  1.00  0.00     0.173 A 
ATOM     92  F   UNL A   1      45.924  28.919  34.628  1.00  0.00    -0.203 F 
ATOM     93  C   UNL A   1      46.482  27.094  36.007  1.00  0.00     0.198 A 
ATOM     94  C   UNL A   1      44.904  25.315  36.340  1.00  0.00     0.198 A 
ATOM     95  F   UNL A   1      42.808  25.385  35.272  1.00  0.00    -0.203 F 
ATOM     96  F   UNL A   1      47.693  27.628  36.223  1.00  0.00    -0.200 F 
ATOM     97  C   UNL A   1      46.147  25.880  36.587  1.00  0.00     0.200 A 
ATOM     98  F   UNL A   1      44.577  24.144  36.904  1.00  0.00    -0.200 F 
ATOM     99  F   UNL A   1      47.026  25.247  37.376  1.00  0.00    -0.200 F 
ENDBRANCH  66  89
ENDBRANCH  40  41
ENDBRANCH  33  35
ENDBRANCH  32  33
ENDBRANCH  31  32
ENDBRANCH   1  31
TORSDOF 17
ENDMDL
MODEL 3
REMARK VINA RESULT:     -12.3      4.455      9.373
REMARK SMILES CCc1ccnc(C(=O)c2[nH]c3ccc(OC(F)(F)F)cc3c2CC(=O)OCCOC(=O)c2ccc(-c3c4nc(c(-c5c(F)c(F)c(F)c(F)c5F)c5ccc([nH]5)c(-c5c(F)c(F)c(F)c(F)c5F)c5nc(c(-c6c(F)c(F)c(F)c(F)c6F)c6ccc3[nH]6)C=C5)C=C4)cc2)c1
REMARK SMILES IDX 28 1 27 2 25 3 26 4 24 5 23 6 10 7 11 8 12 9 22 11 13 12
REMARK SMILES IDX 21 13 14 14 15 15 8 16 9 17 7 18 3 19 4 20 96 21 5 22 6 23
REMARK SMILES IDX 2 24 1 25 16 26 17 27 18 28 19 29 20 30 29 31 30 32 31 33
REMARK SMILES IDX 32 34 33 35 34 36 95 37 35 38 94 39 36 40 37 41 38 42 88 43
REMARK SMILES IDX 39 44 93 45 87 46 89 47 40 48 92 49 86 50 85 51 41 53 73 54
REMARK SMILES IDX 53 55 72 56 54 57 57 58 71 59 90 60 55 61 56 62 70 64 91 65
REMARK SMILES IDX 58 66 42 67 43 68 51 69 44 70 45 71 49 72 52 73 46 74 47 75
REMARK SMILES IDX 50 76 48 77 74 78 75 79 83 80 76 81 77 82 81 83 84 84 78 85
REMARK SMILES IDX 79 86 82 87 80 88 59 89 60 90 68 91 61 92 62 93 66 94 69 95
REMARK SMILES IDX 63 96 64 97 67 98 65 99
REMARK H PARENT 11 10 89 52 57 63
REMARK Flexibility Score: inf
ROOT
ATOM      1  C   UNL A   1      36.046  22.231  24.556  1.00  0.00     0.274 C 
ENDROOT
BRANCH   1   2
ATOM      2  O   UNL A   1      35.994  23.419  25.378  1.00  0.00    -0.462 OA
BRANCH   2   3
ATOM      3  C   UNL A   1      34.799  23.701  25.950  1.00  0.00     0.310 C 
ATOM      4  O   UNL A   1      34.419  23.222  27.018  1.00  0.00    -0.252 OA
BRANCH   3   5
ATOM      5  C   UNL A   1      33.983  24.772  25.254  1.00  0.00     0.161 C 
BRANCH   5   6
ATOM      6  C   UNL A   1      32.957  25.526  26.039  1.00  0.00     0.000 A 
ATOM      7  C   UNL A   1      31.676  25.117  26.406  1.00  0.00     0.093 A 
ATOM      8  N   UNL A   1      31.126  26.136  27.147  1.00  0.00    -0.352 N 
ATOM      9  C   UNL A   1      31.877  27.272  27.035  1.00  0.00     0.046 A 
ATOM     10  H   UNL A   1      30.304  26.057  27.685  1.00  0.00     0.167 HD
ATOM     11  C   UNL A   1      33.070  26.910  26.418  1.00  0.00     0.008 A 
ATOM     12  C   UNL A   1      31.589  28.575  27.438  1.00  0.00     0.030 A 
ATOM     13  C   UNL A   1      34.052  27.909  26.243  1.00  0.00     0.057 A 
ATOM     14  C   UNL A   1      32.560  29.554  27.210  1.00  0.00     0.049 A 
ATOM     15  C   UNL A   1      33.789  29.232  26.633  1.00  0.00     0.130 A 
BRANCH   7  16
ATOM     16  C   UNL A   1      30.887  23.915  26.180  1.00  0.00     0.227 C 
ATOM     17  O   UNL A   1      29.813  23.755  26.757  1.00  0.00    -0.285 OA
BRANCH  16  18
ATOM     18  C   UNL A   1      31.213  23.036  24.993  1.00  0.00     0.113 A 
ATOM     19  C   UNL A   1      32.358  21.107  24.089  1.00  0.00    -0.044 A 
ATOM     20  C   UNL A   1      32.344  21.751  22.849  1.00  0.00     0.024 A 
ATOM     21  C   UNL A   1      31.769  21.766  25.179  1.00  0.00     0.036 A 
ATOM     22  C   UNL A   1      31.751  22.996  22.746  1.00  0.00     0.112 A 
ATOM     23  N   UNL A   1      31.183  23.647  23.780  1.00  0.00    -0.253 NA
BRANCH  19  24
ATOM     24  C   UNL A   1      33.147  19.826  24.236  1.00  0.00     0.032 C 
ATOM     25  C   UNL A   1      32.518  18.583  23.624  1.00  0.00     0.009 C 
ENDBRANCH  19  24
ENDBRANCH  16  18
ENDBRANCH   7  16
BRANCH  15  26
ATOM     26  O   UNL A   1      34.811  30.106  26.384  1.00  0.00    -0.406 OA
BRANCH  26  27
ATOM     27  C   UNL A   1      35.721  30.371  27.439  1.00  0.00     0.573 C 
ATOM     28  F   UNL A   1      35.274  29.860  28.606  1.00  0.00    -0.132 F 
ATOM     29  F   UNL A   1      36.946  29.871  27.167  1.00  0.00    -0.132 F 
ATOM     30  F   UNL A   1      35.840  31.709  27.585  1.00  0.00    -0.132 F 
ENDBRANCH  26  27
ENDBRANCH  15  26
ENDBRANCH   5   6
ENDBRANCH   3   5
ENDBRANCH   2   3
ENDBRANCH   1   2
BRANCH   1  31
ATOM     31  C   UNL A   1      37.349  21.446  24.766  1.00  0.00     0.275 C 
BRANCH  31  32
ATOM     32  O   UNL A   1      37.802  21.485  26.136  1.00  0.00    -0.458 OA
BRANCH  32  33
ATOM     33  C   UNL A   1      39.144  21.476  26.257  1.00  0.00     0.338 C 
ATOM     34  O   UNL A   1      39.909  20.597  25.883  1.00  0.00    -0.246 OA
BRANCH  33  35
ATOM     35  C   UNL A   1      39.670  22.726  26.800  1.00  0.00     0.060 A 
ATOM     36  C   UNL A   1      39.251  23.918  26.210  1.00  0.00     0.016 A 
ATOM     37  C   UNL A   1      40.736  22.707  27.698  1.00  0.00     0.016 A 
ATOM     38  C   UNL A   1      39.945  25.093  26.460  1.00  0.00     0.010 A 
ATOM     39  C   UNL A   1      41.389  23.904  28.005  1.00  0.00     0.010 A 
ATOM     40  C   UNL A   1      41.014  25.098  27.365  1.00  0.00    -0.014 A 
BRANCH  40  41
ATOM     41  C   UNL A   1      41.701  26.377  27.659  1.00  0.00     0.031 A 
ATOM     42  C   UNL A   1      41.023  27.463  28.440  1.00  0.00     0.074 A 
ATOM     43  C   UNL A   1      42.971  26.531  27.244  1.00  0.00     0.049 A 
ATOM     44  N   UNL A   1      41.484  28.633  28.799  1.00  0.00    -0.248 NA
ATOM     45  C   UNL A   1      39.650  27.194  28.890  1.00  0.00     0.031 C 
ATOM     46  C   UNL A   1      43.741  25.527  26.507  1.00  0.00     0.029 A 
ATOM     47  N   UNL A   1      43.836  27.583  27.381  1.00  0.00    -0.354 N 
ATOM     48  C   UNL A   1      40.468  29.234  29.531  1.00  0.00     0.074 A 
ATOM     49  C   UNL A   1      39.353  28.312  29.541  1.00  0.00     0.031 C 
ATOM     50  C   UNL A   1      44.967  26.009  26.262  1.00  0.00     0.029 A 
ATOM     51  C   UNL A   1      45.046  27.373  26.770  1.00  0.00     0.049 A 
ATOM     52  H   UNL A   1      43.612  28.409  27.869  1.00  0.00     0.167 HD
ATOM     53  C   UNL A   1      40.476  30.442  30.141  1.00  0.00     0.037 A 
ATOM     54  C   UNL A   1      46.090  28.204  26.605  1.00  0.00     0.037 A 
ATOM     55  C   UNL A   1      41.576  31.371  30.093  1.00  0.00     0.049 A 
ATOM     56  C   UNL A   1      46.016  29.591  27.169  1.00  0.00     0.074 A 
ATOM     57  C   UNL A   1      41.687  32.615  30.688  1.00  0.00     0.029 A 
ATOM     58  N   UNL A   1      42.750  31.160  29.383  1.00  0.00    -0.354 N 
ATOM     59  N   UNL A   1      45.065  30.139  27.885  1.00  0.00    -0.248 NA
ATOM     60  C   UNL A   1      47.151  30.479  26.890  1.00  0.00     0.031 C 
ATOM     61  C   UNL A   1      42.907  33.179  30.297  1.00  0.00     0.029 A 
ATOM     62  C   UNL A   1      43.572  32.270  29.490  1.00  0.00     0.049 A 
ATOM     63  H   UNL A   1      42.966  30.344  28.877  1.00  0.00     0.167 HD
ATOM     64  C   UNL A   1      45.488  31.432  28.151  1.00  0.00     0.074 A 
ATOM     65  C   UNL A   1      46.789  31.582  27.529  1.00  0.00     0.031 C 
ATOM     66  C   UNL A   1      44.855  32.406  28.849  1.00  0.00     0.037 A 
BRANCH  53  67
ATOM     67  C   UNL A   1      39.247  30.842  30.902  1.00  0.00     0.064 A 
ATOM     68  C   UNL A   1      38.200  31.539  30.282  1.00  0.00     0.173 A 
ATOM     69  C   UNL A   1      39.094  30.483  32.248  1.00  0.00     0.173 A 
ATOM     70  F   UNL A   1      38.309  31.921  29.000  1.00  0.00    -0.203 F 
ATOM     71  C   UNL A   1      37.045  31.869  30.986  1.00  0.00     0.198 A 
ATOM     72  C   UNL A   1      37.931  30.801  32.945  1.00  0.00     0.198 A 
ATOM     73  F   UNL A   1      40.068  29.818  32.886  1.00  0.00    -0.203 F 
ATOM     74  F   UNL A   1      36.067  32.558  30.381  1.00  0.00    -0.200 F 
ATOM     75  C   UNL A   1      36.908  31.495  32.315  1.00  0.00     0.200 A 
ATOM     76  F   UNL A   1      37.799  30.438  34.229  1.00  0.00    -0.200 F 
ATOM     77  F   UNL A   1      35.795  31.810  32.989  1.00  0.00    -0.200 F 
ENDBRANCH  53  67
BRANCH  54  78
ATOM     78  C   UNL A   1      47.266  27.741  25.829  1.00  0.00     0.064 A 
ATOM     79  C   UNL A   1      47.267  27.774  24.431  1.00  0.00     0.173 A 
ATOM     80  C   UNL A   1      48.428  27.298  26.479  1.00  0.00     0.173 A 
ATOM     81  F   UNL A   1      46.171  28.172  23.768  1.00  0.00    -0.203 F 
ATOM     82  C   UNL A   1      48.391  27.382  23.708  1.00  0.00     0.198 A 
ATOM     83  C   UNL A   1      49.558  26.929  25.757  1.00  0.00     0.198 A 
ATOM     84  F   UNL A   1      48.472  27.252  27.819  1.00  0.00    -0.203 F 
ATOM     85  F   UNL A   1      48.364  27.401  22.368  1.00  0.00    -0.200 F 
ATOM     86  C   UNL A   1      49.539  26.968  24.372  1.00  0.00     0.200 A 
ATOM     87  F   UNL A   1      50.668  26.545  26.402  1.00  0.00    -0.200 F 
ATOM     88  F   UNL A   1      50.624  26.606  23.675  1.00  0.00    -0.200 F 
ENDBRANCH  54  78
BRANCH  66  89
ATOM     89  C   UNL A   1      45.568  33.717  28.975  1.00  0.00     0.064 A 
ATOM     90  C   UNL A   1      45.353  34.753  28.056  1.00  0.00     0.173 A 
ATOM     91  C   UNL A   1      46.460  33.945  30.033  1.00  0.00     0.173 A 
ATOM     92  F   UNL A   1      44.523  34.572  27.017  1.00  0.00    -0.203 F 
ATOM     93  C   UNL A   1      46.021  35.967  28.181  1.00  0.00     0.198 A 
ATOM     94  C   UNL A   1      47.110  35.168  30.167  1.00  0.00     0.198 A 
ATOM     95  F   UNL A   1      46.697  32.982  30.937  1.00  0.00    -0.203 F 
ATOM     96  F   UNL A   1      45.832  36.931  27.269  1.00  0.00    -0.200 F 
ATOM     97  C   UNL A   1      46.894  36.176  29.239  1.00  0.00     0.200 A 
ATOM     98  F   UNL A   1      47.950  35.370  31.192  1.00  0.00    -0.200 F 
ATOM     99  F   UNL A   1      47.537  37.346  29.358  1.00  0.00    -0.200 F 
ENDBRANCH  66  89
ENDBRANCH  40  41
ENDBRANCH  33  35
ENDBRANCH  32  33
ENDBRANCH  31  32
ENDBRANCH   1  31
TORSDOF 17
ENDMDL
