MODEL 1
REMARK VINA RESULT:     -11.0      0.000      0.000
REMARK SMILES C[C@H](C(=O)OCCOC(=O)c1ccc(-c2c3nc(c(-c4c(F)c(F)c(F)c(F)c4F)c4ccc([nH]4)c(-c4c(F)c(F)c(F)c(F)c4F)c4nc(c(-c5c(F)c(F)c(F)c(F)c5F)c5ccc2[nH]5)C=C4)C=C3)cc1)n1c(=O)ssc1=O
REMARK SMILES IDX 7 1 6 2 5 3 3 4 4 5 2 6 1 7 74 8 75 9 79 10 76 11 77 12
REMARK SMILES IDX 78 13 80 14 8 15 9 16 10 17 11 18 12 19 73 20 13 21 72 22
REMARK SMILES IDX 14 23 15 24 16 25 66 26 17 27 71 28 65 29 67 30 18 31 70 32
REMARK SMILES IDX 64 33 63 34 19 36 51 37 31 38 50 39 32 40 35 41 49 42 68 43
REMARK SMILES IDX 33 44 34 45 48 47 69 48 36 49 20 50 21 51 29 52 22 53 23 54
REMARK SMILES IDX 27 55 30 56 24 57 25 58 28 59 26 60 52 61 53 62 61 63 54 64
REMARK SMILES IDX 55 65 59 66 62 67 56 68 57 69 60 70 58 71 37 72 38 73 46 74
REMARK SMILES IDX 39 75 40 76 44 77 47 78 41 79 42 80 45 81 43 82
REMARK H PARENT 67 35 35 46
REMARK Flexibility Score: inf
ROOT
ATOM      1  C   UNL A   1      31.792  30.047  25.701  1.00  0.00     0.275 C 
ENDROOT
BRANCH   1   2
ATOM      2  C   UNL A   1      32.195  28.706  25.090  1.00  0.00     0.274 C 
BRANCH   2   3
ATOM      3  O   UNL A   1      31.072  27.800  25.083  1.00  0.00    -0.461 OA
BRANCH   3   4
ATOM      4  C   UNL A   1      31.025  26.852  26.059  1.00  0.00     0.329 C 
ATOM      5  O   UNL A   1      31.217  27.079  27.249  1.00  0.00    -0.250 OA
BRANCH   4   6
ATOM      6  C   UNL A   1      30.860  25.435  25.483  1.00  0.00     0.202 C 
ATOM      7  C   UNL A   1      30.636  25.484  23.968  1.00  0.00     0.044 C 
BRANCH   6   8
ATOM      8  N   UNL A   1      31.903  24.504  25.941  1.00  0.00    -0.242 N 
ATOM      9  C   UNL A   1      31.545  23.542  26.867  1.00  0.00     0.321 A 
ATOM     10  C   UNL A   1      33.221  24.634  25.555  1.00  0.00     0.321 A 
ATOM     11  O   UNL A   1      30.406  23.344  27.269  1.00  0.00    -0.256 OA
ATOM     12  S   UNL A   1      32.890  22.587  27.451  1.00  0.00    -0.014 S 
ATOM     13  S   UNL A   1      34.269  23.386  26.200  1.00  0.00    -0.014 S 
ATOM     14  O   UNL A   1      33.665  25.479  24.791  1.00  0.00    -0.256 OA
ENDBRANCH   6   8
ENDBRANCH   4   6
ENDBRANCH   3   4
ENDBRANCH   2   3
ENDBRANCH   1   2
BRANCH   1  15
ATOM     15  O   UNL A   1      32.408  30.212  26.992  1.00  0.00    -0.458 OA
BRANCH  15  16
ATOM     16  C   UNL A   1      33.083  31.372  27.148  1.00  0.00     0.338 C 
ATOM     17  O   UNL A   1      32.660  32.508  27.004  1.00  0.00    -0.246 OA
BRANCH  16  18
ATOM     18  C   UNL A   1      34.421  31.083  27.670  1.00  0.00     0.060 A 
ATOM     19  C   UNL A   1      34.724  29.762  27.990  1.00  0.00     0.016 A 
ATOM     20  C   UNL A   1      35.305  32.112  27.980  1.00  0.00     0.016 A 
ATOM     21  C   UNL A   1      35.875  29.468  28.712  1.00  0.00     0.010 A 
ATOM     22  C   UNL A   1      36.502  31.804  28.634  1.00  0.00     0.010 A 
ATOM     23  C   UNL A   1      36.782  30.485  29.037  1.00  0.00    -0.014 A 
BRANCH  23  24
ATOM     24  C   UNL A   1      38.000  30.174  29.831  1.00  0.00     0.031 A 
ATOM     25  C   UNL A   1      39.072  29.291  29.254  1.00  0.00     0.074 A 
ATOM     26  C   UNL A   1      38.150  30.688  31.067  1.00  0.00     0.049 A 
ATOM     27  N   UNL A   1      40.113  28.758  29.842  1.00  0.00    -0.248 NA
ATOM     28  C   UNL A   1      38.949  28.953  27.827  1.00  0.00     0.031 C 
ATOM     29  C   UNL A   1      37.213  31.601  31.724  1.00  0.00     0.029 A 
ATOM     30  N   UNL A   1      39.146  30.511  31.994  1.00  0.00    -0.354 N 
ATOM     31  C   UNL A   1      40.739  27.982  28.874  1.00  0.00     0.074 A 
ATOM     32  C   UNL A   1      39.960  28.111  27.660  1.00  0.00     0.031 C 
ATOM     33  C   UNL A   1      37.688  31.919  32.937  1.00  0.00     0.029 A 
ATOM     34  C   UNL A   1      38.919  31.173  33.175  1.00  0.00     0.049 A 
ATOM     35  H   UNL A   1      39.948  29.963  31.828  1.00  0.00     0.167 HD
ATOM     36  C   UNL A   1      41.860  27.231  28.993  1.00  0.00     0.037 A 
ATOM     37  C   UNL A   1      39.600  31.147  34.336  1.00  0.00     0.037 A 
ATOM     38  C   UNL A   1      42.661  27.153  30.187  1.00  0.00     0.049 A 
ATOM     39  C   UNL A   1      40.821  30.279  34.453  1.00  0.00     0.074 A 
ATOM     40  C   UNL A   1      43.829  26.439  30.399  1.00  0.00     0.029 A 
ATOM     41  N   UNL A   1      42.383  27.821  31.371  1.00  0.00    -0.354 N 
ATOM     42  N   UNL A   1      41.381  29.515  33.548  1.00  0.00    -0.248 NA
ATOM     43  C   UNL A   1      41.495  30.259  35.757  1.00  0.00     0.031 C 
ATOM     44  C   UNL A   1      44.237  26.649  31.720  1.00  0.00     0.029 A 
ATOM     45  C   UNL A   1      43.349  27.526  32.319  1.00  0.00     0.049 A 
ATOM     46  H   UNL A   1      41.614  28.419  31.514  1.00  0.00     0.167 HD
ATOM     47  C   UNL A   1      42.482  28.937  34.165  1.00  0.00     0.074 A 
ATOM     48  C   UNL A   1      42.520  29.452  35.518  1.00  0.00     0.031 C 
ATOM     49  C   UNL A   1      43.377  28.055  33.658  1.00  0.00     0.037 A 
BRANCH  36  50
ATOM     50  C   UNL A   1      42.276  26.405  27.811  1.00  0.00     0.064 A 
ATOM     51  C   UNL A   1      43.258  26.837  26.909  1.00  0.00     0.173 A 
ATOM     52  C   UNL A   1      41.713  25.134  27.610  1.00  0.00     0.173 A 
ATOM     53  F   UNL A   1      43.819  28.048  27.051  1.00  0.00    -0.203 F 
ATOM     54  C   UNL A   1      43.646  26.038  25.836  1.00  0.00     0.198 A 
ATOM     55  C   UNL A   1      42.123  24.327  26.553  1.00  0.00     0.198 A 
ATOM     56  F   UNL A   1      40.775  24.669  28.448  1.00  0.00    -0.203 F 
ATOM     57  F   UNL A   1      44.558  26.488  24.963  1.00  0.00    -0.200 F 
ATOM     58  C   UNL A   1      43.084  24.781  25.664  1.00  0.00     0.200 A 
ATOM     59  F   UNL A   1      41.589  23.107  26.397  1.00  0.00    -0.200 F 
ATOM     60  F   UNL A   1      43.468  24.009  24.636  1.00  0.00    -0.200 F 
ENDBRANCH  36  50
BRANCH  37  61
ATOM     61  C   UNL A   1      39.118  31.945  35.493  1.00  0.00     0.064 A 
ATOM     62  C   UNL A   1      39.458  33.297  35.628  1.00  0.00     0.173 A 
ATOM     63  C   UNL A   1      38.308  31.373  36.486  1.00  0.00     0.173 A 
ATOM     64  F   UNL A   1      40.251  33.881  34.718  1.00  0.00    -0.203 F 
ATOM     65  C   UNL A   1      39.016  34.045  36.718  1.00  0.00     0.198 A 
ATOM     66  C   UNL A   1      37.842  32.129  37.559  1.00  0.00     0.198 A 
ATOM     67  F   UNL A   1      37.955  30.082  36.405  1.00  0.00    -0.203 F 
ATOM     68  F   UNL A   1      39.391  35.324  36.845  1.00  0.00    -0.200 F 
ATOM     69  C   UNL A   1      38.203  33.462  37.678  1.00  0.00     0.200 A 
ATOM     70  F   UNL A   1      37.045  31.565  38.477  1.00  0.00    -0.200 F 
ATOM     71  F   UNL A   1      37.773  34.183  38.723  1.00  0.00    -0.200 F 
ENDBRANCH  37  61
BRANCH  49  72
ATOM     72  C   UNL A   1      44.493  27.619  34.561  1.00  0.00     0.064 A 
ATOM     73  C   UNL A   1      45.692  28.341  34.647  1.00  0.00     0.173 A 
ATOM     74  C   UNL A   1      44.349  26.481  35.369  1.00  0.00     0.173 A 
ATOM     75  F   UNL A   1      45.885  29.426  33.881  1.00  0.00    -0.203 F 
ATOM     76  C   UNL A   1      46.716  27.925  35.493  1.00  0.00     0.198 A 
ATOM     77  C   UNL A   1      45.364  26.084  36.233  1.00  0.00     0.198 A 
ATOM     78  F   UNL A   1      43.218  25.760  35.325  1.00  0.00    -0.203 F 
ATOM     79  F   UNL A   1      47.872  28.604  35.527  1.00  0.00    -0.200 F 
ATOM     80  C   UNL A   1      46.549  26.803  36.290  1.00  0.00     0.200 A 
ATOM     81  F   UNL A   1      45.197  25.005  37.010  1.00  0.00    -0.200 F 
ATOM     82  F   UNL A   1      47.535  26.405  37.107  1.00  0.00    -0.200 F 
ENDBRANCH  49  72
ENDBRANCH  23  24
ENDBRANCH  16  18
ENDBRANCH  15  16
ENDBRANCH   1  15
TORSDOF 12
ENDMDL
MODEL 2
REMARK VINA RESULT:     -11.0      1.225      1.644
REMARK SMILES C[C@H](C(=O)OCCOC(=O)c1ccc(-c2c3nc(c(-c4c(F)c(F)c(F)c(F)c4F)c4ccc([nH]4)c(-c4c(F)c(F)c(F)c(F)c4F)c4nc(c(-c5c(F)c(F)c(F)c(F)c5F)c5ccc2[nH]5)C=C4)C=C3)cc1)n1c(=O)ssc1=O
REMARK SMILES IDX 7 1 6 2 5 3 3 4 4 5 2 6 1 7 74 8 75 9 79 10 76 11 77 12
REMARK SMILES IDX 78 13 80 14 8 15 9 16 10 17 11 18 12 19 73 20 13 21 72 22
REMARK SMILES IDX 14 23 15 24 16 25 66 26 17 27 71 28 65 29 67 30 18 31 70 32
REMARK SMILES IDX 64 33 63 34 19 36 51 37 31 38 50 39 32 40 35 41 49 42 68 43
REMARK SMILES IDX 33 44 34 45 48 47 69 48 36 49 20 50 21 51 29 52 22 53 23 54
REMARK SMILES IDX 27 55 30 56 24 57 25 58 28 59 26 60 52 61 53 62 61 63 54 64
REMARK SMILES IDX 55 65 59 66 62 67 56 68 57 69 60 70 58 71 37 72 38 73 46 74
REMARK SMILES IDX 39 75 40 76 44 77 47 78 41 79 42 80 45 81 43 82
REMARK H PARENT 67 35 35 46
REMARK Flexibility Score: inf
ROOT
ATOM      1  C   UNL A   1      31.480  30.405  25.524  1.00  0.00     0.275 C 
ENDROOT
BRANCH   1   2
ATOM      2  C   UNL A   1      31.089  29.146  24.752  1.00  0.00     0.274 C 
BRANCH   2   3
ATOM      3  O   UNL A   1      31.690  29.154  23.440  1.00  0.00    -0.461 OA
BRANCH   3   4
ATOM      4  C   UNL A   1      31.683  27.986  22.740  1.00  0.00     0.329 C 
ATOM      5  O   UNL A   1      30.676  27.327  22.511  1.00  0.00    -0.250 OA
BRANCH   4   6
ATOM      6  C   UNL A   1      33.106  27.505  22.404  1.00  0.00     0.202 C 
ATOM      7  C   UNL A   1      34.142  28.578  22.751  1.00  0.00     0.044 C 
BRANCH   6   8
ATOM      8  N   UNL A   1      33.391  26.156  22.917  1.00  0.00    -0.242 N 
ATOM      9  C   UNL A   1      33.395  25.111  22.012  1.00  0.00     0.321 A 
ATOM     10  C   UNL A   1      33.548  25.904  24.264  1.00  0.00     0.321 A 
ATOM     11  O   UNL A   1      33.269  25.231  20.800  1.00  0.00    -0.256 OA
ATOM     12  S   UNL A   1      33.598  23.537  22.750  1.00  0.00    -0.014 S 
ATOM     13  S   UNL A   1      33.918  24.230  24.627  1.00  0.00    -0.014 S 
ATOM     14  O   UNL A   1      33.506  26.735  25.160  1.00  0.00    -0.256 OA
ENDBRANCH   6   8
ENDBRANCH   4   6
ENDBRANCH   3   4
ENDBRANCH   2   3
ENDBRANCH   1   2
BRANCH   1  15
ATOM     15  O   UNL A   1      32.743  30.210  26.186  1.00  0.00    -0.458 OA
BRANCH  15  16
ATOM     16  C   UNL A   1      33.150  31.257  26.939  1.00  0.00     0.338 C 
ATOM     17  O   UNL A   1      32.509  32.247  27.251  1.00  0.00    -0.246 OA
BRANCH  16  18
ATOM     18  C   UNL A   1      34.485  30.974  27.472  1.00  0.00     0.060 A 
ATOM     19  C   UNL A   1      34.786  29.657  27.812  1.00  0.00     0.016 A 
ATOM     20  C   UNL A   1      35.368  32.007  27.773  1.00  0.00     0.016 A 
ATOM     21  C   UNL A   1      35.933  29.373  28.544  1.00  0.00     0.010 A 
ATOM     22  C   UNL A   1      36.561  31.708  28.438  1.00  0.00     0.010 A 
ATOM     23  C   UNL A   1      36.838  30.394  28.861  1.00  0.00    -0.014 A 
BRANCH  23  24
ATOM     24  C   UNL A   1      38.051  30.093  29.666  1.00  0.00     0.031 A 
ATOM     25  C   UNL A   1      39.125  29.201  29.107  1.00  0.00     0.074 A 
ATOM     26  C   UNL A   1      38.194  30.624  30.896  1.00  0.00     0.049 A 
ATOM     27  N   UNL A   1      40.163  28.676  29.708  1.00  0.00    -0.248 NA
ATOM     28  C   UNL A   1      39.011  28.843  27.685  1.00  0.00     0.031 C 
ATOM     29  C   UNL A   1      37.255  31.548  31.534  1.00  0.00     0.029 A 
ATOM     30  N   UNL A   1      39.186  30.460  31.830  1.00  0.00    -0.354 N 
ATOM     31  C   UNL A   1      40.793  27.885  28.756  1.00  0.00     0.074 A 
ATOM     32  C   UNL A   1      40.021  27.998  27.536  1.00  0.00     0.031 C 
ATOM     33  C   UNL A   1      37.724  31.882  32.745  1.00  0.00     0.029 A 
ATOM     34  C   UNL A   1      38.953  31.138  33.001  1.00  0.00     0.049 A 
ATOM     35  H   UNL A   1      39.988  29.909  31.677  1.00  0.00     0.167 HD
ATOM     36  C   UNL A   1      41.914  27.136  28.891  1.00  0.00     0.037 A 
ATOM     37  C   UNL A   1      39.627  31.129  34.166  1.00  0.00     0.037 A 
ATOM     38  C   UNL A   1      42.708  27.074  30.091  1.00  0.00     0.049 A 
ATOM     39  C   UNL A   1      40.847  30.261  34.301  1.00  0.00     0.074 A 
ATOM     40  C   UNL A   1      43.873  26.362  30.319  1.00  0.00     0.029 A 
ATOM     41  N   UNL A   1      42.424  27.759  31.263  1.00  0.00    -0.354 N 
ATOM     42  N   UNL A   1      41.411  29.484  33.410  1.00  0.00    -0.248 NA
ATOM     43  C   UNL A   1      41.514  30.259  35.610  1.00  0.00     0.031 C 
ATOM     44  C   UNL A   1      44.275  26.590  31.640  1.00  0.00     0.029 A 
ATOM     45  C   UNL A   1      43.385  27.476  32.221  1.00  0.00     0.049 A 
ATOM     46  H   UNL A   1      41.654  28.359  31.394  1.00  0.00     0.167 HD
ATOM     47  C   UNL A   1      42.508  28.914  34.042  1.00  0.00     0.074 A 
ATOM     48  C   UNL A   1      42.539  29.448  35.388  1.00  0.00     0.031 C 
ATOM     49  C   UNL A   1      43.405  28.024  33.553  1.00  0.00     0.037 A 
BRANCH  36  50
ATOM     50  C   UNL A   1      42.335  26.292  27.723  1.00  0.00     0.064 A 
ATOM     51  C   UNL A   1      43.323  26.711  26.821  1.00  0.00     0.173 A 
ATOM     52  C   UNL A   1      41.771  25.020  27.537  1.00  0.00     0.173 A 
ATOM     53  F   UNL A   1      43.885  27.922  26.949  1.00  0.00    -0.203 F 
ATOM     54  C   UNL A   1      43.716  25.896  25.762  1.00  0.00     0.198 A 
ATOM     55  C   UNL A   1      42.187  24.197  26.494  1.00  0.00     0.198 A 
ATOM     56  F   UNL A   1      40.828  24.567  28.376  1.00  0.00    -0.203 F 
ATOM     57  F   UNL A   1      44.635  26.332  24.888  1.00  0.00    -0.200 F 
ATOM     58  C   UNL A   1      43.154  24.638  25.604  1.00  0.00     0.200 A 
ATOM     59  F   UNL A   1      41.652  22.976  26.351  1.00  0.00    -0.200 F 
ATOM     60  F   UNL A   1      43.543  23.851  24.590  1.00  0.00    -0.200 F 
ENDBRANCH  36  50
BRANCH  37  61
ATOM     61  C   UNL A   1      39.139  31.943  35.309  1.00  0.00     0.064 A 
ATOM     62  C   UNL A   1      39.452  33.305  35.408  1.00  0.00     0.173 A 
ATOM     63  C   UNL A   1      38.351  31.378  36.323  1.00  0.00     0.173 A 
ATOM     64  F   UNL A   1      40.225  33.884  34.478  1.00  0.00    -0.203 F 
ATOM     65  C   UNL A   1      39.006  34.069  36.485  1.00  0.00     0.198 A 
ATOM     66  C   UNL A   1      37.879  32.149  37.382  1.00  0.00     0.198 A 
ATOM     67  F   UNL A   1      38.024  30.078  36.274  1.00  0.00    -0.203 F 
ATOM     68  F   UNL A   1      39.355  35.358  36.579  1.00  0.00    -0.200 F 
ATOM     69  C   UNL A   1      38.213  33.492  37.466  1.00  0.00     0.200 A 
ATOM     70  F   UNL A   1      37.102  31.591  38.321  1.00  0.00    -0.200 F 
ATOM     71  F   UNL A   1      37.778  34.228  38.498  1.00  0.00    -0.200 F 
ENDBRANCH  37  61
BRANCH  49  72
ATOM     72  C   UNL A   1      44.516  27.601  34.468  1.00  0.00     0.064 A 
ATOM     73  C   UNL A   1      45.715  28.323  34.551  1.00  0.00     0.173 A 
ATOM     74  C   UNL A   1      44.366  26.473  35.290  1.00  0.00     0.173 A 
ATOM     75  F   UNL A   1      45.912  29.397  33.772  1.00  0.00    -0.203 F 
ATOM     76  C   UNL A   1      46.733  27.919  35.409  1.00  0.00     0.198 A 
ATOM     77  C   UNL A   1      45.376  26.088  36.165  1.00  0.00     0.198 A 
ATOM     78  F   UNL A   1      43.236  25.752  35.249  1.00  0.00    -0.203 F 
ATOM     79  F   UNL A   1      47.889  28.597  35.441  1.00  0.00    -0.200 F 
ATOM     80  C   UNL A   1      46.561  26.807  36.220  1.00  0.00     0.200 A 
ATOM     81  F   UNL A   1      45.205  25.019  36.955  1.00  0.00    -0.200 F 
ATOM     82  F   UNL A   1      47.542  26.421  37.047  1.00  0.00    -0.200 F 
ENDBRANCH  49  72
ENDBRANCH  23  24
ENDBRANCH  16  18
ENDBRANCH  15  16
ENDBRANCH   1  15
TORSDOF 12
ENDMDL
MODEL 3
REMARK VINA RESULT:     -10.9      0.325      1.710
REMARK SMILES C[C@H](C(=O)OCCOC(=O)c1ccc(-c2c3nc(c(-c4c(F)c(F)c(F)c(F)c4F)c4ccc([nH]4)c(-c4c(F)c(F)c(F)c(F)c4F)c4nc(c(-c5c(F)c(F)c(F)c(F)c5F)c5ccc2[nH]5)C=C4)C=C3)cc1)n1c(=O)ssc1=O
REMARK SMILES IDX 7 1 6 2 5 3 3 4 4 5 2 6 1 7 74 8 75 9 79 10 76 11 77 12
REMARK SMILES IDX 78 13 80 14 8 15 9 16 10 17 11 18 12 19 73 20 13 21 72 22
REMARK SMILES IDX 14 23 15 24 16 25 66 26 17 27 71 28 65 29 67 30 18 31 70 32
REMARK SMILES IDX 64 33 63 34 19 36 51 37 31 38 50 39 32 40 35 41 49 42 68 43
REMARK SMILES IDX 33 44 34 45 48 47 69 48 36 49 20 50 21 51 29 52 22 53 23 54
REMARK SMILES IDX 27 55 30 56 24 57 25 58 28 59 26 60 52 61 53 62 61 63 54 64
REMARK SMILES IDX 55 65 59 66 62 67 56 68 57 69 60 70 58 71 37 72 38 73 46 74
REMARK SMILES IDX 39 75 40 76 44 77 47 78 41 79 42 80 45 81 43 82
REMARK H PARENT 67 35 35 46
REMARK Flexibility Score: inf
ROOT
ATOM      1  C   UNL A   1      32.223  30.157  25.632  1.00  0.00     0.275 C 
ENDROOT
BRANCH   1   2
ATOM      2  C   UNL A   1      32.523  28.693  25.312  1.00  0.00     0.274 C 
BRANCH   2   3
ATOM      3  O   UNL A   1      31.296  27.961  25.113  1.00  0.00    -0.461 OA
BRANCH   3   4
ATOM      4  C   UNL A   1      30.965  27.027  26.047  1.00  0.00     0.329 C 
ATOM      5  O   UNL A   1      31.138  27.167  27.252  1.00  0.00    -0.250 OA
BRANCH   4   6
ATOM      6  C   UNL A   1      30.493  25.709  25.406  1.00  0.00     0.202 C 
ATOM      7  C   UNL A   1      29.933  25.955  24.001  1.00  0.00     0.044 C 
BRANCH   6   8
ATOM      8  N   UNL A   1      31.488  24.631  25.513  1.00  0.00    -0.242 N 
ATOM      9  C   UNL A   1      31.311  23.689  26.508  1.00  0.00     0.321 A 
ATOM     10  C   UNL A   1      32.623  24.602  24.728  1.00  0.00     0.321 A 
ATOM     11  O   UNL A   1      30.340  23.627  27.251  1.00  0.00    -0.256 OA
ATOM     12  S   UNL A   1      32.627  22.542  26.639  1.00  0.00    -0.014 S 
ATOM     13  S   UNL A   1      33.637  23.201  25.012  1.00  0.00    -0.014 S 
ATOM     14  O   UNL A   1      32.916  25.411  23.859  1.00  0.00    -0.256 OA
ENDBRANCH   6   8
ENDBRANCH   4   6
ENDBRANCH   3   4
ENDBRANCH   2   3
ENDBRANCH   1   2
BRANCH   1  15
ATOM     15  O   UNL A   1      32.488  30.427  27.021  1.00  0.00    -0.458 OA
BRANCH  15  16
ATOM     16  C   UNL A   1      33.167  31.573  27.250  1.00  0.00     0.338 C 
ATOM     17  O   UNL A   1      32.751  32.718  27.168  1.00  0.00    -0.246 OA
BRANCH  16  18
ATOM     18  C   UNL A   1      34.498  31.247  27.768  1.00  0.00     0.060 A 
ATOM     19  C   UNL A   1      34.757  29.923  28.114  1.00  0.00     0.016 A 
ATOM     20  C   UNL A   1      35.421  32.250  28.049  1.00  0.00     0.016 A 
ATOM     21  C   UNL A   1      35.903  29.603  28.832  1.00  0.00     0.010 A 
ATOM     22  C   UNL A   1      36.612  31.914  28.700  1.00  0.00     0.010 A 
ATOM     23  C   UNL A   1      36.848  30.594  29.129  1.00  0.00    -0.014 A 
BRANCH  23  24
ATOM     24  C   UNL A   1      38.061  30.256  29.920  1.00  0.00     0.031 A 
ATOM     25  C   UNL A   1      39.124  29.371  29.330  1.00  0.00     0.074 A 
ATOM     26  C   UNL A   1      38.213  30.747  31.165  1.00  0.00     0.049 A 
ATOM     27  N   UNL A   1      40.158  28.817  29.910  1.00  0.00    -0.248 NA
ATOM     28  C   UNL A   1      39.001  29.059  27.897  1.00  0.00     0.031 C 
ATOM     29  C   UNL A   1      37.286  31.659  31.836  1.00  0.00     0.029 A 
ATOM     30  N   UNL A   1      39.206  30.543  32.091  1.00  0.00    -0.354 N 
ATOM     31  C   UNL A   1      40.777  28.050  28.931  1.00  0.00     0.074 A 
ATOM     32  C   UNL A   1      40.003  28.209  27.718  1.00  0.00     0.031 C 
ATOM     33  C   UNL A   1      37.761  31.951  33.055  1.00  0.00     0.029 A 
ATOM     34  C   UNL A   1      38.984  31.187  33.283  1.00  0.00     0.049 A 
ATOM     35  H   UNL A   1      40.002  29.990  31.917  1.00  0.00     0.167 HD
ATOM     36  C   UNL A   1      41.891  27.286  29.039  1.00  0.00     0.037 A 
ATOM     37  C   UNL A   1      39.661  31.134  34.445  1.00  0.00     0.037 A 
ATOM     38  C   UNL A   1      42.688  27.178  30.234  1.00  0.00     0.049 A 
ATOM     39  C   UNL A   1      40.872  30.251  34.548  1.00  0.00     0.074 A 
ATOM     40  C   UNL A   1      43.847  26.449  30.435  1.00  0.00     0.029 A 
ATOM     41  N   UNL A   1      42.414  27.830  31.428  1.00  0.00    -0.354 N 
ATOM     42  N   UNL A   1      41.426  29.496  33.632  1.00  0.00    -0.248 NA
ATOM     43  C   UNL A   1      41.544  30.201  35.854  1.00  0.00     0.031 C 
ATOM     44  C   UNL A   1      44.255  26.631  31.761  1.00  0.00     0.029 A 
ATOM     45  C   UNL A   1      43.376  27.507  32.373  1.00  0.00     0.049 A 
ATOM     46  H   UNL A   1      41.652  28.432  31.580  1.00  0.00     0.167 HD
ATOM     47  C   UNL A   1      42.519  28.896  34.241  1.00  0.00     0.074 A 
ATOM     48  C   UNL A   1      42.560  29.387  35.603  1.00  0.00     0.031 C 
ATOM     49  C   UNL A   1      43.406  28.013  33.721  1.00  0.00     0.037 A 
BRANCH  36  50
ATOM     50  C   UNL A   1      42.299  26.475  27.844  1.00  0.00     0.064 A 
ATOM     51  C   UNL A   1      43.285  26.914  26.949  1.00  0.00     0.173 A 
ATOM     52  C   UNL A   1      41.726  25.213  27.623  1.00  0.00     0.173 A 
ATOM     53  F   UNL A   1      43.856  28.118  27.110  1.00  0.00    -0.203 F 
ATOM     54  C   UNL A   1      43.667  26.130  25.863  1.00  0.00     0.198 A 
ATOM     55  C   UNL A   1      42.130  24.419  26.553  1.00  0.00     0.198 A 
ATOM     56  F   UNL A   1      40.784  24.742  28.453  1.00  0.00    -0.203 F 
ATOM     57  F   UNL A   1      44.583  26.585  24.998  1.00  0.00    -0.200 F 
ATOM     58  C   UNL A   1      43.095  24.880  25.671  1.00  0.00     0.200 A 
ATOM     59  F   UNL A   1      41.587  23.206  26.377  1.00  0.00    -0.200 F 
ATOM     60  F   UNL A   1      43.473  24.122  24.631  1.00  0.00    -0.200 F 
ENDBRANCH  36  50
BRANCH  37  61
ATOM     61  C   UNL A   1      39.185  31.917  35.614  1.00  0.00     0.064 A 
ATOM     62  C   UNL A   1      38.334  31.342  36.567  1.00  0.00     0.173 A 
ATOM     63  C   UNL A   1      39.571  33.252  35.804  1.00  0.00     0.173 A 
ATOM     64  F   UNL A   1      37.916  30.077  36.415  1.00  0.00    -0.203 F 
ATOM     65  C   UNL A   1      37.876  32.078  37.659  1.00  0.00     0.198 A 
ATOM     66  C   UNL A   1      39.139  33.977  36.912  1.00  0.00     0.198 A 
ATOM     67  F   UNL A   1      40.385  33.849  34.920  1.00  0.00    -0.203 F 
ATOM     68  F   UNL A   1      37.029  31.518  38.532  1.00  0.00    -0.200 F 
ATOM     69  C   UNL A   1      38.286  33.391  37.834  1.00  0.00     0.200 A 
ATOM     70  F   UNL A   1      39.548  35.241  37.085  1.00  0.00    -0.200 F 
ATOM     71  F   UNL A   1      37.852  34.095  38.889  1.00  0.00    -0.200 F 
ENDBRANCH  37  61
BRANCH  49  72
ATOM     72  C   UNL A   1      44.515  27.550  34.618  1.00  0.00     0.064 A 
ATOM     73  C   UNL A   1      44.398  26.386  35.391  1.00  0.00     0.173 A 
ATOM     74  C   UNL A   1      45.720  28.266  34.684  1.00  0.00     0.173 A 
ATOM     75  F   UNL A   1      43.259  25.676  35.375  1.00  0.00    -0.203 F 
ATOM     76  C   UNL A   1      45.439  25.967  36.215  1.00  0.00     0.198 A 
ATOM     77  C   UNL A   1      46.767  27.831  35.489  1.00  0.00     0.198 A 
ATOM     78  F   UNL A   1      45.881  29.385  33.961  1.00  0.00    -0.203 F 
ATOM     79  F   UNL A   1      45.289  24.876  36.979  1.00  0.00    -0.200 F 
ATOM     80  C   UNL A   1      46.625  26.685  36.258  1.00  0.00     0.200 A 
ATOM     81  F   UNL A   1      47.917  28.521  35.522  1.00  0.00    -0.200 F 
ATOM     82  F   UNL A   1      47.627  26.280  37.049  1.00  0.00    -0.200 F 
ENDBRANCH  49  72
ENDBRANCH  23  24
ENDBRANCH  16  18
ENDBRANCH  15  16
ENDBRANCH   1  15
TORSDOF 12
ENDMDL
