MODEL 1
REMARK VINA RESULT:     -12.2      0.000      0.000
REMARK SMILES COc1ccc([C@H]2[C@@H](C(=O)OCCOC(=O)c3ccc(-c4c5nc(c(-c6c(F)c(F)c(F)c(F)c6F)c6ccc([nH]6)c(-c6c(F)c(F)c(F)c(F)c6F)c6nc(c(-c7c(F)c(F)c(F)c(F)c7F)c7ccc4[nH]7)C=C6)C=C5)cc3)CC(=O)N2Cc2ccccc2)cc1
REMARK SMILES IDX 12 1 11 2 9 3 10 4 8 5 7 6 83 7 80 8 81 9 82 10 6 11 3 12
REMARK SMILES IDX 4 13 92 14 5 15 91 16 2 17 1 18 84 19 85 20 86 21 90 22
REMARK SMILES IDX 87 23 89 24 88 25 13 26 14 27 15 28 16 29 17 30 18 31 79 32
REMARK SMILES IDX 19 33 78 34 20 35 21 36 22 37 72 38 23 39 77 40 71 41 73 42
REMARK SMILES IDX 24 43 76 44 70 45 69 46 25 48 57 49 37 50 56 51 38 52 41 53
REMARK SMILES IDX 55 54 74 55 39 56 40 57 54 59 75 60 42 61 26 62 27 63 35 64
REMARK SMILES IDX 28 65 29 66 33 67 36 68 30 69 31 70 34 71 32 72 58 73 59 74
REMARK SMILES IDX 67 75 60 76 61 77 65 78 68 79 62 80 63 81 66 82 64 83 43 84
REMARK SMILES IDX 44 85 52 86 45 87 46 88 50 89 53 90 47 91 48 92 51 93 49 94
REMARK H PARENT 73 47 41 58
REMARK Flexibility Score: inf
ROOT
ATOM      1  C   UNL A   1      35.864  20.666  25.181  1.00  0.00     0.274 C 
ENDROOT
BRANCH   1   2
ATOM      2  O   UNL A   1      35.573  21.977  24.663  1.00  0.00    -0.462 OA
BRANCH   2   3
ATOM      3  C   UNL A   1      34.472  22.078  23.879  1.00  0.00     0.312 C 
ATOM      4  O   UNL A   1      33.622  21.204  23.742  1.00  0.00    -0.252 OA
BRANCH   3   5
ATOM      5  C   UNL A   1      34.389  23.374  23.125  1.00  0.00     0.135 C 
ATOM      6  C   UNL A   1      33.918  24.532  23.999  1.00  0.00     0.130 C 
ATOM      7  N   UNL A   1      33.581  25.525  22.989  1.00  0.00    -0.330 N 
ATOM      8  C   UNL A   1      33.496  23.450  21.892  1.00  0.00     0.118 C 
ATOM      9  C   UNL A   1      33.308  24.946  21.757  1.00  0.00     0.224 C 
ATOM     10  O   UNL A   1      32.977  25.526  20.737  1.00  0.00    -0.275 OA
BRANCH   6  11
ATOM     11  C   UNL A   1      32.773  24.158  24.929  1.00  0.00    -0.024 A 
ATOM     12  C   UNL A   1      30.741  23.358  26.721  1.00  0.00     0.118 A 
ATOM     13  C   UNL A   1      32.014  23.679  27.192  1.00  0.00     0.047 A 
ATOM     14  C   UNL A   1      30.480  23.447  25.356  1.00  0.00     0.047 A 
ATOM     15  C   UNL A   1      33.018  24.084  26.310  1.00  0.00     0.010 A 
ATOM     16  C   UNL A   1      31.489  23.831  24.467  1.00  0.00     0.010 A 
BRANCH  12  17
ATOM     17  O   UNL A   1      29.853  22.974  27.686  1.00  0.00    -0.497 OA
ATOM     18  C   UNL A   1      28.739  22.203  27.253  1.00  0.00     0.278 C 
ENDBRANCH  12  17
ENDBRANCH   6  11
BRANCH   7  19
ATOM     19  C   UNL A   1      33.653  26.961  23.221  1.00  0.00     0.155 C 
BRANCH  19  20
ATOM     20  C   UNL A   1      33.010  27.368  24.520  1.00  0.00    -0.029 A 
ATOM     21  C   UNL A   1      31.618  27.314  24.665  1.00  0.00     0.005 A 
ATOM     22  C   UNL A   1      33.799  27.698  25.633  1.00  0.00     0.005 A 
ATOM     23  C   UNL A   1      31.030  27.550  25.907  1.00  0.00     0.000 A 
ATOM     24  C   UNL A   1      33.210  27.909  26.879  1.00  0.00     0.000 A 
ATOM     25  C   UNL A   1      31.827  27.830  27.016  1.00  0.00     0.000 A 
ENDBRANCH  19  20
ENDBRANCH   7  19
ENDBRANCH   3   5
ENDBRANCH   2   3
ENDBRANCH   1   2
BRANCH   1  26
ATOM     26  C   UNL A   1      37.340  20.301  25.000  1.00  0.00     0.275 C 
BRANCH  26  27
ATOM     27  O   UNL A   1      38.211  21.415  25.279  1.00  0.00    -0.458 OA
BRANCH  27  28
ATOM     28  C   UNL A   1      39.230  21.139  26.125  1.00  0.00     0.338 C 
ATOM     29  O   UNL A   1      39.740  20.051  26.339  1.00  0.00    -0.246 OA
BRANCH  28  30
ATOM     30  C   UNL A   1      39.797  22.384  26.662  1.00  0.00     0.060 A 
ATOM     31  C   UNL A   1      39.326  23.586  26.127  1.00  0.00     0.016 A 
ATOM     32  C   UNL A   1      40.841  22.382  27.588  1.00  0.00     0.016 A 
ATOM     33  C   UNL A   1      39.894  24.795  26.501  1.00  0.00     0.010 A 
ATOM     34  C   UNL A   1      41.426  23.598  27.954  1.00  0.00     0.010 A 
ATOM     35  C   UNL A   1      40.969  24.806  27.396  1.00  0.00    -0.014 A 
BRANCH  35  36
ATOM     36  C   UNL A   1      41.684  26.079  27.634  1.00  0.00     0.031 A 
ATOM     37  C   UNL A   1      41.012  27.150  28.442  1.00  0.00     0.074 A 
ATOM     38  C   UNL A   1      42.943  26.241  27.192  1.00  0.00     0.049 A 
ATOM     39  N   UNL A   1      41.418  28.364  28.714  1.00  0.00    -0.248 NA
ATOM     40  C   UNL A   1      39.708  26.806  29.030  1.00  0.00     0.031 C 
ATOM     41  C   UNL A   1      43.721  25.234  26.471  1.00  0.00     0.029 A 
ATOM     42  N   UNL A   1      43.791  27.314  27.293  1.00  0.00    -0.354 N 
ATOM     43  C   UNL A   1      40.413  28.933  29.484  1.00  0.00     0.074 A 
ATOM     44  C   UNL A   1      39.370  27.940  29.626  1.00  0.00     0.031 C 
ATOM     45  C   UNL A   1      44.935  25.738  26.192  1.00  0.00     0.029 A 
ATOM     46  C   UNL A   1      45.000  27.116  26.674  1.00  0.00     0.049 A 
ATOM     47  H   UNL A   1      43.557  28.145  27.766  1.00  0.00     0.167 HD
ATOM     48  C   UNL A   1      40.370  30.173  30.024  1.00  0.00     0.037 A 
ATOM     49  C   UNL A   1      46.028  27.966  26.492  1.00  0.00     0.037 A 
ATOM     50  C   UNL A   1      41.419  31.149  29.887  1.00  0.00     0.049 A 
ATOM     51  C   UNL A   1      45.923  29.365  27.042  1.00  0.00     0.074 A 
ATOM     52  C   UNL A   1      41.466  32.444  30.370  1.00  0.00     0.029 A 
ATOM     53  N   UNL A   1      42.616  30.926  29.220  1.00  0.00    -0.354 N 
ATOM     54  N   UNL A   1      44.953  29.913  27.734  1.00  0.00    -0.248 NA
ATOM     55  C   UNL A   1      47.055  30.265  26.780  1.00  0.00     0.031 C 
ATOM     56  C   UNL A   1      42.676  33.017  29.965  1.00  0.00     0.029 A 
ATOM     57  C   UNL A   1      43.403  32.064  29.271  1.00  0.00     0.049 A 
ATOM     58  H   UNL A   1      42.867  30.084  28.776  1.00  0.00     0.167 HD
ATOM     59  C   UNL A   1      45.368  31.206  28.016  1.00  0.00     0.074 A 
ATOM     60  C   UNL A   1      46.684  31.359  27.430  1.00  0.00     0.031 C 
ATOM     61  C   UNL A   1      44.719  32.183  28.697  1.00  0.00     0.037 A 
BRANCH  48  62
ATOM     62  C   UNL A   1      39.134  30.556  30.782  1.00  0.00     0.064 A 
ATOM     63  C   UNL A   1      39.030  30.368  32.168  1.00  0.00     0.173 A 
ATOM     64  C   UNL A   1      38.047  31.139  30.115  1.00  0.00     0.173 A 
ATOM     65  F   UNL A   1      40.034  29.796  32.849  1.00  0.00    -0.203 F 
ATOM     66  C   UNL A   1      37.875  30.734  32.855  1.00  0.00     0.198 A 
ATOM     67  C   UNL A   1      36.904  31.528  30.807  1.00  0.00     0.198 A 
ATOM     68  F   UNL A   1      38.096  31.340  28.789  1.00  0.00    -0.203 F 
ATOM     69  F   UNL A   1      37.780  30.508  34.173  1.00  0.00    -0.200 F 
ATOM     70  C   UNL A   1      36.816  31.320  32.176  1.00  0.00     0.200 A 
ATOM     71  F   UNL A   1      35.886  32.102  30.152  1.00  0.00    -0.200 F 
ATOM     72  F   UNL A   1      35.708  31.677  32.839  1.00  0.00    -0.200 F 
ENDBRANCH  48  62
BRANCH  49  73
ATOM     73  C   UNL A   1      47.233  27.533  25.739  1.00  0.00     0.064 A 
ATOM     74  C   UNL A   1      48.337  26.974  26.397  1.00  0.00     0.173 A 
ATOM     75  C   UNL A   1      47.317  27.691  24.347  1.00  0.00     0.173 A 
ATOM     76  F   UNL A   1      48.316  26.825  27.730  1.00  0.00    -0.203 F 
ATOM     77  C   UNL A   1      49.485  26.609  25.697  1.00  0.00     0.198 A 
ATOM     78  C   UNL A   1      48.453  27.299  23.644  1.00  0.00     0.198 A 
ATOM     79  F   UNL A   1      46.289  28.224  23.669  1.00  0.00    -0.203 F 
ATOM     80  F   UNL A   1      50.544  26.124  26.358  1.00  0.00    -0.200 F 
ATOM     81  C   UNL A   1      49.539  26.767  24.320  1.00  0.00     0.200 A 
ATOM     82  F   UNL A   1      48.498  27.443  22.313  1.00  0.00    -0.200 F 
ATOM     83  F   UNL A   1      50.644  26.417  23.647  1.00  0.00    -0.200 F 
ENDBRANCH  49  73
BRANCH  61  84
ATOM     84  C   UNL A   1      45.446  33.481  28.889  1.00  0.00     0.064 A 
ATOM     85  C   UNL A   1      46.293  33.698  29.984  1.00  0.00     0.173 A 
ATOM     86  C   UNL A   1      45.315  34.510  27.942  1.00  0.00     0.173 A 
ATOM     87  F   UNL A   1      46.438  32.751  30.923  1.00  0.00    -0.203 F 
ATOM     88  C   UNL A   1      46.962  34.909  30.141  1.00  0.00     0.198 A 
ATOM     89  C   UNL A   1      46.008  35.708  28.087  1.00  0.00     0.198 A 
ATOM     90  F   UNL A   1      44.521  34.348  26.872  1.00  0.00    -0.203 F 
ATOM     91  F   UNL A   1      47.728  35.113  31.221  1.00  0.00    -0.200 F 
ATOM     92  C   UNL A   1      46.824  35.909  29.190  1.00  0.00     0.200 A 
ATOM     93  F   UNL A   1      45.882  36.668  27.162  1.00  0.00    -0.200 F 
ATOM     94  F   UNL A   1      47.471  37.073  29.341  1.00  0.00    -0.200 F 
ENDBRANCH  61  84
ENDBRANCH  35  36
ENDBRANCH  28  30
ENDBRANCH  27  28
ENDBRANCH  26  27
ENDBRANCH   1  26
TORSDOF 15
ENDMDL
MODEL 2
REMARK VINA RESULT:     -12.2      4.345      9.738
REMARK SMILES COc1ccc([C@H]2[C@@H](C(=O)OCCOC(=O)c3ccc(-c4c5nc(c(-c6c(F)c(F)c(F)c(F)c6F)c6ccc([nH]6)c(-c6c(F)c(F)c(F)c(F)c6F)c6nc(c(-c7c(F)c(F)c(F)c(F)c7F)c7ccc4[nH]7)C=C6)C=C5)cc3)CC(=O)N2Cc2ccccc2)cc1
REMARK SMILES IDX 12 1 11 2 9 3 10 4 8 5 7 6 83 7 80 8 81 9 82 10 6 11 3 12
REMARK SMILES IDX 4 13 92 14 5 15 91 16 2 17 1 18 84 19 85 20 86 21 90 22
REMARK SMILES IDX 87 23 89 24 88 25 13 26 14 27 15 28 16 29 17 30 18 31 79 32
REMARK SMILES IDX 19 33 78 34 20 35 21 36 22 37 72 38 23 39 77 40 71 41 73 42
REMARK SMILES IDX 24 43 76 44 70 45 69 46 25 48 57 49 37 50 56 51 38 52 41 53
REMARK SMILES IDX 55 54 74 55 39 56 40 57 54 59 75 60 42 61 26 62 27 63 35 64
REMARK SMILES IDX 28 65 29 66 33 67 36 68 30 69 31 70 34 71 32 72 58 73 59 74
REMARK SMILES IDX 67 75 60 76 61 77 65 78 68 79 62 80 63 81 66 82 64 83 43 84
REMARK SMILES IDX 44 85 52 86 45 87 46 88 50 89 53 90 47 91 48 92 51 93 49 94
REMARK H PARENT 73 47 41 58
REMARK Flexibility Score: inf
ROOT
ATOM      1  C   UNL A   1      31.405  30.119  25.333  1.00  0.00     0.274 C 
ENDROOT
BRANCH   1   2
ATOM      2  O   UNL A   1      31.773  28.790  25.750  1.00  0.00    -0.462 OA
BRANCH   2   3
ATOM      3  C   UNL A   1      30.973  27.787  25.316  1.00  0.00     0.312 C 
ATOM      4  O   UNL A   1      30.199  27.862  24.367  1.00  0.00    -0.252 OA
BRANCH   3   5
ATOM      5  C   UNL A   1      31.075  26.538  26.144  1.00  0.00     0.135 C 
ATOM      6  C   UNL A   1      32.287  25.688  25.778  1.00  0.00     0.130 C 
ATOM      7  N   UNL A   1      31.952  24.429  26.429  1.00  0.00    -0.330 N 
ATOM      8  C   UNL A   1      29.911  25.553  26.133  1.00  0.00     0.118 C 
ATOM      9  C   UNL A   1      30.587  24.296  26.637  1.00  0.00     0.224 C 
ATOM     10  O   UNL A   1      30.017  23.341  27.138  1.00  0.00    -0.275 OA
BRANCH   6  11
ATOM     11  C   UNL A   1      32.519  25.586  24.278  1.00  0.00    -0.024 A 
ATOM     12  C   UNL A   1      32.962  25.550  21.488  1.00  0.00     0.118 A 
ATOM     13  C   UNL A   1      33.814  26.264  22.331  1.00  0.00     0.047 A 
ATOM     14  C   UNL A   1      31.895  24.846  22.040  1.00  0.00     0.047 A 
ATOM     15  C   UNL A   1      33.603  26.275  23.711  1.00  0.00     0.010 A 
ATOM     16  C   UNL A   1      31.669  24.873  23.420  1.00  0.00     0.010 A 
BRANCH  12  17
ATOM     17  O   UNL A   1      33.276  25.624  20.160  1.00  0.00    -0.497 OA
ATOM     18  C   UNL A   1      32.208  25.424  19.243  1.00  0.00     0.278 C 
ENDBRANCH  12  17
ENDBRANCH   6  11
BRANCH   7  19
ATOM     19  C   UNL A   1      32.951  23.489  26.917  1.00  0.00     0.155 C 
BRANCH  19  20
ATOM     20  C   UNL A   1      34.016  23.196  25.894  1.00  0.00    -0.029 A 
ATOM     21  C   UNL A   1      33.734  22.367  24.800  1.00  0.00     0.005 A 
ATOM     22  C   UNL A   1      35.264  23.834  25.961  1.00  0.00     0.005 A 
ATOM     23  C   UNL A   1      34.667  22.210  23.777  1.00  0.00     0.000 A 
ATOM     24  C   UNL A   1      36.185  23.695  24.923  1.00  0.00     0.000 A 
ATOM     25  C   UNL A   1      35.885  22.887  23.830  1.00  0.00     0.000 A 
ENDBRANCH  19  20
ENDBRANCH   7  19
ENDBRANCH   3   5
ENDBRANCH   2   3
ENDBRANCH   1   2
BRANCH   1  26
ATOM     26  C   UNL A   1      31.656  31.148  26.440  1.00  0.00     0.275 C 
BRANCH  26  27
ATOM     27  O   UNL A   1      32.858  30.864  27.181  1.00  0.00    -0.458 OA
BRANCH  27  28
ATOM     28  C   UNL A   1      33.621  31.947  27.457  1.00  0.00     0.338 C 
ATOM     29  O   UNL A   1      33.282  33.118  27.424  1.00  0.00    -0.246 OA
BRANCH  28  30
ATOM     30  C   UNL A   1      34.924  31.527  27.991  1.00  0.00     0.060 A 
ATOM     31  C   UNL A   1      35.044  30.205  28.427  1.00  0.00     0.016 A 
ATOM     32  C   UNL A   1      35.976  32.428  28.164  1.00  0.00     0.016 A 
ATOM     33  C   UNL A   1      36.206  29.769  29.047  1.00  0.00     0.010 A 
ATOM     34  C   UNL A   1      37.142  31.995  28.805  1.00  0.00     0.010 A 
ATOM     35  C   UNL A   1      37.251  30.670  29.266  1.00  0.00    -0.014 A 
BRANCH  35  36
ATOM     36  C   UNL A   1      38.399  30.241  30.096  1.00  0.00     0.031 A 
ATOM     37  C   UNL A   1      39.411  29.303  29.507  1.00  0.00     0.074 A 
ATOM     38  C   UNL A   1      38.565  30.742  31.332  1.00  0.00     0.049 A 
ATOM     39  N   UNL A   1      40.451  28.742  30.070  1.00  0.00    -0.248 NA
ATOM     40  C   UNL A   1      39.234  28.954  28.088  1.00  0.00     0.031 C 
ATOM     41  C   UNL A   1      37.689  31.724  31.970  1.00  0.00     0.029 A 
ATOM     42  N   UNL A   1      39.536  30.497  32.269  1.00  0.00    -0.354 N 
ATOM     43  C   UNL A   1      41.036  27.959  29.084  1.00  0.00     0.074 A 
ATOM     44  C   UNL A   1      40.231  28.105  27.890  1.00  0.00     0.031 C 
ATOM     45  C   UNL A   1      38.162  31.998  33.198  1.00  0.00     0.029 A 
ATOM     46  C   UNL A   1      39.344  31.176  33.446  1.00  0.00     0.049 A 
ATOM     47  H   UNL A   1      40.298  29.893  32.113  1.00  0.00     0.167 HD
ATOM     48  C   UNL A   1      42.147  27.193  29.171  1.00  0.00     0.037 A 
ATOM     49  C   UNL A   1      40.031  31.114  34.603  1.00  0.00     0.037 A 
ATOM     50  C   UNL A   1      42.948  27.065  30.361  1.00  0.00     0.049 A 
ATOM     51  C   UNL A   1      41.222  30.196  34.694  1.00  0.00     0.074 A 
ATOM     52  C   UNL A   1      44.077  26.294  30.566  1.00  0.00     0.029 A 
ATOM     53  N   UNL A   1      42.702  27.740  31.548  1.00  0.00    -0.354 N 
ATOM     54  N   UNL A   1      41.749  29.427  33.772  1.00  0.00    -0.248 NA
ATOM     55  C   UNL A   1      41.912  30.135  35.990  1.00  0.00     0.031 C 
ATOM     56  C   UNL A   1      44.495  26.475  31.889  1.00  0.00     0.029 A 
ATOM     57  C   UNL A   1      43.653  27.396  32.493  1.00  0.00     0.049 A 
ATOM     58  H   UNL A   1      41.960  28.371  31.697  1.00  0.00     0.167 HD
ATOM     59  C   UNL A   1      42.844  28.815  34.363  1.00  0.00     0.074 A 
ATOM     60  C   UNL A   1      42.916  29.313  35.722  1.00  0.00     0.031 C 
ATOM     61  C   UNL A   1      43.714  27.921  33.833  1.00  0.00     0.037 A 
BRANCH  48  62
ATOM     62  C   UNL A   1      42.541  26.404  27.958  1.00  0.00     0.064 A 
ATOM     63  C   UNL A   1      43.461  26.900  27.022  1.00  0.00     0.173 A 
ATOM     64  C   UNL A   1      42.009  25.125  27.741  1.00  0.00     0.173 A 
ATOM     65  F   UNL A   1      43.984  28.126  27.174  1.00  0.00    -0.203 F 
ATOM     66  C   UNL A   1      43.818  26.151  25.902  1.00  0.00     0.198 A 
ATOM     67  C   UNL A   1      42.387  24.368  26.636  1.00  0.00     0.198 A 
ATOM     68  F   UNL A   1      41.125  24.605  28.606  1.00  0.00    -0.203 F 
ATOM     69  F   UNL A   1      44.666  26.662  24.999  1.00  0.00    -0.200 F 
ATOM     70  C   UNL A   1      43.286  24.884  25.715  1.00  0.00     0.200 A 
ATOM     71  F   UNL A   1      41.880  23.140  26.460  1.00  0.00    -0.200 F 
ATOM     72  F   UNL A   1      43.635  24.161  24.641  1.00  0.00    -0.200 F 
ENDBRANCH  48  62
BRANCH  49  73
ATOM     73  C   UNL A   1      39.601  31.922  35.773  1.00  0.00     0.064 A 
ATOM     74  C   UNL A   1      38.569  31.488  36.614  1.00  0.00     0.173 A 
ATOM     75  C   UNL A   1      40.197  33.160  36.059  1.00  0.00     0.173 A 
ATOM     76  F   UNL A   1      37.950  30.323  36.368  1.00  0.00    -0.203 F 
ATOM     77  C   UNL A   1      38.135  32.268  37.685  1.00  0.00     0.198 A 
ATOM     78  C   UNL A   1      39.784  33.925  37.147  1.00  0.00     0.198 A 
ATOM     79  F   UNL A   1      41.188  33.624  35.283  1.00  0.00    -0.203 F 
ATOM     80  F   UNL A   1      37.112  31.850  38.443  1.00  0.00    -0.200 F 
ATOM     81  C   UNL A   1      38.747  33.483  37.953  1.00  0.00     0.200 A 
ATOM     82  F   UNL A   1      40.384  35.094  37.409  1.00  0.00    -0.200 F 
ATOM     83  F   UNL A   1      38.329  34.232  38.982  1.00  0.00    -0.200 F 
ENDBRANCH  49  73
BRANCH  61  84
ATOM     84  C   UNL A   1      44.845  27.465  34.707  1.00  0.00     0.064 A 
ATOM     85  C   UNL A   1      46.060  28.162  34.765  1.00  0.00     0.173 A 
ATOM     86  C   UNL A   1      44.695  26.332  35.523  1.00  0.00     0.173 A 
ATOM     87  F   UNL A   1      46.256  29.241  33.992  1.00  0.00    -0.203 F 
ATOM     88  C   UNL A   1      47.095  27.724  35.587  1.00  0.00     0.198 A 
ATOM     89  C   UNL A   1      45.722  25.916  36.364  1.00  0.00     0.198 A 
ATOM     90  F   UNL A   1      43.548  25.635  35.508  1.00  0.00    -0.203 F 
ATOM     91  F   UNL A   1      48.266  28.377  35.589  1.00  0.00    -0.200 F 
ATOM     92  C   UNL A   1      46.923  26.607  36.389  1.00  0.00     0.200 A 
ATOM     93  F   UNL A   1      45.549  24.842  37.147  1.00  0.00    -0.200 F 
ATOM     94  F   UNL A   1      47.919  26.189  37.183  1.00  0.00    -0.200 F 
ENDBRANCH  61  84
ENDBRANCH  35  36
ENDBRANCH  28  30
ENDBRANCH  27  28
ENDBRANCH  26  27
ENDBRANCH   1  26
TORSDOF 15
ENDMDL
MODEL 3
REMARK VINA RESULT:     -12.1      4.436      7.604
REMARK SMILES COc1ccc([C@H]2[C@@H](C(=O)OCCOC(=O)c3ccc(-c4c5nc(c(-c6c(F)c(F)c(F)c(F)c6F)c6ccc([nH]6)c(-c6c(F)c(F)c(F)c(F)c6F)c6nc(c(-c7c(F)c(F)c(F)c(F)c7F)c7ccc4[nH]7)C=C6)C=C5)cc3)CC(=O)N2Cc2ccccc2)cc1
REMARK SMILES IDX 12 1 11 2 9 3 10 4 8 5 7 6 83 7 80 8 81 9 82 10 6 11 3 12
REMARK SMILES IDX 4 13 92 14 5 15 91 16 2 17 1 18 84 19 85 20 86 21 90 22
REMARK SMILES IDX 87 23 89 24 88 25 13 26 14 27 15 28 16 29 17 30 18 31 79 32
REMARK SMILES IDX 19 33 78 34 20 35 21 36 22 37 72 38 23 39 77 40 71 41 73 42
REMARK SMILES IDX 24 43 76 44 70 45 69 46 25 48 57 49 37 50 56 51 38 52 41 53
REMARK SMILES IDX 55 54 74 55 39 56 40 57 54 59 75 60 42 61 26 62 27 63 35 64
REMARK SMILES IDX 28 65 29 66 33 67 36 68 30 69 31 70 34 71 32 72 58 73 59 74
REMARK SMILES IDX 67 75 60 76 61 77 65 78 68 79 62 80 63 81 66 82 64 83 43 84
REMARK SMILES IDX 44 85 52 86 45 87 46 88 50 89 53 90 47 91 48 92 51 93 49 94
REMARK H PARENT 73 47 41 58
REMARK Flexibility Score: inf
ROOT
ATOM      1  C   UNL A   1      31.346  30.878  25.748  1.00  0.00     0.274 C 
ENDROOT
BRANCH   1   2
ATOM      2  O   UNL A   1      31.776  29.669  26.402  1.00  0.00    -0.462 OA
BRANCH   2   3
ATOM      3  C   UNL A   1      32.866  29.063  25.875  1.00  0.00     0.312 C 
ATOM      4  O   UNL A   1      33.804  29.641  25.336  1.00  0.00    -0.252 OA
BRANCH   3   5
ATOM      5  C   UNL A   1      32.821  27.564  25.963  1.00  0.00     0.135 C 
ATOM      6  C   UNL A   1      32.589  26.902  24.609  1.00  0.00     0.130 C 
ATOM      7  N   UNL A   1      32.229  25.552  25.016  1.00  0.00    -0.330 N 
ATOM      8  C   UNL A   1      31.789  26.913  26.878  1.00  0.00     0.118 C 
ATOM      9  C   UNL A   1      31.742  25.510  26.315  1.00  0.00     0.224 C 
ATOM     10  O   UNL A   1      31.344  24.523  26.911  1.00  0.00    -0.275 OA
BRANCH   6  11
ATOM     11  C   UNL A   1      31.541  27.612  23.764  1.00  0.00    -0.024 A 
ATOM     12  C   UNL A   1      29.662  29.063  22.235  1.00  0.00     0.118 A 
ATOM     13  C   UNL A   1      31.029  29.296  22.083  1.00  0.00     0.047 A 
ATOM     14  C   UNL A   1      29.234  28.098  23.142  1.00  0.00     0.047 A 
ATOM     15  C   UNL A   1      31.960  28.573  22.831  1.00  0.00     0.010 A 
ATOM     16  C   UNL A   1      30.164  27.388  23.908  1.00  0.00     0.010 A 
BRANCH  12  17
ATOM     17  O   UNL A   1      28.858  29.839  21.447  1.00  0.00    -0.497 OA
ATOM     18  C   UNL A   1      28.088  30.834  22.111  1.00  0.00     0.278 C 
ENDBRANCH  12  17
ENDBRANCH   6  11
BRANCH   7  19
ATOM     19  C   UNL A   1      32.479  24.374  24.196  1.00  0.00     0.155 C 
BRANCH  19  20
ATOM     20  C   UNL A   1      33.910  23.914  24.269  1.00  0.00    -0.029 A 
ATOM     21  C   UNL A   1      34.496  23.257  23.179  1.00  0.00     0.005 A 
ATOM     22  C   UNL A   1      34.707  24.235  25.378  1.00  0.00     0.005 A 
ATOM     23  C   UNL A   1      35.858  22.959  23.184  1.00  0.00     0.000 A 
ATOM     24  C   UNL A   1      36.074  23.959  25.371  1.00  0.00     0.000 A 
ATOM     25  C   UNL A   1      36.649  23.325  24.272  1.00  0.00     0.000 A 
ENDBRANCH  19  20
ENDBRANCH   7  19
ENDBRANCH   3   5
ENDBRANCH   2   3
ENDBRANCH   1   2
BRANCH   1  26
ATOM     26  C   UNL A   1      31.576  32.110  26.628  1.00  0.00     0.275 C 
BRANCH  26  27
ATOM     27  O   UNL A   1      32.602  31.886  27.614  1.00  0.00    -0.458 OA
BRANCH  27  28
ATOM     28  C   UNL A   1      33.588  32.812  27.625  1.00  0.00     0.338 C 
ATOM     29  O   UNL A   1      33.478  34.013  27.441  1.00  0.00    -0.246 OA
BRANCH  28  30
ATOM     30  C   UNL A   1      34.851  32.205  28.072  1.00  0.00     0.060 A 
ATOM     31  C   UNL A   1      34.811  30.869  28.478  1.00  0.00     0.016 A 
ATOM     32  C   UNL A   1      36.025  32.949  28.195  1.00  0.00     0.016 A 
ATOM     33  C   UNL A   1      35.936  30.263  29.019  1.00  0.00     0.010 A 
ATOM     34  C   UNL A   1      37.155  32.345  28.756  1.00  0.00     0.010 A 
ATOM     35  C   UNL A   1      37.108  31.007  29.188  1.00  0.00    -0.014 A 
BRANCH  35  36
ATOM     36  C   UNL A   1      38.231  30.405  29.940  1.00  0.00     0.031 A 
ATOM     37  C   UNL A   1      38.436  30.793  31.375  1.00  0.00     0.074 A 
ATOM     38  C   UNL A   1      39.009  29.472  29.364  1.00  0.00     0.049 A 
ATOM     39  N   UNL A   1      39.391  30.449  32.201  1.00  0.00    -0.248 NA
ATOM     40  C   UNL A   1      37.424  31.686  31.963  1.00  0.00     0.031 C 
ATOM     41  C   UNL A   1      38.845  28.959  28.005  1.00  0.00     0.029 A 
ATOM     42  N   UNL A   1      40.088  28.785  29.857  1.00  0.00    -0.354 N 
ATOM     43  C   UNL A   1      39.108  31.098  33.395  1.00  0.00     0.074 A 
ATOM     44  C   UNL A   1      37.900  31.868  33.186  1.00  0.00     0.031 C 
ATOM     45  C   UNL A   1      39.794  28.037  27.770  1.00  0.00     0.029 A 
ATOM     46  C   UNL A   1      40.656  27.932  28.944  1.00  0.00     0.049 A 
ATOM     47  H   UNL A   1      40.424  28.892  30.776  1.00  0.00     0.167 HD
ATOM     48  C   UNL A   1      39.794  31.050  34.560  1.00  0.00     0.037 A 
ATOM     49  C   UNL A   1      41.766  27.176  29.041  1.00  0.00     0.037 A 
ATOM     50  C   UNL A   1      40.988  30.270  34.761  1.00  0.00     0.049 A 
ATOM     51  C   UNL A   1      42.552  27.198  30.325  1.00  0.00     0.074 A 
ATOM     52  C   UNL A   1      41.777  30.171  35.891  1.00  0.00     0.029 A 
ATOM     53  N   UNL A   1      41.556  29.445  33.801  1.00  0.00    -0.354 N 
ATOM     54  N   UNL A   1      42.304  27.844  31.439  1.00  0.00    -0.248 NA
ATOM     55  C   UNL A   1      43.777  26.386  30.365  1.00  0.00     0.031 C 
ATOM     56  C   UNL A   1      42.844  29.313  35.605  1.00  0.00     0.029 A 
ATOM     57  C   UNL A   1      42.692  28.840  34.311  1.00  0.00     0.049 A 
ATOM     58  H   UNL A   1      41.204  29.309  32.891  1.00  0.00     0.167 HD
ATOM     59  C   UNL A   1      43.319  27.497  32.318  1.00  0.00     0.074 A 
ATOM     60  C   UNL A   1      44.183  26.572  31.612  1.00  0.00     0.031 C 
ATOM     61  C   UNL A   1      43.523  27.907  33.594  1.00  0.00     0.037 A 
BRANCH  48  62
ATOM     62  C   UNL A   1      39.292  31.891  35.695  1.00  0.00     0.064 A 
ATOM     63  C   UNL A   1      39.675  33.232  35.847  1.00  0.00     0.173 A 
ATOM     64  C   UNL A   1      38.396  31.354  36.632  1.00  0.00     0.173 A 
ATOM     65  F   UNL A   1      40.545  33.786  34.989  1.00  0.00    -0.203 F 
ATOM     66  C   UNL A   1      39.195  33.999  36.906  1.00  0.00     0.198 A 
ATOM     67  C   UNL A   1      37.897  32.130  37.674  1.00  0.00     0.198 A 
ATOM     68  F   UNL A   1      37.998  30.077  36.532  1.00  0.00    -0.203 F 
ATOM     69  F   UNL A   1      39.607  35.265  37.056  1.00  0.00    -0.200 F 
ATOM     70  C   UNL A   1      38.301  33.449  37.814  1.00  0.00     0.200 A 
ATOM     71  F   UNL A   1      37.027  31.602  38.545  1.00  0.00    -0.200 F 
ATOM     72  F   UNL A   1      37.834  34.190  38.829  1.00  0.00    -0.200 F 
ENDBRANCH  48  62
BRANCH  49  73
ATOM     73  C   UNL A   1      42.215  26.355  27.887  1.00  0.00     0.064 A 
ATOM     74  C   UNL A   1      43.172  26.836  26.984  1.00  0.00     0.173 A 
ATOM     75  C   UNL A   1      41.677  25.081  27.649  1.00  0.00     0.173 A 
ATOM     76  F   UNL A   1      43.697  28.058  27.153  1.00  0.00    -0.203 F 
ATOM     77  C   UNL A   1      43.559  26.084  25.876  1.00  0.00     0.198 A 
ATOM     78  C   UNL A   1      42.087  24.317  26.559  1.00  0.00     0.198 A 
ATOM     79  F   UNL A   1      40.755  24.574  28.482  1.00  0.00    -0.203 F 
ATOM     80  F   UNL A   1      44.439  26.590  25.001  1.00  0.00    -0.200 F 
ATOM     81  C   UNL A   1      43.021  24.823  25.668  1.00  0.00     0.200 A 
ATOM     82  F   UNL A   1      41.572  23.096  26.367  1.00  0.00    -0.200 F 
ATOM     83  F   UNL A   1      43.393  24.101  24.602  1.00  0.00    -0.200 F 
ENDBRANCH  49  73
BRANCH  61  84
ATOM     84  C   UNL A   1      44.694  27.317  34.323  1.00  0.00     0.064 A 
ATOM     85  C   UNL A   1      45.948  27.943  34.335  1.00  0.00     0.173 A 
ATOM     86  C   UNL A   1      44.546  26.123  35.047  1.00  0.00     0.173 A 
ATOM     87  F   UNL A   1      46.142  29.077  33.645  1.00  0.00    -0.203 F 
ATOM     88  C   UNL A   1      47.020  27.380  35.022  1.00  0.00     0.198 A 
ATOM     89  C   UNL A   1      45.613  25.580  35.756  1.00  0.00     0.198 A 
ATOM     90  F   UNL A   1      43.363  25.489  35.073  1.00  0.00    -0.203 F 
ATOM     91  F   UNL A   1      48.223  27.970  34.978  1.00  0.00    -0.200 F 
ATOM     92  C   UNL A   1      46.850  26.204  35.736  1.00  0.00     0.200 A 
ATOM     93  F   UNL A   1      45.443  24.449  36.456  1.00  0.00    -0.200 F 
ATOM     94  F   UNL A   1      47.883  25.667  36.400  1.00  0.00    -0.200 F 
ENDBRANCH  61  84
ENDBRANCH  35  36
ENDBRANCH  28  30
ENDBRANCH  27  28
ENDBRANCH  26  27
ENDBRANCH   1  26
TORSDOF 15
ENDMDL
