MODEL 1
REMARK VINA RESULT:     -11.8      0.000      0.000
REMARK SMILES O=Cc1cn(-c2ccc(Cl)cc2)nc1C(=O)OCCOC(=O)c1ccc(-c2c3nc(c(-c4c(F)c(F)c(F)c(F)c4F)c4ccc([nH]4)c(-c4c(F)c(F)c(F)c(F)c4F)c4nc(c(-c5c(F)c(F)c(F)c(F)c5F)c5ccc2[nH]5)C=C4)C=C3)cc1
REMARK SMILES IDX 19 1 18 2 17 3 15 4 16 5 14 6 3 7 4 8 5 9 13 10 2 11 1 12
REMARK SMILES IDX 6 13 7 14 12 15 8 16 11 17 9 18 10 19 20 20 21 21 22 22
REMARK SMILES IDX 23 23 24 24 85 25 25 26 84 27 26 28 27 29 28 30 78 31 29 32
REMARK SMILES IDX 83 33 77 34 79 35 30 36 82 37 76 38 75 39 31 41 63 42 43 43
REMARK SMILES IDX 62 44 44 45 47 46 61 47 80 48 45 49 46 50 60 52 81 53 48 54
REMARK SMILES IDX 32 55 33 56 41 57 34 58 35 59 39 60 42 61 36 62 37 63 40 64
REMARK SMILES IDX 38 65 64 66 65 67 73 68 66 69 67 70 71 71 74 72 68 73 69 74
REMARK SMILES IDX 72 75 70 76 49 77 50 78 58 79 51 80 52 81 56 82 59 83 53 84
REMARK SMILES IDX 54 85 57 86 55 87
REMARK H PARENT 79 40 47 51
REMARK Flexibility Score: inf
ROOT
ATOM      1  C   UNL A   1      44.826  19.454  23.809  1.00  0.00     0.275 C 
ENDROOT
BRANCH   1   2
ATOM      2  C   UNL A   1      44.131  18.719  24.947  1.00  0.00     0.275 C 
BRANCH   2   3
ATOM      3  O   UNL A   1      42.773  19.169  25.087  1.00  0.00    -0.457 OA
BRANCH   3   4
ATOM      4  C   UNL A   1      42.267  19.196  26.358  1.00  0.00     0.359 C 
ATOM      5  O   UNL A   1      42.590  18.394  27.231  1.00  0.00    -0.244 OA
BRANCH   4   6
ATOM      6  C   UNL A   1      41.337  20.320  26.571  1.00  0.00     0.181 A 
ATOM      7  C   UNL A   1      41.497  21.463  27.410  1.00  0.00     0.068 A 
ATOM      8  C   UNL A   1      40.386  22.239  27.150  1.00  0.00     0.127 A 
ATOM      9  N   UNL A   1      39.587  21.521  26.307  1.00  0.00    -0.239 N 
ATOM     10  N   UNL A   1      40.126  20.334  25.974  1.00  0.00    -0.160 NA
BRANCH   7  11
ATOM     11  C   UNL A   1      42.551  21.820  28.334  1.00  0.00     0.264 C 
ATOM     12  O   UNL A   1      42.384  22.590  29.276  1.00  0.00    -0.298 OA
ENDBRANCH   7  11
BRANCH   9  13
ATOM     13  C   UNL A   1      38.360  21.944  25.762  1.00  0.00     0.065 A 
ATOM     14  C   UNL A   1      37.948  23.268  25.954  1.00  0.00     0.030 A 
ATOM     15  C   UNL A   1      37.570  21.041  25.044  1.00  0.00     0.030 A 
ATOM     16  C   UNL A   1      36.742  23.697  25.398  1.00  0.00     0.023 A 
ATOM     17  C   UNL A   1      36.335  21.462  24.545  1.00  0.00     0.023 A 
ATOM     18  C   UNL A   1      35.934  22.789  24.711  1.00  0.00     0.041 A 
ATOM     19  Cl  UNL A   1      34.430  23.315  24.062  1.00  0.00    -0.084 Cl
ENDBRANCH   9  13
ENDBRANCH   4   6
ENDBRANCH   3   4
ENDBRANCH   2   3
ENDBRANCH   1   2
BRANCH   1  20
ATOM     20  O   UNL A   1      44.578  20.856  23.879  1.00  0.00    -0.458 OA
BRANCH  20  21
ATOM     21  C   UNL A   1      45.517  21.583  24.527  1.00  0.00     0.338 C 
ATOM     22  O   UNL A   1      46.721  21.392  24.522  1.00  0.00    -0.246 OA
BRANCH  21  23
ATOM     23  C   UNL A   1      44.841  22.510  25.443  1.00  0.00     0.060 A 
ATOM     24  C   UNL A   1      43.714  23.184  24.969  1.00  0.00     0.016 A 
ATOM     25  C   UNL A   1      45.482  22.893  26.632  1.00  0.00     0.016 A 
ATOM     26  C   UNL A   1      43.331  24.349  25.604  1.00  0.00     0.010 A 
ATOM     27  C   UNL A   1      45.111  24.062  27.255  1.00  0.00     0.010 A 
ATOM     28  C   UNL A   1      44.084  24.811  26.693  1.00  0.00    -0.014 A 
BRANCH  28  29
ATOM     29  C   UNL A   1      43.702  26.068  27.296  1.00  0.00     0.031 A 
ATOM     30  C   UNL A   1      44.606  27.184  26.944  1.00  0.00     0.074 A 
ATOM     31  C   UNL A   1      42.587  26.234  28.030  1.00  0.00     0.049 A 
ATOM     32  N   UNL A   1      45.435  27.795  27.720  1.00  0.00    -0.248 NA
ATOM     33  C   UNL A   1      44.705  27.563  25.528  1.00  0.00     0.031 C 
ATOM     34  C   UNL A   1      41.460  25.313  28.197  1.00  0.00     0.029 A 
ATOM     35  N   UNL A   1      42.197  27.333  28.730  1.00  0.00    -0.354 N 
ATOM     36  C   UNL A   1      46.045  28.761  26.931  1.00  0.00     0.074 A 
ATOM     37  C   UNL A   1      45.681  28.471  25.568  1.00  0.00     0.031 C 
ATOM     38  C   UNL A   1      40.428  25.974  28.773  1.00  0.00     0.029 A 
ATOM     39  C   UNL A   1      40.875  27.307  29.143  1.00  0.00     0.049 A 
ATOM     40  H   UNL A   1      42.803  28.083  28.926  1.00  0.00     0.167 HD
ATOM     41  C   UNL A   1      46.600  29.868  27.491  1.00  0.00     0.037 A 
ATOM     42  C   UNL A   1      40.195  28.344  29.693  1.00  0.00     0.037 A 
ATOM     43  C   UNL A   1      46.820  29.684  28.903  1.00  0.00     0.049 A 
ATOM     44  C   UNL A   1      41.197  29.294  30.236  1.00  0.00     0.074 A 
ATOM     45  C   UNL A   1      47.612  28.858  29.675  1.00  0.00     0.029 A 
ATOM     46  N   UNL A   1      45.869  30.197  29.746  1.00  0.00    -0.354 N 
ATOM     47  N   UNL A   1      41.973  29.037  31.252  1.00  0.00    -0.248 NA
ATOM     48  C   UNL A   1      41.622  30.401  29.395  1.00  0.00     0.031 C 
ATOM     49  C   UNL A   1      46.844  28.590  30.847  1.00  0.00     0.029 A 
ATOM     50  C   UNL A   1      45.643  29.296  30.750  1.00  0.00     0.049 A 
ATOM     51  H   UNL A   1      45.423  31.070  29.646  1.00  0.00     0.167 HD
ATOM     52  C   UNL A   1      43.179  29.641  30.936  1.00  0.00     0.074 A 
ATOM     53  C   UNL A   1      42.864  30.569  29.856  1.00  0.00     0.031 C 
ATOM     54  C   UNL A   1      44.358  29.122  31.390  1.00  0.00     0.037 A 
BRANCH  41  55
ATOM     55  C   UNL A   1      46.555  31.238  26.865  1.00  0.00     0.064 A 
ATOM     56  C   UNL A   1      47.734  32.006  26.816  1.00  0.00     0.173 A 
ATOM     57  C   UNL A   1      45.357  31.941  26.609  1.00  0.00     0.173 A 
ATOM     58  F   UNL A   1      48.926  31.445  27.071  1.00  0.00    -0.203 F 
ATOM     59  C   UNL A   1      47.706  33.386  26.603  1.00  0.00     0.198 A 
ATOM     60  C   UNL A   1      45.338  33.308  26.341  1.00  0.00     0.198 A 
ATOM     61  F   UNL A   1      44.154  31.369  26.725  1.00  0.00    -0.203 F 
ATOM     62  F   UNL A   1      48.837  34.098  26.697  1.00  0.00    -0.200 F 
ATOM     63  C   UNL A   1      46.508  34.037  26.371  1.00  0.00     0.200 A 
ATOM     64  F   UNL A   1      44.164  33.923  26.144  1.00  0.00    -0.200 F 
ATOM     65  F   UNL A   1      46.470  35.368  26.232  1.00  0.00    -0.200 F 
ENDBRANCH  41  55
BRANCH  42  66
ATOM     66  C   UNL A   1      38.783  28.731  29.467  1.00  0.00     0.064 A 
ATOM     67  C   UNL A   1      37.925  28.994  30.548  1.00  0.00     0.173 A 
ATOM     68  C   UNL A   1      38.335  29.145  28.197  1.00  0.00     0.173 A 
ATOM     69  F   UNL A   1      38.297  28.673  31.797  1.00  0.00    -0.203 F 
ATOM     70  C   UNL A   1      36.707  29.660  30.374  1.00  0.00     0.198 A 
ATOM     71  C   UNL A   1      37.118  29.804  28.024  1.00  0.00     0.198 A 
ATOM     72  F   UNL A   1      39.115  29.009  27.116  1.00  0.00    -0.203 F 
ATOM     73  F   UNL A   1      35.948  29.956  31.438  1.00  0.00    -0.200 F 
ATOM     74  C   UNL A   1      36.311  30.076  29.113  1.00  0.00     0.200 A 
ATOM     75  F   UNL A   1      36.764  30.235  26.805  1.00  0.00    -0.200 F 
ATOM     76  F   UNL A   1      35.178  30.774  28.953  1.00  0.00    -0.200 F 
ENDBRANCH  42  66
BRANCH  54  77
ATOM     77  C   UNL A   1      44.285  28.124  32.512  1.00  0.00     0.064 A 
ATOM     78  C   UNL A   1      44.135  26.737  32.335  1.00  0.00     0.173 A 
ATOM     79  C   UNL A   1      44.489  28.589  33.818  1.00  0.00     0.173 A 
ATOM     80  F   UNL A   1      44.030  26.203  31.112  1.00  0.00    -0.203 F 
ATOM     81  C   UNL A   1      44.141  25.867  33.425  1.00  0.00     0.198 A 
ATOM     82  C   UNL A   1      44.535  27.713  34.899  1.00  0.00     0.198 A 
ATOM     83  F   UNL A   1      44.689  29.897  34.042  1.00  0.00    -0.203 F 
ATOM     84  F   UNL A   1      43.975  24.548  33.234  1.00  0.00    -0.200 F 
ATOM     85  C   UNL A   1      44.349  26.355  34.704  1.00  0.00     0.200 A 
ATOM     86  F   UNL A   1      44.784  28.186  36.128  1.00  0.00    -0.200 F 
ATOM     87  F   UNL A   1      44.393  25.514  35.747  1.00  0.00    -0.200 F 
ENDBRANCH  54  77
ENDBRANCH  28  29
ENDBRANCH  21  23
ENDBRANCH  20  21
ENDBRANCH   1  20
TORSDOF 13
ENDMDL
MODEL 2
REMARK VINA RESULT:     -11.8      5.296     11.209
REMARK SMILES O=Cc1cn(-c2ccc(Cl)cc2)nc1C(=O)OCCOC(=O)c1ccc(-c2c3nc(c(-c4c(F)c(F)c(F)c(F)c4F)c4ccc([nH]4)c(-c4c(F)c(F)c(F)c(F)c4F)c4nc(c(-c5c(F)c(F)c(F)c(F)c5F)c5ccc2[nH]5)C=C4)C=C3)cc1
REMARK SMILES IDX 19 1 18 2 17 3 15 4 16 5 14 6 3 7 4 8 5 9 13 10 2 11 1 12
REMARK SMILES IDX 6 13 7 14 12 15 8 16 11 17 9 18 10 19 20 20 21 21 22 22
REMARK SMILES IDX 23 23 24 24 85 25 25 26 84 27 26 28 27 29 28 30 78 31 29 32
REMARK SMILES IDX 83 33 77 34 79 35 30 36 82 37 76 38 75 39 31 41 63 42 43 43
REMARK SMILES IDX 62 44 44 45 47 46 61 47 80 48 45 49 46 50 60 52 81 53 48 54
REMARK SMILES IDX 32 55 33 56 41 57 34 58 35 59 39 60 42 61 36 62 37 63 40 64
REMARK SMILES IDX 38 65 64 66 65 67 73 68 66 69 67 70 71 71 74 72 68 73 69 74
REMARK SMILES IDX 72 75 70 76 49 77 50 78 58 79 51 80 52 81 56 82 59 83 53 84
REMARK SMILES IDX 54 85 57 86 55 87
REMARK H PARENT 79 40 47 51
REMARK Flexibility Score: inf
ROOT
ATOM      1  C   UNL A   1      34.731  34.143  27.794  1.00  0.00     0.275 C 
ENDROOT
BRANCH   1   2
ATOM      2  C   UNL A   1      33.255  34.337  28.110  1.00  0.00     0.275 C 
BRANCH   2   3
ATOM      3  O   UNL A   1      33.020  34.232  29.524  1.00  0.00    -0.457 OA
BRANCH   3   4
ATOM      4  C   UNL A   1      33.089  35.394  30.242  1.00  0.00     0.359 C 
ATOM      5  O   UNL A   1      32.539  36.437  29.895  1.00  0.00    -0.244 OA
BRANCH   4   6
ATOM      6  C   UNL A   1      33.849  35.239  31.495  1.00  0.00     0.181 A 
ATOM      7  C   UNL A   1      33.793  36.035  32.678  1.00  0.00     0.068 A 
ATOM      8  C   UNL A   1      34.625  35.389  33.570  1.00  0.00     0.127 A 
ATOM      9  N   UNL A   1      35.210  34.358  32.892  1.00  0.00    -0.239 N 
ATOM     10  N   UNL A   1      34.784  34.272  31.618  1.00  0.00    -0.160 NA
BRANCH   7  11
ATOM     11  C   UNL A   1      33.052  37.243  32.972  1.00  0.00     0.264 C 
ATOM     12  O   UNL A   1      33.342  38.338  32.497  1.00  0.00    -0.298 OA
ENDBRANCH   7  11
BRANCH   9  13
ATOM     13  C   UNL A   1      36.112  33.418  33.425  1.00  0.00     0.065 A 
ATOM     14  C   UNL A   1      36.574  33.583  34.736  1.00  0.00     0.030 A 
ATOM     15  C   UNL A   1      36.536  32.340  32.642  1.00  0.00     0.030 A 
ATOM     16  C   UNL A   1      37.453  32.642  35.275  1.00  0.00     0.023 A 
ATOM     17  C   UNL A   1      37.465  31.439  33.168  1.00  0.00     0.023 A 
ATOM     18  C   UNL A   1      37.907  31.585  34.484  1.00  0.00     0.041 A 
ATOM     19  Cl  UNL A   1      39.021  30.451  35.143  1.00  0.00    -0.084 Cl
ENDBRANCH   9  13
ENDBRANCH   4   6
ENDBRANCH   3   4
ENDBRANCH   2   3
ENDBRANCH   1   2
BRANCH   1  20
ATOM     20  O   UNL A   1      35.299  33.121  28.611  1.00  0.00    -0.458 OA
BRANCH  20  21
ATOM     21  C   UNL A   1      35.369  31.895  28.046  1.00  0.00     0.338 C 
ATOM     22  O   UNL A   1      34.583  31.409  27.250  1.00  0.00    -0.246 OA
BRANCH  21  23
ATOM     23  C   UNL A   1      36.423  31.128  28.723  1.00  0.00     0.060 A 
ATOM     24  C   UNL A   1      37.592  31.805  29.077  1.00  0.00     0.016 A 
ATOM     25  C   UNL A   1      36.348  29.726  28.747  1.00  0.00     0.016 A 
ATOM     26  C   UNL A   1      38.738  31.065  29.294  1.00  0.00     0.010 A 
ATOM     27  C   UNL A   1      37.493  28.990  28.947  1.00  0.00     0.010 A 
ATOM     28  C   UNL A   1      38.687  29.671  29.149  1.00  0.00    -0.014 A 
BRANCH  28  29
ATOM     29  C   UNL A   1      39.916  28.928  29.314  1.00  0.00     0.031 A 
ATOM     30  C   UNL A   1      40.280  28.706  30.729  1.00  0.00     0.074 A 
ATOM     31  C   UNL A   1      40.616  28.409  28.289  1.00  0.00     0.049 A 
ATOM     32  N   UNL A   1      41.261  29.235  31.379  1.00  0.00    -0.248 NA
ATOM     33  C   UNL A   1      39.356  27.919  31.558  1.00  0.00     0.031 C 
ATOM     34  C   UNL A   1      40.219  28.284  26.885  1.00  0.00     0.029 A 
ATOM     35  N   UNL A   1      41.831  27.799  28.324  1.00  0.00    -0.354 N 
ATOM     36  C   UNL A   1      41.185  28.713  32.664  1.00  0.00     0.074 A 
ATOM     37  C   UNL A   1      39.914  28.044  32.762  1.00  0.00     0.031 C 
ATOM     38  C   UNL A   1      41.081  27.454  26.252  1.00  0.00     0.029 A 
ATOM     39  C   UNL A   1      42.161  27.115  27.165  1.00  0.00     0.049 A 
ATOM     40  H   UNL A   1      42.426  27.840  29.107  1.00  0.00     0.167 HD
ATOM     41  C   UNL A   1      42.284  28.668  33.462  1.00  0.00     0.037 A 
ATOM     42  C   UNL A   1      43.219  26.282  27.009  1.00  0.00     0.037 A 
ATOM     43  C   UNL A   1      43.316  29.548  32.979  1.00  0.00     0.049 A 
ATOM     44  C   UNL A   1      44.209  26.620  28.061  1.00  0.00     0.074 A 
ATOM     45  C   UNL A   1      43.451  30.912  32.822  1.00  0.00     0.029 A 
ATOM     46  N   UNL A   1      44.308  28.978  32.223  1.00  0.00    -0.354 N 
ATOM     47  N   UNL A   1      44.875  27.741  28.106  1.00  0.00    -0.248 NA
ATOM     48  C   UNL A   1      44.175  25.868  29.305  1.00  0.00     0.031 C 
ATOM     49  C   UNL A   1      44.248  31.079  31.650  1.00  0.00     0.029 A 
ATOM     50  C   UNL A   1      44.593  29.811  31.176  1.00  0.00     0.049 A 
ATOM     51  H   UNL A   1      44.743  28.112  32.403  1.00  0.00     0.167 HD
ATOM     52  C   UNL A   1      44.965  28.043  29.456  1.00  0.00     0.074 A 
ATOM     53  C   UNL A   1      44.638  26.799  30.143  1.00  0.00     0.031 C 
ATOM     54  C   UNL A   1      45.018  29.341  29.876  1.00  0.00     0.037 A 
BRANCH  41  55
ATOM     55  C   UNL A   1      42.582  27.539  34.414  1.00  0.00     0.064 A 
ATOM     56  C   UNL A   1      43.077  26.324  33.901  1.00  0.00     0.173 A 
ATOM     57  C   UNL A   1      42.105  27.490  35.743  1.00  0.00     0.173 A 
ATOM     58  F   UNL A   1      43.529  26.250  32.640  1.00  0.00    -0.203 F 
ATOM     59  C   UNL A   1      43.027  25.138  34.638  1.00  0.00     0.198 A 
ATOM     60  C   UNL A   1      42.108  26.317  36.494  1.00  0.00     0.198 A 
ATOM     61  F   UNL A   1      41.508  28.536  36.326  1.00  0.00    -0.203 F 
ATOM     62  F   UNL A   1      43.385  23.983  34.063  1.00  0.00    -0.200 F 
ATOM     63  C   UNL A   1      42.537  25.135  35.931  1.00  0.00     0.200 A 
ATOM     64  F   UNL A   1      41.606  26.330  37.737  1.00  0.00    -0.200 F 
ATOM     65  F   UNL A   1      42.427  23.989  36.615  1.00  0.00    -0.200 F 
ENDBRANCH  41  55
BRANCH  42  66
ATOM     66  C   UNL A   1      43.275  25.008  26.255  1.00  0.00     0.064 A 
ATOM     67  C   UNL A   1      44.270  24.784  25.289  1.00  0.00     0.173 A 
ATOM     68  C   UNL A   1      42.546  23.879  26.677  1.00  0.00     0.173 A 
ATOM     69  F   UNL A   1      45.041  25.798  24.868  1.00  0.00    -0.203 F 
ATOM     70  C   UNL A   1      44.543  23.502  24.801  1.00  0.00     0.198 A 
ATOM     71  C   UNL A   1      42.816  22.602  26.185  1.00  0.00     0.198 A 
ATOM     72  F   UNL A   1      41.629  23.978  27.650  1.00  0.00    -0.203 F 
ATOM     73  F   UNL A   1      45.548  23.316  23.933  1.00  0.00    -0.200 F 
ATOM     74  C   UNL A   1      43.824  22.410  25.259  1.00  0.00     0.200 A 
ATOM     75  F   UNL A   1      42.139  21.549  26.665  1.00  0.00    -0.200 F 
ATOM     76  F   UNL A   1      44.130  21.173  24.844  1.00  0.00    -0.200 F 
ENDBRANCH  42  66
BRANCH  54  77
ATOM     77  C   UNL A   1      45.341  30.387  28.845  1.00  0.00     0.064 A 
ATOM     78  C   UNL A   1      44.403  30.950  27.962  1.00  0.00     0.173 A 
ATOM     79  C   UNL A   1      46.638  30.919  28.833  1.00  0.00     0.173 A 
ATOM     80  F   UNL A   1      43.121  30.564  27.977  1.00  0.00    -0.203 F 
ATOM     81  C   UNL A   1      44.765  31.964  27.076  1.00  0.00     0.198 A 
ATOM     82  C   UNL A   1      46.985  31.959  27.976  1.00  0.00     0.198 A 
ATOM     83  F   UNL A   1      47.561  30.456  29.690  1.00  0.00    -0.203 F 
ATOM     84  F   UNL A   1      43.858  32.473  26.228  1.00  0.00    -0.200 F 
ATOM     85  C   UNL A   1      46.053  32.473  27.090  1.00  0.00     0.200 A 
ATOM     86  F   UNL A   1      48.220  32.478  28.027  1.00  0.00    -0.200 F 
ATOM     87  F   UNL A   1      46.391  33.473  26.265  1.00  0.00    -0.200 F 
ENDBRANCH  54  77
ENDBRANCH  28  29
ENDBRANCH  21  23
ENDBRANCH  20  21
ENDBRANCH   1  20
TORSDOF 13
ENDMDL
MODEL 3
REMARK VINA RESULT:     -11.7      2.747      4.597
REMARK SMILES O=Cc1cn(-c2ccc(Cl)cc2)nc1C(=O)OCCOC(=O)c1ccc(-c2c3nc(c(-c4c(F)c(F)c(F)c(F)c4F)c4ccc([nH]4)c(-c4c(F)c(F)c(F)c(F)c4F)c4nc(c(-c5c(F)c(F)c(F)c(F)c5F)c5ccc2[nH]5)C=C4)C=C3)cc1
REMARK SMILES IDX 19 1 18 2 17 3 15 4 16 5 14 6 3 7 4 8 5 9 13 10 2 11 1 12
REMARK SMILES IDX 6 13 7 14 12 15 8 16 11 17 9 18 10 19 20 20 21 21 22 22
REMARK SMILES IDX 23 23 24 24 85 25 25 26 84 27 26 28 27 29 28 30 78 31 29 32
REMARK SMILES IDX 83 33 77 34 79 35 30 36 82 37 76 38 75 39 31 41 63 42 43 43
REMARK SMILES IDX 62 44 44 45 47 46 61 47 80 48 45 49 46 50 60 52 81 53 48 54
REMARK SMILES IDX 32 55 33 56 41 57 34 58 35 59 39 60 42 61 36 62 37 63 40 64
REMARK SMILES IDX 38 65 64 66 65 67 73 68 66 69 67 70 71 71 74 72 68 73 69 74
REMARK SMILES IDX 72 75 70 76 49 77 50 78 58 79 51 80 52 81 56 82 59 83 53 84
REMARK SMILES IDX 54 85 57 86 55 87
REMARK H PARENT 79 40 47 51
REMARK Flexibility Score: inf
ROOT
ATOM      1  C   UNL A   1      40.885  20.590  27.549  1.00  0.00     0.275 C 
ENDROOT
BRANCH   1   2
ATOM      2  C   UNL A   1      40.793  19.591  26.405  1.00  0.00     0.275 C 
BRANCH   2   3
ATOM      3  O   UNL A   1      41.754  19.900  25.381  1.00  0.00    -0.457 OA
BRANCH   3   4
ATOM      4  C   UNL A   1      42.972  19.285  25.482  1.00  0.00     0.359 C 
ATOM      5  O   UNL A   1      43.107  18.070  25.611  1.00  0.00    -0.244 OA
BRANCH   4   6
ATOM      6  C   UNL A   1      44.095  20.233  25.367  1.00  0.00     0.181 A 
ATOM      7  C   UNL A   1      45.476  19.957  25.138  1.00  0.00     0.068 A 
ATOM      8  C   UNL A   1      46.061  21.201  25.014  1.00  0.00     0.127 A 
ATOM      9  N   UNL A   1      45.090  22.125  25.278  1.00  0.00    -0.239 N 
ATOM     10  N   UNL A   1      43.896  21.558  25.534  1.00  0.00    -0.160 NA
BRANCH   7  11
ATOM     11  C   UNL A   1      46.185  18.700  25.029  1.00  0.00     0.264 C 
ATOM     12  O   UNL A   1      47.133  18.401  25.751  1.00  0.00    -0.298 OA
ENDBRANCH   7  11
BRANCH   9  13
ATOM     13  C   UNL A   1      45.241  23.524  25.237  1.00  0.00     0.065 A 
ATOM     14  C   UNL A   1      46.518  24.068  25.063  1.00  0.00     0.030 A 
ATOM     15  C   UNL A   1      44.119  24.347  25.374  1.00  0.00     0.030 A 
ATOM     16  C   UNL A   1      46.669  25.453  25.003  1.00  0.00     0.023 A 
ATOM     17  C   UNL A   1      44.288  25.734  25.376  1.00  0.00     0.023 A 
ATOM     18  C   UNL A   1      45.557  26.280  25.176  1.00  0.00     0.041 A 
ATOM     19  Cl  UNL A   1      45.757  27.989  25.139  1.00  0.00    -0.084 Cl
ENDBRANCH   9  13
ENDBRANCH   4   6
ENDBRANCH   3   4
ENDBRANCH   2   3
ENDBRANCH   1   2
BRANCH   1  20
ATOM     20  O   UNL A   1      41.172  21.900  27.062  1.00  0.00    -0.458 OA
BRANCH  20  21
ATOM     21  C   UNL A   1      40.098  22.702  26.881  1.00  0.00     0.338 C 
ATOM     22  O   UNL A   1      39.015  22.383  26.422  1.00  0.00    -0.246 OA
BRANCH  21  23
ATOM     23  C   UNL A   1      40.513  24.094  27.102  1.00  0.00     0.060 A 
ATOM     24  C   UNL A   1      41.556  24.325  28.000  1.00  0.00     0.016 A 
ATOM     25  C   UNL A   1      39.696  25.137  26.637  1.00  0.00     0.016 A 
ATOM     26  C   UNL A   1      41.673  25.581  28.560  1.00  0.00     0.010 A 
ATOM     27  C   UNL A   1      39.803  26.385  27.207  1.00  0.00     0.010 A 
ATOM     28  C   UNL A   1      40.745  26.572  28.211  1.00  0.00    -0.014 A 
BRANCH  28  29
ATOM     29  C   UNL A   1      40.850  27.858  28.864  1.00  0.00     0.031 A 
ATOM     30  C   UNL A   1      42.005  28.656  28.403  1.00  0.00     0.074 A 
ATOM     31  C   UNL A   1      39.939  28.326  29.738  1.00  0.00     0.049 A 
ATOM     32  N   UNL A   1      43.071  28.947  29.067  1.00  0.00    -0.248 NA
ATOM     33  C   UNL A   1      42.043  29.050  26.987  1.00  0.00     0.031 C 
ATOM     34  C   UNL A   1      38.612  27.790  30.046  1.00  0.00     0.029 A 
ATOM     35  N   UNL A   1      39.999  29.459  30.488  1.00  0.00    -0.354 N 
ATOM     36  C   UNL A   1      43.850  29.714  28.210  1.00  0.00     0.074 A 
ATOM     37  C   UNL A   1      43.250  29.610  26.905  1.00  0.00     0.031 C 
ATOM     38  C   UNL A   1      37.915  28.709  30.755  1.00  0.00     0.029 A 
ATOM     39  C   UNL A   1      38.795  29.823  31.070  1.00  0.00     0.049 A 
ATOM     40  H   UNL A   1      40.828  29.976  30.607  1.00  0.00     0.167 HD
ATOM     41  C   UNL A   1      44.786  30.569  28.698  1.00  0.00     0.037 A 
ATOM     42  C   UNL A   1      38.544  30.992  31.708  1.00  0.00     0.037 A 
ATOM     43  C   UNL A   1      45.109  30.264  30.068  1.00  0.00     0.049 A 
ATOM     44  C   UNL A   1      39.850  31.563  32.120  1.00  0.00     0.074 A 
ATOM     45  C   UNL A   1      45.693  29.201  30.727  1.00  0.00     0.029 A 
ATOM     46  N   UNL A   1      44.475  31.007  31.030  1.00  0.00    -0.354 N 
ATOM     47  N   UNL A   1      40.626  31.035  33.026  1.00  0.00    -0.248 NA
ATOM     48  C   UNL A   1      40.492  32.522  31.236  1.00  0.00     0.031 C 
ATOM     49  C   UNL A   1      45.029  29.130  31.988  1.00  0.00     0.029 A 
ATOM     50  C   UNL A   1      44.104  30.174  32.051  1.00  0.00     0.049 A 
ATOM     51  H   UNL A   1      44.313  31.978  30.993  1.00  0.00     0.167 HD
ATOM     52  C   UNL A   1      41.912  31.252  32.558  1.00  0.00     0.074 A 
ATOM     53  C   UNL A   1      41.771  32.280  31.532  1.00  0.00     0.031 C 
ATOM     54  C   UNL A   1      42.917  30.376  32.852  1.00  0.00     0.037 A 
BRANCH  41  55
ATOM     55  C   UNL A   1      45.092  31.914  28.089  1.00  0.00     0.064 A 
ATOM     56  C   UNL A   1      44.064  32.872  27.996  1.00  0.00     0.173 A 
ATOM     57  C   UNL A   1      46.244  32.177  27.315  1.00  0.00     0.173 A 
ATOM     58  F   UNL A   1      42.914  32.706  28.667  1.00  0.00    -0.203 F 
ATOM     59  C   UNL A   1      44.155  33.968  27.135  1.00  0.00     0.198 A 
ATOM     60  C   UNL A   1      46.353  33.301  26.501  1.00  0.00     0.198 A 
ATOM     61  F   UNL A   1      47.255  31.306  27.219  1.00  0.00    -0.203 F 
ATOM     62  F   UNL A   1      43.101  34.780  26.979  1.00  0.00    -0.200 F 
ATOM     63  C   UNL A   1      45.297  34.179  26.384  1.00  0.00     0.200 A 
ATOM     64  F   UNL A   1      47.458  33.474  25.762  1.00  0.00    -0.200 F 
ATOM     65  F   UNL A   1      45.361  35.192  25.510  1.00  0.00    -0.200 F 
ENDBRANCH  41  55
BRANCH  42  66
ATOM     66  C   UNL A   1      37.305  31.805  31.669  1.00  0.00     0.064 A 
ATOM     67  C   UNL A   1      36.631  32.148  32.853  1.00  0.00     0.173 A 
ATOM     68  C   UNL A   1      36.932  32.510  30.509  1.00  0.00     0.173 A 
ATOM     69  F   UNL A   1      36.959  31.556  34.011  1.00  0.00    -0.203 F 
ATOM     70  C   UNL A   1      35.665  33.160  32.880  1.00  0.00     0.198 A 
ATOM     71  C   UNL A   1      35.965  33.515  30.536  1.00  0.00     0.198 A 
ATOM     72  F   UNL A   1      37.572  32.309  29.348  1.00  0.00    -0.203 F 
ATOM     73  F   UNL A   1      35.093  33.508  34.041  1.00  0.00    -0.200 F 
ATOM     74  C   UNL A   1      35.342  33.851  31.724  1.00  0.00     0.200 A 
ATOM     75  F   UNL A   1      35.691  34.202  29.419  1.00  0.00    -0.200 F 
ATOM     76  F   UNL A   1      34.468  34.866  31.760  1.00  0.00    -0.200 F 
ENDBRANCH  42  66
BRANCH  54  77
ATOM     77  C   UNL A   1      42.676  29.399  33.970  1.00  0.00     0.064 A 
ATOM     78  C   UNL A   1      41.973  28.190  33.831  1.00  0.00     0.173 A 
ATOM     79  C   UNL A   1      43.282  29.655  35.207  1.00  0.00     0.173 A 
ATOM     80  F   UNL A   1      41.445  27.827  32.656  1.00  0.00    -0.203 F 
ATOM     81  C   UNL A   1      41.846  27.304  34.901  1.00  0.00     0.198 A 
ATOM     82  C   UNL A   1      43.188  28.749  36.260  1.00  0.00     0.198 A 
ATOM     83  F   UNL A   1      44.009  30.770  35.381  1.00  0.00    -0.203 F 
ATOM     84  F   UNL A   1      41.153  26.164  34.752  1.00  0.00    -0.200 F 
ATOM     85  C   UNL A   1      42.460  27.581  36.111  1.00  0.00     0.200 A 
ATOM     86  F   UNL A   1      43.824  29.001  37.413  1.00  0.00    -0.200 F 
ATOM     87  F   UNL A   1      42.370  26.711  37.127  1.00  0.00    -0.200 F 
ENDBRANCH  54  77
ENDBRANCH  28  29
ENDBRANCH  21  23
ENDBRANCH  20  21
ENDBRANCH   1  20
TORSDOF 13
ENDMDL
