MODEL 1
REMARK VINA RESULT:     -11.9      0.000      0.000
REMARK SMILES CC(C)C[C@@H](NS(=O)(=O)/C=C/c1ccc(Cl)cc1)C(=O)OCCOC(=O)c1ccc(-c2c3nc(c(-c4c(F)c(F)c(F)c(F)c4F)c4ccc([nH]4)c(-c4c(F)c(F)c(F)c(F)c4F)c4nc(c(-c5c(F)c(F)c(F)c(F)c5F)c5ccc2[nH]5)C=C4)C=C3)cc1
REMARK SMILES IDX 22 1 21 2 19 3 20 4 5 5 4 6 2 7 1 8 3 9 6 10 7 12 8 13 9 14
REMARK SMILES IDX 10 15 11 16 12 17 13 18 18 19 14 20 17 21 15 22 16 23 23 24
REMARK SMILES IDX 24 25 25 26 26 27 27 28 28 29 89 30 29 31 88 32 30 33 31 34
REMARK SMILES IDX 32 35 82 36 33 37 87 38 81 39 83 40 34 41 86 42 80 43 79 44
REMARK SMILES IDX 35 46 67 47 47 48 66 49 48 50 51 51 65 52 84 53 49 54 50 55
REMARK SMILES IDX 64 57 85 58 52 59 36 60 37 61 45 62 38 63 39 64 43 65 46 66
REMARK SMILES IDX 40 67 41 68 44 69 42 70 68 71 69 72 77 73 70 74 71 75 75 76
REMARK SMILES IDX 78 77 72 78 73 79 76 80 74 81 53 82 54 83 62 84 55 85 56 86
REMARK SMILES IDX 60 87 63 88 57 89 58 90 61 91 59 92
REMARK H PARENT 6 11 83 45 51 56
REMARK Flexibility Score: inf
ROOT
ATOM      1  C   UNL A   1      31.881  29.809  24.963  1.00  0.00     0.274 C 
ENDROOT
BRANCH   1   2
ATOM      2  O   UNL A   1      30.713  29.352  24.258  1.00  0.00    -0.461 OA
BRANCH   2   3
ATOM      3  C   UNL A   1      30.926  28.782  23.043  1.00  0.00     0.324 C 
ATOM      4  O   UNL A   1      30.708  29.331  21.969  1.00  0.00    -0.250 OA
BRANCH   3   5
ATOM      5  C   UNL A   1      31.417  27.345  23.113  1.00  0.00     0.180 C 
BRANCH   5   6
ATOM      6  C   UNL A   1      30.489  26.493  23.994  1.00  0.00     0.035 C 
BRANCH   6   7
ATOM      7  C   UNL A   1      31.031  26.061  25.375  1.00  0.00    -0.015 C 
ATOM      8  C   UNL A   1      30.715  24.607  25.741  1.00  0.00     0.007 C 
ATOM      9  C   UNL A   1      32.557  26.241  25.382  1.00  0.00     0.007 C 
ENDBRANCH   6   7
ENDBRANCH   5   6
BRANCH   5  10
ATOM     10  N   UNL A   1      31.563  26.802  21.730  1.00  0.00    -0.197 NA
ATOM     11  H   UNL A   1      31.618  27.594  21.089  1.00  0.00     0.142 HD
BRANCH  10  12
ATOM     12  S   UNL A   1      32.930  25.805  21.447  1.00  0.00     0.234 S 
ATOM     13  O   UNL A   1      32.966  25.604  20.018  1.00  0.00    -0.208 OA
ATOM     14  O   UNL A   1      34.020  26.506  22.100  1.00  0.00    -0.208 OA
BRANCH  12  15
ATOM     15  C   UNL A   1      32.721  24.266  22.217  1.00  0.00     0.123 C 
ATOM     16  C   UNL A   1      33.697  23.731  22.964  1.00  0.00     0.021 C 
BRANCH  16  17
ATOM     17  C   UNL A   1      33.541  22.502  23.762  1.00  0.00    -0.025 A 
ATOM     18  C   UNL A   1      32.271  21.931  23.890  1.00  0.00     0.009 A 
ATOM     19  C   UNL A   1      34.643  21.803  24.283  1.00  0.00     0.009 A 
ATOM     20  C   UNL A   1      32.111  20.673  24.483  1.00  0.00     0.021 A 
ATOM     21  C   UNL A   1      34.492  20.528  24.838  1.00  0.00     0.021 A 
ATOM     22  C   UNL A   1      33.225  19.965  24.930  1.00  0.00     0.041 A 
ATOM     23  Cl  UNL A   1      33.038  18.381  25.571  1.00  0.00    -0.084 Cl
ENDBRANCH  16  17
ENDBRANCH  12  15
ENDBRANCH  10  12
ENDBRANCH   5  10
ENDBRANCH   3   5
ENDBRANCH   2   3
ENDBRANCH   1   2
BRANCH   1  24
ATOM     24  C   UNL A   1      31.627  30.859  26.056  1.00  0.00     0.275 C 
BRANCH  24  25
ATOM     25  O   UNL A   1      32.488  30.736  27.206  1.00  0.00    -0.458 OA
BRANCH  25  26
ATOM     26  C   UNL A   1      33.276  31.817  27.422  1.00  0.00     0.338 C 
ATOM     27  O   UNL A   1      32.905  32.980  27.502  1.00  0.00    -0.246 OA
BRANCH  26  28
ATOM     28  C   UNL A   1      34.665  31.437  27.746  1.00  0.00     0.060 A 
ATOM     29  C   UNL A   1      34.903  30.079  27.990  1.00  0.00     0.016 A 
ATOM     30  C   UNL A   1      35.671  32.376  27.968  1.00  0.00     0.016 A 
ATOM     31  C   UNL A   1      36.115  29.651  28.513  1.00  0.00     0.010 A 
ATOM     32  C   UNL A   1      36.888  31.950  28.517  1.00  0.00     0.010 A 
ATOM     33  C   UNL A   1      37.092  30.594  28.840  1.00  0.00    -0.014 A 
BRANCH  33  34
ATOM     34  C   UNL A   1      38.195  30.163  29.733  1.00  0.00     0.031 A 
ATOM     35  C   UNL A   1      39.244  29.235  29.179  1.00  0.00     0.074 A 
ATOM     36  C   UNL A   1      38.333  30.681  30.965  1.00  0.00     0.049 A 
ATOM     37  N   UNL A   1      40.295  28.718  29.764  1.00  0.00    -0.248 NA
ATOM     38  C   UNL A   1      39.088  28.841  27.770  1.00  0.00     0.031 C 
ATOM     39  C   UNL A   1      37.439  31.665  31.572  1.00  0.00     0.029 A 
ATOM     40  N   UNL A   1      39.292  30.460  31.920  1.00  0.00    -0.354 N 
ATOM     41  C   UNL A   1      40.903  27.917  28.805  1.00  0.00     0.074 A 
ATOM     42  C   UNL A   1      40.099  28.002  27.607  1.00  0.00     0.031 C 
ATOM     43  C   UNL A   1      37.895  31.967  32.800  1.00  0.00     0.029 A 
ATOM     44  C   UNL A   1      39.087  31.169  33.078  1.00  0.00     0.049 A 
ATOM     45  H   UNL A   1      40.054  29.850  31.789  1.00  0.00     0.167 HD
ATOM     46  C   UNL A   1      42.034  27.181  28.915  1.00  0.00     0.037 A 
ATOM     47  C   UNL A   1      39.777  31.156  34.235  1.00  0.00     0.037 A 
ATOM     48  C   UNL A   1      42.848  27.125  30.101  1.00  0.00     0.049 A 
ATOM     49  C   UNL A   1      40.995  30.277  34.353  1.00  0.00     0.074 A 
ATOM     50  C   UNL A   1      44.013  26.412  30.317  1.00  0.00     0.029 A 
ATOM     51  N   UNL A   1      42.578  27.816  31.273  1.00  0.00    -0.354 N 
ATOM     52  N   UNL A   1      41.553  29.503  33.453  1.00  0.00    -0.248 NA
ATOM     53  C   UNL A   1      41.683  30.274  35.652  1.00  0.00     0.031 C 
ATOM     54  C   UNL A   1      44.422  26.631  31.637  1.00  0.00     0.029 A 
ATOM     55  C   UNL A   1      43.545  27.531  32.223  1.00  0.00     0.049 A 
ATOM     56  H   UNL A   1      41.813  28.421  31.410  1.00  0.00     0.167 HD
ATOM     57  C   UNL A   1      42.676  28.956  34.060  1.00  0.00     0.074 A 
ATOM     58  C   UNL A   1      42.724  29.492  35.405  1.00  0.00     0.031 C 
ATOM     59  C   UNL A   1      43.589  28.091  33.550  1.00  0.00     0.037 A 
BRANCH  46  60
ATOM     60  C   UNL A   1      42.428  26.338  27.736  1.00  0.00     0.064 A 
ATOM     61  C   UNL A   1      41.873  25.070  27.504  1.00  0.00     0.173 A 
ATOM     62  C   UNL A   1      43.376  26.815  26.817  1.00  0.00     0.173 A 
ATOM     63  F   UNL A   1      40.977  24.559  28.361  1.00  0.00    -0.203 F 
ATOM     64  C   UNL A   1      42.274  24.301  26.414  1.00  0.00     0.198 A 
ATOM     65  C   UNL A   1      43.751  26.057  25.712  1.00  0.00     0.198 A 
ATOM     66  F   UNL A   1      43.938  28.021  26.991  1.00  0.00    -0.203 F 
ATOM     67  F   UNL A   1      41.773  23.069  26.244  1.00  0.00    -0.200 F 
ATOM     68  C   UNL A   1      43.207  24.797  25.515  1.00  0.00     0.200 A 
ATOM     69  F   UNL A   1      44.644  26.545  24.839  1.00  0.00    -0.200 F 
ATOM     70  F   UNL A   1      43.591  24.057  24.467  1.00  0.00    -0.200 F 
ENDBRANCH  46  60
BRANCH  47  71
ATOM     71  C   UNL A   1      39.331  31.994  35.379  1.00  0.00     0.064 A 
ATOM     72  C   UNL A   1      38.498  31.472  36.377  1.00  0.00     0.173 A 
ATOM     73  C   UNL A   1      39.707  33.341  35.482  1.00  0.00     0.173 A 
ATOM     74  F   UNL A   1      38.087  30.197  36.309  1.00  0.00    -0.203 F 
ATOM     75  C   UNL A   1      38.041  32.270  37.425  1.00  0.00     0.198 A 
ATOM     76  C   UNL A   1      39.275  34.130  36.546  1.00  0.00     0.198 A 
ATOM     77  F   UNL A   1      40.497  33.892  34.550  1.00  0.00    -0.203 F 
ATOM     78  F   UNL A   1      37.201  31.760  38.337  1.00  0.00    -0.200 F 
ATOM     79  C   UNL A   1      38.434  33.597  37.512  1.00  0.00     0.200 A 
ATOM     80  F   UNL A   1      39.665  35.410  36.629  1.00  0.00    -0.200 F 
ATOM     81  F   UNL A   1      37.994  34.365  38.516  1.00  0.00    -0.200 F 
ENDBRANCH  47  71
BRANCH  59  82
ATOM     82  C   UNL A   1      44.754  27.725  34.425  1.00  0.00     0.064 A 
ATOM     83  C   UNL A   1      45.936  28.479  34.444  1.00  0.00     0.173 A 
ATOM     84  C   UNL A   1      44.671  26.612  35.276  1.00  0.00     0.173 A 
ATOM     85  F   UNL A   1      46.071  29.545  33.641  1.00  0.00    -0.203 F 
ATOM     86  C   UNL A   1      47.006  28.110  35.256  1.00  0.00     0.198 A 
ATOM     87  C   UNL A   1      45.731  26.267  36.112  1.00  0.00     0.198 A 
ATOM     88  F   UNL A   1      43.559  25.863  35.305  1.00  0.00    -0.203 F 
ATOM     89  F   UNL A   1      48.148  28.811  35.214  1.00  0.00    -0.200 F 
ATOM     90  C   UNL A   1      46.900  27.010  36.094  1.00  0.00     0.200 A 
ATOM     91  F   UNL A   1      45.619  25.213  36.932  1.00  0.00    -0.200 F 
ATOM     92  F   UNL A   1      47.931  26.659  36.875  1.00  0.00    -0.200 F 
ENDBRANCH  59  82
ENDBRANCH  33  34
ENDBRANCH  26  28
ENDBRANCH  25  26
ENDBRANCH  24  25
ENDBRANCH   1  24
TORSDOF 17
ENDMDL
MODEL 2
REMARK VINA RESULT:     -11.8      0.550      2.080
REMARK SMILES CC(C)C[C@@H](NS(=O)(=O)/C=C/c1ccc(Cl)cc1)C(=O)OCCOC(=O)c1ccc(-c2c3nc(c(-c4c(F)c(F)c(F)c(F)c4F)c4ccc([nH]4)c(-c4c(F)c(F)c(F)c(F)c4F)c4nc(c(-c5c(F)c(F)c(F)c(F)c5F)c5ccc2[nH]5)C=C4)C=C3)cc1
REMARK SMILES IDX 22 1 21 2 19 3 20 4 5 5 4 6 2 7 1 8 3 9 6 10 7 12 8 13 9 14
REMARK SMILES IDX 10 15 11 16 12 17 13 18 18 19 14 20 17 21 15 22 16 23 23 24
REMARK SMILES IDX 24 25 25 26 26 27 27 28 28 29 89 30 29 31 88 32 30 33 31 34
REMARK SMILES IDX 32 35 82 36 33 37 87 38 81 39 83 40 34 41 86 42 80 43 79 44
REMARK SMILES IDX 35 46 67 47 47 48 66 49 48 50 51 51 65 52 84 53 49 54 50 55
REMARK SMILES IDX 64 57 85 58 52 59 36 60 37 61 45 62 38 63 39 64 43 65 46 66
REMARK SMILES IDX 40 67 41 68 44 69 42 70 68 71 69 72 77 73 70 74 71 75 75 76
REMARK SMILES IDX 78 77 72 78 73 79 76 80 74 81 53 82 54 83 62 84 55 85 56 86
REMARK SMILES IDX 60 87 63 88 57 89 58 90 61 91 59 92
REMARK H PARENT 6 11 83 45 51 56
REMARK Flexibility Score: inf
ROOT
ATOM      1  C   UNL A   1      31.688  29.786  24.760  1.00  0.00     0.274 C 
ENDROOT
BRANCH   1   2
ATOM      2  O   UNL A   1      30.431  29.548  24.103  1.00  0.00    -0.461 OA
BRANCH   2   3
ATOM      3  C   UNL A   1      30.412  28.550  23.181  1.00  0.00     0.324 C 
ATOM      4  O   UNL A   1      29.957  28.657  22.048  1.00  0.00    -0.250 OA
BRANCH   3   5
ATOM      5  C   UNL A   1      30.963  27.228  23.692  1.00  0.00     0.180 C 
BRANCH   5   6
ATOM      6  C   UNL A   1      29.891  26.456  24.478  1.00  0.00     0.035 C 
BRANCH   6   7
ATOM      7  C   UNL A   1      30.305  25.881  25.852  1.00  0.00    -0.015 C 
ATOM      8  C   UNL A   1      30.645  24.387  25.824  1.00  0.00     0.007 C 
ATOM      9  C   UNL A   1      31.536  26.649  26.355  1.00  0.00     0.007 C 
ENDBRANCH   6   7
ENDBRANCH   5   6
BRANCH   5  10
ATOM     10  N   UNL A   1      31.517  26.446  22.547  1.00  0.00    -0.197 NA
ATOM     11  H   UNL A   1      31.335  26.973  21.693  1.00  0.00     0.142 HD
BRANCH  10  12
ATOM     12  S   UNL A   1      33.198  26.106  22.604  1.00  0.00     0.234 S 
ATOM     13  O   UNL A   1      33.646  26.171  21.233  1.00  0.00    -0.208 OA
ATOM     14  O   UNL A   1      33.717  27.054  23.573  1.00  0.00    -0.208 OA
BRANCH  12  15
ATOM     15  C   UNL A   1      33.468  24.502  23.200  1.00  0.00     0.123 C 
ATOM     16  C   UNL A   1      32.596  23.516  22.945  1.00  0.00     0.021 C 
BRANCH  16  17
ATOM     17  C   UNL A   1      32.827  22.103  23.294  1.00  0.00    -0.025 A 
ATOM     18  C   UNL A   1      33.645  21.797  24.386  1.00  0.00     0.009 A 
ATOM     19  C   UNL A   1      32.144  21.054  22.658  1.00  0.00     0.009 A 
ATOM     20  C   UNL A   1      33.743  20.483  24.859  1.00  0.00     0.021 A 
ATOM     21  C   UNL A   1      32.206  19.747  23.152  1.00  0.00     0.021 A 
ATOM     22  C   UNL A   1      33.002  19.469  24.257  1.00  0.00     0.041 A 
ATOM     23  Cl  UNL A   1      33.049  17.873  24.897  1.00  0.00    -0.084 Cl
ENDBRANCH  16  17
ENDBRANCH  12  15
ENDBRANCH  10  12
ENDBRANCH   5  10
ENDBRANCH   3   5
ENDBRANCH   2   3
ENDBRANCH   1   2
BRANCH   1  24
ATOM     24  C   UNL A   1      31.611  30.592  26.067  1.00  0.00     0.275 C 
BRANCH  24  25
ATOM     25  O   UNL A   1      32.686  30.328  26.990  1.00  0.00    -0.458 OA
BRANCH  25  26
ATOM     26  C   UNL A   1      33.391  31.429  27.345  1.00  0.00     0.338 C 
ATOM     27  O   UNL A   1      32.942  32.555  27.508  1.00  0.00    -0.246 OA
BRANCH  26  28
ATOM     28  C   UNL A   1      34.784  31.104  27.709  1.00  0.00     0.060 A 
ATOM     29  C   UNL A   1      35.077  29.751  27.922  1.00  0.00     0.016 A 
ATOM     30  C   UNL A   1      35.735  32.081  27.997  1.00  0.00     0.016 A 
ATOM     31  C   UNL A   1      36.289  29.364  28.477  1.00  0.00     0.010 A 
ATOM     32  C   UNL A   1      36.951  31.695  28.579  1.00  0.00     0.010 A 
ATOM     33  C   UNL A   1      37.207  30.340  28.868  1.00  0.00    -0.014 A 
BRANCH  33  34
ATOM     34  C   UNL A   1      38.296  29.934  29.789  1.00  0.00     0.031 A 
ATOM     35  C   UNL A   1      39.364  29.007  29.270  1.00  0.00     0.074 A 
ATOM     36  C   UNL A   1      38.404  30.471  31.016  1.00  0.00     0.049 A 
ATOM     37  N   UNL A   1      40.408  28.510  29.884  1.00  0.00    -0.248 NA
ATOM     38  C   UNL A   1      39.241  28.592  27.864  1.00  0.00     0.031 C 
ATOM     39  C   UNL A   1      37.490  31.455  31.590  1.00  0.00     0.029 A 
ATOM     40  N   UNL A   1      39.347  30.273  31.994  1.00  0.00    -0.354 N 
ATOM     41  C   UNL A   1      41.043  27.700  28.949  1.00  0.00     0.074 A 
ATOM     42  C   UNL A   1      40.262  27.759  27.734  1.00  0.00     0.031 C 
ATOM     43  C   UNL A   1      37.918  31.780  32.823  1.00  0.00     0.029 A 
ATOM     44  C   UNL A   1      39.113  30.997  33.136  1.00  0.00     0.049 A 
ATOM     45  H   UNL A   1      40.117  29.670  31.886  1.00  0.00     0.167 HD
ATOM     46  C   UNL A   1      42.179  26.977  29.092  1.00  0.00     0.037 A 
ATOM     47  C   UNL A   1      39.779  31.008  34.306  1.00  0.00     0.037 A 
ATOM     48  C   UNL A   1      42.969  26.946  30.295  1.00  0.00     0.049 A 
ATOM     49  C   UNL A   1      41.003  30.143  34.461  1.00  0.00     0.074 A 
ATOM     50  C   UNL A   1      44.137  26.248  30.544  1.00  0.00     0.029 A 
ATOM     51  N   UNL A   1      42.670  27.653  31.451  1.00  0.00    -0.354 N 
ATOM     52  N   UNL A   1      41.586  29.361  33.584  1.00  0.00    -0.248 NA
ATOM     53  C   UNL A   1      41.665  30.166  35.774  1.00  0.00     0.031 C 
ATOM     54  C   UNL A   1      44.517  26.491  31.868  1.00  0.00     0.029 A 
ATOM     55  C   UNL A   1      43.621  27.391  32.424  1.00  0.00     0.049 A 
ATOM     56  H   UNL A   1      41.896  28.252  31.564  1.00  0.00     0.167 HD
ATOM     57  C   UNL A   1      42.702  28.834  34.221  1.00  0.00     0.074 A 
ATOM     58  C   UNL A   1      42.718  29.390  35.559  1.00  0.00     0.031 C 
ATOM     59  C   UNL A   1      43.633  27.971  33.743  1.00  0.00     0.037 A 
BRANCH  46  60
ATOM     60  C   UNL A   1      42.604  26.120  27.934  1.00  0.00     0.064 A 
ATOM     61  C   UNL A   1      43.526  26.564  26.974  1.00  0.00     0.173 A 
ATOM     62  C   UNL A   1      42.080  24.826  27.789  1.00  0.00     0.173 A 
ATOM     63  F   UNL A   1      44.043  27.798  27.054  1.00  0.00    -0.203 F 
ATOM     64  C   UNL A   1      43.884  25.755  25.898  1.00  0.00     0.198 A 
ATOM     65  C   UNL A   1      42.464  24.009  26.730  1.00  0.00     0.198 A 
ATOM     66  F   UNL A   1      41.194  24.352  28.680  1.00  0.00    -0.203 F 
ATOM     67  F   UNL A   1      44.723  26.220  24.961  1.00  0.00    -0.200 F 
ATOM     68  C   UNL A   1      43.358  24.476  25.780  1.00  0.00     0.200 A 
ATOM     69  F   UNL A   1      41.962  22.770  26.626  1.00  0.00    -0.200 F 
ATOM     70  F   UNL A   1      43.705  23.700  24.745  1.00  0.00    -0.200 F 
ENDBRANCH  46  60
BRANCH  47  71
ATOM     71  C   UNL A   1      39.303  31.858  35.429  1.00  0.00     0.064 A 
ATOM     72  C   UNL A   1      39.726  33.188  35.561  1.00  0.00     0.173 A 
ATOM     73  C   UNL A   1      38.435  31.351  36.407  1.00  0.00     0.173 A 
ATOM     74  F   UNL A   1      40.578  33.712  34.667  1.00  0.00    -0.203 F 
ATOM     75  C   UNL A   1      39.316  33.971  36.639  1.00  0.00     0.198 A 
ATOM     76  C   UNL A   1      38.002  32.143  37.467  1.00  0.00     0.198 A 
ATOM     77  F   UNL A   1      38.005  30.083  36.331  1.00  0.00    -0.203 F 
ATOM     78  F   UNL A   1      39.779  35.222  36.770  1.00  0.00    -0.200 F 
ATOM     79  C   UNL A   1      38.450  33.450  37.588  1.00  0.00     0.200 A 
ATOM     80  F   UNL A   1      37.158  31.638  38.377  1.00  0.00    -0.200 F 
ATOM     81  F   UNL A   1      38.058  34.201  38.625  1.00  0.00    -0.200 F 
ENDBRANCH  47  71
BRANCH  59  82
ATOM     82  C   UNL A   1      44.783  27.629  34.645  1.00  0.00     0.064 A 
ATOM     83  C   UNL A   1      44.754  26.518  35.501  1.00  0.00     0.173 A 
ATOM     84  C   UNL A   1      45.946  28.417  34.632  1.00  0.00     0.173 A 
ATOM     85  F   UNL A   1      43.663  25.741  35.561  1.00  0.00    -0.203 F 
ATOM     86  C   UNL A   1      45.831  26.231  36.337  1.00  0.00     0.198 A 
ATOM     87  C   UNL A   1      47.034  28.105  35.444  1.00  0.00     0.198 A 
ATOM     88  F   UNL A   1      46.031  29.484  33.824  1.00  0.00    -0.203 F 
ATOM     89  F   UNL A   1      45.756  25.200  37.190  1.00  0.00    -0.200 F 
ATOM     90  C   UNL A   1      46.971  27.020  36.303  1.00  0.00     0.200 A 
ATOM     91  F   UNL A   1      48.140  28.860  35.398  1.00  0.00    -0.200 F 
ATOM     92  F   UNL A   1      48.006  26.739  37.107  1.00  0.00    -0.200 F 
ENDBRANCH  59  82
ENDBRANCH  33  34
ENDBRANCH  26  28
ENDBRANCH  25  26
ENDBRANCH  24  25
ENDBRANCH   1  24
TORSDOF 17
ENDMDL
MODEL 3
REMARK VINA RESULT:     -11.7      1.509      7.559
REMARK SMILES CC(C)C[C@@H](NS(=O)(=O)/C=C/c1ccc(Cl)cc1)C(=O)OCCOC(=O)c1ccc(-c2c3nc(c(-c4c(F)c(F)c(F)c(F)c4F)c4ccc([nH]4)c(-c4c(F)c(F)c(F)c(F)c4F)c4nc(c(-c5c(F)c(F)c(F)c(F)c5F)c5ccc2[nH]5)C=C4)C=C3)cc1
REMARK SMILES IDX 22 1 21 2 19 3 20 4 5 5 4 6 2 7 1 8 3 9 6 10 7 12 8 13 9 14
REMARK SMILES IDX 10 15 11 16 12 17 13 18 18 19 14 20 17 21 15 22 16 23 23 24
REMARK SMILES IDX 24 25 25 26 26 27 27 28 28 29 89 30 29 31 88 32 30 33 31 34
REMARK SMILES IDX 32 35 82 36 33 37 87 38 81 39 83 40 34 41 86 42 80 43 79 44
REMARK SMILES IDX 35 46 67 47 47 48 66 49 48 50 51 51 65 52 84 53 49 54 50 55
REMARK SMILES IDX 64 57 85 58 52 59 36 60 37 61 45 62 38 63 39 64 43 65 46 66
REMARK SMILES IDX 40 67 41 68 44 69 42 70 68 71 69 72 77 73 70 74 71 75 75 76
REMARK SMILES IDX 78 77 72 78 73 79 76 80 74 81 53 82 54 83 62 84 55 85 56 86
REMARK SMILES IDX 60 87 63 88 57 89 58 90 61 91 59 92
REMARK H PARENT 6 11 83 45 51 56
REMARK Flexibility Score: inf
ROOT
ATOM      1  C   UNL A   1      31.769  30.162  26.312  1.00  0.00     0.274 C 
ENDROOT
BRANCH   1   2
ATOM      2  O   UNL A   1      31.055  29.906  25.090  1.00  0.00    -0.461 OA
BRANCH   2   3
ATOM      3  C   UNL A   1      31.752  29.282  24.104  1.00  0.00     0.324 C 
ATOM      4  O   UNL A   1      32.974  29.236  24.036  1.00  0.00    -0.250 OA
BRANCH   3   5
ATOM      5  C   UNL A   1      30.875  28.672  23.021  1.00  0.00     0.180 C 
BRANCH   5   6
ATOM      6  C   UNL A   1      29.970  29.740  22.385  1.00  0.00     0.035 C 
BRANCH   6   7
ATOM      7  C   UNL A   1      28.443  29.520  22.489  1.00  0.00    -0.015 C 
ATOM      8  C   UNL A   1      28.049  28.190  23.137  1.00  0.00     0.007 C 
ATOM      9  C   UNL A   1      27.839  30.662  23.320  1.00  0.00     0.007 C 
ENDBRANCH   6   7
ENDBRANCH   5   6
BRANCH   5  10
ATOM     10  N   UNL A   1      31.735  27.971  22.022  1.00  0.00    -0.197 NA
ATOM     11  H   UNL A   1      32.678  28.352  22.101  1.00  0.00     0.142 HD
BRANCH  10  12
ATOM     12  S   UNL A   1      31.845  26.266  22.180  1.00  0.00     0.234 S 
ATOM     13  O   UNL A   1      30.783  25.898  23.086  1.00  0.00    -0.208 OA
ATOM     14  O   UNL A   1      31.820  25.783  20.812  1.00  0.00    -0.208 OA
BRANCH  12  15
ATOM     15  C   UNL A   1      33.361  25.826  22.895  1.00  0.00     0.123 C 
ATOM     16  C   UNL A   1      33.536  24.620  23.453  1.00  0.00     0.021 C 
BRANCH  16  17
ATOM     17  C   UNL A   1      34.831  24.123  23.950  1.00  0.00    -0.025 A 
ATOM     18  C   UNL A   1      35.218  24.424  25.260  1.00  0.00     0.009 A 
ATOM     19  C   UNL A   1      35.629  23.239  23.205  1.00  0.00     0.009 A 
ATOM     20  C   UNL A   1      36.349  23.824  25.826  1.00  0.00     0.021 A 
ATOM     21  C   UNL A   1      36.735  22.605  23.781  1.00  0.00     0.021 A 
ATOM     22  C   UNL A   1      37.086  22.896  25.093  1.00  0.00     0.041 A 
ATOM     23  Cl  UNL A   1      38.418  22.088  25.821  1.00  0.00    -0.084 Cl
ENDBRANCH  16  17
ENDBRANCH  12  15
ENDBRANCH  10  12
ENDBRANCH   5  10
ENDBRANCH   3   5
ENDBRANCH   2   3
ENDBRANCH   1   2
BRANCH   1  24
ATOM     24  C   UNL A   1      32.092  31.638  26.595  1.00  0.00     0.275 C 
BRANCH  24  25
ATOM     25  O   UNL A   1      32.753  31.868  27.855  1.00  0.00    -0.458 OA
BRANCH  25  26
ATOM     26  C   UNL A   1      33.678  32.857  27.819  1.00  0.00     0.338 C 
ATOM     27  O   UNL A   1      33.454  34.059  27.804  1.00  0.00    -0.246 OA
BRANCH  26  28
ATOM     28  C   UNL A   1      35.051  32.341  27.988  1.00  0.00     0.060 A 
ATOM     29  C   UNL A   1      35.195  30.950  28.049  1.00  0.00     0.016 A 
ATOM     30  C   UNL A   1      36.142  33.171  28.243  1.00  0.00     0.016 A 
ATOM     31  C   UNL A   1      36.401  30.374  28.422  1.00  0.00     0.010 A 
ATOM     32  C   UNL A   1      37.355  32.593  28.643  1.00  0.00     0.010 A 
ATOM     33  C   UNL A   1      37.470  31.196  28.784  1.00  0.00    -0.014 A 
BRANCH  33  34
ATOM     34  C   UNL A   1      38.593  30.579  29.532  1.00  0.00     0.031 A 
ATOM     35  C   UNL A   1      38.759  30.926  30.988  1.00  0.00     0.074 A 
ATOM     36  C   UNL A   1      39.370  29.640  28.967  1.00  0.00     0.049 A 
ATOM     37  N   UNL A   1      39.662  30.522  31.845  1.00  0.00    -0.248 NA
ATOM     38  C   UNL A   1      37.765  31.851  31.556  1.00  0.00     0.031 C 
ATOM     39  C   UNL A   1      39.239  29.147  27.598  1.00  0.00     0.029 A 
ATOM     40  N   UNL A   1      40.415  28.919  29.489  1.00  0.00    -0.354 N 
ATOM     41  C   UNL A   1      39.362  31.167  33.039  1.00  0.00     0.074 A 
ATOM     42  C   UNL A   1      38.207  32.000  32.795  1.00  0.00     0.031 C 
ATOM     43  C   UNL A   1      40.169  28.199  27.386  1.00  0.00     0.029 A 
ATOM     44  C   UNL A   1      40.983  28.049  28.591  1.00  0.00     0.049 A 
ATOM     45  H   UNL A   1      40.728  29.017  30.417  1.00  0.00     0.167 HD
ATOM     46  C   UNL A   1      39.994  31.068  34.233  1.00  0.00     0.037 A 
ATOM     47  C   UNL A   1      42.050  27.239  28.728  1.00  0.00     0.037 A 
ATOM     48  C   UNL A   1      41.126  30.213  34.479  1.00  0.00     0.049 A 
ATOM     49  C   UNL A   1      42.776  27.198  30.048  1.00  0.00     0.074 A 
ATOM     50  C   UNL A   1      41.838  30.037  35.651  1.00  0.00     0.029 A 
ATOM     51  N   UNL A   1      41.707  29.385  33.528  1.00  0.00    -0.354 N 
ATOM     52  N   UNL A   1      42.505  27.826  31.166  1.00  0.00    -0.248 NA
ATOM     53  C   UNL A   1      43.957  26.326  30.123  1.00  0.00     0.031 C 
ATOM     54  C   UNL A   1      42.882  29.141  35.397  1.00  0.00     0.029 A 
ATOM     55  C   UNL A   1      42.781  28.710  34.084  1.00  0.00     0.049 A 
ATOM     56  H   UNL A   1      41.400  29.290  32.597  1.00  0.00     0.167 HD
ATOM     57  C   UNL A   1      43.452  27.397  32.087  1.00  0.00     0.074 A 
ATOM     58  C   UNL A   1      44.302  26.449  31.398  1.00  0.00     0.031 C 
ATOM     59  C   UNL A   1      43.603  27.753  33.388  1.00  0.00     0.037 A 
BRANCH  46  60
ATOM     60  C   UNL A   1      39.504  31.945  35.349  1.00  0.00     0.064 A 
ATOM     61  C   UNL A   1      39.931  33.273  35.499  1.00  0.00     0.173 A 
ATOM     62  C   UNL A   1      38.581  31.445  36.282  1.00  0.00     0.173 A 
ATOM     63  F   UNL A   1      40.826  33.795  34.648  1.00  0.00    -0.203 F 
ATOM     64  C   UNL A   1      39.477  34.057  36.558  1.00  0.00     0.198 A 
ATOM     65  C   UNL A   1      38.106  32.241  37.320  1.00  0.00     0.198 A 
ATOM     66  F   UNL A   1      38.139  30.182  36.184  1.00  0.00    -0.203 F 
ATOM     67  F   UNL A   1      39.943  35.304  36.716  1.00  0.00    -0.200 F 
ATOM     68  C   UNL A   1      38.560  33.542  37.463  1.00  0.00     0.200 A 
ATOM     69  F   UNL A   1      37.211  31.744  38.186  1.00  0.00    -0.200 F 
ATOM     70  F   UNL A   1      38.124  34.297  38.480  1.00  0.00    -0.200 F 
ENDBRANCH  46  60
BRANCH  47  71
ATOM     71  C   UNL A   1      42.507  26.408  27.583  1.00  0.00     0.064 A 
ATOM     72  C   UNL A   1      41.960  25.139  27.346  1.00  0.00     0.173 A 
ATOM     73  C   UNL A   1      43.518  26.853  26.719  1.00  0.00     0.173 A 
ATOM     74  F   UNL A   1      41.010  24.656  28.160  1.00  0.00    -0.203 F 
ATOM     75  C   UNL A   1      42.420  24.340  26.301  1.00  0.00     0.198 A 
ATOM     76  C   UNL A   1      43.957  26.066  25.657  1.00  0.00     0.198 A 
ATOM     77  F   UNL A   1      44.080  28.056  26.906  1.00  0.00    -0.203 F 
ATOM     78  F   UNL A   1      41.917  23.109  26.129  1.00  0.00    -0.200 F 
ATOM     79  C   UNL A   1      43.414  24.806  25.453  1.00  0.00     0.200 A 
ATOM     80  F   UNL A   1      44.911  26.525  24.836  1.00  0.00    -0.200 F 
ATOM     81  F   UNL A   1      43.859  24.038  24.451  1.00  0.00    -0.200 F 
ENDBRANCH  47  71
BRANCH  59  82
ATOM     82  C   UNL A   1      44.684  27.062  34.169  1.00  0.00     0.064 A 
ATOM     83  C   UNL A   1      45.975  27.598  34.288  1.00  0.00     0.173 A 
ATOM     84  C   UNL A   1      44.411  25.854  34.830  1.00  0.00     0.173 A 
ATOM     85  F   UNL A   1      46.290  28.743  33.666  1.00  0.00    -0.203 F 
ATOM     86  C   UNL A   1      46.962  26.930  35.009  1.00  0.00     0.198 A 
ATOM     87  C   UNL A   1      45.392  25.207  35.578  1.00  0.00     0.198 A 
ATOM     88  F   UNL A   1      43.191  25.303  34.758  1.00  0.00    -0.203 F 
ATOM     89  F   UNL A   1      48.205  27.430  35.059  1.00  0.00    -0.200 F 
ATOM     90  C   UNL A   1      46.669  25.740  35.658  1.00  0.00     0.200 A 
ATOM     91  F   UNL A   1      45.101  24.066  36.218  1.00  0.00    -0.200 F 
ATOM     92  F   UNL A   1      47.621  25.101  36.352  1.00  0.00    -0.200 F 
ENDBRANCH  59  82
ENDBRANCH  33  34
ENDBRANCH  26  28
ENDBRANCH  25  26
ENDBRANCH  24  25
ENDBRANCH   1  24
TORSDOF 17
ENDMDL
