MODEL 1
REMARK VINA RESULT:     -14.1      0.000      0.000
REMARK SMILES Cc1cccc(-c2c(C(=O)OCCOC(=O)c3ccc(-c4c5nc(c(-c6c(F)c(F)c(F)c(F)c6F)c6ccc([nH]6)c(-c6c(F)c(F)c(F)c(F)c6F)c6nc(c(-c7c(F)c(F)c(F)c(F)c7F)c7ccc4[nH]7)C=C6)C=C5)cc3)nnn2Cc2cc(F)cc(F)c2)c1
REMARK SMILES IDX 12 1 11 2 9 3 10 4 8 5 7 6 82 7 80 8 81 9 6 10 1 11 2 12
REMARK SMILES IDX 3 13 92 14 4 15 5 16 83 17 84 18 85 19 91 20 86 21 89 22
REMARK SMILES IDX 87 23 88 24 90 25 13 26 14 27 15 28 16 29 17 30 18 31 79 32
REMARK SMILES IDX 19 33 78 34 20 35 21 36 22 37 72 38 23 39 77 40 71 41 73 42
REMARK SMILES IDX 24 43 76 44 70 45 69 46 25 48 57 49 37 50 56 51 38 52 41 53
REMARK SMILES IDX 55 54 74 55 39 56 40 57 54 59 75 60 42 61 26 62 27 63 35 64
REMARK SMILES IDX 28 65 29 66 33 67 36 68 30 69 31 70 34 71 32 72 58 73 59 74
REMARK SMILES IDX 67 75 60 76 61 77 65 78 68 79 62 80 63 81 66 82 64 83 43 84
REMARK SMILES IDX 44 85 52 86 45 87 46 88 50 89 53 90 47 91 48 92 51 93 49 94
REMARK H PARENT 73 47 41 58
REMARK Flexibility Score: inf
ROOT
ATOM      1  C   UNL A   1      32.898  30.610  27.250  1.00  0.00     0.275 C 
ENDROOT
BRANCH   1   2
ATOM      2  O   UNL A   1      33.525  29.770  26.271  1.00  0.00    -0.457 OA
BRANCH   2   3
ATOM      3  C   UNL A   1      32.609  29.204  25.193  1.00  0.00     0.361 C 
ATOM      4  O   UNL A   1      31.654  30.050  25.215  1.00  0.00    -0.244 OA
BRANCH   3   5
ATOM      5  C   UNL A   1      32.944  27.491  24.035  1.00  0.00     0.198 A 
ATOM      6  C   UNL A   1      32.826  25.933  24.118  1.00  0.00     0.104 A 
ATOM      7  N   UNL A   1      33.334  25.443  22.911  1.00  0.00    -0.239 N 
ATOM      8  N   UNL A   1      33.477  27.530  22.619  1.00  0.00    -0.122 NA
ATOM      9  N   UNL A   1      33.733  26.381  22.080  1.00  0.00    -0.066 NA
BRANCH   6  10
ATOM     10  C   UNL A   1      32.283  24.895  25.078  1.00  0.00     0.003 A 
ATOM     11  C   UNL A   1      33.352  22.562  27.934  1.00  0.00     0.044 C 
ATOM     12  C   UNL A   1      32.524  23.300  26.924  1.00  0.00    -0.050 A 
ATOM     13  C   UNL A   1      31.172  22.949  26.819  1.00  0.00     0.003 A 
ATOM     14  C   UNL A   1      33.064  24.298  26.079  1.00  0.00     0.013 A 
ATOM     15  C   UNL A   1      30.402  23.487  25.809  1.00  0.00     0.001 A 
ATOM     16  C   UNL A   1      30.983  24.394  24.926  1.00  0.00     0.010 A 
ENDBRANCH   6  10
BRANCH   7  17
ATOM     17  C   UNL A   1      33.384  24.084  22.361  1.00  0.00     0.182 C 
BRANCH  17  18
ATOM     18  C   UNL A   1      34.194  23.114  23.194  1.00  0.00    -0.021 A 
ATOM     19  C   UNL A   1      35.540  23.388  23.475  1.00  0.00     0.045 A 
ATOM     20  C   UNL A   1      33.662  21.911  23.676  1.00  0.00     0.045 A 
ATOM     21  C   UNL A   1      36.269  22.545  24.316  1.00  0.00     0.126 A 
ATOM     22  C   UNL A   1      34.393  21.105  24.545  1.00  0.00     0.126 A 
ATOM     23  F   UNL A   1      37.551  22.830  24.579  1.00  0.00    -0.207 F 
ATOM     24  C   UNL A   1      35.692  21.424  24.892  1.00  0.00     0.078 A 
ATOM     25  F   UNL A   1      33.821  20.010  25.061  1.00  0.00    -0.207 F 
ENDBRANCH  17  18
ENDBRANCH   7  17
ENDBRANCH   3   5
ENDBRANCH   2   3
ENDBRANCH   1   2
BRANCH   1  26
ATOM     26  C   UNL A   1      33.766  31.857  27.443  1.00  0.00     0.275 C 
BRANCH  26  27
ATOM     27  O   UNL A   1      34.245  32.058  28.804  1.00  0.00    -0.458 OA
BRANCH  27  28
ATOM     28  C   UNL A   1      35.565  31.899  29.131  1.00  0.00     0.338 C 
ATOM     29  O   UNL A   1      36.371  32.805  29.225  1.00  0.00    -0.246 OA
BRANCH  28  30
ATOM     30  C   UNL A   1      35.987  30.481  29.009  1.00  0.00     0.060 A 
ATOM     31  C   UNL A   1      36.364  29.691  30.604  1.00  0.00     0.016 A 
ATOM     32  C   UNL A   1      36.990  30.109  27.542  1.00  0.00     0.016 A 
ATOM     33  C   UNL A   1      37.841  28.588  30.764  1.00  0.00     0.010 A 
ATOM     34  C   UNL A   1      38.466  29.007  27.710  1.00  0.00     0.010 A 
ATOM     35  C   UNL A   1      38.895  28.298  29.332  1.00  0.00    -0.014 A 
BRANCH  35  36
ATOM     36  C   UNL A   1      40.342  28.091  29.425  1.00  0.00     0.031 A 
ATOM     37  C   UNL A   1      40.819  26.814  28.914  1.00  0.00     0.074 A 
ATOM     38  C   UNL A   1      41.173  29.144  29.614  1.00  0.00     0.049 A 
ATOM     39  N   UNL A   1      42.014  26.567  28.549  1.00  0.00    -0.248 NA
ATOM     40  C   UNL A   1      39.918  25.698  28.697  1.00  0.00     0.031 C 
ATOM     41  C   UNL A   1      42.602  29.269  29.323  1.00  0.00     0.029 A 
ATOM     42  N   UNL A   1      40.899  30.302  30.339  1.00  0.00    -0.354 N 
ATOM     43  C   UNL A   1      42.041  25.307  28.009  1.00  0.00     0.074 A 
ATOM     44  C   UNL A   1      40.684  24.848  28.006  1.00  0.00     0.031 C 
ATOM     45  C   UNL A   1      43.135  30.206  30.128  1.00  0.00     0.029 A 
ATOM     46  C   UNL A   1      42.085  30.658  31.017  1.00  0.00     0.049 A 
ATOM     47  H   UNL A   1      40.041  30.781  30.372  1.00  0.00     0.167 HD
ATOM     48  C   UNL A   1      43.259  24.827  27.661  1.00  0.00     0.037 A 
ATOM     49  C   UNL A   1      42.078  30.530  32.377  1.00  0.00     0.037 A 
ATOM     50  C   UNL A   1      44.259  25.528  28.477  1.00  0.00     0.049 A 
ATOM     51  C   UNL A   1      42.786  29.247  32.812  1.00  0.00     0.074 A 
ATOM     52  C   UNL A   1      45.064  26.639  28.313  1.00  0.00     0.029 A 
ATOM     53  N   UNL A   1      44.142  25.356  29.849  1.00  0.00    -0.354 N 
ATOM     54  N   UNL A   1      43.336  28.393  31.980  1.00  0.00    -0.248 NA
ATOM     55  C   UNL A   1      42.924  28.810  34.197  1.00  0.00     0.031 C 
ATOM     56  C   UNL A   1      45.333  27.177  29.623  1.00  0.00     0.029 A 
ATOM     57  C   UNL A   1      44.742  26.362  30.578  1.00  0.00     0.049 A 
ATOM     58  H   UNL A   1      43.678  24.592  30.262  1.00  0.00     0.167 HD
ATOM     59  C   UNL A   1      43.898  27.347  32.655  1.00  0.00     0.074 A 
ATOM     60  C   UNL A   1      43.559  27.631  34.046  1.00  0.00     0.031 C 
ATOM     61  C   UNL A   1      44.605  26.339  32.039  1.00  0.00     0.037 A 
BRANCH  48  62
ATOM     62  C   UNL A   1      43.543  23.782  26.621  1.00  0.00     0.064 A 
ATOM     63  C   UNL A   1      43.152  22.452  26.872  1.00  0.00     0.173 A 
ATOM     64  C   UNL A   1      44.328  23.961  25.460  1.00  0.00     0.173 A 
ATOM     65  F   UNL A   1      42.414  22.140  27.947  1.00  0.00    -0.203 F 
ATOM     66  C   UNL A   1      43.544  21.387  26.056  1.00  0.00     0.198 A 
ATOM     67  C   UNL A   1      44.695  22.898  24.628  1.00  0.00     0.198 A 
ATOM     68  F   UNL A   1      44.819  25.151  25.102  1.00  0.00    -0.203 F 
ATOM     69  F   UNL A   1      43.191  20.137  26.383  1.00  0.00    -0.200 F 
ATOM     70  C   UNL A   1      44.318  21.610  24.935  1.00  0.00     0.200 A 
ATOM     71  F   UNL A   1      45.452  23.134  23.546  1.00  0.00    -0.200 F 
ATOM     72  F   UNL A   1      44.714  20.587  24.166  1.00  0.00    -0.200 F 
ENDBRANCH  48  62
BRANCH  49  73
ATOM     73  C   UNL A   1      40.839  31.197  32.917  1.00  0.00     0.064 A 
ATOM     74  C   UNL A   1      40.655  32.552  32.530  1.00  0.00     0.173 A 
ATOM     75  C   UNL A   1      39.691  30.503  33.305  1.00  0.00     0.173 A 
ATOM     76  F   UNL A   1      41.722  33.300  32.202  1.00  0.00    -0.203 F 
ATOM     77  C   UNL A   1      39.388  33.086  32.294  1.00  0.00     0.198 A 
ATOM     78  C   UNL A   1      38.418  31.081  33.152  1.00  0.00     0.198 A 
ATOM     79  F   UNL A   1      39.770  29.219  33.686  1.00  0.00    -0.203 F 
ATOM     80  F   UNL A   1      39.269  34.284  31.701  1.00  0.00    -0.200 F 
ATOM     81  C   UNL A   1      38.267  32.335  32.575  1.00  0.00     0.200 A 
ATOM     82  F   UNL A   1      37.321  30.358  33.431  1.00  0.00    -0.200 F 
ATOM     83  F   UNL A   1      37.048  32.792  32.245  1.00  0.00    -0.200 F 
ENDBRANCH  49  73
BRANCH  61  84
ATOM     84  C   UNL A   1      45.222  25.193  32.815  1.00  0.00     0.064 A 
ATOM     85  C   UNL A   1      46.585  25.164  33.140  1.00  0.00     0.173 A 
ATOM     86  C   UNL A   1      44.488  24.048  33.212  1.00  0.00     0.173 A 
ATOM     87  F   UNL A   1      47.428  26.093  32.664  1.00  0.00    -0.203 F 
ATOM     88  C   UNL A   1      47.130  24.165  33.950  1.00  0.00     0.198 A 
ATOM     89  C   UNL A   1      45.052  23.009  33.944  1.00  0.00     0.198 A 
ATOM     90  F   UNL A   1      43.186  23.893  32.943  1.00  0.00    -0.203 F 
ATOM     91  F   UNL A   1      48.408  24.255  34.341  1.00  0.00    -0.200 F 
ATOM     92  C   UNL A   1      46.362  23.090  34.357  1.00  0.00     0.200 A 
ATOM     93  F   UNL A   1      44.303  21.945  34.267  1.00  0.00    -0.200 F 
ATOM     94  F   UNL A   1      46.881  22.136  35.138  1.00  0.00    -0.200 F 
ENDBRANCH  61  84
ENDBRANCH  35  36
ENDBRANCH  28  30
ENDBRANCH  27  28
ENDBRANCH  26  27
ENDBRANCH   1  26
TORSDOF 14
ENDMDL
MODEL 2
REMARK VINA RESULT:     -13.9      3.771      9.651
REMARK SMILES Cc1cccc(-c2c(C(=O)OCCOC(=O)c3ccc(-c4c5nc(c(-c6c(F)c(F)c(F)c(F)c6F)c6ccc([nH]6)c(-c6c(F)c(F)c(F)c(F)c6F)c6nc(c(-c7c(F)c(F)c(F)c(F)c7F)c7ccc4[nH]7)C=C6)C=C5)cc3)nnn2Cc2cc(F)cc(F)c2)c1
REMARK SMILES IDX 12 1 11 2 9 3 10 4 8 5 7 6 82 7 80 8 81 9 6 10 1 11 2 12
REMARK SMILES IDX 3 13 92 14 4 15 5 16 83 17 84 18 85 19 91 20 86 21 89 22
REMARK SMILES IDX 87 23 88 24 90 25 13 26 14 27 15 28 16 29 17 30 18 31 79 32
REMARK SMILES IDX 19 33 78 34 20 35 21 36 22 37 72 38 23 39 77 40 71 41 73 42
REMARK SMILES IDX 24 43 76 44 70 45 69 46 25 48 57 49 37 50 56 51 38 52 41 53
REMARK SMILES IDX 55 54 74 55 39 56 40 57 54 59 75 60 42 61 26 62 27 63 35 64
REMARK SMILES IDX 28 65 29 66 33 67 36 68 30 69 31 70 34 71 32 72 58 73 59 74
REMARK SMILES IDX 67 75 60 76 61 77 65 78 68 79 62 80 63 81 66 82 64 83 43 84
REMARK SMILES IDX 44 85 52 86 45 87 46 88 50 89 53 90 47 91 48 92 51 93 49 94
REMARK H PARENT 73 47 41 58
REMARK Flexibility Score: inf
ROOT
ATOM      1  C   UNL A   1      37.193  21.698  25.776  1.00  0.00     0.275 C 
ENDROOT
BRANCH   1   2
ATOM      2  O   UNL A   1      36.484  22.902  26.096  1.00  0.00    -0.457 OA
BRANCH   2   3
ATOM      3  C   UNL A   1      35.071  23.014  25.536  1.00  0.00     0.361 C 
ATOM      4  O   UNL A   1      34.531  21.968  26.028  1.00  0.00    -0.244 OA
BRANCH   3   5
ATOM      5  C   UNL A   1      34.326  24.538  24.308  1.00  0.00     0.198 A 
ATOM      6  C   UNL A   1      33.622  25.932  24.403  1.00  0.00     0.104 A 
ATOM      7  N   UNL A   1      33.359  26.322  23.086  1.00  0.00    -0.239 N 
ATOM      8  N   UNL A   1      34.372  24.491  22.796  1.00  0.00    -0.122 NA
ATOM      9  N   UNL A   1      33.770  25.459  22.182  1.00  0.00    -0.066 NA
BRANCH   6  10
ATOM     10  C   UNL A   1      33.236  26.927  25.478  1.00  0.00     0.003 A 
ATOM     11  C   UNL A   1      34.542  30.008  27.361  1.00  0.00     0.044 C 
ATOM     12  C   UNL A   1      33.660  28.894  26.878  1.00  0.00    -0.050 A 
ATOM     13  C   UNL A   1      32.426  28.726  27.517  1.00  0.00     0.003 A 
ATOM     14  C   UNL A   1      34.043  28.018  25.836  1.00  0.00     0.013 A 
ATOM     15  C   UNL A   1      31.643  27.631  27.216  1.00  0.00     0.001 A 
ATOM     16  C   UNL A   1      32.088  26.726  26.256  1.00  0.00     0.010 A 
ENDBRANCH   6  10
BRANCH   7  17
ATOM     17  C   UNL A   1      32.822  27.570  22.534  1.00  0.00     0.182 C 
BRANCH  17  18
ATOM     18  C   UNL A   1      31.384  27.845  22.920  1.00  0.00    -0.021 A 
ATOM     19  C   UNL A   1      30.936  29.166  23.052  1.00  0.00     0.045 A 
ATOM     20  C   UNL A   1      30.470  26.819  23.194  1.00  0.00     0.045 A 
ATOM     21  C   UNL A   1      29.592  29.431  23.319  1.00  0.00     0.126 A 
ATOM     22  C   UNL A   1      29.125  27.103  23.419  1.00  0.00     0.126 A 
ATOM     23  F   UNL A   1      29.183  30.701  23.432  1.00  0.00    -0.207 F 
ATOM     24  C   UNL A   1      28.669  28.406  23.461  1.00  0.00     0.078 A 
ATOM     25  F   UNL A   1      28.262  26.094  23.584  1.00  0.00    -0.207 F 
ENDBRANCH  17  18
ENDBRANCH   7  17
ENDBRANCH   3   5
ENDBRANCH   2   3
ENDBRANCH   1   2
BRANCH   1  26
ATOM     26  C   UNL A   1      38.652  22.060  25.483  1.00  0.00     0.275 C 
BRANCH  26  27
ATOM     27  O   UNL A   1      39.558  21.884  26.610  1.00  0.00    -0.458 OA
BRANCH  27  28
ATOM     28  C   UNL A   1      40.370  22.896  27.044  1.00  0.00     0.338 C 
ATOM     29  O   UNL A   1      41.342  22.749  27.761  1.00  0.00    -0.246 OA
BRANCH  28  30
ATOM     30  C   UNL A   1      39.735  24.223  26.844  1.00  0.00     0.060 A 
ATOM     31  C   UNL A   1      40.769  25.393  25.908  1.00  0.00     0.016 A 
ATOM     32  C   UNL A   1      38.726  24.803  28.237  1.00  0.00     0.016 A 
ATOM     33  C   UNL A   1      40.880  27.161  26.442  1.00  0.00     0.010 A 
ATOM     34  C   UNL A   1      38.845  26.572  28.766  1.00  0.00     0.010 A 
ATOM     35  C   UNL A   1      39.957  27.715  27.887  1.00  0.00    -0.014 A 
BRANCH  35  36
ATOM     36  C   UNL A   1      40.436  28.755  28.799  1.00  0.00     0.031 A 
ATOM     37  C   UNL A   1      39.520  29.867  29.007  1.00  0.00     0.074 A 
ATOM     38  C   UNL A   1      41.461  28.502  29.648  1.00  0.00     0.049 A 
ATOM     39  N   UNL A   1      39.542  30.663  30.001  1.00  0.00    -0.248 NA
ATOM     40  C   UNL A   1      38.413  30.119  28.104  1.00  0.00     0.031 C 
ATOM     41  C   UNL A   1      41.829  29.176  30.894  1.00  0.00     0.029 A 
ATOM     42  N   UNL A   1      42.546  27.659  29.415  1.00  0.00    -0.354 N 
ATOM     43  C   UNL A   1      38.450  31.488  29.910  1.00  0.00     0.074 A 
ATOM     44  C   UNL A   1      37.702  31.030  28.776  1.00  0.00     0.031 C 
ATOM     45  C   UNL A   1      43.145  29.000  31.117  1.00  0.00     0.029 A 
ATOM     46  C   UNL A   1      43.681  28.277  29.983  1.00  0.00     0.049 A 
ATOM     47  H   UNL A   1      42.525  26.796  28.944  1.00  0.00     0.167 HD
ATOM     48  C   UNL A   1      38.365  32.479  30.829  1.00  0.00     0.037 A 
ATOM     49  C   UNL A   1      44.628  28.740  29.114  1.00  0.00     0.037 A 
ATOM     50  C   UNL A   1      39.727  32.763  31.299  1.00  0.00     0.049 A 
ATOM     51  C   UNL A   1      44.502  30.250  28.917  1.00  0.00     0.074 A 
ATOM     52  C   UNL A   1      40.509  32.353  32.362  1.00  0.00     0.029 A 
ATOM     53  N   UNL A   1      40.619  33.197  30.330  1.00  0.00    -0.354 N 
ATOM     54  N   UNL A   1      43.605  30.997  29.517  1.00  0.00    -0.248 NA
ATOM     55  C   UNL A   1      45.350  31.041  28.031  1.00  0.00     0.031 C 
ATOM     56  C   UNL A   1      41.887  32.461  31.952  1.00  0.00     0.029 A 
ATOM     57  C   UNL A   1      41.939  32.988  30.670  1.00  0.00     0.049 A 
ATOM     58  H   UNL A   1      40.338  33.613  29.482  1.00  0.00     0.167 HD
ATOM     59  C   UNL A   1      43.737  32.307  29.153  1.00  0.00     0.074 A 
ATOM     60  C   UNL A   1      44.814  32.269  28.169  1.00  0.00     0.031 C 
ATOM     61  C   UNL A   1      42.974  33.322  29.683  1.00  0.00     0.037 A 
BRANCH  48  62
ATOM     62  C   UNL A   1      37.109  33.156  31.297  1.00  0.00     0.064 A 
ATOM     63  C   UNL A   1      36.692  32.964  32.630  1.00  0.00     0.173 A 
ATOM     64  C   UNL A   1      36.187  33.848  30.481  1.00  0.00     0.173 A 
ATOM     65  F   UNL A   1      37.467  32.312  33.509  1.00  0.00    -0.203 F 
ATOM     66  C   UNL A   1      35.446  33.391  33.095  1.00  0.00     0.198 A 
ATOM     67  C   UNL A   1      34.952  34.300  30.956  1.00  0.00     0.198 A 
ATOM     68  F   UNL A   1      36.406  34.073  29.182  1.00  0.00    -0.203 F 
ATOM     69  F   UNL A   1      35.083  33.124  34.357  1.00  0.00    -0.200 F 
ATOM     70  C   UNL A   1      34.574  34.057  32.258  1.00  0.00     0.200 A 
ATOM     71  F   UNL A   1      34.115  34.941  30.125  1.00  0.00    -0.200 F 
ATOM     72  F   UNL A   1      33.370  34.446  32.697  1.00  0.00    -0.200 F 
ENDBRANCH  48  62
BRANCH  49  73
ATOM     73  C   UNL A   1      44.954  27.646  28.129  1.00  0.00     0.064 A 
ATOM     74  C   UNL A   1      45.330  26.400  28.699  1.00  0.00     0.173 A 
ATOM     75  C   UNL A   1      44.459  27.606  26.824  1.00  0.00     0.173 A 
ATOM     76  F   UNL A   1      45.871  26.368  29.929  1.00  0.00    -0.203 F 
ATOM     77  C   UNL A   1      44.984  25.185  28.109  1.00  0.00     0.198 A 
ATOM     78  C   UNL A   1      44.197  26.375  26.195  1.00  0.00     0.198 A 
ATOM     79  F   UNL A   1      44.079  28.734  26.206  1.00  0.00    -0.203 F 
ATOM     80  F   UNL A   1      45.141  24.041  28.794  1.00  0.00    -0.200 F 
ATOM     81  C   UNL A   1      44.386  25.174  26.867  1.00  0.00     0.200 A 
ATOM     82  F   UNL A   1      43.621  26.357  24.982  1.00  0.00    -0.200 F 
ATOM     83  F   UNL A   1      43.944  24.021  26.340  1.00  0.00    -0.200 F 
ENDBRANCH  49  73
BRANCH  61  84
ATOM     84  C   UNL A   1      43.146  34.768  29.262  1.00  0.00     0.064 A 
ATOM     85  C   UNL A   1      43.451  35.779  30.184  1.00  0.00     0.173 A 
ATOM     86  C   UNL A   1      42.952  35.211  27.931  1.00  0.00     0.173 A 
ATOM     87  F   UNL A   1      43.477  35.527  31.501  1.00  0.00    -0.203 F 
ATOM     88  C   UNL A   1      43.720  37.089  29.781  1.00  0.00     0.198 A 
ATOM     89  C   UNL A   1      43.133  36.535  27.544  1.00  0.00     0.198 A 
ATOM     90  F   UNL A   1      42.613  34.384  26.934  1.00  0.00    -0.203 F 
ATOM     91  F   UNL A   1      44.137  37.986  30.684  1.00  0.00    -0.200 F 
ATOM     92  C   UNL A   1      43.566  37.465  28.459  1.00  0.00     0.200 A 
ATOM     93  F   UNL A   1      42.911  36.888  26.270  1.00  0.00    -0.200 F 
ATOM     94  F   UNL A   1      43.830  38.719  28.071  1.00  0.00    -0.200 F 
ENDBRANCH  61  84
ENDBRANCH  35  36
ENDBRANCH  28  30
ENDBRANCH  27  28
ENDBRANCH  26  27
ENDBRANCH   1  26
TORSDOF 14
ENDMDL
MODEL 3
REMARK VINA RESULT:     -13.8      1.336      2.328
REMARK SMILES Cc1cccc(-c2c(C(=O)OCCOC(=O)c3ccc(-c4c5nc(c(-c6c(F)c(F)c(F)c(F)c6F)c6ccc([nH]6)c(-c6c(F)c(F)c(F)c(F)c6F)c6nc(c(-c7c(F)c(F)c(F)c(F)c7F)c7ccc4[nH]7)C=C6)C=C5)cc3)nnn2Cc2cc(F)cc(F)c2)c1
REMARK SMILES IDX 12 1 11 2 9 3 10 4 8 5 7 6 82 7 80 8 81 9 6 10 1 11 2 12
REMARK SMILES IDX 3 13 92 14 4 15 5 16 83 17 84 18 85 19 91 20 86 21 89 22
REMARK SMILES IDX 87 23 88 24 90 25 13 26 14 27 15 28 16 29 17 30 18 31 79 32
REMARK SMILES IDX 19 33 78 34 20 35 21 36 22 37 72 38 23 39 77 40 71 41 73 42
REMARK SMILES IDX 24 43 76 44 70 45 69 46 25 48 57 49 37 50 56 51 38 52 41 53
REMARK SMILES IDX 55 54 74 55 39 56 40 57 54 59 75 60 42 61 26 62 27 63 35 64
REMARK SMILES IDX 28 65 29 66 33 67 36 68 30 69 31 70 34 71 32 72 58 73 59 74
REMARK SMILES IDX 67 75 60 76 61 77 65 78 68 79 62 80 63 81 66 82 64 83 43 84
REMARK SMILES IDX 44 85 52 86 45 87 46 88 50 89 53 90 47 91 48 92 51 93 49 94
REMARK H PARENT 73 47 41 58
REMARK Flexibility Score: inf
ROOT
ATOM      1  C   UNL A   1      32.977  30.576  26.145  1.00  0.00     0.275 C 
ENDROOT
BRANCH   1   2
ATOM      2  O   UNL A   1      32.110  29.438  26.056  1.00  0.00    -0.457 OA
BRANCH   2   3
ATOM      3  C   UNL A   1      32.700  28.200  25.391  1.00  0.00     0.361 C 
ATOM      4  O   UNL A   1      33.337  28.727  24.419  1.00  0.00    -0.244 OA
BRANCH   3   5
ATOM      5  C   UNL A   1      32.470  26.213  26.011  1.00  0.00     0.198 A 
ATOM      6  C   UNL A   1      33.159  24.815  25.869  1.00  0.00     0.104 A 
ATOM      7  N   UNL A   1      32.333  23.909  26.543  1.00  0.00    -0.239 N 
ATOM      8  N   UNL A   1      31.335  25.737  26.892  1.00  0.00    -0.122 NA
ATOM      9  N   UNL A   1      31.274  24.460  27.094  1.00  0.00    -0.066 NA
BRANCH   6  10
ATOM     10  C   UNL A   1      34.432  24.241  25.281  1.00  0.00     0.003 A 
ATOM     11  C   UNL A   1      38.113  23.554  26.128  1.00  0.00     0.044 C 
ATOM     12  C   UNL A   1      36.797  23.611  25.409  1.00  0.00    -0.050 A 
ATOM     13  C   UNL A   1      36.767  23.166  24.082  1.00  0.00     0.003 A 
ATOM     14  C   UNL A   1      35.621  24.111  26.016  1.00  0.00     0.013 A 
ATOM     15  C   UNL A   1      35.623  23.333  23.330  1.00  0.00     0.001 A 
ATOM     16  C   UNL A   1      34.507  23.921  23.919  1.00  0.00     0.010 A 
ENDBRANCH   6  10
BRANCH   7  17
ATOM     17  C   UNL A   1      32.505  22.485  26.848  1.00  0.00     0.182 C 
BRANCH  17  18
ATOM     18  C   UNL A   1      32.724  21.616  25.628  1.00  0.00    -0.021 A 
ATOM     19  C   UNL A   1      33.686  20.597  25.660  1.00  0.00     0.045 A 
ATOM     20  C   UNL A   1      32.023  21.810  24.431  1.00  0.00     0.045 A 
ATOM     21  C   UNL A   1      33.833  19.734  24.573  1.00  0.00     0.126 A 
ATOM     22  C   UNL A   1      32.156  20.914  23.373  1.00  0.00     0.126 A 
ATOM     23  F   UNL A   1      34.752  18.761  24.626  1.00  0.00    -0.207 F 
ATOM     24  C   UNL A   1      33.042  19.857  23.441  1.00  0.00     0.078 A 
ATOM     25  F   UNL A   1      31.401  21.076  22.280  1.00  0.00    -0.207 F 
ENDBRANCH  17  18
ENDBRANCH   7  17
ENDBRANCH   3   5
ENDBRANCH   2   3
ENDBRANCH   1   2
BRANCH   1  26
ATOM     26  C   UNL A   1      33.505  30.669  27.581  1.00  0.00     0.275 C 
BRANCH  26  27
ATOM     27  O   UNL A   1      34.349  31.827  27.843  1.00  0.00    -0.458 OA
BRANCH  27  28
ATOM     28  C   UNL A   1      35.570  31.704  28.447  1.00  0.00     0.338 C 
ATOM     29  O   UNL A   1      36.329  32.627  28.675  1.00  0.00    -0.246 OA
BRANCH  28  30
ATOM     30  C   UNL A   1      36.023  30.291  28.470  1.00  0.00     0.060 A 
ATOM     31  C   UNL A   1      36.278  29.632  30.148  1.00  0.00     0.016 A 
ATOM     32  C   UNL A   1      37.151  29.830  27.124  1.00  0.00     0.016 A 
ATOM     33  C   UNL A   1      37.753  28.577  30.513  1.00  0.00     0.010 A 
ATOM     34  C   UNL A   1      38.625  28.777  27.498  1.00  0.00     0.010 A 
ATOM     35  C   UNL A   1      38.928  28.203  29.200  1.00  0.00    -0.014 A 
BRANCH  35  36
ATOM     36  C   UNL A   1      40.364  28.035  29.428  1.00  0.00     0.031 A 
ATOM     37  C   UNL A   1      40.914  26.754  29.008  1.00  0.00     0.074 A 
ATOM     38  C   UNL A   1      41.152  29.114  29.652  1.00  0.00     0.049 A 
ATOM     39  N   UNL A   1      42.141  26.525  28.759  1.00  0.00    -0.248 NA
ATOM     40  C   UNL A   1      40.060  25.609  28.752  1.00  0.00     0.031 C 
ATOM     41  C   UNL A   1      42.599  29.265  29.484  1.00  0.00     0.029 A 
ATOM     42  N   UNL A   1      40.790  30.289  30.308  1.00  0.00    -0.354 N 
ATOM     43  C   UNL A   1      42.245  25.249  28.269  1.00  0.00     0.074 A 
ATOM     44  C   UNL A   1      40.903  24.756  28.163  1.00  0.00     0.031 C 
ATOM     45  C   UNL A   1      43.037  30.242  30.298  1.00  0.00     0.029 A 
ATOM     46  C   UNL A   1      41.902  30.697  31.074  1.00  0.00     0.049 A 
ATOM     47  H   UNL A   1      39.922  30.748  30.247  1.00  0.00     0.167 HD
ATOM     48  C   UNL A   1      43.499  24.787  28.048  1.00  0.00     0.037 A 
ATOM     49  C   UNL A   1      41.776  30.615  32.432  1.00  0.00     0.037 A 
ATOM     50  C   UNL A   1      44.406  25.541  28.923  1.00  0.00     0.049 A 
ATOM     51  C   UNL A   1      42.471  29.366  32.974  1.00  0.00     0.074 A 
ATOM     52  C   UNL A   1      45.198  26.666  28.791  1.00  0.00     0.029 A 
ATOM     53  N   UNL A   1      44.171  25.413  30.284  1.00  0.00    -0.354 N 
ATOM     54  N   UNL A   1      43.111  28.498  32.226  1.00  0.00    -0.248 NA
ATOM     55  C   UNL A   1      42.495  28.979  34.380  1.00  0.00     0.031 C 
ATOM     56  C   UNL A   1      45.337  27.254  30.099  1.00  0.00     0.029 A 
ATOM     57  C   UNL A   1      44.681  26.457  31.027  1.00  0.00     0.049 A 
ATOM     58  H   UNL A   1      43.689  24.651  30.682  1.00  0.00     0.167 HD
ATOM     59  C   UNL A   1      43.634  27.491  32.984  1.00  0.00     0.074 A 
ATOM     60  C   UNL A   1      43.166  27.812  34.329  1.00  0.00     0.031 C 
ATOM     61  C   UNL A   1      44.415  26.480  32.470  1.00  0.00     0.037 A 
BRANCH  48  62
ATOM     62  C   UNL A   1      43.897  23.715  27.075  1.00  0.00     0.064 A 
ATOM     63  C   UNL A   1      44.716  24.062  25.982  1.00  0.00     0.173 A 
ATOM     64  C   UNL A   1      43.390  22.397  27.042  1.00  0.00     0.173 A 
ATOM     65  F   UNL A   1      45.253  25.287  25.882  1.00  0.00    -0.203 F 
ATOM     66  C   UNL A   1      44.975  23.181  24.928  1.00  0.00     0.198 A 
ATOM     67  C   UNL A   1      43.674  21.507  26.001  1.00  0.00     0.198 A 
ATOM     68  F   UNL A   1      42.561  21.923  27.977  1.00  0.00    -0.203 F 
ATOM     69  F   UNL A   1      45.712  23.592  23.888  1.00  0.00    -0.200 F 
ATOM     70  C   UNL A   1      44.452  21.904  24.936  1.00  0.00     0.200 A 
ATOM     71  F   UNL A   1      43.152  20.271  26.024  1.00  0.00    -0.200 F 
ATOM     72  F   UNL A   1      44.680  21.068  23.915  1.00  0.00    -0.200 F 
ENDBRANCH  48  62
BRANCH  49  73
ATOM     73  C   UNL A   1      40.480  31.269  32.836  1.00  0.00     0.064 A 
ATOM     74  C   UNL A   1      40.297  32.602  32.378  1.00  0.00     0.173 A 
ATOM     75  C   UNL A   1      39.320  30.560  33.156  1.00  0.00     0.173 A 
ATOM     76  F   UNL A   1      41.369  33.365  32.109  1.00  0.00    -0.203 F 
ATOM     77  C   UNL A   1      39.043  33.091  32.013  1.00  0.00     0.198 A 
ATOM     78  C   UNL A   1      38.051  31.096  32.870  1.00  0.00     0.198 A 
ATOM     79  F   UNL A   1      39.397  29.295  33.596  1.00  0.00    -0.203 F 
ATOM     80  F   UNL A   1      38.946  34.260  31.361  1.00  0.00    -0.200 F 
ATOM     81  C   UNL A   1      37.920  32.321  32.230  1.00  0.00     0.200 A 
ATOM     82  F   UNL A   1      36.952  30.354  33.086  1.00  0.00    -0.200 F 
ATOM     83  F   UNL A   1      36.724  32.730  31.778  1.00  0.00    -0.200 F 
ENDBRANCH  49  73
BRANCH  61  84
ATOM     84  C   UNL A   1      44.985  25.377  33.338  1.00  0.00     0.064 A 
ATOM     85  C   UNL A   1      46.365  25.150  33.442  1.00  0.00     0.173 A 
ATOM     86  C   UNL A   1      44.174  24.462  34.054  1.00  0.00     0.173 A 
ATOM     87  F   UNL A   1      47.234  25.823  32.673  1.00  0.00    -0.203 F 
ATOM     88  C   UNL A   1      46.894  24.209  34.327  1.00  0.00     0.198 A 
ATOM     89  C   UNL A   1      44.701  23.466  34.868  1.00  0.00     0.198 A 
ATOM     90  F   UNL A   1      42.836  24.508  34.030  1.00  0.00    -0.203 F 
ATOM     91  F   UNL A   1      48.221  24.123  34.486  1.00  0.00    -0.200 F 
ATOM     92  C   UNL A   1      46.062  23.370  35.044  1.00  0.00     0.200 A 
ATOM     93  F   UNL A   1      43.873  22.621  35.499  1.00  0.00    -0.200 F 
ATOM     94  F   UNL A   1      46.568  22.471  35.898  1.00  0.00    -0.200 F 
ENDBRANCH  61  84
ENDBRANCH  35  36
ENDBRANCH  28  30
ENDBRANCH  27  28
ENDBRANCH  26  27
ENDBRANCH   1  26
TORSDOF 14
ENDMDL
