MODEL 1
REMARK VINA RESULT:     -12.6      0.000      0.000
REMARK SMILES NS(=O)(=O)c1ccc(NS(=O)(=O)c2cccc(C(=O)OCCOC(=O)c3ccc(-c4c5nc(c(-c6c(F)c(F)c(F)c(F)c6F)c6ccc([nH]6)c(-c6c(F)c(F)c(F)c(F)c6F)c6nc(c(-c7c(F)c(F)c(F)c(F)c7F)c7ccc4[nH]7)C=C6)C=C5)cc3)c2)cc1
REMARK SMILES IDX 20 1 18 2 19 3 17 4 13 5 14 6 89 7 15 8 16 9 10 10 11 11
REMARK SMILES IDX 12 12 9 13 8 15 5 16 6 17 91 18 7 19 90 20 2 21 3 22 4 23
REMARK SMILES IDX 1 24 21 27 22 28 23 29 24 30 25 31 26 32 27 33 88 34 28 35
REMARK SMILES IDX 87 36 29 37 30 38 31 39 81 40 32 41 86 42 80 43 82 44 33 45
REMARK SMILES IDX 85 46 79 47 78 48 34 50 66 51 46 52 65 53 47 54 50 55 64 56
REMARK SMILES IDX 83 57 48 58 49 59 63 61 84 62 51 63 35 64 36 65 44 66 37 67
REMARK SMILES IDX 38 68 42 69 45 70 39 71 40 72 43 73 41 74 67 75 68 76 76 77
REMARK SMILES IDX 69 78 70 79 74 80 77 81 71 82 72 83 75 84 73 85 52 86 53 87
REMARK SMILES IDX 61 88 54 89 55 90 59 91 62 92 56 93 57 94 60 95 58 96
REMARK H PARENT 9 14 1 25 1 26 82 49 50 60
REMARK Flexibility Score: inf
ROOT
ATOM      1  O   UNL A   1      31.800  29.989  25.461  1.00  0.00    -0.458 OA
ENDROOT
BRANCH   1   2
ATOM      2  C   UNL A   1      31.361  29.031  24.608  1.00  0.00     0.338 C 
ATOM      3  O   UNL A   1      30.400  29.120  23.860  1.00  0.00    -0.246 OA
BRANCH   2   4
ATOM      4  C   UNL A   1      32.274  27.854  24.591  1.00  0.00     0.061 A 
ATOM      5  C   UNL A   1      33.219  25.869  23.596  1.00  0.00     0.088 A 
ATOM      6  C   UNL A   1      34.003  25.647  24.737  1.00  0.00     0.022 A 
ATOM      7  C   UNL A   1      32.364  26.979  23.505  1.00  0.00     0.038 A 
ATOM      8  C   UNL A   1      33.907  26.516  25.816  1.00  0.00     0.002 A 
ATOM      9  C   UNL A   1      33.067  27.624  25.732  1.00  0.00     0.016 A 
BRANCH   5  10
ATOM     10  S   UNL A   1      33.336  24.717  22.255  1.00  0.00     0.261 S 
ATOM     11  O   UNL A   1      34.518  23.908  22.467  1.00  0.00    -0.201 OA
ATOM     12  O   UNL A   1      33.177  25.459  21.022  1.00  0.00    -0.201 OA
BRANCH  10  13
ATOM     13  N   UNL A   1      31.998  23.667  22.362  1.00  0.00    -0.280 N 
ATOM     14  H   UNL A   1      31.134  23.940  21.977  1.00  0.00     0.180 HD
BRANCH  13  15
ATOM     15  C   UNL A   1      32.111  22.388  23.009  1.00  0.00     0.049 A 
ATOM     16  C   UNL A   1      32.572  19.905  24.222  1.00  0.00     0.082 A 
ATOM     17  C   UNL A   1      32.245  19.967  22.869  1.00  0.00     0.024 A 
ATOM     18  C   UNL A   1      32.676  21.075  24.978  1.00  0.00     0.024 A 
ATOM     19  C   UNL A   1      32.068  21.209  22.263  1.00  0.00     0.028 A 
ATOM     20  C   UNL A   1      32.440  22.317  24.369  1.00  0.00     0.028 A 
BRANCH  16  21
ATOM     21  S   UNL A   1      32.871  18.319  24.945  1.00  0.00     0.238 S 
ATOM     22  O   UNL A   1      34.241  17.942  24.701  1.00  0.00    -0.207 OA
ATOM     23  O   UNL A   1      31.754  17.447  24.661  1.00  0.00    -0.207 OA
BRANCH  21  24
ATOM     24  N   UNL A   1      32.776  18.678  26.582  1.00  0.00    -0.225 NA
ATOM     25  H   UNL A   1      33.628  19.155  26.876  1.00  0.00     0.137 HD
ATOM     26  H   UNL A   1      32.669  17.815  27.115  1.00  0.00     0.137 HD
ENDBRANCH  21  24
ENDBRANCH  16  21
ENDBRANCH  13  15
ENDBRANCH  10  13
ENDBRANCH   5  10
ENDBRANCH   2   4
ENDBRANCH   1   2
BRANCH   1  27
ATOM     27  C   UNL A   1      30.996  31.186  25.542  1.00  0.00     0.275 C 
BRANCH  27  28
ATOM     28  C   UNL A   1      31.444  32.107  26.681  1.00  0.00     0.275 C 
BRANCH  28  29
ATOM     29  O   UNL A   1      32.738  31.726  27.189  1.00  0.00    -0.458 OA
BRANCH  29  30
ATOM     30  C   UNL A   1      33.520  32.755  27.576  1.00  0.00     0.338 C 
ATOM     31  O   UNL A   1      33.216  33.933  27.671  1.00  0.00    -0.246 OA
BRANCH  30  32
ATOM     32  C   UNL A   1      34.823  32.257  28.033  1.00  0.00     0.060 A 
ATOM     33  C   UNL A   1      34.854  30.963  28.538  1.00  0.00     0.016 A 
ATOM     34  C   UNL A   1      35.936  33.084  28.151  1.00  0.00     0.016 A 
ATOM     35  C   UNL A   1      35.958  30.507  29.246  1.00  0.00     0.010 A 
ATOM     36  C   UNL A   1      37.084  32.593  28.790  1.00  0.00     0.010 A 
ATOM     37  C   UNL A   1      37.096  31.312  29.376  1.00  0.00    -0.014 A 
BRANCH  37  38
ATOM     38  C   UNL A   1      38.265  30.820  30.160  1.00  0.00     0.031 A 
ATOM     39  C   UNL A   1      39.255  29.874  29.532  1.00  0.00     0.074 A 
ATOM     40  C   UNL A   1      38.461  31.241  31.426  1.00  0.00     0.049 A 
ATOM     41  N   UNL A   1      40.236  29.206  30.087  1.00  0.00    -0.248 NA
ATOM     42  C   UNL A   1      39.112  29.634  28.088  1.00  0.00     0.031 C 
ATOM     43  C   UNL A   1      37.618  32.202  32.139  1.00  0.00     0.029 A 
ATOM     44  N   UNL A   1      39.436  30.919  32.338  1.00  0.00    -0.354 N 
ATOM     45  C   UNL A   1      40.792  28.434  29.075  1.00  0.00     0.074 A 
ATOM     46  C   UNL A   1      40.027  28.700  27.875  1.00  0.00     0.031 C 
ATOM     47  C   UNL A   1      38.126  32.415  33.361  1.00  0.00     0.029 A 
ATOM     48  C   UNL A   1      39.271  31.534  33.557  1.00  0.00     0.049 A 
ATOM     49  H   UNL A   1      40.181  30.308  32.139  1.00  0.00     0.167 HD
ATOM     50  C   UNL A   1      41.846  27.584  29.143  1.00  0.00     0.037 A 
ATOM     51  C   UNL A   1      39.930  31.370  34.720  1.00  0.00     0.037 A 
ATOM     52  C   UNL A   1      42.631  27.363  30.332  1.00  0.00     0.049 A 
ATOM     53  C   UNL A   1      41.054  30.372  34.787  1.00  0.00     0.074 A 
ATOM     54  C   UNL A   1      43.729  26.538  30.500  1.00  0.00     0.029 A 
ATOM     55  N   UNL A   1      42.404  27.978  31.555  1.00  0.00    -0.354 N 
ATOM     56  N   UNL A   1      41.547  29.616  33.837  1.00  0.00    -0.248 NA
ATOM     57  C   UNL A   1      41.702  30.196  36.092  1.00  0.00     0.031 C 
ATOM     58  C   UNL A   1      44.129  26.606  31.839  1.00  0.00     0.029 A 
ATOM     59  C   UNL A   1      43.326  27.529  32.489  1.00  0.00     0.049 A 
ATOM     60  H   UNL A   1      41.694  28.636  31.733  1.00  0.00     0.167 HD
ATOM     61  C   UNL A   1      42.580  28.896  34.420  1.00  0.00     0.074 A 
ATOM     62  C   UNL A   1      42.653  29.319  35.804  1.00  0.00     0.031 C 
ATOM     63  C   UNL A   1      43.392  27.966  33.861  1.00  0.00     0.037 A 
BRANCH  50  64
ATOM     64  C   UNL A   1      42.190  26.793  27.910  1.00  0.00     0.064 A 
ATOM     65  C   UNL A   1      43.145  27.230  26.980  1.00  0.00     0.173 A 
ATOM     66  C   UNL A   1      41.570  25.555  27.673  1.00  0.00     0.173 A 
ATOM     67  F   UNL A   1      43.762  28.409  27.149  1.00  0.00    -0.203 F 
ATOM     68  C   UNL A   1      43.438  26.479  25.843  1.00  0.00     0.198 A 
ATOM     69  C   UNL A   1      41.892  24.789  26.557  1.00  0.00     0.198 A 
ATOM     70  F   UNL A   1      40.653  25.082  28.532  1.00  0.00    -0.203 F 
ATOM     71  F   UNL A   1      44.306  26.948  24.937  1.00  0.00    -0.200 F 
ATOM     72  C   UNL A   1      42.818  25.256  25.637  1.00  0.00     0.200 A 
ATOM     73  F   UNL A   1      41.302  23.600  26.368  1.00  0.00    -0.200 F 
ATOM     74  F   UNL A   1      43.104  24.532  24.545  1.00  0.00    -0.200 F 
ENDBRANCH  50  64
BRANCH  51  75
ATOM     75  C   UNL A   1      39.512  32.134  35.925  1.00  0.00     0.064 A 
ATOM     76  C   UNL A   1      38.491  31.665  36.763  1.00  0.00     0.173 A 
ATOM     77  C   UNL A   1      40.118  33.355  36.261  1.00  0.00     0.173 A 
ATOM     78  F   UNL A   1      37.862  30.516  36.473  1.00  0.00    -0.203 F 
ATOM     79  C   UNL A   1      38.082  32.394  37.878  1.00  0.00     0.198 A 
ATOM     80  C   UNL A   1      39.735  34.064  37.398  1.00  0.00     0.198 A 
ATOM     81  F   UNL A   1      41.100  33.853  35.495  1.00  0.00    -0.203 F 
ATOM     82  F   UNL A   1      37.068  31.947  38.632  1.00  0.00    -0.200 F 
ATOM     83  C   UNL A   1      38.709  33.588  38.200  1.00  0.00     0.200 A 
ATOM     84  F   UNL A   1      40.358  35.207  37.713  1.00  0.00    -0.200 F 
ATOM     85  F   UNL A   1      38.321  34.284  39.277  1.00  0.00    -0.200 F 
ENDBRANCH  51  75
BRANCH  63  86
ATOM     86  C   UNL A   1      44.466  27.380  34.733  1.00  0.00     0.064 A 
ATOM     87  C   UNL A   1      45.732  27.974  34.853  1.00  0.00     0.173 A 
ATOM     88  C   UNL A   1      44.212  26.222  35.485  1.00  0.00     0.173 A 
ATOM     89  F   UNL A   1      46.032  29.072  34.143  1.00  0.00    -0.203 F 
ATOM     90  C   UNL A   1      46.712  27.412  35.668  1.00  0.00     0.198 A 
ATOM     91  C   UNL A   1      45.181  25.685  36.326  1.00  0.00     0.198 A 
ATOM     92  F   UNL A   1      43.017  25.617  35.412  1.00  0.00    -0.203 F 
ATOM     93  F   UNL A   1      47.932  27.965  35.722  1.00  0.00    -0.200 F 
ATOM     94  C   UNL A   1      46.434  26.274  36.410  1.00  0.00     0.200 A 
ATOM     95  F   UNL A   1      44.905  24.595  37.056  1.00  0.00    -0.200 F 
ATOM     96  F   UNL A   1      47.376  25.741  37.200  1.00  0.00    -0.200 F 
ENDBRANCH  63  86
ENDBRANCH  37  38
ENDBRANCH  30  32
ENDBRANCH  29  30
ENDBRANCH  28  29
ENDBRANCH  27  28
ENDBRANCH   1  27
TORSDOF 16
ENDMDL
MODEL 2
REMARK VINA RESULT:     -12.5      1.158      2.175
REMARK SMILES NS(=O)(=O)c1ccc(NS(=O)(=O)c2cccc(C(=O)OCCOC(=O)c3ccc(-c4c5nc(c(-c6c(F)c(F)c(F)c(F)c6F)c6ccc([nH]6)c(-c6c(F)c(F)c(F)c(F)c6F)c6nc(c(-c7c(F)c(F)c(F)c(F)c7F)c7ccc4[nH]7)C=C6)C=C5)cc3)c2)cc1
REMARK SMILES IDX 20 1 18 2 19 3 17 4 13 5 14 6 89 7 15 8 16 9 10 10 11 11
REMARK SMILES IDX 12 12 9 13 8 15 5 16 6 17 91 18 7 19 90 20 2 21 3 22 4 23
REMARK SMILES IDX 1 24 21 27 22 28 23 29 24 30 25 31 26 32 27 33 88 34 28 35
REMARK SMILES IDX 87 36 29 37 30 38 31 39 81 40 32 41 86 42 80 43 82 44 33 45
REMARK SMILES IDX 85 46 79 47 78 48 34 50 66 51 46 52 65 53 47 54 50 55 64 56
REMARK SMILES IDX 83 57 48 58 49 59 63 61 84 62 51 63 35 64 36 65 44 66 37 67
REMARK SMILES IDX 38 68 42 69 45 70 39 71 40 72 43 73 41 74 67 75 68 76 76 77
REMARK SMILES IDX 69 78 70 79 74 80 77 81 71 82 72 83 75 84 73 85 52 86 53 87
REMARK SMILES IDX 61 88 54 89 55 90 59 91 62 92 56 93 57 94 60 95 58 96
REMARK H PARENT 9 14 1 25 1 26 82 49 50 60
REMARK Flexibility Score: inf
ROOT
ATOM      1  O   UNL A   1      31.346  28.085  25.205  1.00  0.00    -0.458 OA
ENDROOT
BRANCH   1   2
ATOM      2  C   UNL A   1      30.653  27.496  24.200  1.00  0.00     0.338 C 
ATOM      3  O   UNL A   1      29.491  27.720  23.898  1.00  0.00    -0.246 OA
BRANCH   2   4
ATOM      4  C   UNL A   1      31.522  26.592  23.395  1.00  0.00     0.061 A 
ATOM      5  C   UNL A   1      33.204  24.882  23.137  1.00  0.00     0.088 A 
ATOM      6  C   UNL A   1      33.137  24.998  21.741  1.00  0.00     0.022 A 
ATOM      7  C   UNL A   1      32.389  25.661  23.973  1.00  0.00     0.038 A 
ATOM      8  C   UNL A   1      32.278  25.928  21.171  1.00  0.00     0.002 A 
ATOM      9  C   UNL A   1      31.459  26.700  21.993  1.00  0.00     0.016 A 
BRANCH   5  10
ATOM     10  S   UNL A   1      34.343  23.715  23.832  1.00  0.00     0.261 S 
ATOM     11  O   UNL A   1      35.166  24.418  24.793  1.00  0.00    -0.201 OA
ATOM     12  O   UNL A   1      34.960  22.997  22.736  1.00  0.00    -0.201 OA
BRANCH  10  13
ATOM     13  N   UNL A   1      33.434  22.570  24.708  1.00  0.00    -0.280 N 
ATOM     14  H   UNL A   1      32.787  22.878  25.383  1.00  0.00     0.180 HD
BRANCH  13  15
ATOM     15  C   UNL A   1      33.597  21.161  24.476  1.00  0.00     0.049 A 
ATOM     16  C   UNL A   1      33.841  18.379  24.253  1.00  0.00     0.082 A 
ATOM     17  C   UNL A   1      34.932  19.140  24.666  1.00  0.00     0.024 A 
ATOM     18  C   UNL A   1      32.622  18.994  23.952  1.00  0.00     0.024 A 
ATOM     19  C   UNL A   1      34.787  20.517  24.823  1.00  0.00     0.028 A 
ATOM     20  C   UNL A   1      32.505  20.388  24.061  1.00  0.00     0.028 A 
BRANCH  16  21
ATOM     21  S   UNL A   1      34.031  16.624  24.141  1.00  0.00     0.238 S 
ATOM     22  O   UNL A   1      34.967  16.189  25.147  1.00  0.00    -0.207 OA
ATOM     23  O   UNL A   1      34.140  16.244  22.750  1.00  0.00    -0.207 OA
BRANCH  21  24
ATOM     24  N   UNL A   1      32.523  16.093  24.652  1.00  0.00    -0.225 NA
ATOM     25  H   UNL A   1      32.211  15.329  24.053  1.00  0.00     0.137 HD
ATOM     26  H   UNL A   1      31.855  16.861  24.598  1.00  0.00     0.137 HD
ENDBRANCH  21  24
ENDBRANCH  16  21
ENDBRANCH  13  15
ENDBRANCH  10  13
ENDBRANCH   5  10
ENDBRANCH   2   4
ENDBRANCH   1   2
BRANCH   1  27
ATOM     27  C   UNL A   1      32.100  29.265  24.851  1.00  0.00     0.275 C 
BRANCH  27  28
ATOM     28  C   UNL A   1      31.762  30.458  25.751  1.00  0.00     0.275 C 
BRANCH  28  29
ATOM     29  O   UNL A   1      32.527  30.430  26.972  1.00  0.00    -0.458 OA
BRANCH  29  30
ATOM     30  C   UNL A   1      33.186  31.573  27.255  1.00  0.00     0.338 C 
ATOM     31  O   UNL A   1      32.747  32.712  27.249  1.00  0.00    -0.246 OA
BRANCH  30  32
ATOM     32  C   UNL A   1      34.539  31.271  27.737  1.00  0.00     0.060 A 
ATOM     33  C   UNL A   1      34.790  29.957  28.112  1.00  0.00     0.016 A 
ATOM     34  C   UNL A   1      35.473  32.268  28.004  1.00  0.00     0.016 A 
ATOM     35  C   UNL A   1      35.930  29.633  28.835  1.00  0.00     0.010 A 
ATOM     36  C   UNL A   1      36.666  31.926  28.658  1.00  0.00     0.010 A 
ATOM     37  C   UNL A   1      36.892  30.612  29.113  1.00  0.00    -0.014 A 
BRANCH  37  38
ATOM     38  C   UNL A   1      38.099  30.256  29.913  1.00  0.00     0.031 A 
ATOM     39  C   UNL A   1      39.141  29.332  29.341  1.00  0.00     0.074 A 
ATOM     40  C   UNL A   1      38.282  30.784  31.140  1.00  0.00     0.049 A 
ATOM     41  N   UNL A   1      40.170  28.772  29.929  1.00  0.00    -0.248 NA
ATOM     42  C   UNL A   1      38.999  28.975  27.921  1.00  0.00     0.031 C 
ATOM     43  C   UNL A   1      37.385  31.738  31.794  1.00  0.00     0.029 A 
ATOM     44  N   UNL A   1      39.285  30.595  32.059  1.00  0.00    -0.354 N 
ATOM     45  C   UNL A   1      40.765  27.964  28.967  1.00  0.00     0.074 A 
ATOM     46  C   UNL A   1      39.971  28.089  27.764  1.00  0.00     0.031 C 
ATOM     47  C   UNL A   1      37.892  32.075  32.989  1.00  0.00     0.029 A 
ATOM     48  C   UNL A   1      39.094  31.286  33.231  1.00  0.00     0.049 A 
ATOM     49  H   UNL A   1      40.067  30.019  31.894  1.00  0.00     0.167 HD
ATOM     50  C   UNL A   1      41.873  27.191  29.081  1.00  0.00     0.037 A 
ATOM     51  C   UNL A   1      39.775  31.253  34.392  1.00  0.00     0.037 A 
ATOM     52  C   UNL A   1      42.683  27.111  30.271  1.00  0.00     0.049 A 
ATOM     53  C   UNL A   1      40.962  30.338  34.515  1.00  0.00     0.074 A 
ATOM     54  C   UNL A   1      43.835  26.373  30.482  1.00  0.00     0.029 A 
ATOM     55  N   UNL A   1      42.431  27.800  31.448  1.00  0.00    -0.354 N 
ATOM     56  N   UNL A   1      41.494  29.546  33.616  1.00  0.00    -0.248 NA
ATOM     57  C   UNL A   1      41.636  30.303  35.819  1.00  0.00     0.031 C 
ATOM     58  C   UNL A   1      44.244  26.568  31.806  1.00  0.00     0.029 A 
ATOM     59  C   UNL A   1      43.390  27.482  32.399  1.00  0.00     0.049 A 
ATOM     60  H   UNL A   1      41.681  28.422  31.589  1.00  0.00     0.167 HD
ATOM     61  C   UNL A   1      42.578  28.939  34.235  1.00  0.00     0.074 A 
ATOM     62  C   UNL A   1      42.638  29.469  35.581  1.00  0.00     0.031 C 
ATOM     63  C   UNL A   1      43.443  28.025  33.733  1.00  0.00     0.037 A 
BRANCH  50  64
ATOM     64  C   UNL A   1      42.254  26.333  27.905  1.00  0.00     0.064 A 
ATOM     65  C   UNL A   1      41.659  25.087  27.662  1.00  0.00     0.173 A 
ATOM     66  C   UNL A   1      43.215  26.788  26.986  1.00  0.00     0.173 A 
ATOM     67  F   UNL A   1      40.744  24.598  28.510  1.00  0.00    -0.203 F 
ATOM     68  C   UNL A   1      42.038  24.311  26.567  1.00  0.00     0.198 A 
ATOM     69  C   UNL A   1      43.564  26.028  25.873  1.00  0.00     0.198 A 
ATOM     70  F   UNL A   1      43.812  27.976  27.163  1.00  0.00    -0.203 F 
ATOM     71  F   UNL A   1      41.504  23.095  26.392  1.00  0.00    -0.200 F 
ATOM     72  C   UNL A   1      42.983  24.786  25.670  1.00  0.00     0.200 A 
ATOM     73  F   UNL A   1      44.466  26.496  25.000  1.00  0.00    -0.200 F 
ATOM     74  F   UNL A   1      43.343  24.041  24.615  1.00  0.00    -0.200 F 
ENDBRANCH  50  64
BRANCH  51  75
ATOM     75  C   UNL A   1      39.322  32.077  35.544  1.00  0.00     0.064 A 
ATOM     76  C   UNL A   1      39.759  33.399  35.706  1.00  0.00     0.173 A 
ATOM     77  C   UNL A   1      38.449  31.559  36.514  1.00  0.00     0.173 A 
ATOM     78  F   UNL A   1      40.613  33.935  34.822  1.00  0.00    -0.203 F 
ATOM     79  C   UNL A   1      39.355  34.163  36.800  1.00  0.00     0.198 A 
ATOM     80  C   UNL A   1      38.015  32.335  37.586  1.00  0.00     0.198 A 
ATOM     81  F   UNL A   1      37.999  30.299  36.410  1.00  0.00    -0.203 F 
ATOM     82  F   UNL A   1      39.829  35.406  36.958  1.00  0.00    -0.200 F 
ATOM     83  C   UNL A   1      38.477  33.634  37.734  1.00  0.00     0.200 A 
ATOM     84  F   UNL A   1      37.153  31.825  38.474  1.00  0.00    -0.200 F 
ATOM     85  F   UNL A   1      38.083  34.371  38.781  1.00  0.00    -0.200 F 
ENDBRANCH  51  75
BRANCH  63  86
ATOM     86  C   UNL A   1      44.563  27.576  34.629  1.00  0.00     0.064 A 
ATOM     87  C   UNL A   1      45.781  28.268  34.697  1.00  0.00     0.173 A 
ATOM     88  C   UNL A   1      44.399  26.453  35.455  1.00  0.00     0.173 A 
ATOM     89  F   UNL A   1      45.995  29.338  33.916  1.00  0.00    -0.203 F 
ATOM     90  C   UNL A   1      46.805  27.833  35.535  1.00  0.00     0.198 A 
ATOM     91  C   UNL A   1      45.411  26.044  36.318  1.00  0.00     0.198 A 
ATOM     92  F   UNL A   1      43.252  25.759  35.434  1.00  0.00    -0.203 F 
ATOM     93  F   UNL A   1      47.981  28.476  35.541  1.00  0.00    -0.200 F 
ATOM     94  C   UNL A   1      46.617  26.728  36.351  1.00  0.00     0.200 A 
ATOM     95  F   UNL A   1      45.220  24.986  37.119  1.00  0.00    -0.200 F 
ATOM     96  F   UNL A   1      47.600  26.317  37.163  1.00  0.00    -0.200 F 
ENDBRANCH  63  86
ENDBRANCH  37  38
ENDBRANCH  30  32
ENDBRANCH  29  30
ENDBRANCH  28  29
ENDBRANCH  27  28
ENDBRANCH   1  27
TORSDOF 16
ENDMDL
MODEL 3
REMARK VINA RESULT:     -12.4      4.546     10.419
REMARK SMILES NS(=O)(=O)c1ccc(NS(=O)(=O)c2cccc(C(=O)OCCOC(=O)c3ccc(-c4c5nc(c(-c6c(F)c(F)c(F)c(F)c6F)c6ccc([nH]6)c(-c6c(F)c(F)c(F)c(F)c6F)c6nc(c(-c7c(F)c(F)c(F)c(F)c7F)c7ccc4[nH]7)C=C6)C=C5)cc3)c2)cc1
REMARK SMILES IDX 20 1 18 2 19 3 17 4 13 5 14 6 89 7 15 8 16 9 10 10 11 11
REMARK SMILES IDX 12 12 9 13 8 15 5 16 6 17 91 18 7 19 90 20 2 21 3 22 4 23
REMARK SMILES IDX 1 24 21 27 22 28 23 29 24 30 25 31 26 32 27 33 88 34 28 35
REMARK SMILES IDX 87 36 29 37 30 38 31 39 81 40 32 41 86 42 80 43 82 44 33 45
REMARK SMILES IDX 85 46 79 47 78 48 34 50 66 51 46 52 65 53 47 54 50 55 64 56
REMARK SMILES IDX 83 57 48 58 49 59 63 61 84 62 51 63 35 64 36 65 44 66 37 67
REMARK SMILES IDX 38 68 42 69 45 70 39 71 40 72 43 73 41 74 67 75 68 76 76 77
REMARK SMILES IDX 69 78 70 79 74 80 77 81 71 82 72 83 75 84 73 85 52 86 53 87
REMARK SMILES IDX 61 88 54 89 55 90 59 91 62 92 56 93 57 94 60 95 58 96
REMARK H PARENT 9 14 1 25 1 26 82 49 50 60
REMARK Flexibility Score: inf
ROOT
ATOM      1  O   UNL A   1      35.574  20.755  25.600  1.00  0.00    -0.458 OA
ENDROOT
BRANCH   1   2
ATOM      2  C   UNL A   1      34.425  21.037  24.938  1.00  0.00     0.338 C 
ATOM      3  O   UNL A   1      33.611  20.223  24.530  1.00  0.00    -0.246 OA
BRANCH   2   4
ATOM      4  C   UNL A   1      34.189  22.506  24.855  1.00  0.00     0.061 A 
ATOM      5  C   UNL A   1      32.918  24.455  24.215  1.00  0.00     0.088 A 
ATOM      6  C   UNL A   1      33.917  25.297  24.723  1.00  0.00     0.022 A 
ATOM      7  C   UNL A   1      33.035  23.058  24.292  1.00  0.00     0.038 A 
ATOM      8  C   UNL A   1      35.064  24.745  25.277  1.00  0.00     0.002 A 
ATOM      9  C   UNL A   1      35.186  23.359  25.364  1.00  0.00     0.016 A 
BRANCH   5  10
ATOM     10  S   UNL A   1      31.487  25.194  23.477  1.00  0.00     0.261 S 
ATOM     11  O   UNL A   1      30.480  24.164  23.334  1.00  0.00    -0.201 OA
ATOM     12  O   UNL A   1      31.927  25.943  22.318  1.00  0.00    -0.201 OA
BRANCH  10  13
ATOM     13  N   UNL A   1      30.869  26.334  24.583  1.00  0.00    -0.280 N 
ATOM     14  H   UNL A   1      30.995  26.190  25.549  1.00  0.00     0.180 HD
BRANCH  13  15
ATOM     15  C   UNL A   1      30.167  27.502  24.126  1.00  0.00     0.049 A 
ATOM     16  C   UNL A   1      28.901  29.742  23.018  1.00  0.00     0.082 A 
ATOM     17  C   UNL A   1      30.140  29.882  23.638  1.00  0.00     0.024 A 
ATOM     18  C   UNL A   1      28.286  28.490  22.941  1.00  0.00     0.024 A 
ATOM     19  C   UNL A   1      30.786  28.754  24.141  1.00  0.00     0.028 A 
ATOM     20  C   UNL A   1      28.920  27.371  23.501  1.00  0.00     0.028 A 
BRANCH  16  21
ATOM     21  S   UNL A   1      28.142  31.178  22.317  1.00  0.00     0.238 S 
ATOM     22  O   UNL A   1      27.244  31.755  23.286  1.00  0.00    -0.207 OA
ATOM     23  O   UNL A   1      27.750  30.894  20.955  1.00  0.00    -0.207 OA
BRANCH  21  24
ATOM     24  N   UNL A   1      29.448  32.227  22.216  1.00  0.00    -0.225 NA
ATOM     25  H   UNL A   1      30.081  31.913  21.480  1.00  0.00     0.137 HD
ATOM     26  H   UNL A   1      29.944  32.242  23.107  1.00  0.00     0.137 HD
ENDBRANCH  21  24
ENDBRANCH  16  21
ENDBRANCH  13  15
ENDBRANCH  10  13
ENDBRANCH   5  10
ENDBRANCH   2   4
ENDBRANCH   1   2
BRANCH   1  27
ATOM     27  C   UNL A   1      36.442  19.781  24.981  1.00  0.00     0.275 C 
BRANCH  27  28
ATOM     28  C   UNL A   1      37.831  20.352  24.679  1.00  0.00     0.275 C 
BRANCH  28  29
ATOM     29  O   UNL A   1      38.201  21.367  25.634  1.00  0.00    -0.458 OA
BRANCH  29  30
ATOM     30  C   UNL A   1      39.351  21.127  26.298  1.00  0.00     0.338 C 
ATOM     31  O   UNL A   1      39.983  20.084  26.349  1.00  0.00    -0.246 OA
BRANCH  30  32
ATOM     32  C   UNL A   1      39.869  22.372  26.879  1.00  0.00     0.060 A 
ATOM     33  C   UNL A   1      39.432  23.559  26.304  1.00  0.00     0.016 A 
ATOM     34  C   UNL A   1      40.895  22.383  27.819  1.00  0.00     0.016 A 
ATOM     35  C   UNL A   1      40.070  24.759  26.588  1.00  0.00     0.010 A 
ATOM     36  C   UNL A   1      41.482  23.607  28.172  1.00  0.00     0.010 A 
ATOM     37  C   UNL A   1      41.101  24.805  27.534  1.00  0.00    -0.014 A 
BRANCH  37  38
ATOM     38  C   UNL A   1      41.794  26.095  27.811  1.00  0.00     0.031 A 
ATOM     39  C   UNL A   1      41.107  27.167  28.616  1.00  0.00     0.074 A 
ATOM     40  C   UNL A   1      43.051  26.301  27.370  1.00  0.00     0.049 A 
ATOM     41  N   UNL A   1      41.466  28.409  28.826  1.00  0.00    -0.248 NA
ATOM     42  C   UNL A   1      39.836  26.797  29.258  1.00  0.00     0.031 C 
ATOM     43  C   UNL A   1      43.859  25.329  26.631  1.00  0.00     0.029 A 
ATOM     44  N   UNL A   1      43.874  27.394  27.482  1.00  0.00    -0.354 N 
ATOM     45  C   UNL A   1      40.446  28.978  29.579  1.00  0.00     0.074 A 
ATOM     46  C   UNL A   1      39.444  27.952  29.772  1.00  0.00     0.031 C 
ATOM     47  C   UNL A   1      45.067  25.854  26.384  1.00  0.00     0.029 A 
ATOM     48  C   UNL A   1      45.088  27.234  26.855  1.00  0.00     0.049 A 
ATOM     49  H   UNL A   1      43.620  28.214  27.963  1.00  0.00     0.167 HD
ATOM     50  C   UNL A   1      40.358  30.241  30.065  1.00  0.00     0.037 A 
ATOM     51  C   UNL A   1      46.086  28.110  26.636  1.00  0.00     0.037 A 
ATOM     52  C   UNL A   1      41.384  31.241  29.906  1.00  0.00     0.049 A 
ATOM     53  C   UNL A   1      45.936  29.524  27.128  1.00  0.00     0.074 A 
ATOM     54  C   UNL A   1      41.401  32.543  30.377  1.00  0.00     0.029 A 
ATOM     55  N   UNL A   1      42.581  31.047  29.232  1.00  0.00    -0.354 N 
ATOM     56  N   UNL A   1      44.952  30.066  27.803  1.00  0.00    -0.248 NA
ATOM     57  C   UNL A   1      47.031  30.451  26.814  1.00  0.00     0.031 C 
ATOM     58  C   UNL A   1      42.579  33.155  29.934  1.00  0.00     0.029 A 
ATOM     59  C   UNL A   1      43.331  32.214  29.250  1.00  0.00     0.049 A 
ATOM     60  H   UNL A   1      42.858  30.205  28.804  1.00  0.00     0.167 HD
ATOM     61  C   UNL A   1      45.319  31.387  28.018  1.00  0.00     0.074 A 
ATOM     62  C   UNL A   1      46.625  31.559  27.417  1.00  0.00     0.031 C 
ATOM     63  C   UNL A   1      44.634  32.368  28.655  1.00  0.00     0.037 A 
BRANCH  50  64
ATOM     64  C   UNL A   1      39.092  30.632  30.778  1.00  0.00     0.064 A 
ATOM     65  C   UNL A   1      37.977  31.146  30.099  1.00  0.00     0.173 A 
ATOM     66  C   UNL A   1      38.985  30.459  32.168  1.00  0.00     0.173 A 
ATOM     67  F   UNL A   1      38.025  31.343  28.773  1.00  0.00    -0.203 F 
ATOM     68  C   UNL A   1      36.820  31.506  30.787  1.00  0.00     0.198 A 
ATOM     69  C   UNL A   1      37.815  30.784  32.847  1.00  0.00     0.198 A 
ATOM     70  F   UNL A   1      40.017  29.965  32.869  1.00  0.00    -0.203 F 
ATOM     71  F   UNL A   1      35.792  32.055  30.126  1.00  0.00    -0.200 F 
ATOM     72  C   UNL A   1      36.737  31.317  32.158  1.00  0.00     0.200 A 
ATOM     73  F   UNL A   1      37.732  30.585  34.170  1.00  0.00    -0.200 F 
ATOM     74  F   UNL A   1      35.621  31.660  32.818  1.00  0.00    -0.200 F 
ENDBRANCH  50  64
BRANCH  51  75
ATOM     75  C   UNL A   1      47.292  27.689  25.874  1.00  0.00     0.064 A 
ATOM     76  C   UNL A   1      48.447  27.246  26.534  1.00  0.00     0.173 A 
ATOM     77  C   UNL A   1      47.320  27.728  24.472  1.00  0.00     0.173 A 
ATOM     78  F   UNL A   1      48.481  27.213  27.874  1.00  0.00    -0.203 F 
ATOM     79  C   UNL A   1      49.586  26.876  25.822  1.00  0.00     0.198 A 
ATOM     80  C   UNL A   1      48.446  27.321  23.759  1.00  0.00     0.198 A 
ATOM     81  F   UNL A   1      46.243  28.144  23.788  1.00  0.00    -0.203 F 
ATOM     82  F   UNL A   1      50.694  26.507  26.479  1.00  0.00    -0.200 F 
ATOM     83  C   UNL A   1      49.582  26.906  24.435  1.00  0.00     0.200 A 
ATOM     84  F   UNL A   1      48.429  27.335  22.420  1.00  0.00    -0.200 F 
ATOM     85  F   UNL A   1      50.675  26.542  23.751  1.00  0.00    -0.200 F 
ENDBRANCH  51  75
BRANCH  63  86
ATOM     86  C   UNL A   1      45.309  33.705  28.780  1.00  0.00     0.064 A 
ATOM     87  C   UNL A   1      45.120  34.723  27.833  1.00  0.00     0.173 A 
ATOM     88  C   UNL A   1      46.132  33.981  29.883  1.00  0.00     0.173 A 
ATOM     89  F   UNL A   1      44.356  34.505  26.751  1.00  0.00    -0.203 F 
ATOM     90  C   UNL A   1      45.755  35.954  27.970  1.00  0.00     0.198 A 
ATOM     91  C   UNL A   1      46.736  35.225  30.035  1.00  0.00     0.198 A 
ATOM     92  F   UNL A   1      46.341  33.045  30.821  1.00  0.00    -0.203 F 
ATOM     93  F   UNL A   1      45.606  36.891  27.023  1.00  0.00    -0.200 F 
ATOM     94  C   UNL A   1      46.555  36.208  29.074  1.00  0.00     0.200 A 
ATOM     95  F   UNL A   1      47.494  35.474  31.112  1.00  0.00    -0.200 F 
ATOM     96  F   UNL A   1      47.159  37.397  29.207  1.00  0.00    -0.200 F 
ENDBRANCH  63  86
ENDBRANCH  37  38
ENDBRANCH  30  32
ENDBRANCH  29  30
ENDBRANCH  28  29
ENDBRANCH  27  28
ENDBRANCH   1  27
TORSDOF 16
ENDMDL
