MODEL 1
REMARK VINA RESULT:     -12.5      0.000      0.000
REMARK SMILES Cc1cc2cc(-c3ccc([C@@H](C)C(=O)OCCOC(=O)c4ccc(-c5c6nc(c(-c7c(F)c(F)c(F)c(F)c7F)c7ccc([nH]7)c(-c7c(F)c(F)c(F)c(F)c7F)c7nc(c(-c8c(F)c(F)c(F)c(F)c8F)c8ccc5[nH]8)C=C7)C=C6)cc4)cc3)ccc2[nH]1
REMARK SMILES IDX 16 1 15 2 13 3 14 4 11 5 12 6 10 7 7 8 8 9 85 10 9 11 84 12
REMARK SMILES IDX 6 13 1 14 2 15 3 16 89 17 4 18 88 19 5 21 87 22 86 23 17 24
REMARK SMILES IDX 18 25 19 26 20 27 21 28 22 29 83 30 23 31 82 32 24 33 25 34
REMARK SMILES IDX 26 35 76 36 27 37 81 38 75 39 77 40 28 41 80 42 74 43 73 44
REMARK SMILES IDX 29 46 61 47 41 48 60 49 42 50 45 51 59 52 78 53 43 54 44 55
REMARK SMILES IDX 58 57 79 58 46 59 30 60 31 61 39 62 32 63 33 64 37 65 40 66
REMARK SMILES IDX 34 67 35 68 38 69 36 70 62 71 63 72 71 73 64 74 65 75 69 76
REMARK SMILES IDX 72 77 66 78 67 79 70 80 68 81 47 82 48 83 56 84 49 85 50 86
REMARK SMILES IDX 54 87 57 88 51 89 52 90 55 91 53 92
REMARK H PARENT 89 20 77 45 45 56
REMARK Flexibility Score: inf
ROOT
ATOM      1  C   UNL A   1      31.022  30.909  25.487  1.00  0.00     0.274 C 
ENDROOT
BRANCH   1   2
ATOM      2  O   UNL A   1      31.800  29.699  25.559  1.00  0.00    -0.462 OA
BRANCH   2   3
ATOM      3  C   UNL A   1      31.861  28.937  24.436  1.00  0.00     0.313 C 
ATOM      4  O   UNL A   1      30.889  28.639  23.748  1.00  0.00    -0.252 OA
BRANCH   3   5
ATOM      5  C   UNL A   1      33.262  28.425  24.122  1.00  0.00     0.126 C 
ATOM      6  C   UNL A   1      33.715  28.953  22.761  1.00  0.00     0.025 C 
BRANCH   5   7
ATOM      7  C   UNL A   1      33.463  26.924  24.260  1.00  0.00    -0.034 A 
ATOM      8  C   UNL A   1      33.928  24.138  24.550  1.00  0.00    -0.018 A 
ATOM      9  C   UNL A   1      33.750  24.718  23.284  1.00  0.00     0.009 A 
ATOM     10  C   UNL A   1      33.837  24.969  25.673  1.00  0.00     0.009 A 
ATOM     11  C   UNL A   1      33.526  26.088  23.140  1.00  0.00     0.005 A 
ATOM     12  C   UNL A   1      33.613  26.344  25.530  1.00  0.00     0.005 A 
BRANCH   8  13
ATOM     13  C   UNL A   1      34.254  22.709  24.668  1.00  0.00    -0.018 A 
ATOM     14  C   UNL A   1      33.268  16.667  24.587  1.00  0.00     0.064 C 
ATOM     15  C   UNL A   1      33.569  18.118  24.602  1.00  0.00     0.013 A 
ATOM     16  C   UNL A   1      32.784  19.199  24.263  1.00  0.00     0.031 A 
ATOM     17  N   UNL A   1      34.790  18.608  25.000  1.00  0.00    -0.359 N 
ATOM     18  C   UNL A   1      33.546  20.377  24.482  1.00  0.00     0.000 A 
ATOM     19  C   UNL A   1      34.800  19.984  24.940  1.00  0.00     0.046 A 
ATOM     20  H   UNL A   1      35.551  18.053  25.287  1.00  0.00     0.166 HD
ATOM     21  C   UNL A   1      33.278  21.749  24.338  1.00  0.00     0.019 A 
ATOM     22  C   UNL A   1      35.806  20.904  25.257  1.00  0.00     0.027 A 
ATOM     23  C   UNL A   1      35.509  22.268  25.113  1.00  0.00     0.011 A 
ENDBRANCH   8  13
ENDBRANCH   5   7
ENDBRANCH   3   5
ENDBRANCH   2   3
ENDBRANCH   1   2
BRANCH   1  24
ATOM     24  C   UNL A   1      31.446  31.904  26.568  1.00  0.00     0.275 C 
BRANCH  24  25
ATOM     25  O   UNL A   1      32.678  31.495  27.189  1.00  0.00    -0.458 OA
BRANCH  25  26
ATOM     26  C   UNL A   1      33.486  32.506  27.583  1.00  0.00     0.338 C 
ATOM     27  O   UNL A   1      33.230  33.695  27.622  1.00  0.00    -0.246 OA
BRANCH  26  28
ATOM     28  C   UNL A   1      34.752  31.952  28.083  1.00  0.00     0.060 A 
ATOM     29  C   UNL A   1      34.787  30.599  28.421  1.00  0.00     0.016 A 
ATOM     30  C   UNL A   1      35.855  32.773  28.313  1.00  0.00     0.016 A 
ATOM     31  C   UNL A   1      35.921  30.058  29.018  1.00  0.00     0.010 A 
ATOM     32  C   UNL A   1      36.998  32.228  28.906  1.00  0.00     0.010 A 
ATOM     33  C   UNL A   1      37.029  30.873  29.280  1.00  0.00    -0.014 A 
BRANCH  33  34
ATOM     34  C   UNL A   1      38.185  30.312  30.017  1.00  0.00     0.031 A 
ATOM     35  C   UNL A   1      38.425  30.718  31.443  1.00  0.00     0.074 A 
ATOM     36  C   UNL A   1      38.993  29.417  29.422  1.00  0.00     0.049 A 
ATOM     37  N   UNL A   1      39.401  30.382  32.247  1.00  0.00    -0.248 NA
ATOM     38  C   UNL A   1      37.433  31.623  32.043  1.00  0.00     0.031 C 
ATOM     39  C   UNL A   1      38.834  28.917  28.057  1.00  0.00     0.029 A 
ATOM     40  N   UNL A   1      40.106  28.769  29.893  1.00  0.00    -0.354 N 
ATOM     41  C   UNL A   1      39.153  31.047  33.440  1.00  0.00     0.074 A 
ATOM     42  C   UNL A   1      37.942  31.818  33.251  1.00  0.00     0.031 C 
ATOM     43  C   UNL A   1      39.814  28.036  27.800  1.00  0.00     0.029 A 
ATOM     44  C   UNL A   1      40.687  27.939  28.967  1.00  0.00     0.049 A 
ATOM     45  H   UNL A   1      40.454  28.888  30.805  1.00  0.00     0.167 HD
ATOM     46  C   UNL A   1      39.869  31.014  34.589  1.00  0.00     0.037 A 
ATOM     47  C   UNL A   1      41.809  27.199  29.049  1.00  0.00     0.037 A 
ATOM     48  C   UNL A   1      41.064  30.233  34.779  1.00  0.00     0.049 A 
ATOM     49  C   UNL A   1      42.604  27.205  30.326  1.00  0.00     0.074 A 
ATOM     50  C   UNL A   1      41.860  30.131  35.907  1.00  0.00     0.029 A 
ATOM     51  N   UNL A   1      41.633  29.416  33.813  1.00  0.00    -0.354 N 
ATOM     52  N   UNL A   1      42.368  27.843  31.446  1.00  0.00    -0.248 NA
ATOM     53  C   UNL A   1      43.825  26.386  30.349  1.00  0.00     0.031 C 
ATOM     54  C   UNL A   1      42.928  29.276  35.614  1.00  0.00     0.029 A 
ATOM     55  C   UNL A   1      42.775  28.814  34.316  1.00  0.00     0.049 A 
ATOM     56  H   UNL A   1      41.276  29.283  32.905  1.00  0.00     0.167 HD
ATOM     57  C   UNL A   1      43.393  27.491  32.311  1.00  0.00     0.074 A 
ATOM     58  C   UNL A   1      44.249  26.570  31.591  1.00  0.00     0.031 C 
ATOM     59  C   UNL A   1      43.609  27.895  33.586  1.00  0.00     0.037 A 
BRANCH  46  60
ATOM     60  C   UNL A   1      39.392  31.869  35.724  1.00  0.00     0.064 A 
ATOM     61  C   UNL A   1      38.418  31.419  36.626  1.00  0.00     0.173 A 
ATOM     62  C   UNL A   1      39.938  33.146  35.925  1.00  0.00     0.173 A 
ATOM     63  F   UNL A   1      37.855  30.212  36.465  1.00  0.00    -0.203 F 
ATOM     64  C   UNL A   1      37.991  32.226  37.678  1.00  0.00     0.198 A 
ATOM     65  C   UNL A   1      39.527  33.940  36.991  1.00  0.00     0.198 A 
ATOM     66  F   UNL A   1      40.875  33.621  35.090  1.00  0.00    -0.203 F 
ATOM     67  F   UNL A   1      37.031  31.793  38.506  1.00  0.00    -0.200 F 
ATOM     68  C   UNL A   1      38.550  33.483  37.864  1.00  0.00     0.200 A 
ATOM     69  F   UNL A   1      40.072  35.151  37.174  1.00  0.00    -0.200 F 
ATOM     70  F   UNL A   1      38.141  34.256  38.879  1.00  0.00    -0.200 F 
ENDBRANCH  46  60
BRANCH  47  71
ATOM     71  C   UNL A   1      42.250  26.396  27.881  1.00  0.00     0.064 A 
ATOM     72  C   UNL A   1      41.747  25.106  27.661  1.00  0.00     0.173 A 
ATOM     73  C   UNL A   1      43.183  26.901  26.965  1.00  0.00     0.173 A 
ATOM     74  F   UNL A   1      40.871  24.573  28.525  1.00  0.00    -0.203 F 
ATOM     75  C   UNL A   1      42.172  24.347  26.572  1.00  0.00     0.198 A 
ATOM     76  C   UNL A   1      43.589  26.149  25.863  1.00  0.00     0.198 A 
ATOM     77  F   UNL A   1      43.696  28.128  27.134  1.00  0.00    -0.203 F 
ATOM     78  F   UNL A   1      41.707  23.101  26.406  1.00  0.00    -0.200 F 
ATOM     79  C   UNL A   1      43.088  24.871  25.672  1.00  0.00     0.200 A 
ATOM     80  F   UNL A   1      44.467  26.662  24.992  1.00  0.00    -0.200 F 
ATOM     81  F   UNL A   1      43.493  24.140  24.625  1.00  0.00    -0.200 F 
ENDBRANCH  47  71
BRANCH  59  82
ATOM     82  C   UNL A   1      44.800  27.320  34.293  1.00  0.00     0.064 A 
ATOM     83  C   UNL A   1      46.043  27.969  34.282  1.00  0.00     0.173 A 
ATOM     84  C   UNL A   1      44.688  26.121  35.014  1.00  0.00     0.173 A 
ATOM     85  F   UNL A   1      46.203  29.110  33.594  1.00  0.00    -0.203 F 
ATOM     86  C   UNL A   1      47.138  27.426  34.949  1.00  0.00     0.198 A 
ATOM     87  C   UNL A   1      45.778  25.595  35.699  1.00  0.00     0.198 A 
ATOM     88  F   UNL A   1      43.517  25.466  35.057  1.00  0.00    -0.203 F 
ATOM     89  F   UNL A   1      48.328  28.041  34.891  1.00  0.00    -0.200 F 
ATOM     90  C   UNL A   1      47.003  26.243  35.661  1.00  0.00     0.200 A 
ATOM     91  F   UNL A   1      45.644  24.455  36.393  1.00  0.00    -0.200 F 
ATOM     92  F   UNL A   1      48.058  25.723  36.304  1.00  0.00    -0.200 F 
ENDBRANCH  59  82
ENDBRANCH  33  34
ENDBRANCH  26  28
ENDBRANCH  25  26
ENDBRANCH  24  25
ENDBRANCH   1  24
TORSDOF 13
ENDMDL
MODEL 2
REMARK VINA RESULT:     -12.5      4.973     10.472
REMARK SMILES Cc1cc2cc(-c3ccc([C@@H](C)C(=O)OCCOC(=O)c4ccc(-c5c6nc(c(-c7c(F)c(F)c(F)c(F)c7F)c7ccc([nH]7)c(-c7c(F)c(F)c(F)c(F)c7F)c7nc(c(-c8c(F)c(F)c(F)c(F)c8F)c8ccc5[nH]8)C=C7)C=C6)cc4)cc3)ccc2[nH]1
REMARK SMILES IDX 16 1 15 2 13 3 14 4 11 5 12 6 10 7 7 8 8 9 85 10 9 11 84 12
REMARK SMILES IDX 6 13 1 14 2 15 3 16 89 17 4 18 88 19 5 21 87 22 86 23 17 24
REMARK SMILES IDX 18 25 19 26 20 27 21 28 22 29 83 30 23 31 82 32 24 33 25 34
REMARK SMILES IDX 26 35 76 36 27 37 81 38 75 39 77 40 28 41 80 42 74 43 73 44
REMARK SMILES IDX 29 46 61 47 41 48 60 49 42 50 45 51 59 52 78 53 43 54 44 55
REMARK SMILES IDX 58 57 79 58 46 59 30 60 31 61 39 62 32 63 33 64 37 65 40 66
REMARK SMILES IDX 34 67 35 68 38 69 36 70 62 71 63 72 71 73 64 74 65 75 69 76
REMARK SMILES IDX 72 77 66 78 67 79 70 80 68 81 47 82 48 83 56 84 49 85 50 86
REMARK SMILES IDX 54 87 57 88 51 89 52 90 55 91 53 92
REMARK H PARENT 89 20 77 45 45 56
REMARK Flexibility Score: inf
ROOT
ATOM      1  C   UNL A   1      37.482  20.451  24.899  1.00  0.00     0.274 C 
ENDROOT
BRANCH   1   2
ATOM      2  O   UNL A   1      36.837  21.393  25.776  1.00  0.00    -0.462 OA
BRANCH   2   3
ATOM      3  C   UNL A   1      35.512  21.615  25.576  1.00  0.00     0.313 C 
ATOM      4  O   UNL A   1      34.884  21.221  24.597  1.00  0.00    -0.252 OA
BRANCH   3   5
ATOM      5  C   UNL A   1      34.864  22.460  26.666  1.00  0.00     0.126 C 
ATOM      6  C   UNL A   1      34.027  21.570  27.585  1.00  0.00     0.025 C 
BRANCH   5   7
ATOM      7  C   UNL A   1      34.098  23.683  26.187  1.00  0.00    -0.034 A 
ATOM      8  C   UNL A   1      32.723  26.021  25.346  1.00  0.00    -0.018 A 
ATOM      9  C   UNL A   1      32.083  25.040  26.119  1.00  0.00     0.009 A 
ATOM     10  C   UNL A   1      34.054  25.799  24.972  1.00  0.00     0.009 A 
ATOM     11  C   UNL A   1      32.759  23.892  26.537  1.00  0.00     0.005 A 
ATOM     12  C   UNL A   1      34.733  24.649  25.390  1.00  0.00     0.005 A 
BRANCH   8  13
ATOM     13  C   UNL A   1      32.017  27.263  24.998  1.00  0.00    -0.018 A 
ATOM     14  C   UNL A   1      28.029  30.854  22.050  1.00  0.00     0.064 C 
ATOM     15  C   UNL A   1      28.999  30.029  22.809  1.00  0.00     0.013 A 
ATOM     16  C   UNL A   1      29.217  28.668  22.801  1.00  0.00     0.031 A 
ATOM     17  N   UNL A   1      29.889  30.580  23.699  1.00  0.00    -0.359 N 
ATOM     18  C   UNL A   1      30.283  28.392  23.696  1.00  0.00     0.000 A 
ATOM     19  C   UNL A   1      30.687  29.602  24.250  1.00  0.00     0.046 A 
ATOM     20  H   UNL A   1      29.949  31.539  23.913  1.00  0.00     0.166 HD
ATOM     21  C   UNL A   1      30.949  27.215  24.081  1.00  0.00     0.019 A 
ATOM     22  C   UNL A   1      31.729  29.691  25.181  1.00  0.00     0.027 A 
ATOM     23  C   UNL A   1      32.382  28.503  25.542  1.00  0.00     0.011 A 
ENDBRANCH   8  13
ENDBRANCH   5   7
ENDBRANCH   3   5
ENDBRANCH   2   3
ENDBRANCH   1   2
BRANCH   1  24
ATOM     24  C   UNL A   1      38.615  19.714  25.615  1.00  0.00     0.275 C 
BRANCH  24  25
ATOM     25  O   UNL A   1      39.795  20.535  25.692  1.00  0.00    -0.458 OA
BRANCH  25  26
ATOM     26  C   UNL A   1      40.408  20.548  26.896  1.00  0.00     0.338 C 
ATOM     27  O   UNL A   1      40.745  19.595  27.574  1.00  0.00    -0.246 OA
BRANCH  26  28
ATOM     28  C   UNL A   1      40.728  21.933  27.266  1.00  0.00     0.060 A 
ATOM     29  C   UNL A   1      40.145  22.961  26.524  1.00  0.00     0.016 A 
ATOM     30  C   UNL A   1      41.667  22.215  28.258  1.00  0.00     0.016 A 
ATOM     31  C   UNL A   1      40.515  24.283  26.750  1.00  0.00     0.010 A 
ATOM     32  C   UNL A   1      42.033  23.544  28.492  1.00  0.00     0.010 A 
ATOM     33  C   UNL A   1      41.475  24.582  27.725  1.00  0.00    -0.014 A 
BRANCH  33  34
ATOM     34  C   UNL A   1      41.942  25.979  27.879  1.00  0.00     0.031 A 
ATOM     35  C   UNL A   1      43.262  26.390  27.291  1.00  0.00     0.074 A 
ATOM     36  C   UNL A   1      41.170  26.881  28.510  1.00  0.00     0.049 A 
ATOM     37  N   UNL A   1      43.872  27.546  27.354  1.00  0.00    -0.248 NA
ATOM     38  C   UNL A   1      43.990  25.363  26.531  1.00  0.00     0.031 C 
ATOM     39  C   UNL A   1      39.854  26.608  29.083  1.00  0.00     0.029 A 
ATOM     40  N   UNL A   1      41.384  28.211  28.771  1.00  0.00    -0.354 N 
ATOM     41  C   UNL A   1      45.063  27.381  26.660  1.00  0.00     0.074 A 
ATOM     42  C   UNL A   1      45.097  26.010  26.196  1.00  0.00     0.031 C 
ATOM     43  C   UNL A   1      39.373  27.737  29.629  1.00  0.00     0.029 A 
ATOM     44  C   UNL A   1      40.363  28.801  29.474  1.00  0.00     0.049 A 
ATOM     45  H   UNL A   1      42.191  28.694  28.483  1.00  0.00     0.167 HD
ATOM     46  C   UNL A   1      46.038  28.293  26.429  1.00  0.00     0.037 A 
ATOM     47  C   UNL A   1      40.251  30.054  29.953  1.00  0.00     0.037 A 
ATOM     48  C   UNL A   1      45.994  29.660  26.877  1.00  0.00     0.049 A 
ATOM     49  C   UNL A   1      41.363  31.038  29.710  1.00  0.00     0.074 A 
ATOM     50  C   UNL A   1      46.932  30.662  26.691  1.00  0.00     0.029 A 
ATOM     51  N   UNL A   1      44.950  30.219  27.601  1.00  0.00    -0.354 N 
ATOM     52  N   UNL A   1      42.489  30.872  29.061  1.00  0.00    -0.248 NA
ATOM     53  C   UNL A   1      41.186  32.387  30.269  1.00  0.00     0.031 C 
ATOM     54  C   UNL A   1      46.469  31.818  27.329  1.00  0.00     0.029 A 
ATOM     55  C   UNL A   1      45.226  31.548  27.878  1.00  0.00     0.049 A 
ATOM     56  H   UNL A   1      44.135  29.741  27.876  1.00  0.00     0.167 HD
ATOM     57  C   UNL A   1      43.145  32.093  29.114  1.00  0.00     0.074 A 
ATOM     58  C   UNL A   1      42.284  32.998  29.848  1.00  0.00     0.031 C 
ATOM     59  C   UNL A   1      44.353  32.434  28.604  1.00  0.00     0.037 A 
BRANCH  46  60
ATOM     60  C   UNL A   1      47.249  27.831  25.677  1.00  0.00     0.064 A 
ATOM     61  C   UNL A   1      47.289  27.827  24.276  1.00  0.00     0.173 A 
ATOM     62  C   UNL A   1      48.395  27.412  26.370  1.00  0.00     0.173 A 
ATOM     63  F   UNL A   1      46.212  28.203  23.569  1.00  0.00    -0.203 F 
ATOM     64  C   UNL A   1      48.426  27.400  23.594  1.00  0.00     0.198 A 
ATOM     65  C   UNL A   1      49.538  27.009  25.686  1.00  0.00     0.198 A 
ATOM     66  F   UNL A   1      48.407  27.400  27.712  1.00  0.00    -0.203 F 
ATOM     67  F   UNL A   1      48.430  27.366  22.254  1.00  0.00    -0.200 F 
ATOM     68  C   UNL A   1      49.551  26.997  24.299  1.00  0.00     0.200 A 
ATOM     69  F   UNL A   1      50.627  26.626  26.368  1.00  0.00    -0.200 F 
ATOM     70  F   UNL A   1      50.646  26.591  23.641  1.00  0.00    -0.200 F 
ENDBRANCH  46  60
BRANCH  47  71
ATOM     71  C   UNL A   1      39.041  30.445  30.719  1.00  0.00     0.064 A 
ATOM     72  C   UNL A   1      37.930  31.008  30.075  1.00  0.00     0.173 A 
ATOM     73  C   UNL A   1      38.973  30.266  32.107  1.00  0.00     0.173 A 
ATOM     74  F   UNL A   1      37.961  31.221  28.751  1.00  0.00    -0.203 F 
ATOM     75  C   UNL A   1      36.800  31.389  30.796  1.00  0.00     0.198 A 
ATOM     76  C   UNL A   1      37.832  30.625  32.823  1.00  0.00     0.198 A 
ATOM     77  F   UNL A   1      40.011  29.734  32.769  1.00  0.00    -0.203 F 
ATOM     78  F   UNL A   1      35.768  31.962  30.163  1.00  0.00    -0.200 F 
ATOM     79  C   UNL A   1      36.750  31.193  32.168  1.00  0.00     0.200 A 
ATOM     80  F   UNL A   1      37.785  30.426  34.147  1.00  0.00    -0.200 F 
ATOM     81  F   UNL A   1      35.662  31.556  32.859  1.00  0.00    -0.200 F 
ENDBRANCH  47  71
BRANCH  59  82
ATOM     82  C   UNL A   1      44.800  33.852  28.796  1.00  0.00     0.064 A 
ATOM     83  C   UNL A   1      44.463  34.858  27.880  1.00  0.00     0.173 A 
ATOM     84  C   UNL A   1      45.549  34.213  29.927  1.00  0.00     0.173 A 
ATOM     85  F   UNL A   1      43.761  34.559  26.776  1.00  0.00    -0.203 F 
ATOM     86  C   UNL A   1      44.879  36.172  28.077  1.00  0.00     0.198 A 
ATOM     87  C   UNL A   1      45.943  35.532  30.132  1.00  0.00     0.198 A 
ATOM     88  F   UNL A   1      45.892  33.286  30.835  1.00  0.00    -0.203 F 
ATOM     89  F   UNL A   1      44.582  37.111  27.167  1.00  0.00    -0.200 F 
ATOM     90  C   UNL A   1      45.614  36.508  29.205  1.00  0.00     0.200 A 
ATOM     91  F   UNL A   1      46.646  35.856  31.227  1.00  0.00    -0.200 F 
ATOM     92  F   UNL A   1      46.012  37.774  29.394  1.00  0.00    -0.200 F 
ENDBRANCH  59  82
ENDBRANCH  33  34
ENDBRANCH  26  28
ENDBRANCH  25  26
ENDBRANCH  24  25
ENDBRANCH   1  24
TORSDOF 13
ENDMDL
MODEL 3
REMARK VINA RESULT:     -12.5      3.977      8.852
REMARK SMILES Cc1cc2cc(-c3ccc([C@@H](C)C(=O)OCCOC(=O)c4ccc(-c5c6nc(c(-c7c(F)c(F)c(F)c(F)c7F)c7ccc([nH]7)c(-c7c(F)c(F)c(F)c(F)c7F)c7nc(c(-c8c(F)c(F)c(F)c(F)c8F)c8ccc5[nH]8)C=C7)C=C6)cc4)cc3)ccc2[nH]1
REMARK SMILES IDX 16 1 15 2 13 3 14 4 11 5 12 6 10 7 7 8 8 9 85 10 9 11 84 12
REMARK SMILES IDX 6 13 1 14 2 15 3 16 89 17 4 18 88 19 5 21 87 22 86 23 17 24
REMARK SMILES IDX 18 25 19 26 20 27 21 28 22 29 83 30 23 31 82 32 24 33 25 34
REMARK SMILES IDX 26 35 76 36 27 37 81 38 75 39 77 40 28 41 80 42 74 43 73 44
REMARK SMILES IDX 29 46 61 47 41 48 60 49 42 50 45 51 59 52 78 53 43 54 44 55
REMARK SMILES IDX 58 57 79 58 46 59 30 60 31 61 39 62 32 63 33 64 37 65 40 66
REMARK SMILES IDX 34 67 35 68 38 69 36 70 62 71 63 72 71 73 64 74 65 75 69 76
REMARK SMILES IDX 72 77 66 78 67 79 70 80 68 81 47 82 48 83 56 84 49 85 50 86
REMARK SMILES IDX 54 87 57 88 51 89 52 90 55 91 53 92
REMARK H PARENT 89 20 77 45 45 56
REMARK Flexibility Score: inf
ROOT
ATOM      1  C   UNL A   1      43.799  21.672  25.132  1.00  0.00     0.274 C 
ENDROOT
BRANCH   1   2
ATOM      2  O   UNL A   1      42.381  21.741  25.375  1.00  0.00    -0.462 OA
BRANCH   2   3
ATOM      3  C   UNL A   1      41.966  21.580  26.658  1.00  0.00     0.313 C 
ATOM      4  O   UNL A   1      42.616  21.918  27.643  1.00  0.00    -0.252 OA
BRANCH   3   5
ATOM      5  C   UNL A   1      40.617  20.880  26.779  1.00  0.00     0.126 C 
ATOM      6  C   UNL A   1      40.723  19.453  26.241  1.00  0.00     0.025 C 
BRANCH   5   7
ATOM      7  C   UNL A   1      39.428  21.632  26.204  1.00  0.00    -0.034 A 
ATOM      8  C   UNL A   1      37.170  23.043  25.216  1.00  0.00    -0.018 A 
ATOM      9  C   UNL A   1      37.401  21.703  24.866  1.00  0.00     0.009 A 
ATOM     10  C   UNL A   1      38.105  23.676  26.044  1.00  0.00     0.009 A 
ATOM     11  C   UNL A   1      38.508  21.007  25.354  1.00  0.00     0.005 A 
ATOM     12  C   UNL A   1      39.216  22.980  26.534  1.00  0.00     0.005 A 
BRANCH   8  13
ATOM     13  C   UNL A   1      35.948  23.724  24.764  1.00  0.00    -0.018 A 
ATOM     14  C   UNL A   1      31.089  27.432  25.122  1.00  0.00     0.064 C 
ATOM     15  C   UNL A   1      32.259  26.535  24.972  1.00  0.00     0.013 A 
ATOM     16  C   UNL A   1      33.323  26.302  25.816  1.00  0.00     0.031 A 
ATOM     17  N   UNL A   1      32.439  25.746  23.860  1.00  0.00    -0.359 N 
ATOM     18  C   UNL A   1      34.159  25.329  25.208  1.00  0.00     0.000 A 
ATOM     19  C   UNL A   1      33.589  24.998  23.982  1.00  0.00     0.046 A 
ATOM     20  H   UNL A   1      31.832  25.720  23.086  1.00  0.00     0.166 HD
ATOM     21  C   UNL A   1      35.351  24.693  25.594  1.00  0.00     0.019 A 
ATOM     22  C   UNL A   1      34.161  24.057  23.117  1.00  0.00     0.027 A 
ATOM     23  C   UNL A   1      35.347  23.430  23.531  1.00  0.00     0.011 A 
ENDBRANCH   8  13
ENDBRANCH   5   7
ENDBRANCH   3   5
ENDBRANCH   2   3
ENDBRANCH   1   2
BRANCH   1  24
ATOM     24  C   UNL A   1      44.270  22.842  24.266  1.00  0.00     0.275 C 
BRANCH  24  25
ATOM     25  O   UNL A   1      43.558  24.048  24.599  1.00  0.00    -0.458 OA
BRANCH  25  26
ATOM     26  C   UNL A   1      44.329  25.068  25.036  1.00  0.00     0.338 C 
ATOM     27  O   UNL A   1      45.425  25.405  24.626  1.00  0.00    -0.246 OA
BRANCH  26  28
ATOM     28  C   UNL A   1      43.599  25.831  26.057  1.00  0.00     0.060 A 
ATOM     29  C   UNL A   1      43.992  27.148  26.299  1.00  0.00     0.016 A 
ATOM     30  C   UNL A   1      42.612  25.228  26.837  1.00  0.00     0.016 A 
ATOM     31  C   UNL A   1      43.420  27.867  27.343  1.00  0.00     0.010 A 
ATOM     32  C   UNL A   1      42.030  25.954  27.880  1.00  0.00     0.010 A 
ATOM     33  C   UNL A   1      42.446  27.269  28.151  1.00  0.00    -0.014 A 
BRANCH  33  34
ATOM     34  C   UNL A   1      41.925  28.006  29.327  1.00  0.00     0.031 A 
ATOM     35  C   UNL A   1      42.656  27.928  30.636  1.00  0.00     0.074 A 
ATOM     36  C   UNL A   1      40.824  28.769  29.209  1.00  0.00     0.049 A 
ATOM     37  N   UNL A   1      42.344  28.456  31.792  1.00  0.00    -0.248 NA
ATOM     38  C   UNL A   1      43.905  27.152  30.644  1.00  0.00     0.031 C 
ATOM     39  C   UNL A   1      40.056  28.954  27.979  1.00  0.00     0.029 A 
ATOM     40  N   UNL A   1      40.165  29.531  30.138  1.00  0.00    -0.354 N 
ATOM     41  C   UNL A   1      43.345  28.061  32.669  1.00  0.00     0.074 A 
ATOM     42  C   UNL A   1      44.268  27.238  31.916  1.00  0.00     0.031 C 
ATOM     43  C   UNL A   1      39.028  29.781  28.228  1.00  0.00     0.029 A 
ATOM     44  C   UNL A   1      39.046  30.153  29.641  1.00  0.00     0.049 A 
ATOM     45  H   UNL A   1      40.463  29.624  31.071  1.00  0.00     0.167 HD
ATOM     46  C   UNL A   1      43.482  28.363  33.982  1.00  0.00     0.037 A 
ATOM     47  C   UNL A   1      38.131  30.921  30.263  1.00  0.00     0.037 A 
ATOM     48  C   UNL A   1      42.572  29.196  34.724  1.00  0.00     0.049 A 
ATOM     49  C   UNL A   1      38.290  31.214  31.730  1.00  0.00     0.074 A 
ATOM     50  C   UNL A   1      42.626  29.561  36.058  1.00  0.00     0.029 A 
ATOM     51  N   UNL A   1      41.441  29.796  34.191  1.00  0.00    -0.354 N 
ATOM     52  N   UNL A   1      39.234  30.830  32.554  1.00  0.00    -0.248 NA
ATOM     53  C   UNL A   1      37.252  32.047  32.354  1.00  0.00     0.031 C 
ATOM     54  C   UNL A   1      41.511  30.358  36.340  1.00  0.00     0.029 A 
ATOM     55  C   UNL A   1      40.783  30.521  35.171  1.00  0.00     0.049 A 
ATOM     56  H   UNL A   1      41.149  29.718  33.254  1.00  0.00     0.167 HD
ATOM     57  C   UNL A   1      38.919  31.388  33.784  1.00  0.00     0.074 A 
ATOM     58  C   UNL A   1      37.701  32.151  33.597  1.00  0.00     0.031 C 
ATOM     59  C   UNL A   1      39.577  31.278  34.964  1.00  0.00     0.037 A 
BRANCH  46  60
ATOM     60  C   UNL A   1      44.650  27.765  34.708  1.00  0.00     0.064 A 
ATOM     61  C   UNL A   1      44.568  26.509  35.324  1.00  0.00     0.173 A 
ATOM     62  C   UNL A   1      45.874  28.449  34.764  1.00  0.00     0.173 A 
ATOM     63  F   UNL A   1      43.415  25.824  35.311  1.00  0.00    -0.203 F 
ATOM     64  C   UNL A   1      45.665  25.966  35.989  1.00  0.00     0.198 A 
ATOM     65  C   UNL A   1      46.975  27.894  35.409  1.00  0.00     0.198 A 
ATOM     66  F   UNL A   1      46.002  29.654  34.189  1.00  0.00    -0.203 F 
ATOM     67  F   UNL A   1      45.555  24.781  36.605  1.00  0.00    -0.200 F 
ATOM     68  C   UNL A   1      46.869  26.656  36.025  1.00  0.00     0.200 A 
ATOM     69  F   UNL A   1      48.139  28.558  35.438  1.00  0.00    -0.200 F 
ATOM     70  F   UNL A   1      47.925  26.130  36.662  1.00  0.00    -0.200 F 
ENDBRANCH  46  60
BRANCH  47  71
ATOM     71  C   UNL A   1      36.978  31.459  29.499  1.00  0.00     0.064 A 
ATOM     72  C   UNL A   1      35.917  30.628  29.115  1.00  0.00     0.173 A 
ATOM     73  C   UNL A   1      36.917  32.811  29.135  1.00  0.00     0.173 A 
ATOM     74  F   UNL A   1      35.944  29.322  29.419  1.00  0.00    -0.203 F 
ATOM     75  C   UNL A   1      34.841  31.130  28.384  1.00  0.00     0.198 A 
ATOM     76  C   UNL A   1      35.829  33.316  28.425  1.00  0.00     0.198 A 
ATOM     77  F   UNL A   1      37.910  33.645  29.477  1.00  0.00    -0.203 F 
ATOM     78  F   UNL A   1      33.858  30.307  27.994  1.00  0.00    -0.200 F 
ATOM     79  C   UNL A   1      34.796  32.474  28.045  1.00  0.00     0.200 A 
ATOM     80  F   UNL A   1      35.786  34.617  28.107  1.00  0.00    -0.200 F 
ATOM     81  F   UNL A   1      33.760  32.955  27.345  1.00  0.00    -0.200 F 
ENDBRANCH  47  71
BRANCH  59  82
ATOM     82  C   UNL A   1      39.008  32.023  36.134  1.00  0.00     0.064 A 
ATOM     83  C   UNL A   1      38.134  31.407  37.041  1.00  0.00     0.173 A 
ATOM     84  C   UNL A   1      39.368  33.359  36.368  1.00  0.00     0.173 A 
ATOM     85  F   UNL A   1      37.750  30.135  36.851  1.00  0.00    -0.203 F 
ATOM     86  C   UNL A   1      37.621  32.110  38.128  1.00  0.00     0.198 A 
ATOM     87  C   UNL A   1      38.871  34.051  37.469  1.00  0.00     0.198 A 
ATOM     88  F   UNL A   1      40.206  33.990  35.531  1.00  0.00    -0.203 F 
ATOM     89  F   UNL A   1      36.753  31.515  38.958  1.00  0.00    -0.200 F 
ATOM     90  C   UNL A   1      37.994  33.429  38.343  1.00  0.00     0.200 A 
ATOM     91  F   UNL A   1      39.239  35.323  37.680  1.00  0.00    -0.200 F 
ATOM     92  F   UNL A   1      37.499  34.103  39.391  1.00  0.00    -0.200 F 
ENDBRANCH  59  82
ENDBRANCH  33  34
ENDBRANCH  26  28
ENDBRANCH  25  26
ENDBRANCH  24  25
ENDBRANCH   1  24
TORSDOF 13
ENDMDL
