MODEL 1
REMARK VINA RESULT:     -12.4      0.000      0.000
REMARK SMILES CC(C)(C)c1csc(NC(=O)Cn2cccc2C(=O)OCCOC(=O)c2ccc(-c3c4nc(c(-c5c(F)c(F)c(F)c(F)c5F)c5ccc([nH]5)c(-c5c(F)c(F)c(F)c(F)c5F)c5nc(c(-c6c(F)c(F)c(F)c(F)c6F)c6ccc3[nH]6)C=C5)C=C4)cc2)n1
REMARK SMILES IDX 21 1 20 2 18 3 19 4 17 5 13 6 14 7 15 8 16 9 12 10 10 11
REMARK SMILES IDX 9 12 11 14 8 15 5 16 6 17 89 18 7 19 2 20 1 21 3 22 4 23
REMARK SMILES IDX 22 24 23 25 24 26 25 27 26 28 27 29 88 30 28 31 87 32 29 33
REMARK SMILES IDX 30 34 31 35 81 36 32 37 86 38 80 39 82 40 33 41 85 42 79 43
REMARK SMILES IDX 78 44 34 46 66 47 46 48 65 49 47 50 50 51 64 52 83 53 48 54
REMARK SMILES IDX 49 55 63 57 84 58 51 59 35 60 36 61 44 62 37 63 38 64 42 65
REMARK SMILES IDX 45 66 39 67 40 68 43 69 41 70 67 71 68 72 76 73 69 74 70 75
REMARK SMILES IDX 74 76 77 77 71 78 72 79 75 80 73 81 52 82 53 83 61 84 54 85
REMARK SMILES IDX 55 86 59 87 62 88 56 89 57 90 60 91 58 92
REMARK H PARENT 9 13 82 45 50 56
REMARK Flexibility Score: inf
ROOT
ATOM      1  C   UNL A   1      35.666  23.561  25.686  1.00  0.00     0.275 C 
ENDROOT
BRANCH   1   2
ATOM      2  O   UNL A   1      35.164  22.626  24.716  1.00  0.00    -0.457 OA
BRANCH   2   3
ATOM      3  C   UNL A   1      34.573  23.194  23.624  1.00  0.00     0.355 C 
ATOM      4  O   UNL A   1      35.082  23.256  22.527  1.00  0.00    -0.244 OA
BRANCH   3   5
ATOM      5  C   UNL A   1      33.217  23.636  23.919  1.00  0.00     0.128 A 
ATOM      6  N   UNL A   1      32.653  24.903  23.932  1.00  0.00    -0.333 N 
ATOM      7  C   UNL A   1      31.293  24.773  24.126  1.00  0.00     0.087 A 
ATOM      8  C   UNL A   1      31.005  23.472  24.445  1.00  0.00     0.020 A 
ATOM      9  C   UNL A   1      32.205  22.758  24.307  1.00  0.00     0.035 A 
BRANCH   6  10
ATOM     10  C   UNL A   1      33.297  26.191  23.669  1.00  0.00     0.222 C 
BRANCH  10  11
ATOM     11  C   UNL A   1      33.122  26.680  22.235  1.00  0.00     0.246 C 
ATOM     12  N   UNL A   1      32.449  27.824  21.916  1.00  0.00    -0.300 N 
ATOM     13  H   UNL A   1      32.667  28.188  21.028  1.00  0.00     0.172 HD
ATOM     14  O   UNL A   1      33.622  26.038  21.301  1.00  0.00    -0.273 OA
BRANCH  12  15
ATOM     15  C   UNL A   1      31.525  28.556  22.611  1.00  0.00     0.189 A 
ATOM     16  C   UNL A   1      29.607  29.578  23.059  1.00  0.00     0.059 A 
ATOM     17  C   UNL A   1      30.321  29.900  24.202  1.00  0.00     0.093 A 
ATOM     18  N   UNL A   1      30.307  28.766  22.171  1.00  0.00    -0.224 NA
ATOM     19  S   UNL A   1      31.803  29.051  24.219  1.00  0.00    -0.105 S 
BRANCH  16  20
ATOM     20  C   UNL A   1      28.169  29.987  22.765  1.00  0.00     0.005 C 
ATOM     21  C   UNL A   1      27.199  28.819  23.045  1.00  0.00     0.017 C 
ATOM     22  C   UNL A   1      28.056  30.387  21.279  1.00  0.00     0.017 C 
ATOM     23  C   UNL A   1      27.722  31.187  23.621  1.00  0.00     0.017 C 
ENDBRANCH  16  20
ENDBRANCH  12  15
ENDBRANCH  10  11
ENDBRANCH   6  10
ENDBRANCH   3   5
ENDBRANCH   2   3
ENDBRANCH   1   2
BRANCH   1  24
ATOM     24  C   UNL A   1      37.128  23.296  26.048  1.00  0.00     0.275 C 
BRANCH  24  25
ATOM     25  O   UNL A   1      37.892  24.480  26.310  1.00  0.00    -0.458 OA
BRANCH  25  26
ATOM     26  C   UNL A   1      39.117  24.230  26.825  1.00  0.00     0.338 C 
ATOM     27  O   UNL A   1      39.669  23.145  26.928  1.00  0.00    -0.246 OA
BRANCH  26  28
ATOM     28  C   UNL A   1      39.698  25.424  27.442  1.00  0.00     0.060 A 
ATOM     29  C   UNL A   1      39.405  25.641  28.792  1.00  0.00     0.016 A 
ATOM     30  C   UNL A   1      40.268  26.423  26.644  1.00  0.00     0.016 A 
ATOM     31  C   UNL A   1      39.592  26.900  29.327  1.00  0.00     0.010 A 
ATOM     32  C   UNL A   1      40.436  27.693  27.175  1.00  0.00     0.010 A 
ATOM     33  C   UNL A   1      40.069  27.930  28.507  1.00  0.00    -0.014 A 
BRANCH  33  34
ATOM     34  C   UNL A   1      40.299  29.242  29.131  1.00  0.00     0.031 A 
ATOM     35  C   UNL A   1      39.009  30.055  29.215  1.00  0.00     0.074 A 
ATOM     36  C   UNL A   1      41.588  29.545  29.470  1.00  0.00     0.049 A 
ATOM     37  N   UNL A   1      38.847  31.340  29.279  1.00  0.00    -0.248 NA
ATOM     38  C   UNL A   1      37.700  29.348  29.153  1.00  0.00     0.031 C 
ATOM     39  C   UNL A   1      42.731  28.617  29.327  1.00  0.00     0.029 A 
ATOM     40  N   UNL A   1      42.209  30.667  29.984  1.00  0.00    -0.354 N 
ATOM     41  C   UNL A   1      37.473  31.575  29.481  1.00  0.00     0.074 A 
ATOM     42  C   UNL A   1      36.805  30.330  29.259  1.00  0.00     0.031 C 
ATOM     43  C   UNL A   1      43.888  29.218  29.673  1.00  0.00     0.029 A 
ATOM     44  C   UNL A   1      43.624  30.582  30.089  1.00  0.00     0.049 A 
ATOM     45  H   UNL A   1      41.708  31.469  30.259  1.00  0.00     0.167 HD
ATOM     46  C   UNL A   1      36.990  32.746  29.981  1.00  0.00     0.037 A 
ATOM     47  C   UNL A   1      44.525  31.544  30.465  1.00  0.00     0.037 A 
ATOM     48  C   UNL A   1      38.051  33.676  30.165  1.00  0.00     0.049 A 
ATOM     49  C   UNL A   1      43.719  32.663  30.964  1.00  0.00     0.074 A 
ATOM     50  C   UNL A   1      38.822  34.384  29.282  1.00  0.00     0.029 A 
ATOM     51  N   UNL A   1      38.642  33.702  31.404  1.00  0.00    -0.354 N 
ATOM     52  N   UNL A   1      43.092  32.653  32.101  1.00  0.00    -0.248 NA
ATOM     53  C   UNL A   1      43.591  33.878  30.153  1.00  0.00     0.031 C 
ATOM     54  C   UNL A   1      40.074  34.470  29.922  1.00  0.00     0.029 A 
ATOM     55  C   UNL A   1      39.976  33.953  31.219  1.00  0.00     0.049 A 
ATOM     56  H   UNL A   1      38.190  33.565  32.268  1.00  0.00     0.167 HD
ATOM     57  C   UNL A   1      42.220  33.703  31.958  1.00  0.00     0.074 A 
ATOM     58  C   UNL A   1      42.776  34.571  30.944  1.00  0.00     0.031 C 
ATOM     59  C   UNL A   1      40.907  33.479  32.217  1.00  0.00     0.037 A 
BRANCH  46  60
ATOM     60  C   UNL A   1      35.663  33.094  30.591  1.00  0.00     0.064 A 
ATOM     61  C   UNL A   1      34.914  34.138  29.995  1.00  0.00     0.173 A 
ATOM     62  C   UNL A   1      35.294  32.726  31.891  1.00  0.00     0.173 A 
ATOM     63  F   UNL A   1      35.169  34.536  28.738  1.00  0.00    -0.203 F 
ATOM     64  C   UNL A   1      33.960  34.859  30.708  1.00  0.00     0.198 A 
ATOM     65  C   UNL A   1      34.297  33.419  32.584  1.00  0.00     0.198 A 
ATOM     66  F   UNL A   1      35.953  31.773  32.560  1.00  0.00    -0.203 F 
ATOM     67  F   UNL A   1      33.385  35.936  30.154  1.00  0.00    -0.200 F 
ATOM     68  C   UNL A   1      33.664  34.510  32.011  1.00  0.00     0.200 A 
ATOM     69  F   UNL A   1      34.009  33.075  33.847  1.00  0.00    -0.200 F 
ATOM     70  F   UNL A   1      32.801  35.244  32.725  1.00  0.00    -0.200 F 
ENDBRANCH  46  60
BRANCH  47  71
ATOM     71  C   UNL A   1      46.022  31.775  30.501  1.00  0.00     0.064 A 
ATOM     72  C   UNL A   1      46.843  31.681  31.630  1.00  0.00     0.173 A 
ATOM     73  C   UNL A   1      46.735  31.974  29.279  1.00  0.00     0.173 A 
ATOM     74  F   UNL A   1      46.325  31.561  32.855  1.00  0.00    -0.203 F 
ATOM     75  C   UNL A   1      48.248  31.684  31.532  1.00  0.00     0.198 A 
ATOM     76  C   UNL A   1      48.124  31.916  29.175  1.00  0.00     0.198 A 
ATOM     77  F   UNL A   1      46.101  32.211  28.122  1.00  0.00    -0.203 F 
ATOM     78  F   UNL A   1      48.989  31.583  32.644  1.00  0.00    -0.200 F 
ATOM     79  C   UNL A   1      48.885  31.757  30.305  1.00  0.00     0.200 A 
ATOM     80  F   UNL A   1      48.704  31.982  27.967  1.00  0.00    -0.200 F 
ATOM     81  F   UNL A   1      50.219  31.674  30.213  1.00  0.00    -0.200 F 
ENDBRANCH  47  71
BRANCH  59  82
ATOM     82  C   UNL A   1      40.686  32.359  33.224  1.00  0.00     0.064 A 
ATOM     83  C   UNL A   1      41.131  32.511  34.549  1.00  0.00     0.173 A 
ATOM     84  C   UNL A   1      40.216  31.081  32.881  1.00  0.00     0.173 A 
ATOM     85  F   UNL A   1      41.572  33.706  34.974  1.00  0.00    -0.203 F 
ATOM     86  C   UNL A   1      41.150  31.441  35.448  1.00  0.00     0.198 A 
ATOM     87  C   UNL A   1      40.229  30.010  33.777  1.00  0.00     0.198 A 
ATOM     88  F   UNL A   1      39.733  30.841  31.666  1.00  0.00    -0.203 F 
ATOM     89  F   UNL A   1      41.604  31.625  36.696  1.00  0.00    -0.200 F 
ATOM     90  C   UNL A   1      40.708  30.187  35.059  1.00  0.00     0.200 A 
ATOM     91  F   UNL A   1      39.776  28.807  33.390  1.00  0.00    -0.200 F 
ATOM     92  F   UNL A   1      40.728  29.160  35.921  1.00  0.00    -0.200 F 
ENDBRANCH  59  82
ENDBRANCH  33  34
ENDBRANCH  26  28
ENDBRANCH  25  26
ENDBRANCH  24  25
ENDBRANCH   1  24
TORSDOF 15
ENDMDL
MODEL 2
REMARK VINA RESULT:     -12.4      1.376      2.211
REMARK SMILES CC(C)(C)c1csc(NC(=O)Cn2cccc2C(=O)OCCOC(=O)c2ccc(-c3c4nc(c(-c5c(F)c(F)c(F)c(F)c5F)c5ccc([nH]5)c(-c5c(F)c(F)c(F)c(F)c5F)c5nc(c(-c6c(F)c(F)c(F)c(F)c6F)c6ccc3[nH]6)C=C5)C=C4)cc2)n1
REMARK SMILES IDX 21 1 20 2 18 3 19 4 17 5 13 6 14 7 15 8 16 9 12 10 10 11
REMARK SMILES IDX 9 12 11 14 8 15 5 16 6 17 89 18 7 19 2 20 1 21 3 22 4 23
REMARK SMILES IDX 22 24 23 25 24 26 25 27 26 28 27 29 88 30 28 31 87 32 29 33
REMARK SMILES IDX 30 34 31 35 81 36 32 37 86 38 80 39 82 40 33 41 85 42 79 43
REMARK SMILES IDX 78 44 34 46 66 47 46 48 65 49 47 50 50 51 64 52 83 53 48 54
REMARK SMILES IDX 49 55 63 57 84 58 51 59 35 60 36 61 44 62 37 63 38 64 42 65
REMARK SMILES IDX 45 66 39 67 40 68 43 69 41 70 67 71 68 72 76 73 69 74 70 75
REMARK SMILES IDX 74 76 77 77 71 78 72 79 75 80 73 81 52 82 53 83 61 84 54 85
REMARK SMILES IDX 55 86 59 87 62 88 56 89 57 90 60 91 58 92
REMARK H PARENT 9 13 82 45 50 56
REMARK Flexibility Score: inf
ROOT
ATOM      1  C   UNL A   1      36.303  22.847  25.746  1.00  0.00     0.275 C 
ENDROOT
BRANCH   1   2
ATOM      2  O   UNL A   1      36.082  22.038  24.579  1.00  0.00    -0.457 OA
BRANCH   2   3
ATOM      3  C   UNL A   1      35.648  22.721  23.479  1.00  0.00     0.355 C 
ATOM      4  O   UNL A   1      36.357  23.047  22.554  1.00  0.00    -0.244 OA
BRANCH   3   5
ATOM      5  C   UNL A   1      34.207  22.933  23.517  1.00  0.00     0.128 A 
ATOM      6  N   UNL A   1      33.449  24.083  23.351  1.00  0.00    -0.333 N 
ATOM      7  C   UNL A   1      32.116  23.727  23.327  1.00  0.00     0.087 A 
ATOM      8  C   UNL A   1      31.995  22.409  23.681  1.00  0.00     0.020 A 
ATOM      9  C   UNL A   1      33.302  21.908  23.791  1.00  0.00     0.035 A 
BRANCH   6  10
ATOM     10  C   UNL A   1      33.909  25.451  23.111  1.00  0.00     0.222 C 
BRANCH  10  11
ATOM     11  C   UNL A   1      33.257  26.112  21.902  1.00  0.00     0.246 C 
ATOM     12  N   UNL A   1      32.644  27.331  21.959  1.00  0.00    -0.300 N 
ATOM     13  H   UNL A   1      32.547  27.777  21.087  1.00  0.00     0.172 HD
ATOM     14  O   UNL A   1      33.289  25.547  20.801  1.00  0.00    -0.273 OA
BRANCH  12  15
ATOM     15  C   UNL A   1      32.141  28.044  23.013  1.00  0.00     0.189 A 
ATOM     16  C   UNL A   1      31.995  28.881  25.063  1.00  0.00     0.059 A 
ATOM     17  C   UNL A   1      30.832  29.395  24.512  1.00  0.00     0.093 A 
ATOM     18  N   UNL A   1      32.758  28.137  24.168  1.00  0.00    -0.224 NA
ATOM     19  S   UNL A   1      30.789  29.069  22.836  1.00  0.00    -0.105 S 
BRANCH  16  20
ATOM     20  C   UNL A   1      32.485  29.119  26.486  1.00  0.00     0.005 C 
ATOM     21  C   UNL A   1      32.449  30.621  26.834  1.00  0.00     0.017 C 
ATOM     22  C   UNL A   1      33.938  28.611  26.606  1.00  0.00     0.017 C 
ATOM     23  C   UNL A   1      31.628  28.372  27.525  1.00  0.00     0.017 C 
ENDBRANCH  16  20
ENDBRANCH  12  15
ENDBRANCH  10  11
ENDBRANCH   6  10
ENDBRANCH   3   5
ENDBRANCH   2   3
ENDBRANCH   1   2
BRANCH   1  24
ATOM     24  C   UNL A   1      37.520  23.762  25.600  1.00  0.00     0.275 C 
BRANCH  24  25
ATOM     25  O   UNL A   1      37.807  24.548  26.763  1.00  0.00    -0.458 OA
BRANCH  25  26
ATOM     26  C   UNL A   1      39.054  24.357  27.251  1.00  0.00     0.338 C 
ATOM     27  O   UNL A   1      39.659  23.301  27.343  1.00  0.00    -0.246 OA
BRANCH  26  28
ATOM     28  C   UNL A   1      39.590  25.579  27.854  1.00  0.00     0.060 A 
ATOM     29  C   UNL A   1      39.214  25.847  29.174  1.00  0.00     0.016 A 
ATOM     30  C   UNL A   1      40.203  26.550  27.054  1.00  0.00     0.016 A 
ATOM     31  C   UNL A   1      39.362  27.127  29.670  1.00  0.00     0.010 A 
ATOM     32  C   UNL A   1      40.332  27.841  27.543  1.00  0.00     0.010 A 
ATOM     33  C   UNL A   1      39.884  28.127  28.840  1.00  0.00    -0.014 A 
BRANCH  33  34
ATOM     34  C   UNL A   1      40.069  29.464  29.425  1.00  0.00     0.031 A 
ATOM     35  C   UNL A   1      38.822  30.328  29.252  1.00  0.00     0.074 A 
ATOM     36  C   UNL A   1      41.298  29.738  29.956  1.00  0.00     0.049 A 
ATOM     37  N   UNL A   1      38.711  31.620  29.222  1.00  0.00    -0.248 NA
ATOM     38  C   UNL A   1      37.509  29.667  29.012  1.00  0.00     0.031 C 
ATOM     39  C   UNL A   1      42.405  28.762  30.052  1.00  0.00     0.029 A 
ATOM     40  N   UNL A   1      41.879  30.866  30.507  1.00  0.00    -0.354 N 
ATOM     41  C   UNL A   1      37.334  31.916  29.181  1.00  0.00     0.074 A 
ATOM     42  C   UNL A   1      36.655  30.687  28.917  1.00  0.00     0.031 C 
ATOM     43  C   UNL A   1      43.517  29.340  30.553  1.00  0.00     0.029 A 
ATOM     44  C   UNL A   1      43.252  30.735  30.848  1.00  0.00     0.049 A 
ATOM     45  H   UNL A   1      41.376  31.700  30.653  1.00  0.00     0.167 HD
ATOM     46  C   UNL A   1      36.831  33.132  29.533  1.00  0.00     0.037 A 
ATOM     47  C   UNL A   1      44.123  31.682  31.318  1.00  0.00     0.037 A 
ATOM     48  C   UNL A   1      37.890  34.031  29.842  1.00  0.00     0.049 A 
ATOM     49  C   UNL A   1      43.298  32.858  31.618  1.00  0.00     0.074 A 
ATOM     50  C   UNL A   1      38.826  34.657  29.063  1.00  0.00     0.029 A 
ATOM     51  N   UNL A   1      38.271  34.108  31.158  1.00  0.00    -0.354 N 
ATOM     52  N   UNL A   1      42.495  32.938  32.634  1.00  0.00    -0.248 NA
ATOM     53  C   UNL A   1      43.361  34.027  30.735  1.00  0.00     0.031 C 
ATOM     54  C   UNL A   1      39.959  34.734  29.895  1.00  0.00     0.029 A 
ATOM     55  C   UNL A   1      39.628  34.298  31.184  1.00  0.00     0.049 A 
ATOM     56  H   UNL A   1      37.678  34.038  31.942  1.00  0.00     0.167 HD
ATOM     57  C   UNL A   1      41.707  34.010  32.295  1.00  0.00     0.074 A 
ATOM     58  C   UNL A   1      42.461  34.796  31.344  1.00  0.00     0.031 C 
ATOM     59  C   UNL A   1      40.361  33.850  32.345  1.00  0.00     0.037 A 
BRANCH  46  60
ATOM     60  C   UNL A   1      35.440  33.564  29.896  1.00  0.00     0.064 A 
ATOM     61  C   UNL A   1      34.717  34.333  28.952  1.00  0.00     0.173 A 
ATOM     62  C   UNL A   1      34.958  33.581  31.212  1.00  0.00     0.173 A 
ATOM     63  F   UNL A   1      35.080  34.350  27.659  1.00  0.00    -0.203 F 
ATOM     64  C   UNL A   1      33.674  35.174  29.330  1.00  0.00     0.198 A 
ATOM     65  C   UNL A   1      33.876  34.387  31.576  1.00  0.00     0.198 A 
ATOM     66  F   UNL A   1      35.582  32.916  32.192  1.00  0.00    -0.203 F 
ATOM     67  F   UNL A   1      33.120  35.997  28.429  1.00  0.00    -0.200 F 
ATOM     68  C   UNL A   1      33.265  35.214  30.648  1.00  0.00     0.200 A 
ATOM     69  F   UNL A   1      33.478  34.420  32.856  1.00  0.00    -0.200 F 
ATOM     70  F   UNL A   1      32.312  36.074  31.032  1.00  0.00    -0.200 F 
ENDBRANCH  46  60
BRANCH  47  71
ATOM     71  C   UNL A   1      45.603  31.860  31.589  1.00  0.00     0.064 A 
ATOM     72  C   UNL A   1      46.190  32.087  32.839  1.00  0.00     0.173 A 
ATOM     73  C   UNL A   1      46.544  31.649  30.534  1.00  0.00     0.173 A 
ATOM     74  F   UNL A   1      45.447  32.367  33.913  1.00  0.00    -0.203 F 
ATOM     75  C   UNL A   1      47.583  32.009  33.033  1.00  0.00     0.198 A 
ATOM     76  C   UNL A   1      47.916  31.512  30.738  1.00  0.00     0.198 A 
ATOM     77  F   UNL A   1      46.158  31.542  29.255  1.00  0.00    -0.203 F 
ATOM     78  F   UNL A   1      48.094  32.228  34.252  1.00  0.00    -0.200 F 
ATOM     79  C   UNL A   1      48.438  31.679  31.995  1.00  0.00     0.200 A 
ATOM     80  F   UNL A   1      48.712  31.183  29.709  1.00  0.00    -0.200 F 
ATOM     81  F   UNL A   1      49.752  31.525  32.205  1.00  0.00    -0.200 F 
ENDBRANCH  47  71
BRANCH  59  82
ATOM     82  C   UNL A   1      39.927  32.800  33.359  1.00  0.00     0.064 A 
ATOM     83  C   UNL A   1      39.257  31.643  32.925  1.00  0.00     0.173 A 
ATOM     84  C   UNL A   1      39.992  32.982  34.750  1.00  0.00     0.173 A 
ATOM     85  F   UNL A   1      39.171  31.373  31.612  1.00  0.00    -0.203 F 
ATOM     86  C   UNL A   1      38.650  30.761  33.824  1.00  0.00     0.198 A 
ATOM     87  C   UNL A   1      39.391  32.102  35.652  1.00  0.00     0.198 A 
ATOM     88  F   UNL A   1      40.640  34.022  35.267  1.00  0.00    -0.203 F 
ATOM     89  F   UNL A   1      38.001  29.682  33.365  1.00  0.00    -0.200 F 
ATOM     90  C   UNL A   1      38.708  30.996  35.187  1.00  0.00     0.200 A 
ATOM     91  F   UNL A   1      39.477  32.332  36.971  1.00  0.00    -0.200 F 
ATOM     92  F   UNL A   1      38.125  30.151  36.050  1.00  0.00    -0.200 F 
ENDBRANCH  59  82
ENDBRANCH  33  34
ENDBRANCH  26  28
ENDBRANCH  25  26
ENDBRANCH  24  25
ENDBRANCH   1  24
TORSDOF 15
ENDMDL
MODEL 3
REMARK VINA RESULT:     -12.3      4.511      9.248
REMARK SMILES CC(C)(C)c1csc(NC(=O)Cn2cccc2C(=O)OCCOC(=O)c2ccc(-c3c4nc(c(-c5c(F)c(F)c(F)c(F)c5F)c5ccc([nH]5)c(-c5c(F)c(F)c(F)c(F)c5F)c5nc(c(-c6c(F)c(F)c(F)c(F)c6F)c6ccc3[nH]6)C=C5)C=C4)cc2)n1
REMARK SMILES IDX 21 1 20 2 18 3 19 4 17 5 13 6 14 7 15 8 16 9 12 10 10 11
REMARK SMILES IDX 9 12 11 14 8 15 5 16 6 17 89 18 7 19 2 20 1 21 3 22 4 23
REMARK SMILES IDX 22 24 23 25 24 26 25 27 26 28 27 29 88 30 28 31 87 32 29 33
REMARK SMILES IDX 30 34 31 35 81 36 32 37 86 38 80 39 82 40 33 41 85 42 79 43
REMARK SMILES IDX 78 44 34 46 66 47 46 48 65 49 47 50 50 51 64 52 83 53 48 54
REMARK SMILES IDX 49 55 63 57 84 58 51 59 35 60 36 61 44 62 37 63 38 64 42 65
REMARK SMILES IDX 45 66 39 67 40 68 43 69 41 70 67 71 68 72 76 73 69 74 70 75
REMARK SMILES IDX 74 76 77 77 71 78 72 79 75 80 73 81 52 82 53 83 61 84 54 85
REMARK SMILES IDX 55 86 59 87 62 88 56 89 57 90 60 91 58 92
REMARK H PARENT 9 13 82 45 50 56
REMARK Flexibility Score: inf
ROOT
ATOM      1  C   UNL A   1      33.688  28.546  25.602  1.00  0.00     0.275 C 
ENDROOT
BRANCH   1   2
ATOM      2  O   UNL A   1      32.587  29.235  24.987  1.00  0.00    -0.457 OA
BRANCH   2   3
ATOM      3  C   UNL A   1      32.332  28.872  23.696  1.00  0.00     0.355 C 
ATOM      4  O   UNL A   1      33.155  28.883  22.808  1.00  0.00    -0.244 OA
BRANCH   3   5
ATOM      5  C   UNL A   1      30.968  28.385  23.537  1.00  0.00     0.128 A 
ATOM      6  N   UNL A   1      30.415  27.133  23.762  1.00  0.00    -0.333 N 
ATOM      7  C   UNL A   1      29.047  27.227  23.607  1.00  0.00     0.087 A 
ATOM      8  C   UNL A   1      28.735  28.455  23.085  1.00  0.00     0.020 A 
ATOM      9  C   UNL A   1      29.934  29.184  23.051  1.00  0.00     0.035 A 
BRANCH   6  10
ATOM     10  C   UNL A   1      31.080  25.909  24.210  1.00  0.00     0.222 C 
BRANCH  10  11
ATOM     11  C   UNL A   1      31.338  25.869  25.712  1.00  0.00     0.246 C 
ATOM     12  N   UNL A   1      32.350  25.145  26.276  1.00  0.00    -0.300 N 
ATOM     13  H   UNL A   1      32.604  25.438  27.180  1.00  0.00     0.172 HD
ATOM     14  O   UNL A   1      30.624  26.532  26.477  1.00  0.00    -0.273 OA
BRANCH  12  15
ATOM     15  C   UNL A   1      33.075  24.084  25.806  1.00  0.00     0.189 A 
ATOM     16  C   UNL A   1      34.836  22.927  25.108  1.00  0.00     0.059 A 
ATOM     17  C   UNL A   1      33.845  21.971  24.952  1.00  0.00     0.093 A 
ATOM     18  N   UNL A   1      34.376  24.129  25.641  1.00  0.00    -0.224 NA
ATOM     19  S   UNL A   1      32.380  22.537  25.623  1.00  0.00    -0.105 S 
BRANCH  16  20
ATOM     20  C   UNL A   1      36.316  22.732  24.804  1.00  0.00     0.005 C 
ATOM     21  C   UNL A   1      37.172  23.770  25.558  1.00  0.00     0.017 C 
ATOM     22  C   UNL A   1      36.542  22.902  23.287  1.00  0.00     0.017 C 
ATOM     23  C   UNL A   1      36.809  21.330  25.208  1.00  0.00     0.017 C 
ENDBRANCH  16  20
ENDBRANCH  12  15
ENDBRANCH  10  11
ENDBRANCH   6  10
ENDBRANCH   3   5
ENDBRANCH   2   3
ENDBRANCH   1   2
BRANCH   1  24
ATOM     24  C   UNL A   1      34.140  29.213  26.903  1.00  0.00     0.275 C 
BRANCH  24  25
ATOM     25  O   UNL A   1      35.489  28.911  27.280  1.00  0.00    -0.458 OA
BRANCH  25  26
ATOM     26  C   UNL A   1      36.178  29.985  27.727  1.00  0.00     0.338 C 
ATOM     27  O   UNL A   1      35.878  31.162  27.600  1.00  0.00    -0.246 OA
BRANCH  26  28
ATOM     28  C   UNL A   1      37.485  29.602  28.265  1.00  0.00     0.060 A 
ATOM     29  C   UNL A   1      38.578  29.706  27.399  1.00  0.00     0.016 A 
ATOM     30  C   UNL A   1      37.572  28.907  29.477  1.00  0.00     0.016 A 
ATOM     31  C   UNL A   1      39.741  29.026  27.699  1.00  0.00     0.010 A 
ATOM     32  C   UNL A   1      38.732  28.207  29.769  1.00  0.00     0.010 A 
ATOM     33  C   UNL A   1      39.800  28.248  28.862  1.00  0.00    -0.014 A 
BRANCH  33  34
ATOM     34  C   UNL A   1      41.075  27.580  29.166  1.00  0.00     0.031 A 
ATOM     35  C   UNL A   1      41.112  26.162  28.602  1.00  0.00     0.074 A 
ATOM     36  C   UNL A   1      41.968  28.278  29.929  1.00  0.00     0.049 A 
ATOM     37  N   UNL A   1      41.809  25.138  28.988  1.00  0.00    -0.248 NA
ATOM     38  C   UNL A   1      40.196  25.801  27.484  1.00  0.00     0.031 C 
ATOM     39  C   UNL A   1      41.770  29.670  30.387  1.00  0.00     0.029 A 
ATOM     40  N   UNL A   1      43.200  27.981  30.482  1.00  0.00    -0.354 N 
ATOM     41  C   UNL A   1      41.584  24.108  28.053  1.00  0.00     0.074 A 
ATOM     42  C   UNL A   1      40.488  24.524  27.236  1.00  0.00     0.031 C 
ATOM     43  C   UNL A   1      42.785  30.067  31.182  1.00  0.00     0.029 A 
ATOM     44  C   UNL A   1      43.751  28.994  31.313  1.00  0.00     0.049 A 
ATOM     45  H   UNL A   1      43.664  27.129  30.312  1.00  0.00     0.167 HD
ATOM     46  C   UNL A   1      42.427  23.048  27.907  1.00  0.00     0.037 A 
ATOM     47  C   UNL A   1      44.893  28.969  32.070  1.00  0.00     0.037 A 
ATOM     48  C   UNL A   1      43.466  23.110  28.877  1.00  0.00     0.049 A 
ATOM     49  C   UNL A   1      45.587  27.733  31.690  1.00  0.00     0.074 A 
ATOM     50  C   UNL A   1      43.477  22.918  30.233  1.00  0.00     0.029 A 
ATOM     51  N   UNL A   1      44.627  23.740  28.501  1.00  0.00    -0.354 N 
ATOM     52  N   UNL A   1      46.204  27.568  30.560  1.00  0.00    -0.248 NA
ATOM     53  C   UNL A   1      45.601  26.599  32.619  1.00  0.00     0.031 C 
ATOM     54  C   UNL A   1      44.464  23.812  30.693  1.00  0.00     0.029 A 
ATOM     55  C   UNL A   1      45.116  24.395  29.600  1.00  0.00     0.049 A 
ATOM     56  H   UNL A   1      45.033  23.724  27.603  1.00  0.00     0.167 HD
ATOM     57  C   UNL A   1      46.355  26.205  30.511  1.00  0.00     0.074 A 
ATOM     58  C   UNL A   1      46.278  25.728  31.874  1.00  0.00     0.031 C 
ATOM     59  C   UNL A   1      45.945  25.560  29.390  1.00  0.00     0.037 A 
BRANCH  46  60
ATOM     60  C   UNL A   1      42.590  22.053  26.796  1.00  0.00     0.064 A 
ATOM     61  C   UNL A   1      42.085  20.745  26.998  1.00  0.00     0.173 A 
ATOM     62  C   UNL A   1      43.509  22.211  25.750  1.00  0.00     0.173 A 
ATOM     63  F   UNL A   1      41.172  20.501  27.952  1.00  0.00    -0.203 F 
ATOM     64  C   UNL A   1      42.578  19.649  26.296  1.00  0.00     0.198 A 
ATOM     65  C   UNL A   1      43.961  21.113  25.012  1.00  0.00     0.198 A 
ATOM     66  F   UNL A   1      44.072  23.396  25.489  1.00  0.00    -0.203 F 
ATOM     67  F   UNL A   1      42.183  18.411  26.627  1.00  0.00    -0.200 F 
ATOM     68  C   UNL A   1      43.531  19.832  25.314  1.00  0.00     0.200 A 
ATOM     69  F   UNL A   1      44.883  21.295  24.055  1.00  0.00    -0.200 F 
ATOM     70  F   UNL A   1      44.063  18.775  24.686  1.00  0.00    -0.200 F 
ENDBRANCH  46  60
BRANCH  47  71
ATOM     71  C   UNL A   1      45.597  29.792  33.130  1.00  0.00     0.064 A 
ATOM     72  C   UNL A   1      45.264  29.846  34.487  1.00  0.00     0.173 A 
ATOM     73  C   UNL A   1      46.802  30.485  32.798  1.00  0.00     0.173 A 
ATOM     74  F   UNL A   1      44.133  29.303  34.945  1.00  0.00    -0.203 F 
ATOM     75  C   UNL A   1      46.108  30.451  35.438  1.00  0.00     0.198 A 
ATOM     76  C   UNL A   1      47.667  31.030  33.747  1.00  0.00     0.198 A 
ATOM     77  F   UNL A   1      47.201  30.640  31.528  1.00  0.00    -0.203 F 
ATOM     78  F   UNL A   1      45.746  30.471  36.728  1.00  0.00    -0.200 F 
ATOM     79  C   UNL A   1      47.326  31.001  35.074  1.00  0.00     0.200 A 
ATOM     80  F   UNL A   1      48.842  31.547  33.356  1.00  0.00    -0.200 F 
ATOM     81  F   UNL A   1      48.161  31.500  35.995  1.00  0.00    -0.200 F 
ENDBRANCH  47  71
BRANCH  59  82
ATOM     82  C   UNL A   1      46.003  26.438  28.148  1.00  0.00     0.064 A 
ATOM     83  C   UNL A   1      47.242  26.902  27.676  1.00  0.00     0.173 A 
ATOM     84  C   UNL A   1      44.869  26.979  27.521  1.00  0.00     0.173 A 
ATOM     85  F   UNL A   1      48.381  26.419  28.199  1.00  0.00    -0.203 F 
ATOM     86  C   UNL A   1      47.333  27.880  26.680  1.00  0.00     0.198 A 
ATOM     87  C   UNL A   1      44.955  27.952  26.523  1.00  0.00     0.198 A 
ATOM     88  F   UNL A   1      43.648  26.576  27.862  1.00  0.00    -0.203 F 
ATOM     89  F   UNL A   1      48.536  28.310  26.275  1.00  0.00    -0.200 F 
ATOM     90  C   UNL A   1      46.189  28.412  26.110  1.00  0.00     0.200 A 
ATOM     91  F   UNL A   1      43.836  28.440  25.965  1.00  0.00    -0.200 F 
ATOM     92  F   UNL A   1      46.276  29.350  25.157  1.00  0.00    -0.200 F 
ENDBRANCH  59  82
ENDBRANCH  33  34
ENDBRANCH  26  28
ENDBRANCH  25  26
ENDBRANCH  24  25
ENDBRANCH   1  24
TORSDOF 15
ENDMDL
