MODEL 1
REMARK VINA RESULT:     -11.9      0.000      0.000
REMARK SMILES C[C@](Nc1ccc(S(N)(=O)=O)cc1)(C(=O)OCCOC(=O)c1ccc(-c2c3nc(c(-c4c(F)c(F)c(F)c(F)c4F)c4ccc([nH]4)c(-c4c(F)c(F)c(F)c(F)c4F)c4nc(c(-c5c(F)c(F)c(F)c(F)c5F)c5ccc2[nH]5)C=C4)C=C3)cc1)C(F)(F)F
REMARK SMILES IDX 17 1 16 2 14 3 15 4 2 5 1 6 85 7 86 8 87 9 88 10 3 11 4 13
REMARK SMILES IDX 5 14 13 15 6 16 12 17 7 18 8 19 10 20 11 21 9 22 18 25 19 26
REMARK SMILES IDX 20 27 21 28 22 29 23 30 84 31 24 32 83 33 25 34 26 35 27 36
REMARK SMILES IDX 77 37 28 38 82 39 76 40 78 41 29 42 81 43 75 44 74 45 30 47
REMARK SMILES IDX 62 48 42 49 61 50 43 51 46 52 60 53 79 54 44 55 45 56 59 58
REMARK SMILES IDX 80 59 47 60 31 61 32 62 40 63 33 64 34 65 38 66 41 67 35 68
REMARK SMILES IDX 36 69 39 70 37 71 63 72 64 73 72 74 65 75 66 76 70 77 73 78
REMARK SMILES IDX 67 79 68 80 71 81 69 82 48 83 49 84 57 85 50 86 51 87 55 88
REMARK SMILES IDX 58 89 52 90 53 91 56 92 54 93
REMARK H PARENT 3 12 9 23 9 24 78 46 46 57
REMARK Flexibility Score: inf
ROOT
ATOM      1  C   UNL A   1      35.216  21.658  26.237  1.00  0.00     0.274 C 
ENDROOT
BRANCH   1   2
ATOM      2  O   UNL A   1      34.781  22.965  25.806  1.00  0.00    -0.460 OA
BRANCH   2   3
ATOM      3  C   UNL A   1      33.450  23.143  25.538  1.00  0.00     0.341 C 
ATOM      4  O   UNL A   1      32.559  22.728  26.269  1.00  0.00    -0.249 OA
BRANCH   3   5
ATOM      5  C   UNL A   1      33.222  23.803  24.158  1.00  0.00     0.229 C 
ATOM      6  C   UNL A   1      34.190  24.994  24.165  1.00  0.00     0.057 C 
BRANCH   5   7
ATOM      7  C   UNL A   1      33.640  22.821  23.049  1.00  0.00     0.422 C 
ATOM      8  F   UNL A   1      32.971  23.053  21.894  1.00  0.00    -0.168 F 
ATOM      9  F   UNL A   1      34.959  22.952  22.751  1.00  0.00    -0.168 F 
ATOM     10  F   UNL A   1      33.450  21.523  23.372  1.00  0.00    -0.168 F 
ENDBRANCH   5   7
BRANCH   5  11
ATOM     11  N   UNL A   1      31.767  24.145  24.021  1.00  0.00    -0.363 N 
ATOM     12  H   UNL A   1      31.137  23.455  24.330  1.00  0.00     0.162 HD
BRANCH  11  13
ATOM     13  C   UNL A   1      31.197  25.289  23.524  1.00  0.00     0.035 A 
ATOM     14  C   UNL A   1      30.132  25.858  24.236  1.00  0.00     0.027 A 
ATOM     15  C   UNL A   1      31.682  25.968  22.407  1.00  0.00     0.027 A 
ATOM     16  C   UNL A   1      29.632  27.117  23.905  1.00  0.00     0.024 A 
ATOM     17  C   UNL A   1      31.208  27.236  22.072  1.00  0.00     0.024 A 
ATOM     18  C   UNL A   1      30.198  27.813  22.837  1.00  0.00     0.082 A 
BRANCH  18  19
ATOM     19  S   UNL A   1      29.693  29.471  22.518  1.00  0.00     0.238 S 
ATOM     20  O   UNL A   1      28.558  29.452  21.627  1.00  0.00    -0.207 OA
ATOM     21  O   UNL A   1      29.693  30.216  23.756  1.00  0.00    -0.207 OA
BRANCH  19  22
ATOM     22  N   UNL A   1      30.984  30.061  21.626  1.00  0.00    -0.225 NA
ATOM     23  H   UNL A   1      31.366  29.315  21.046  1.00  0.00     0.137 HD
ATOM     24  H   UNL A   1      31.706  30.402  22.260  1.00  0.00     0.137 HD
ENDBRANCH  19  22
ENDBRANCH  18  19
ENDBRANCH  11  13
ENDBRANCH   5  11
ENDBRANCH   3   5
ENDBRANCH   2   3
ENDBRANCH   1   2
BRANCH   1  25
ATOM     25  C   UNL A   1      36.220  21.051  25.255  1.00  0.00     0.275 C 
BRANCH  25  26
ATOM     26  O   UNL A   1      37.367  21.908  25.091  1.00  0.00    -0.458 OA
BRANCH  26  27
ATOM     27  C   UNL A   1      38.470  21.496  25.753  1.00  0.00     0.338 C 
ATOM     28  O   UNL A   1      39.040  20.422  25.641  1.00  0.00    -0.246 OA
BRANCH  27  29
ATOM     29  C   UNL A   1      39.071  22.615  26.490  1.00  0.00     0.060 A 
ATOM     30  C   UNL A   1      38.560  23.868  26.194  1.00  0.00     0.016 A 
ATOM     31  C   UNL A   1      40.230  22.504  27.250  1.00  0.00     0.016 A 
ATOM     32  C   UNL A   1      39.269  25.016  26.500  1.00  0.00     0.010 A 
ATOM     33  C   UNL A   1      40.881  23.675  27.681  1.00  0.00     0.010 A 
ATOM     34  C   UNL A   1      40.436  24.946  27.264  1.00  0.00    -0.014 A 
BRANCH  34  35
ATOM     35  C   UNL A   1      41.175  26.213  27.542  1.00  0.00     0.031 A 
ATOM     36  C   UNL A   1      40.549  27.298  28.380  1.00  0.00     0.074 A 
ATOM     37  C   UNL A   1      42.455  26.348  27.136  1.00  0.00     0.049 A 
ATOM     38  N   UNL A   1      41.004  28.496  28.659  1.00  0.00    -0.248 NA
ATOM     39  C   UNL A   1      39.237  27.008  28.975  1.00  0.00     0.031 C 
ATOM     40  C   UNL A   1      43.211  25.354  26.369  1.00  0.00     0.029 A 
ATOM     41  N   UNL A   1      43.364  27.360  27.340  1.00  0.00    -0.354 N 
ATOM     42  C   UNL A   1      40.018  29.113  29.416  1.00  0.00     0.074 A 
ATOM     43  C   UNL A   1      38.929  28.167  29.541  1.00  0.00     0.031 C 
ATOM     44  C   UNL A   1      44.476  25.770  26.226  1.00  0.00     0.029 A 
ATOM     45  C   UNL A   1      44.599  27.108  26.791  1.00  0.00     0.049 A 
ATOM     46  H   UNL A   1      43.152  28.185  27.833  1.00  0.00     0.167 HD
ATOM     47  C   UNL A   1      40.022  30.353  29.964  1.00  0.00     0.037 A 
ATOM     48  C   UNL A   1      45.699  27.880  26.706  1.00  0.00     0.037 A 
ATOM     49  C   UNL A   1      41.127  31.274  29.882  1.00  0.00     0.049 A 
ATOM     50  C   UNL A   1      45.664  29.262  27.293  1.00  0.00     0.074 A 
ATOM     51  C   UNL A   1      41.221  32.560  30.387  1.00  0.00     0.029 A 
ATOM     52  N   UNL A   1      42.343  30.998  29.273  1.00  0.00    -0.354 N 
ATOM     53  N   UNL A   1      44.694  29.862  27.938  1.00  0.00    -0.248 NA
ATOM     54  C   UNL A   1      46.871  30.079  27.125  1.00  0.00     0.031 C 
ATOM     55  C   UNL A   1      42.478  33.076  30.050  1.00  0.00     0.029 A 
ATOM     56  C   UNL A   1      43.188  32.093  29.383  1.00  0.00     0.049 A 
ATOM     57  H   UNL A   1      42.572  30.150  28.828  1.00  0.00     0.167 HD
ATOM     58  C   UNL A   1      45.174  31.124  28.257  1.00  0.00     0.074 A 
ATOM     59  C   UNL A   1      46.536  31.187  27.769  1.00  0.00     0.031 C 
ATOM     60  C   UNL A   1      44.539  32.144  28.885  1.00  0.00     0.037 A 
BRANCH  47  61
ATOM     61  C   UNL A   1      38.777  30.805  30.675  1.00  0.00     0.064 A 
ATOM     62  C   UNL A   1      37.686  31.358  29.989  1.00  0.00     0.173 A 
ATOM     63  C   UNL A   1      38.660  30.644  32.065  1.00  0.00     0.173 A 
ATOM     64  F   UNL A   1      37.749  31.548  28.662  1.00  0.00    -0.203 F 
ATOM     65  C   UNL A   1      36.538  31.757  30.669  1.00  0.00     0.198 A 
ATOM     66  C   UNL A   1      37.499  31.014  32.738  1.00  0.00     0.198 A 
ATOM     67  F   UNL A   1      39.671  30.114  32.772  1.00  0.00    -0.203 F 
ATOM     68  F   UNL A   1      35.528  32.328  29.998  1.00  0.00    -0.200 F 
ATOM     69  C   UNL A   1      36.441  31.577  32.041  1.00  0.00     0.200 A 
ATOM     70  F   UNL A   1      37.403  30.826  34.062  1.00  0.00    -0.200 F 
ATOM     71  F   UNL A   1      35.332  31.953  32.692  1.00  0.00    -0.200 F 
ENDBRANCH  47  61
BRANCH  48  72
ATOM     72  C   UNL A   1      46.902  27.384  25.982  1.00  0.00     0.064 A 
ATOM     73  C   UNL A   1      47.056  27.575  24.602  1.00  0.00     0.173 A 
ATOM     74  C   UNL A   1      47.920  26.692  26.660  1.00  0.00     0.173 A 
ATOM     75  F   UNL A   1      46.100  28.203  23.902  1.00  0.00    -0.203 F 
ATOM     76  C   UNL A   1      48.170  27.081  23.927  1.00  0.00     0.198 A 
ATOM     77  C   UNL A   1      49.051  26.235  25.992  1.00  0.00     0.198 A 
ATOM     78  F   UNL A   1      47.823  26.478  27.981  1.00  0.00    -0.203 F 
ATOM     79  F   UNL A   1      48.265  27.228  22.599  1.00  0.00    -0.200 F 
ATOM     80  C   UNL A   1      49.171  26.419  24.623  1.00  0.00     0.200 A 
ATOM     81  F   UNL A   1      50.023  25.613  26.672  1.00  0.00    -0.200 F 
ATOM     82  F   UNL A   1      50.246  25.950  23.973  1.00  0.00    -0.200 F 
ENDBRANCH  48  72
BRANCH  60  83
ATOM     83  C   UNL A   1      45.329  33.404  29.094  1.00  0.00     0.064 A 
ATOM     84  C   UNL A   1      45.308  34.448  28.156  1.00  0.00     0.173 A 
ATOM     85  C   UNL A   1      46.122  33.564  30.239  1.00  0.00     0.173 A 
ATOM     86  F   UNL A   1      44.579  34.336  27.036  1.00  0.00    -0.203 F 
ATOM     87  C   UNL A   1      46.089  35.587  28.337  1.00  0.00     0.198 A 
ATOM     88  C   UNL A   1      46.875  34.719  30.433  1.00  0.00     0.198 A 
ATOM     89  F   UNL A   1      46.172  32.599  31.169  1.00  0.00    -0.203 F 
ATOM     90  F   UNL A   1      46.107  36.540  27.396  1.00  0.00    -0.200 F 
ATOM     91  C   UNL A   1      46.868  35.724  29.476  1.00  0.00     0.200 A 
ATOM     92  F   UNL A   1      47.618  34.856  31.540  1.00  0.00    -0.200 F 
ATOM     93  F   UNL A   1      47.623  36.818  29.646  1.00  0.00    -0.200 F 
ENDBRANCH  60  83
ENDBRANCH  34  35
ENDBRANCH  27  29
ENDBRANCH  26  27
ENDBRANCH  25  26
ENDBRANCH   1  25
TORSDOF 16
ENDMDL
MODEL 2
REMARK VINA RESULT:     -11.8      4.270      9.216
REMARK SMILES C[C@](Nc1ccc(S(N)(=O)=O)cc1)(C(=O)OCCOC(=O)c1ccc(-c2c3nc(c(-c4c(F)c(F)c(F)c(F)c4F)c4ccc([nH]4)c(-c4c(F)c(F)c(F)c(F)c4F)c4nc(c(-c5c(F)c(F)c(F)c(F)c5F)c5ccc2[nH]5)C=C4)C=C3)cc1)C(F)(F)F
REMARK SMILES IDX 17 1 16 2 14 3 15 4 2 5 1 6 85 7 86 8 87 9 88 10 3 11 4 13
REMARK SMILES IDX 5 14 13 15 6 16 12 17 7 18 8 19 10 20 11 21 9 22 18 25 19 26
REMARK SMILES IDX 20 27 21 28 22 29 23 30 84 31 24 32 83 33 25 34 26 35 27 36
REMARK SMILES IDX 77 37 28 38 82 39 76 40 78 41 29 42 81 43 75 44 74 45 30 47
REMARK SMILES IDX 62 48 42 49 61 50 43 51 46 52 60 53 79 54 44 55 45 56 59 58
REMARK SMILES IDX 80 59 47 60 31 61 32 62 40 63 33 64 34 65 38 66 41 67 35 68
REMARK SMILES IDX 36 69 39 70 37 71 63 72 64 73 72 74 65 75 66 76 70 77 73 78
REMARK SMILES IDX 67 79 68 80 71 81 69 82 48 83 49 84 57 85 50 86 51 87 55 88
REMARK SMILES IDX 58 89 52 90 53 91 56 92 54 93
REMARK H PARENT 3 12 9 23 9 24 78 46 46 57
REMARK Flexibility Score: inf
ROOT
ATOM      1  C   UNL A   1      31.835  28.547  27.472  1.00  0.00     0.274 C 
ENDROOT
BRANCH   1   2
ATOM      2  O   UNL A   1      32.373  27.472  26.673  1.00  0.00    -0.460 OA
BRANCH   2   3
ATOM      3  C   UNL A   1      31.542  26.432  26.352  1.00  0.00     0.341 C 
ATOM      4  O   UNL A   1      30.429  26.290  26.842  1.00  0.00    -0.249 OA
BRANCH   3   5
ATOM      5  C   UNL A   1      32.228  25.412  25.413  1.00  0.00     0.229 C 
ATOM      6  C   UNL A   1      33.725  25.673  25.633  1.00  0.00     0.057 C 
BRANCH   5   7
ATOM      7  C   UNL A   1      31.892  23.985  25.880  1.00  0.00     0.422 C 
ATOM      8  F   UNL A   1      32.062  23.840  27.217  1.00  0.00    -0.168 F 
ATOM      9  F   UNL A   1      30.590  23.683  25.634  1.00  0.00    -0.168 F 
ATOM     10  F   UNL A   1      32.625  23.027  25.273  1.00  0.00    -0.168 F 
ENDBRANCH   5   7
BRANCH   5  11
ATOM     11  N   UNL A   1      31.726  25.629  24.016  1.00  0.00    -0.363 N 
ATOM     12  H   UNL A   1      31.979  24.939  23.362  1.00  0.00     0.162 HD
BRANCH  11  13
ATOM     13  C   UNL A   1      30.962  26.657  23.528  1.00  0.00     0.035 A 
ATOM     14  C   UNL A   1      29.568  26.521  23.571  1.00  0.00     0.027 A 
ATOM     15  C   UNL A   1      31.494  27.867  23.082  1.00  0.00     0.027 A 
ATOM     16  C   UNL A   1      28.727  27.594  23.277  1.00  0.00     0.024 A 
ATOM     17  C   UNL A   1      30.671  28.957  22.802  1.00  0.00     0.024 A 
ATOM     18  C   UNL A   1      29.290  28.820  22.921  1.00  0.00     0.082 A 
BRANCH  18  19
ATOM     19  S   UNL A   1      28.248  30.227  22.716  1.00  0.00     0.238 S 
ATOM     20  O   UNL A   1      27.013  30.003  23.430  1.00  0.00    -0.207 OA
ATOM     21  O   UNL A   1      29.032  31.429  22.883  1.00  0.00    -0.207 OA
BRANCH  19  22
ATOM     22  N   UNL A   1      27.872  30.145  21.085  1.00  0.00    -0.225 NA
ATOM     23  H   UNL A   1      28.723  30.257  20.534  1.00  0.00     0.137 HD
ATOM     24  H   UNL A   1      27.215  30.889  20.851  1.00  0.00     0.137 HD
ENDBRANCH  19  22
ENDBRANCH  18  19
ENDBRANCH  11  13
ENDBRANCH   5  11
ENDBRANCH   3   5
ENDBRANCH   2   3
ENDBRANCH   1   2
BRANCH   1  25
ATOM     25  C   UNL A   1      31.739  29.846  26.669  1.00  0.00     0.275 C 
BRANCH  25  26
ATOM     26  O   UNL A   1      33.049  30.349  26.339  1.00  0.00    -0.458 OA
BRANCH  26  27
ATOM     27  C   UNL A   1      33.475  31.356  27.133  1.00  0.00     0.338 C 
ATOM     28  O   UNL A   1      32.799  32.250  27.618  1.00  0.00    -0.246 OA
BRANCH  27  29
ATOM     29  C   UNL A   1      34.861  31.120  27.556  1.00  0.00     0.060 A 
ATOM     30  C   UNL A   1      35.190  29.800  27.817  1.00  0.00     0.016 A 
ATOM     31  C   UNL A   1      35.739  32.135  27.919  1.00  0.00     0.016 A 
ATOM     32  C   UNL A   1      36.300  29.480  28.578  1.00  0.00     0.010 A 
ATOM     33  C   UNL A   1      36.939  31.801  28.574  1.00  0.00     0.010 A 
ATOM     34  C   UNL A   1      37.208  30.471  28.959  1.00  0.00    -0.014 A 
BRANCH  34  35
ATOM     35  C   UNL A   1      38.374  30.074  29.802  1.00  0.00     0.031 A 
ATOM     36  C   UNL A   1      39.483  29.230  29.230  1.00  0.00     0.074 A 
ATOM     37  C   UNL A   1      38.496  30.562  31.055  1.00  0.00     0.049 A 
ATOM     38  N   UNL A   1      40.531  28.721  29.830  1.00  0.00    -0.248 NA
ATOM     39  C   UNL A   1      39.403  28.906  27.797  1.00  0.00     0.031 C 
ATOM     40  C   UNL A   1      37.529  31.440  31.721  1.00  0.00     0.029 A 
ATOM     41  N   UNL A   1      39.500  30.422  31.984  1.00  0.00    -0.354 N 
ATOM     42  C   UNL A   1      41.203  27.982  28.865  1.00  0.00     0.074 A 
ATOM     43  C   UNL A   1      40.437  28.092  27.641  1.00  0.00     0.031 C 
ATOM     44  C   UNL A   1      38.013  31.811  32.913  1.00  0.00     0.029 A 
ATOM     45  C   UNL A   1      39.270  31.114  33.150  1.00  0.00     0.049 A 
ATOM     46  H   UNL A   1      40.306  29.879  31.829  1.00  0.00     0.167 HD
ATOM     47  C   UNL A   1      42.357  27.281  28.986  1.00  0.00     0.037 A 
ATOM     48  C   UNL A   1      39.966  31.152  34.302  1.00  0.00     0.037 A 
ATOM     49  C   UNL A   1      43.145  27.214  30.192  1.00  0.00     0.049 A 
ATOM     50  C   UNL A   1      41.223  30.339  34.420  1.00  0.00     0.074 A 
ATOM     51  C   UNL A   1      44.318  26.516  30.421  1.00  0.00     0.029 A 
ATOM     52  N   UNL A   1      42.851  27.891  31.367  1.00  0.00    -0.354 N 
ATOM     53  N   UNL A   1      41.804  29.581  33.523  1.00  0.00    -0.248 NA
ATOM     54  C   UNL A   1      41.912  30.375  35.716  1.00  0.00     0.031 C 
ATOM     55  C   UNL A   1      44.713  26.738  31.745  1.00  0.00     0.029 A 
ATOM     56  C   UNL A   1      43.816  27.618  32.326  1.00  0.00     0.049 A 
ATOM     57  H   UNL A   1      42.072  28.478  31.501  1.00  0.00     0.167 HD
ATOM     58  C   UNL A   1      42.927  29.053  34.142  1.00  0.00     0.074 A 
ATOM     59  C   UNL A   1      42.967  29.611  35.479  1.00  0.00     0.031 C 
ATOM     60  C   UNL A   1      43.837  28.175  33.654  1.00  0.00     0.037 A 
BRANCH  47  61
ATOM     61  C   UNL A   1      42.825  26.497  27.792  1.00  0.00     0.064 A 
ATOM     62  C   UNL A   1      43.724  27.030  26.857  1.00  0.00     0.173 A 
ATOM     63  C   UNL A   1      42.394  25.174  27.604  1.00  0.00     0.173 A 
ATOM     64  F   UNL A   1      44.156  28.294  26.981  1.00  0.00    -0.203 F 
ATOM     65  C   UNL A   1      44.153  26.278  25.765  1.00  0.00     0.198 A 
ATOM     66  C   UNL A   1      42.849  24.415  26.529  1.00  0.00     0.198 A 
ATOM     67  F   UNL A   1      41.538  24.611  28.471  1.00  0.00    -0.203 F 
ATOM     68  F   UNL A   1      44.974  26.825  24.858  1.00  0.00    -0.200 F 
ATOM     69  C   UNL A   1      43.723  24.970  25.607  1.00  0.00     0.200 A 
ATOM     70  F   UNL A   1      42.443  23.145  26.387  1.00  0.00    -0.200 F 
ATOM     71  F   UNL A   1      44.144  24.245  24.561  1.00  0.00    -0.200 F 
ENDBRANCH  47  61
BRANCH  48  72
ATOM     72  C   UNL A   1      39.450  31.939  35.456  1.00  0.00     0.064 A 
ATOM     73  C   UNL A   1      39.868  33.257  35.688  1.00  0.00     0.173 A 
ATOM     74  C   UNL A   1      38.534  31.379  36.362  1.00  0.00     0.173 A 
ATOM     75  F   UNL A   1      40.764  33.830  34.870  1.00  0.00    -0.203 F 
ATOM     76  C   UNL A   1      39.404  33.976  36.788  1.00  0.00     0.198 A 
ATOM     77  C   UNL A   1      38.040  32.112  37.437  1.00  0.00     0.198 A 
ATOM     78  F   UNL A   1      38.102  30.121  36.190  1.00  0.00    -0.203 F 
ATOM     79  F   UNL A   1      39.863  35.214  37.018  1.00  0.00    -0.200 F 
ATOM     80  C   UNL A   1      38.485  33.407  37.656  1.00  0.00     0.200 A 
ATOM     81  F   UNL A   1      37.139  31.563  38.261  1.00  0.00    -0.200 F 
ATOM     82  F   UNL A   1      38.033  34.102  38.710  1.00  0.00    -0.200 F 
ENDBRANCH  48  72
BRANCH  60  83
ATOM     83  C   UNL A   1      44.961  27.786  34.572  1.00  0.00     0.064 A 
ATOM     84  C   UNL A   1      44.868  26.669  35.415  1.00  0.00     0.173 A 
ATOM     85  C   UNL A   1      46.139  28.546  34.614  1.00  0.00     0.173 A 
ATOM     86  F   UNL A   1      43.755  25.919  35.424  1.00  0.00    -0.203 F 
ATOM     87  C   UNL A   1      45.895  26.353  36.300  1.00  0.00     0.198 A 
ATOM     88  C   UNL A   1      47.178  28.208  35.477  1.00  0.00     0.198 A 
ATOM     89  F   UNL A   1      46.282  29.621  33.824  1.00  0.00    -0.203 F 
ATOM     90  F   UNL A   1      45.756  25.322  37.145  1.00  0.00    -0.200 F 
ATOM     91  C   UNL A   1      47.051  27.120  36.327  1.00  0.00     0.200 A 
ATOM     92  F   UNL A   1      48.300  28.942  35.494  1.00  0.00    -0.200 F 
ATOM     93  F   UNL A   1      48.037  26.818  37.184  1.00  0.00    -0.200 F 
ENDBRANCH  60  83
ENDBRANCH  34  35
ENDBRANCH  27  29
ENDBRANCH  26  27
ENDBRANCH  25  26
ENDBRANCH   1  25
TORSDOF 16
ENDMDL
MODEL 3
REMARK VINA RESULT:     -11.8      4.424      7.344
REMARK SMILES C[C@](Nc1ccc(S(N)(=O)=O)cc1)(C(=O)OCCOC(=O)c1ccc(-c2c3nc(c(-c4c(F)c(F)c(F)c(F)c4F)c4ccc([nH]4)c(-c4c(F)c(F)c(F)c(F)c4F)c4nc(c(-c5c(F)c(F)c(F)c(F)c5F)c5ccc2[nH]5)C=C4)C=C3)cc1)C(F)(F)F
REMARK SMILES IDX 17 1 16 2 14 3 15 4 2 5 1 6 85 7 86 8 87 9 88 10 3 11 4 13
REMARK SMILES IDX 5 14 13 15 6 16 12 17 7 18 8 19 10 20 11 21 9 22 18 25 19 26
REMARK SMILES IDX 20 27 21 28 22 29 23 30 84 31 24 32 83 33 25 34 26 35 27 36
REMARK SMILES IDX 77 37 28 38 82 39 76 40 78 41 29 42 81 43 75 44 74 45 30 47
REMARK SMILES IDX 62 48 42 49 61 50 43 51 46 52 60 53 79 54 44 55 45 56 59 58
REMARK SMILES IDX 80 59 47 60 31 61 32 62 40 63 33 64 34 65 38 66 41 67 35 68
REMARK SMILES IDX 36 69 39 70 37 71 63 72 64 73 72 74 65 75 66 76 70 77 73 78
REMARK SMILES IDX 67 79 68 80 71 81 69 82 48 83 49 84 57 85 50 86 51 87 55 88
REMARK SMILES IDX 58 89 52 90 53 91 56 92 54 93
REMARK H PARENT 3 12 9 23 9 24 78 46 46 57
REMARK Flexibility Score: inf
ROOT
ATOM      1  C   UNL A   1      32.194  29.742  25.242  1.00  0.00     0.274 C 
ENDROOT
BRANCH   1   2
ATOM      2  O   UNL A   1      31.460  28.519  25.464  1.00  0.00    -0.460 OA
BRANCH   2   3
ATOM      3  C   UNL A   1      32.045  27.550  26.234  1.00  0.00     0.341 C 
ATOM      4  O   UNL A   1      32.542  27.776  27.330  1.00  0.00    -0.249 OA
BRANCH   3   5
ATOM      5  C   UNL A   1      32.112  26.191  25.500  1.00  0.00     0.229 C 
ATOM      6  C   UNL A   1      31.045  26.321  24.404  1.00  0.00     0.057 C 
BRANCH   5   7
ATOM      7  C   UNL A   1      33.494  26.037  24.841  1.00  0.00     0.422 C 
ATOM      8  F   UNL A   1      33.924  27.200  24.297  1.00  0.00    -0.168 F 
ATOM      9  F   UNL A   1      34.435  25.680  25.754  1.00  0.00    -0.168 F 
ATOM     10  F   UNL A   1      33.532  25.098  23.870  1.00  0.00    -0.168 F 
ENDBRANCH   5   7
BRANCH   5  11
ATOM     11  N   UNL A   1      31.892  25.092  26.497  1.00  0.00    -0.363 N 
ATOM     12  H   UNL A   1      31.557  25.377  27.377  1.00  0.00     0.162 HD
BRANCH  11  13
ATOM     13  C   UNL A   1      32.095  23.743  26.348  1.00  0.00     0.035 A 
ATOM     14  C   UNL A   1      31.307  23.058  25.414  1.00  0.00     0.027 A 
ATOM     15  C   UNL A   1      33.105  23.040  27.003  1.00  0.00     0.027 A 
ATOM     16  C   UNL A   1      31.583  21.736  25.067  1.00  0.00     0.024 A 
ATOM     17  C   UNL A   1      33.409  21.724  26.655  1.00  0.00     0.024 A 
ATOM     18  C   UNL A   1      32.658  21.085  25.673  1.00  0.00     0.082 A 
BRANCH  18  19
ATOM     19  S   UNL A   1      33.124  19.478  25.119  1.00  0.00     0.238 S 
ATOM     20  O   UNL A   1      32.153  19.015  24.156  1.00  0.00    -0.207 OA
ATOM     21  O   UNL A   1      34.544  19.457  24.857  1.00  0.00    -0.207 OA
BRANCH  19  22
ATOM     22  N   UNL A   1      32.897  18.556  26.499  1.00  0.00    -0.225 NA
ATOM     23  H   UNL A   1      31.932  18.229  26.536  1.00  0.00     0.137 HD
ATOM     24  H   UNL A   1      33.095  19.123  27.323  1.00  0.00     0.137 HD
ENDBRANCH  19  22
ENDBRANCH  18  19
ENDBRANCH  11  13
ENDBRANCH   5  11
ENDBRANCH   3   5
ENDBRANCH   2   3
ENDBRANCH   1   2
BRANCH   1  25
ATOM     25  C   UNL A   1      31.669  30.877  26.124  1.00  0.00     0.275 C 
BRANCH  25  26
ATOM     26  O   UNL A   1      32.444  30.994  27.333  1.00  0.00    -0.458 OA
BRANCH  26  27
ATOM     27  C   UNL A   1      33.233  32.090  27.385  1.00  0.00     0.338 C 
ATOM     28  O   UNL A   1      32.877  33.258  27.355  1.00  0.00    -0.246 OA
BRANCH  27  29
ATOM     29  C   UNL A   1      34.610  31.712  27.728  1.00  0.00     0.060 A 
ATOM     30  C   UNL A   1      34.810  30.370  28.004  1.00  0.00     0.016 A 
ATOM     31  C   UNL A   1      35.614  32.632  28.007  1.00  0.00     0.016 A 
ATOM     32  C   UNL A   1      35.925  29.946  28.703  1.00  0.00     0.010 A 
ATOM     33  C   UNL A   1      36.811  32.181  28.595  1.00  0.00     0.010 A 
ATOM     34  C   UNL A   1      36.958  30.839  28.999  1.00  0.00    -0.014 A 
BRANCH  34  35
ATOM     35  C   UNL A   1      38.127  30.333  29.779  1.00  0.00     0.031 A 
ATOM     36  C   UNL A   1      38.302  30.707  31.228  1.00  0.00     0.074 A 
ATOM     37  C   UNL A   1      38.976  29.446  29.219  1.00  0.00     0.049 A 
ATOM     38  N   UNL A   1      39.293  30.431  32.041  1.00  0.00    -0.248 NA
ATOM     39  C   UNL A   1      37.231  31.503  31.846  1.00  0.00     0.031 C 
ATOM     40  C   UNL A   1      38.895  28.945  27.843  1.00  0.00     0.029 A 
ATOM     41  N   UNL A   1      40.055  28.775  29.745  1.00  0.00    -0.354 N 
ATOM     42  C   UNL A   1      38.987  31.057  33.242  1.00  0.00     0.074 A 
ATOM     43  C   UNL A   1      37.727  31.744  33.051  1.00  0.00     0.031 C 
ATOM     44  C   UNL A   1      39.831  28.007  27.655  1.00  0.00     0.029 A 
ATOM     45  C   UNL A   1      40.653  27.913  28.855  1.00  0.00     0.049 A 
ATOM     46  H   UNL A   1      40.370  28.899  30.669  1.00  0.00     0.167 HD
ATOM     47  C   UNL A   1      39.690  31.055  34.401  1.00  0.00     0.037 A 
ATOM     48  C   UNL A   1      41.765  27.163  28.969  1.00  0.00     0.037 A 
ATOM     49  C   UNL A   1      40.919  30.328  34.605  1.00  0.00     0.049 A 
ATOM     50  C   UNL A   1      42.543  27.205  30.253  1.00  0.00     0.074 A 
ATOM     51  C   UNL A   1      41.716  30.277  35.737  1.00  0.00     0.029 A 
ATOM     52  N   UNL A   1      41.518  29.506  33.662  1.00  0.00    -0.354 N 
ATOM     53  N   UNL A   1      42.283  27.865  31.355  1.00  0.00    -0.248 NA
ATOM     54  C   UNL A   1      43.775  26.410  30.303  1.00  0.00     0.031 C 
ATOM     55  C   UNL A   1      42.816  29.457  35.464  1.00  0.00     0.029 A 
ATOM     56  C   UNL A   1      42.678  28.951  34.183  1.00  0.00     0.049 A 
ATOM     57  H   UNL A   1      41.170  29.341  32.755  1.00  0.00     0.167 HD
ATOM     58  C   UNL A   1      43.316  27.563  32.230  1.00  0.00     0.074 A 
ATOM     59  C   UNL A   1      44.184  26.627  31.544  1.00  0.00     0.031 C 
ATOM     60  C   UNL A   1      43.535  28.028  33.484  1.00  0.00     0.037 A 
BRANCH  47  61
ATOM     61  C   UNL A   1      39.167  31.891  35.535  1.00  0.00     0.064 A 
ATOM     62  C   UNL A   1      38.335  31.359  36.531  1.00  0.00     0.173 A 
ATOM     63  C   UNL A   1      39.538  33.240  35.646  1.00  0.00     0.173 A 
ATOM     64  F   UNL A   1      37.938  30.079  36.466  1.00  0.00    -0.203 F 
ATOM     65  C   UNL A   1      37.874  32.151  37.580  1.00  0.00     0.198 A 
ATOM     66  C   UNL A   1      39.102  34.022  36.713  1.00  0.00     0.198 A 
ATOM     67  F   UNL A   1      40.337  33.801  34.725  1.00  0.00    -0.203 F 
ATOM     68  F   UNL A   1      37.040  31.634  38.493  1.00  0.00    -0.200 F 
ATOM     69  C   UNL A   1      38.264  33.479  37.675  1.00  0.00     0.200 A 
ATOM     70  F   UNL A   1      39.492  35.301  36.810  1.00  0.00    -0.200 F 
ATOM     71  F   UNL A   1      37.826  34.237  38.690  1.00  0.00    -0.200 F 
ENDBRANCH  47  61
BRANCH  48  72
ATOM     72  C   UNL A   1      42.242  26.360  27.809  1.00  0.00     0.064 A 
ATOM     73  C   UNL A   1      41.740  25.076  27.552  1.00  0.00     0.173 A 
ATOM     74  C   UNL A   1      43.225  26.860  26.939  1.00  0.00     0.173 A 
ATOM     75  F   UNL A   1      40.822  24.540  28.369  1.00  0.00    -0.203 F 
ATOM     76  C   UNL A   1      42.215  24.319  26.482  1.00  0.00     0.198 A 
ATOM     77  C   UNL A   1      43.668  26.119  25.847  1.00  0.00     0.198 A 
ATOM     78  F   UNL A   1      43.742  28.081  27.139  1.00  0.00    -0.203 F 
ATOM     79  F   UNL A   1      41.759  23.073  26.293  1.00  0.00    -0.200 F 
ATOM     80  C   UNL A   1      43.171  24.844  25.626  1.00  0.00     0.200 A 
ATOM     81  F   UNL A   1      44.579  26.638  25.014  1.00  0.00    -0.200 F 
ATOM     82  F   UNL A   1      43.621  24.117  24.593  1.00  0.00    -0.200 F 
ENDBRANCH  48  72
BRANCH  60  83
ATOM     83  C   UNL A   1      44.752  27.509  34.195  1.00  0.00     0.064 A 
ATOM     84  C   UNL A   1      44.709  26.336  34.964  1.00  0.00     0.173 A 
ATOM     85  C   UNL A   1      45.971  28.198  34.113  1.00  0.00     0.173 A 
ATOM     86  F   UNL A   1      43.563  25.650  35.087  1.00  0.00    -0.203 F 
ATOM     87  C   UNL A   1      45.831  25.897  35.662  1.00  0.00     0.198 A 
ATOM     88  C   UNL A   1      47.100  27.738  34.785  1.00  0.00     0.198 A 
ATOM     89  F   UNL A   1      46.068  29.321  33.386  1.00  0.00    -0.203 F 
ATOM     90  F   UNL A   1      45.749  24.813  36.445  1.00  0.00    -0.200 F 
ATOM     91  C   UNL A   1      47.026  26.595  35.568  1.00  0.00     0.200 A 
ATOM     92  F   UNL A   1      48.258  28.406  34.685  1.00  0.00    -0.200 F 
ATOM     93  F   UNL A   1      48.104  26.175  36.246  1.00  0.00    -0.200 F 
ENDBRANCH  60  83
ENDBRANCH  34  35
ENDBRANCH  27  29
ENDBRANCH  26  27
ENDBRANCH  25  26
ENDBRANCH   1  25
TORSDOF 16
ENDMDL
