MODEL 1
REMARK VINA RESULT:     -12.1      0.000      0.000
REMARK SMILES CCOc1cc(C(=O)N2CCC(C(=O)OCCOC(=O)c3ccc(-c4c5nc(c(-c6c(F)c(F)c(F)c(F)c6F)c6ccc([nH]6)c(-c6c(F)c(F)c(F)c(F)c6F)c6nc(c(-c7c(F)c(F)c(F)c(F)c7F)c7ccc4[nH]7)C=C6)C=C5)cc3)(c3ccccc3)CC2)ccc1OC
REMARK SMILES IDX 16 1 15 2 13 3 14 4 12 5 7 6 8 7 9 8 10 9 91 10 11 11 90 12
REMARK SMILES IDX 6 13 4 14 5 15 94 16 93 17 92 18 3 19 2 20 1 21 95 22 96 23
REMARK SMILES IDX 84 24 85 25 89 26 86 27 88 28 87 29 17 30 18 31 19 32 20 33
REMARK SMILES IDX 21 34 22 35 83 36 23 37 82 38 24 39 25 40 26 41 76 42 27 43
REMARK SMILES IDX 81 44 75 45 77 46 28 47 80 48 74 49 73 50 29 52 61 53 41 54
REMARK SMILES IDX 60 55 42 56 45 57 59 58 78 59 43 60 44 61 58 63 79 64 46 65
REMARK SMILES IDX 30 66 31 67 39 68 32 69 33 70 37 71 40 72 34 73 35 74 38 75
REMARK SMILES IDX 36 76 62 77 63 78 71 79 64 80 65 81 69 82 72 83 66 84 67 85
REMARK SMILES IDX 70 86 68 87 47 88 48 89 56 90 49 91 50 92 54 93 57 94 51 95
REMARK SMILES IDX 52 96 55 97 53 98
REMARK H PARENT 77 51 45 62
REMARK Flexibility Score: inf
ROOT
ATOM      1  C   UNL A   1      31.765  30.409  26.007  1.00  0.00     0.274 C 
ENDROOT
BRANCH   1   2
ATOM      2  O   UNL A   1      32.561  29.383  26.635  1.00  0.00    -0.461 OA
BRANCH   2   3
ATOM      3  C   UNL A   1      31.945  28.199  26.911  1.00  0.00     0.316 C 
ATOM      4  O   UNL A   1      31.415  27.968  27.992  1.00  0.00    -0.251 OA
BRANCH   3   5
ATOM      5  C   UNL A   1      32.081  27.158  25.746  1.00  0.00     0.096 C 
ATOM      6  C   UNL A   1      34.439  23.857  24.097  1.00  0.00     0.253 C 
ATOM      7  O   UNL A   1      35.580  23.998  23.665  1.00  0.00    -0.269 OA
ATOM      8  N   UNL A   1      33.692  24.897  24.669  1.00  0.00    -0.339 N 
ATOM      9  C   UNL A   1      33.969  26.232  24.162  1.00  0.00     0.121 C 
ATOM     10  C   UNL A   1      32.475  24.672  25.447  1.00  0.00     0.121 C 
ATOM     11  C   UNL A   1      33.423  27.397  24.988  1.00  0.00     0.045 C 
ATOM     12  C   UNL A   1      32.200  25.784  26.444  1.00  0.00     0.045 C 
BRANCH   6  13
ATOM     13  C   UNL A   1      33.780  22.543  23.896  1.00  0.00     0.043 A 
ATOM     14  C   UNL A   1      33.528  20.197  24.435  1.00  0.00     0.161 A 
ATOM     15  C   UNL A   1      34.141  21.439  24.671  1.00  0.00     0.064 A 
ATOM     16  C   UNL A   1      32.517  20.075  23.470  1.00  0.00     0.160 A 
ATOM     17  C   UNL A   1      32.224  21.173  22.656  1.00  0.00     0.051 A 
ATOM     18  C   UNL A   1      32.869  22.392  22.847  1.00  0.00     0.018 A 
BRANCH  14  19
ATOM     19  O   UNL A   1      33.906  19.117  25.185  1.00  0.00    -0.490 OA
BRANCH  19  20
ATOM     20  C   UNL A   1      35.033  18.431  24.622  1.00  0.00     0.226 C 
ATOM     21  C   UNL A   1      34.609  17.013  24.280  1.00  0.00     0.049 C 
ENDBRANCH  19  20
ENDBRANCH  14  19
BRANCH  16  22
ATOM     22  O   UNL A   1      31.775  18.971  23.157  1.00  0.00    -0.493 OA
ATOM     23  C   UNL A   1      32.174  18.204  22.030  1.00  0.00     0.278 C 
ENDBRANCH  16  22
ENDBRANCH   6  13
BRANCH   5  24
ATOM     24  C   UNL A   1      30.809  27.163  24.836  1.00  0.00    -0.031 A 
ATOM     25  C   UNL A   1      30.659  28.124  23.810  1.00  0.00     0.005 A 
ATOM     26  C   UNL A   1      29.739  26.264  25.000  1.00  0.00     0.005 A 
ATOM     27  C   UNL A   1      29.530  28.163  22.984  1.00  0.00     0.000 A 
ATOM     28  C   UNL A   1      28.586  26.331  24.204  1.00  0.00     0.000 A 
ATOM     29  C   UNL A   1      28.484  27.274  23.188  1.00  0.00     0.000 A 
ENDBRANCH   5  24
ENDBRANCH   3   5
ENDBRANCH   2   3
ENDBRANCH   1   2
BRANCH   1  30
ATOM     30  C   UNL A   1      31.732  31.655  26.886  1.00  0.00     0.275 C 
BRANCH  30  31
ATOM     31  O   UNL A   1      32.928  32.419  26.654  1.00  0.00    -0.458 OA
BRANCH  31  32
ATOM     32  C   UNL A   1      33.332  33.217  27.661  1.00  0.00     0.338 C 
ATOM     33  O   UNL A   1      32.791  34.234  28.080  1.00  0.00    -0.246 OA
BRANCH  32  34
ATOM     34  C   UNL A   1      34.565  32.667  28.240  1.00  0.00     0.060 A 
ATOM     35  C   UNL A   1      34.554  31.372  28.754  1.00  0.00     0.016 A 
ATOM     36  C   UNL A   1      35.704  33.461  28.360  1.00  0.00     0.016 A 
ATOM     37  C   UNL A   1      35.664  30.880  29.432  1.00  0.00     0.010 A 
ATOM     38  C   UNL A   1      36.842  32.943  28.988  1.00  0.00     0.010 A 
ATOM     39  C   UNL A   1      36.824  31.654  29.554  1.00  0.00    -0.014 A 
BRANCH  39  40
ATOM     40  C   UNL A   1      37.976  31.145  30.346  1.00  0.00     0.031 A 
ATOM     41  C   UNL A   1      38.961  30.206  29.705  1.00  0.00     0.074 A 
ATOM     42  C   UNL A   1      38.184  31.557  31.611  1.00  0.00     0.049 A 
ATOM     43  N   UNL A   1      39.937  29.526  30.253  1.00  0.00    -0.248 NA
ATOM     44  C   UNL A   1      38.830  30.007  28.253  1.00  0.00     0.031 C 
ATOM     45  C   UNL A   1      37.364  32.532  32.329  1.00  0.00     0.029 A 
ATOM     46  N   UNL A   1      39.162  31.216  32.513  1.00  0.00    -0.354 N 
ATOM     47  C   UNL A   1      40.499  28.779  29.225  1.00  0.00     0.074 A 
ATOM     48  C   UNL A   1      39.764  29.097  28.019  1.00  0.00     0.031 C 
ATOM     49  C   UNL A   1      37.893  32.738  33.547  1.00  0.00     0.029 A 
ATOM     50  C   UNL A   1      39.041  31.853  33.723  1.00  0.00     0.049 A 
ATOM     51  H   UNL A   1      39.882  30.576  32.311  1.00  0.00     0.167 HD
ATOM     52  C   UNL A   1      41.530  27.903  29.286  1.00  0.00     0.037 A 
ATOM     53  C   UNL A   1      39.752  31.712  34.860  1.00  0.00     0.037 A 
ATOM     54  C   UNL A   1      42.292  27.621  30.473  1.00  0.00     0.049 A 
ATOM     55  C   UNL A   1      40.862  30.698  34.915  1.00  0.00     0.074 A 
ATOM     56  C   UNL A   1      43.334  26.726  30.641  1.00  0.00     0.029 A 
ATOM     57  N   UNL A   1      42.104  28.250  31.695  1.00  0.00    -0.354 N 
ATOM     58  N   UNL A   1      41.326  29.924  33.965  1.00  0.00    -0.248 NA
ATOM     59  C   UNL A   1      41.528  30.517  36.214  1.00  0.00     0.031 C 
ATOM     60  C   UNL A   1      43.761  26.795  31.973  1.00  0.00     0.029 A 
ATOM     61  C   UNL A   1      43.007  27.758  32.623  1.00  0.00     0.049 A 
ATOM     62  H   UNL A   1      41.428  28.943  31.876  1.00  0.00     0.167 HD
ATOM     63  C   UNL A   1      42.334  29.169  34.547  1.00  0.00     0.074 A 
ATOM     64  C   UNL A   1      42.437  29.596  35.926  1.00  0.00     0.031 C 
ATOM     65  C   UNL A   1      43.098  28.198  33.991  1.00  0.00     0.037 A 
BRANCH  52  66
ATOM     66  C   UNL A   1      41.862  27.145  28.037  1.00  0.00     0.064 A 
ATOM     67  C   UNL A   1      42.782  27.630  27.097  1.00  0.00     0.173 A 
ATOM     68  C   UNL A   1      41.265  25.899  27.793  1.00  0.00     0.173 A 
ATOM     69  F   UNL A   1      43.363  28.825  27.277  1.00  0.00    -0.203 F 
ATOM     70  C   UNL A   1      43.076  26.904  25.946  1.00  0.00     0.198 A 
ATOM     71  C   UNL A   1      41.580  25.164  26.654  1.00  0.00     0.198 A 
ATOM     72  F   UNL A   1      40.381  25.391  28.664  1.00  0.00    -0.203 F 
ATOM     73  F   UNL A   1      43.928  27.403  25.040  1.00  0.00    -0.200 F 
ATOM     74  C   UNL A   1      42.480  25.670  25.728  1.00  0.00     0.200 A 
ATOM     75  F   UNL A   1      41.009  23.969  26.450  1.00  0.00    -0.200 F 
ATOM     76  F   UNL A   1      42.768  24.971  24.622  1.00  0.00    -0.200 F 
ENDBRANCH  52  66
BRANCH  53  77
ATOM     77  C   UNL A   1      39.406  32.520  36.059  1.00  0.00     0.064 A 
ATOM     78  C   UNL A   1      38.448  32.072  36.978  1.00  0.00     0.173 A 
ATOM     79  C   UNL A   1      40.011  33.763  36.300  1.00  0.00     0.173 A 
ATOM     80  F   UNL A   1      37.820  30.904  36.774  1.00  0.00    -0.203 F 
ATOM     81  C   UNL A   1      38.101  32.841  38.087  1.00  0.00     0.198 A 
ATOM     82  C   UNL A   1      39.684  34.516  37.424  1.00  0.00     0.198 A 
ATOM     83  F   UNL A   1      40.928  34.241  35.446  1.00  0.00    -0.203 F 
ATOM     84  F   UNL A   1      37.149  32.409  38.927  1.00  0.00    -0.200 F 
ATOM     85  C   UNL A   1      38.724  34.059  38.313  1.00  0.00     0.200 A 
ATOM     86  F   UNL A   1      40.297  35.688  37.644  1.00  0.00    -0.200 F 
ATOM     87  F   UNL A   1      38.393  34.795  39.382  1.00  0.00    -0.200 F 
ENDBRANCH  53  77
BRANCH  65  88
ATOM     88  C   UNL A   1      44.120  27.542  34.870  1.00  0.00     0.064 A 
ATOM     89  C   UNL A   1      43.827  26.368  35.580  1.00  0.00     0.173 A 
ATOM     90  C   UNL A   1      45.416  28.069  34.973  1.00  0.00     0.173 A 
ATOM     91  F   UNL A   1      42.596  25.837  35.524  1.00  0.00    -0.203 F 
ATOM     92  C   UNL A   1      44.790  25.756  36.377  1.00  0.00     0.198 A 
ATOM     93  C   UNL A   1      46.383  27.441  35.753  1.00  0.00     0.198 A 
ATOM     94  F   UNL A   1      45.747  29.187  34.309  1.00  0.00    -0.203 F 
ATOM     95  F   UNL A   1      44.478  24.657  37.077  1.00  0.00    -0.200 F 
ATOM     96  C   UNL A   1      46.068  26.289  36.458  1.00  0.00     0.200 A 
ATOM     97  F   UNL A   1      47.620  27.952  35.825  1.00  0.00    -0.200 F 
ATOM     98  F   UNL A   1      46.995  25.696  37.223  1.00  0.00    -0.200 F 
ENDBRANCH  65  88
ENDBRANCH  39  40
ENDBRANCH  32  34
ENDBRANCH  31  32
ENDBRANCH  30  31
ENDBRANCH   1  30
TORSDOF 16
ENDMDL
MODEL 2
REMARK VINA RESULT:     -12.1      4.269     10.190
REMARK SMILES CCOc1cc(C(=O)N2CCC(C(=O)OCCOC(=O)c3ccc(-c4c5nc(c(-c6c(F)c(F)c(F)c(F)c6F)c6ccc([nH]6)c(-c6c(F)c(F)c(F)c(F)c6F)c6nc(c(-c7c(F)c(F)c(F)c(F)c7F)c7ccc4[nH]7)C=C6)C=C5)cc3)(c3ccccc3)CC2)ccc1OC
REMARK SMILES IDX 16 1 15 2 13 3 14 4 12 5 7 6 8 7 9 8 10 9 91 10 11 11 90 12
REMARK SMILES IDX 6 13 4 14 5 15 94 16 93 17 92 18 3 19 2 20 1 21 95 22 96 23
REMARK SMILES IDX 84 24 85 25 89 26 86 27 88 28 87 29 17 30 18 31 19 32 20 33
REMARK SMILES IDX 21 34 22 35 83 36 23 37 82 38 24 39 25 40 26 41 76 42 27 43
REMARK SMILES IDX 81 44 75 45 77 46 28 47 80 48 74 49 73 50 29 52 61 53 41 54
REMARK SMILES IDX 60 55 42 56 45 57 59 58 78 59 43 60 44 61 58 63 79 64 46 65
REMARK SMILES IDX 30 66 31 67 39 68 32 69 33 70 37 71 40 72 34 73 35 74 38 75
REMARK SMILES IDX 36 76 62 77 63 78 71 79 64 80 65 81 69 82 72 83 66 84 67 85
REMARK SMILES IDX 70 86 68 87 47 88 48 89 56 90 49 91 50 92 54 93 57 94 51 95
REMARK SMILES IDX 52 96 55 97 53 98
REMARK H PARENT 77 51 45 62
REMARK Flexibility Score: inf
ROOT
ATOM      1  C   UNL A   1      36.136  20.383  25.044  1.00  0.00     0.274 C 
ENDROOT
BRANCH   1   2
ATOM      2  O   UNL A   1      35.584  21.707  25.196  1.00  0.00    -0.461 OA
BRANCH   2   3
ATOM      3  C   UNL A   1      34.628  21.876  26.153  1.00  0.00     0.316 C 
ATOM      4  O   UNL A   1      34.755  21.447  27.295  1.00  0.00    -0.251 OA
BRANCH   3   5
ATOM      5  C   UNL A   1      33.336  22.576  25.604  1.00  0.00     0.096 C 
ATOM      6  C   UNL A   1      30.636  26.002  25.983  1.00  0.00     0.253 C 
ATOM      7  O   UNL A   1      29.923  26.189  26.966  1.00  0.00    -0.269 OA
ATOM      8  N   UNL A   1      31.537  24.933  25.870  1.00  0.00    -0.339 N 
ATOM      9  C   UNL A   1      31.168  23.714  26.570  1.00  0.00     0.121 C 
ATOM     10  C   UNL A   1      32.588  24.879  24.856  1.00  0.00     0.121 C 
ATOM     11  C   UNL A   1      32.272  22.669  26.740  1.00  0.00     0.045 C 
ATOM     12  C   UNL A   1      33.770  24.023  25.277  1.00  0.00     0.045 C 
BRANCH   6  13
ATOM     13  C   UNL A   1      30.444  26.891  24.810  1.00  0.00     0.043 A 
ATOM     14  C   UNL A   1      31.238  28.615  23.310  1.00  0.00     0.161 A 
ATOM     15  C   UNL A   1      31.458  27.759  24.401  1.00  0.00     0.064 A 
ATOM     16  C   UNL A   1      30.032  28.562  22.596  1.00  0.00     0.160 A 
ATOM     17  C   UNL A   1      29.004  27.740  23.067  1.00  0.00     0.051 A 
ATOM     18  C   UNL A   1      29.196  26.930  24.182  1.00  0.00     0.018 A 
BRANCH  14  19
ATOM     19  O   UNL A   1      32.232  29.478  22.933  1.00  0.00    -0.490 OA
BRANCH  19  20
ATOM     20  C   UNL A   1      33.533  29.011  23.316  1.00  0.00     0.226 C 
ATOM     21  C   UNL A   1      34.150  28.287  22.132  1.00  0.00     0.049 C 
ENDBRANCH  19  20
ENDBRANCH  14  19
BRANCH  16  22
ATOM     22  O   UNL A   1      29.676  29.269  21.482  1.00  0.00    -0.493 OA
ATOM     23  C   UNL A   1      29.085  30.546  21.670  1.00  0.00     0.278 C 
ENDBRANCH  16  22
ENDBRANCH   6  13
BRANCH   5  24
ATOM     24  C   UNL A   1      32.834  21.882  24.295  1.00  0.00    -0.031 A 
ATOM     25  C   UNL A   1      32.531  20.502  24.280  1.00  0.00     0.005 A 
ATOM     26  C   UNL A   1      32.696  22.557  23.068  1.00  0.00     0.005 A 
ATOM     27  C   UNL A   1      32.089  19.847  23.125  1.00  0.00     0.000 A 
ATOM     28  C   UNL A   1      32.297  21.893  21.899  1.00  0.00     0.000 A 
ATOM     29  C   UNL A   1      31.984  20.540  21.928  1.00  0.00     0.000 A 
ENDBRANCH   5  24
ENDBRANCH   3   5
ENDBRANCH   2   3
ENDBRANCH   1   2
BRANCH   1  30
ATOM     30  C   UNL A   1      37.652  20.464  24.894  1.00  0.00     0.275 C 
BRANCH  30  31
ATOM     31  O   UNL A   1      38.157  21.450  25.810  1.00  0.00    -0.458 OA
BRANCH  31  32
ATOM     32  C   UNL A   1      39.380  21.217  26.326  1.00  0.00     0.338 C 
ATOM     33  O   UNL A   1      39.972  20.146  26.407  1.00  0.00    -0.246 OA
BRANCH  32  34
ATOM     34  C   UNL A   1      39.954  22.489  26.783  1.00  0.00     0.060 A 
ATOM     35  C   UNL A   1      39.512  23.679  26.210  1.00  0.00     0.016 A 
ATOM     36  C   UNL A   1      40.994  22.500  27.712  1.00  0.00     0.016 A 
ATOM     37  C   UNL A   1      40.138  24.881  26.525  1.00  0.00     0.010 A 
ATOM     38  C   UNL A   1      41.582  23.718  28.074  1.00  0.00     0.010 A 
ATOM     39  C   UNL A   1      41.175  24.919  27.462  1.00  0.00    -0.014 A 
BRANCH  39  40
ATOM     40  C   UNL A   1      41.885  26.198  27.733  1.00  0.00     0.031 A 
ATOM     41  C   UNL A   1      41.228  27.246  28.590  1.00  0.00     0.074 A 
ATOM     42  C   UNL A   1      43.132  26.410  27.271  1.00  0.00     0.049 A 
ATOM     43  N   UNL A   1      41.597  28.481  28.820  1.00  0.00    -0.248 NA
ATOM     44  C   UNL A   1      39.991  26.848  29.280  1.00  0.00     0.031 C 
ATOM     45  C   UNL A   1      43.926  25.450  26.505  1.00  0.00     0.029 A 
ATOM     46  N   UNL A   1      43.956  27.502  27.393  1.00  0.00    -0.354 N 
ATOM     47  C   UNL A   1      40.611  29.023  29.635  1.00  0.00     0.074 A 
ATOM     48  C   UNL A   1      39.634  27.980  29.869  1.00  0.00     0.031 C 
ATOM     49  C   UNL A   1      45.135  25.980  26.256  1.00  0.00     0.029 A 
ATOM     50  C   UNL A   1      45.173  27.344  26.775  1.00  0.00     0.049 A 
ATOM     51  H   UNL A   1      43.700  28.320  27.877  1.00  0.00     0.167 HD
ATOM     52  C   UNL A   1      40.527  30.278  30.135  1.00  0.00     0.037 A 
ATOM     53  C   UNL A   1      46.190  28.214  26.614  1.00  0.00     0.037 A 
ATOM     54  C   UNL A   1      41.520  31.301  29.942  1.00  0.00     0.049 A 
ATOM     55  C   UNL A   1      46.052  29.617  27.138  1.00  0.00     0.074 A 
ATOM     56  C   UNL A   1      41.508  32.613  30.384  1.00  0.00     0.029 A 
ATOM     57  N   UNL A   1      42.716  31.118  29.266  1.00  0.00    -0.354 N 
ATOM     58  N   UNL A   1      45.073  30.153  27.826  1.00  0.00    -0.248 NA
ATOM     59  C   UNL A   1      47.151  30.547  26.837  1.00  0.00     0.031 C 
ATOM     60  C   UNL A   1      42.688  33.231  29.952  1.00  0.00     0.029 A 
ATOM     61  C   UNL A   1      43.448  32.294  29.272  1.00  0.00     0.049 A 
ATOM     62  H   UNL A   1      43.003  30.276  28.843  1.00  0.00     0.167 HD
ATOM     63  C   UNL A   1      45.436  31.475  28.040  1.00  0.00     0.074 A 
ATOM     64  C   UNL A   1      46.739  31.656  27.434  1.00  0.00     0.031 C 
ATOM     65  C   UNL A   1      44.745  32.456  28.669  1.00  0.00     0.037 A 
BRANCH  52  66
ATOM     66  C   UNL A   1      39.288  30.632  30.900  1.00  0.00     0.064 A 
ATOM     67  C   UNL A   1      38.151  31.155  30.270  1.00  0.00     0.173 A 
ATOM     68  C   UNL A   1      39.234  30.418  32.286  1.00  0.00     0.173 A 
ATOM     69  F   UNL A   1      38.161  31.395  28.951  1.00  0.00    -0.203 F 
ATOM     70  C   UNL A   1      37.010  31.471  31.003  1.00  0.00     0.198 A 
ATOM     71  C   UNL A   1      38.084  30.712  33.013  1.00  0.00     0.198 A 
ATOM     72  F   UNL A   1      40.296  29.917  32.934  1.00  0.00    -0.203 F 
ATOM     73  F   UNL A   1      35.947  32.008  30.389  1.00  0.00    -0.200 F 
ATOM     74  C   UNL A   1      36.976  31.244  32.372  1.00  0.00     0.200 A 
ATOM     75  F   UNL A   1      38.051  30.484  34.333  1.00  0.00    -0.200 F 
ATOM     76  F   UNL A   1      35.876  31.546  33.076  1.00  0.00    -0.200 F 
ENDBRANCH  52  66
BRANCH  53  77
ATOM     77  C   UNL A   1      47.416  27.799  25.881  1.00  0.00     0.064 A 
ATOM     78  C   UNL A   1      47.445  27.779  24.480  1.00  0.00     0.173 A 
ATOM     79  C   UNL A   1      48.572  27.396  26.565  1.00  0.00     0.173 A 
ATOM     80  F   UNL A   1      46.353  28.126  23.783  1.00  0.00    -0.203 F 
ATOM     81  C   UNL A   1      48.582  27.361  23.791  1.00  0.00     0.198 A 
ATOM     82  C   UNL A   1      49.718  27.008  25.874  1.00  0.00     0.198 A 
ATOM     83  F   UNL A   1      48.592  27.389  27.905  1.00  0.00    -0.203 F 
ATOM     84  F   UNL A   1      48.569  27.309  22.452  1.00  0.00    -0.200 F 
ATOM     85  C   UNL A   1      49.719  26.983  24.489  1.00  0.00     0.200 A 
ATOM     86  F   UNL A   1      50.818  26.653  26.553  1.00  0.00    -0.200 F 
ATOM     87  F   UNL A   1      50.814  26.587  23.825  1.00  0.00    -0.200 F 
ENDBRANCH  53  77
BRANCH  65  88
ATOM     88  C   UNL A   1      45.390  33.807  28.748  1.00  0.00     0.064 A 
ATOM     89  C   UNL A   1      45.155  34.786  27.771  1.00  0.00     0.173 A 
ATOM     90  C   UNL A   1      46.218  34.139  29.830  1.00  0.00     0.173 A 
ATOM     91  F   UNL A   1      44.382  34.507  26.711  1.00  0.00    -0.203 F 
ATOM     92  C   UNL A   1      45.742  36.044  27.865  1.00  0.00     0.198 A 
ATOM     93  C   UNL A   1      46.786  35.407  29.932  1.00  0.00     0.198 A 
ATOM     94  F   UNL A   1      46.469  33.239  30.792  1.00  0.00    -0.203 F 
ATOM     95  F   UNL A   1      45.535  36.952  26.902  1.00  0.00    -0.200 F 
ATOM     96  C   UNL A   1      46.551  36.355  28.948  1.00  0.00     0.200 A 
ATOM     97  F   UNL A   1      47.561  35.709  30.982  1.00  0.00    -0.200 F 
ATOM     98  F   UNL A   1      47.113  37.569  29.039  1.00  0.00    -0.200 F 
ENDBRANCH  65  88
ENDBRANCH  39  40
ENDBRANCH  32  34
ENDBRANCH  31  32
ENDBRANCH  30  31
ENDBRANCH   1  30
TORSDOF 16
ENDMDL
MODEL 3
REMARK VINA RESULT:     -12.1      0.641      7.216
REMARK SMILES CCOc1cc(C(=O)N2CCC(C(=O)OCCOC(=O)c3ccc(-c4c5nc(c(-c6c(F)c(F)c(F)c(F)c6F)c6ccc([nH]6)c(-c6c(F)c(F)c(F)c(F)c6F)c6nc(c(-c7c(F)c(F)c(F)c(F)c7F)c7ccc4[nH]7)C=C6)C=C5)cc3)(c3ccccc3)CC2)ccc1OC
REMARK SMILES IDX 16 1 15 2 13 3 14 4 12 5 7 6 8 7 9 8 10 9 91 10 11 11 90 12
REMARK SMILES IDX 6 13 4 14 5 15 94 16 93 17 92 18 3 19 2 20 1 21 95 22 96 23
REMARK SMILES IDX 84 24 85 25 89 26 86 27 88 28 87 29 17 30 18 31 19 32 20 33
REMARK SMILES IDX 21 34 22 35 83 36 23 37 82 38 24 39 25 40 26 41 76 42 27 43
REMARK SMILES IDX 81 44 75 45 77 46 28 47 80 48 74 49 73 50 29 52 61 53 41 54
REMARK SMILES IDX 60 55 42 56 45 57 59 58 78 59 43 60 44 61 58 63 79 64 46 65
REMARK SMILES IDX 30 66 31 67 39 68 32 69 33 70 37 71 40 72 34 73 35 74 38 75
REMARK SMILES IDX 36 76 62 77 63 78 71 79 64 80 65 81 69 82 72 83 66 84 67 85
REMARK SMILES IDX 70 86 68 87 47 88 48 89 56 90 49 91 50 92 54 93 57 94 51 95
REMARK SMILES IDX 52 96 55 97 53 98
REMARK H PARENT 77 51 45 62
REMARK Flexibility Score: inf
ROOT
ATOM      1  C   UNL A   1      31.695  30.466  26.046  1.00  0.00     0.274 C 
ENDROOT
BRANCH   1   2
ATOM      2  O   UNL A   1      32.534  29.445  26.627  1.00  0.00    -0.461 OA
BRANCH   2   3
ATOM      3  C   UNL A   1      31.948  28.249  26.917  1.00  0.00     0.316 C 
ATOM      4  O   UNL A   1      31.435  28.014  28.006  1.00  0.00    -0.251 OA
BRANCH   3   5
ATOM      5  C   UNL A   1      32.096  27.204  25.757  1.00  0.00     0.096 C 
ATOM      6  C   UNL A   1      34.456  23.880  24.158  1.00  0.00     0.253 C 
ATOM      7  O   UNL A   1      35.605  24.011  23.745  1.00  0.00    -0.269 OA
ATOM      8  N   UNL A   1      33.707  24.928  24.714  1.00  0.00    -0.339 N 
ATOM      9  C   UNL A   1      34.003  26.258  24.209  1.00  0.00     0.121 C 
ATOM     10  C   UNL A   1      32.476  24.714  25.473  1.00  0.00     0.121 C 
ATOM     11  C   UNL A   1      33.452  27.430  25.022  1.00  0.00     0.045 C 
ATOM     12  C   UNL A   1      32.192  25.832  26.462  1.00  0.00     0.045 C 
BRANCH   6  13
ATOM     13  C   UNL A   1      33.790  22.570  23.950  1.00  0.00     0.043 A 
ATOM     14  C   UNL A   1      33.549  20.215  24.452  1.00  0.00     0.161 A 
ATOM     15  C   UNL A   1      34.170  21.451  24.694  1.00  0.00     0.064 A 
ATOM     16  C   UNL A   1      32.514  20.112  23.511  1.00  0.00     0.160 A 
ATOM     17  C   UNL A   1      32.200  21.225  22.726  1.00  0.00     0.051 A 
ATOM     18  C   UNL A   1      32.851  22.439  22.923  1.00  0.00     0.018 A 
BRANCH  14  19
ATOM     19  O   UNL A   1      33.946  19.121  25.172  1.00  0.00    -0.490 OA
BRANCH  19  20
ATOM     20  C   UNL A   1      34.969  18.370  24.501  1.00  0.00     0.226 C 
ATOM     21  C   UNL A   1      34.681  16.891  24.694  1.00  0.00     0.049 C 
ENDBRANCH  19  20
ENDBRANCH  14  19
BRANCH  16  22
ATOM     22  O   UNL A   1      31.762  19.014  23.197  1.00  0.00    -0.493 OA
ATOM     23  C   UNL A   1      32.243  18.155  22.174  1.00  0.00     0.278 C 
ENDBRANCH  16  22
ENDBRANCH   6  13
BRANCH   5  24
ATOM     24  C   UNL A   1      30.839  27.215  24.826  1.00  0.00    -0.031 A 
ATOM     25  C   UNL A   1      30.706  28.185  23.806  1.00  0.00     0.005 A 
ATOM     26  C   UNL A   1      29.767  26.316  24.966  1.00  0.00     0.005 A 
ATOM     27  C   UNL A   1      29.591  28.230  22.961  1.00  0.00     0.000 A 
ATOM     28  C   UNL A   1      28.628  26.389  24.150  1.00  0.00     0.000 A 
ATOM     29  C   UNL A   1      28.543  27.340  23.141  1.00  0.00     0.000 A 
ENDBRANCH   5  24
ENDBRANCH   3   5
ENDBRANCH   2   3
ENDBRANCH   1   2
BRANCH   1  30
ATOM     30  C   UNL A   1      31.767  31.739  26.883  1.00  0.00     0.275 C 
BRANCH  30  31
ATOM     31  O   UNL A   1      33.010  32.406  26.607  1.00  0.00    -0.458 OA
BRANCH  31  32
ATOM     32  C   UNL A   1      33.524  33.151  27.606  1.00  0.00     0.338 C 
ATOM     33  O   UNL A   1      33.090  34.203  28.061  1.00  0.00    -0.246 OA
BRANCH  32  34
ATOM     34  C   UNL A   1      34.728  32.488  28.124  1.00  0.00     0.060 A 
ATOM     35  C   UNL A   1      34.630  31.185  28.609  1.00  0.00     0.016 A 
ATOM     36  C   UNL A   1      35.932  33.184  28.216  1.00  0.00     0.016 A 
ATOM     37  C   UNL A   1      35.722  30.588  29.231  1.00  0.00     0.010 A 
ATOM     38  C   UNL A   1      37.047  32.560  28.787  1.00  0.00     0.010 A 
ATOM     39  C   UNL A   1      36.944  31.263  29.325  1.00  0.00    -0.014 A 
BRANCH  39  40
ATOM     40  C   UNL A   1      38.080  30.642  30.059  1.00  0.00     0.031 A 
ATOM     41  C   UNL A   1      38.280  30.951  31.517  1.00  0.00     0.074 A 
ATOM     42  C   UNL A   1      38.899  29.762  29.452  1.00  0.00     0.049 A 
ATOM     43  N   UNL A   1      39.285  30.647  32.301  1.00  0.00    -0.248 NA
ATOM     44  C   UNL A   1      37.204  31.702  32.183  1.00  0.00     0.031 C 
ATOM     45  C   UNL A   1      38.771  29.299  28.071  1.00  0.00     0.029 A 
ATOM     46  N   UNL A   1      39.996  29.086  29.929  1.00  0.00    -0.354 N 
ATOM     47  C   UNL A   1      38.988  31.215  33.532  1.00  0.00     0.074 A 
ATOM     48  C   UNL A   1      37.705  31.873  33.398  1.00  0.00     0.031 C 
ATOM     49  C   UNL A   1      39.727  28.390  27.822  1.00  0.00     0.029 A 
ATOM     50  C   UNL A   1      40.583  28.264  28.999  1.00  0.00     0.049 A 
ATOM     51  H   UNL A   1      40.329  29.182  30.850  1.00  0.00     0.167 HD
ATOM     52  C   UNL A   1      39.724  31.196  34.669  1.00  0.00     0.037 A 
ATOM     53  C   UNL A   1      41.705  27.522  29.074  1.00  0.00     0.037 A 
ATOM     54  C   UNL A   1      40.976  30.504  34.818  1.00  0.00     0.049 A 
ATOM     55  C   UNL A   1      42.530  27.554  30.332  1.00  0.00     0.074 A 
ATOM     56  C   UNL A   1      41.811  30.451  35.922  1.00  0.00     0.029 A 
ATOM     57  N   UNL A   1      41.564  29.724  33.835  1.00  0.00    -0.354 N 
ATOM     58  N   UNL A   1      42.292  28.172  31.463  1.00  0.00    -0.248 NA
ATOM     59  C   UNL A   1      43.796  26.807  30.312  1.00  0.00     0.031 C 
ATOM     60  C   UNL A   1      42.918  29.659  35.596  1.00  0.00     0.029 A 
ATOM     61  C   UNL A   1      42.755  29.190  34.303  1.00  0.00     0.049 A 
ATOM     62  H   UNL A   1      41.193  29.571  32.936  1.00  0.00     0.167 HD
ATOM     63  C   UNL A   1      43.373  27.890  32.286  1.00  0.00     0.074 A 
ATOM     64  C   UNL A   1      44.256  27.020  31.537  1.00  0.00     0.031 C 
ATOM     65  C   UNL A   1      43.619  28.324  33.546  1.00  0.00     0.037 A 
BRANCH  52  66
ATOM     66  C   UNL A   1      39.214  31.991  35.832  1.00  0.00     0.064 A 
ATOM     67  C   UNL A   1      38.331  31.445  36.773  1.00  0.00     0.173 A 
ATOM     68  C   UNL A   1      39.639  33.315  36.017  1.00  0.00     0.173 A 
ATOM     69  F   UNL A   1      37.881  30.190  36.629  1.00  0.00    -0.203 F 
ATOM     70  C   UNL A   1      37.874  32.205  37.848  1.00  0.00     0.198 A 
ATOM     71  C   UNL A   1      39.200  34.064  37.105  1.00  0.00     0.198 A 
ATOM     72  F   UNL A   1      40.486  33.881  35.144  1.00  0.00    -0.203 F 
ATOM     73  F   UNL A   1      36.999  31.679  38.715  1.00  0.00    -0.200 F 
ATOM     74  C   UNL A   1      38.314  33.511  38.016  1.00  0.00     0.200 A 
ATOM     75  F   UNL A   1      39.632  35.322  37.269  1.00  0.00    -0.200 F 
ATOM     76  F   UNL A   1      37.876  34.238  39.053  1.00  0.00    -0.200 F 
ENDBRANCH  52  66
BRANCH  53  77
ATOM     77  C   UNL A   1      42.144  26.716  27.904  1.00  0.00     0.064 A 
ATOM     78  C   UNL A   1      43.041  27.242  26.963  1.00  0.00     0.173 A 
ATOM     79  C   UNL A   1      41.664  25.416  27.691  1.00  0.00     0.173 A 
ATOM     80  F   UNL A   1      43.504  28.493  27.107  1.00  0.00    -0.203 F 
ATOM     81  C   UNL A   1      43.431  26.501  25.849  1.00  0.00     0.198 A 
ATOM     82  C   UNL A   1      42.079  24.666  26.594  1.00  0.00     0.198 A 
ATOM     83  F   UNL A   1      40.798  24.870  28.557  1.00  0.00    -0.203 F 
ATOM     84  F   UNL A   1      44.255  27.045  24.942  1.00  0.00    -0.200 F 
ATOM     85  C   UNL A   1      42.956  25.211  25.670  1.00  0.00     0.200 A 
ATOM     86  F   UNL A   1      41.624  23.415  26.430  1.00  0.00    -0.200 F 
ATOM     87  F   UNL A   1      43.335  24.498  24.601  1.00  0.00    -0.200 F 
ENDBRANCH  53  77
BRANCH  65  88
ATOM     88  C   UNL A   1      44.884  27.853  34.198  1.00  0.00     0.064 A 
ATOM     89  C   UNL A   1      46.045  28.641  34.190  1.00  0.00     0.173 A 
ATOM     90  C   UNL A   1      44.926  26.623  34.870  1.00  0.00     0.173 A 
ATOM     91  F   UNL A   1      46.056  29.818  33.547  1.00  0.00    -0.203 F 
ATOM     92  C   UNL A   1      47.209  28.204  34.817  1.00  0.00     0.198 A 
ATOM     93  C   UNL A   1      46.085  26.200  35.515  1.00  0.00     0.198 A 
ATOM     94  F   UNL A   1      43.840  25.836  34.909  1.00  0.00    -0.203 F 
ATOM     95  F   UNL A   1      48.317  28.954  34.766  1.00  0.00    -0.200 F 
ATOM     96  C   UNL A   1      47.225  26.987  35.484  1.00  0.00     0.200 A 
ATOM     97  F   UNL A   1      46.098  25.028  36.165  1.00  0.00    -0.200 F 
ATOM     98  F   UNL A   1      48.346  26.570  36.090  1.00  0.00    -0.200 F 
ENDBRANCH  65  88
ENDBRANCH  39  40
ENDBRANCH  32  34
ENDBRANCH  31  32
ENDBRANCH  30  31
ENDBRANCH   1  30
TORSDOF 16
ENDMDL
