MODEL 1
REMARK VINA RESULT:     -15.2      0.000      0.000
REMARK SMILES Cc1ccc(-c2cnnc(-n3nc(C)c4c3NC(=O)C[C@@H]4c3ccc(C(=O)OCCOC(=O)c4ccc(-c5c6nc(c(-c7c(F)c(F)c(F)c(F)c7F)c7ccc([nH]7)c(-c7c(F)c(F)c(F)c(F)c7F)c7nc(c(-c8c(F)c(F)c(F)c(F)c8F)c8ccc5[nH]8)C=C7)C=C6)cc4)cc3)n2)cc1
REMARK SMILES IDX 29 1 28 2 26 3 27 4 25 5 22 6 23 7 98 8 24 9 97 10 21 11
REMARK SMILES IDX 11 12 12 13 16 14 13 15 15 16 17 17 14 18 18 19 20 21 19 22
REMARK SMILES IDX 10 23 6 24 7 25 99 26 8 27 9 28 5 29 1 30 2 31 3 32 101 33
REMARK SMILES IDX 4 34 100 35 30 36 31 37 32 38 33 39 34 40 35 41 96 42 36 43
REMARK SMILES IDX 95 44 37 45 38 46 39 47 89 48 40 49 94 50 88 51 90 52 41 53
REMARK SMILES IDX 93 54 87 55 86 56 42 58 74 59 54 60 73 61 55 62 58 63 72 64
REMARK SMILES IDX 91 65 56 66 57 67 71 69 92 70 59 71 43 72 44 73 52 74 45 75
REMARK SMILES IDX 46 76 50 77 53 78 47 79 48 80 51 81 49 82 75 83 76 84 84 85
REMARK SMILES IDX 77 86 78 87 82 88 85 89 79 90 80 91 83 92 81 93 60 94 61 95
REMARK SMILES IDX 69 96 62 97 63 98 67 99 70 100 64 101 65 102 68 103 66 104
REMARK H PARENT 17 20 90 57 58 68
REMARK Flexibility Score: inf
ROOT
ATOM      1  C   UNL A   1      37.124  21.967  24.480  1.00  0.00     0.275 C 
ENDROOT
BRANCH   1   2
ATOM      2  O   UNL A   1      37.023  20.963  25.498  1.00  0.00    -0.458 OA
BRANCH   2   3
ATOM      3  C   UNL A   1      36.146  19.991  25.163  1.00  0.00     0.338 C 
ATOM      4  O   UNL A   1      36.406  18.922  24.632  1.00  0.00    -0.246 OA
BRANCH   3   5
ATOM      5  C   UNL A   1      34.753  20.405  25.321  1.00  0.00     0.060 A 
ATOM      6  C   UNL A   1      32.605  22.134  25.024  1.00  0.00    -0.040 A 
ATOM      7  C   UNL A   1      32.719  21.032  24.178  1.00  0.00     0.005 A 
ATOM      8  C   UNL A   1      33.451  22.215  26.151  1.00  0.00     0.005 A 
ATOM      9  C   UNL A   1      33.793  20.169  24.333  1.00  0.00     0.016 A 
ATOM     10  C   UNL A   1      34.553  21.388  26.272  1.00  0.00     0.016 A 
BRANCH   6  11
ATOM     11  C   UNL A   1      31.659  23.238  24.597  1.00  0.00     0.064 C 
ATOM     12  N   UNL A   1      32.710  26.457  25.835  1.00  0.00    -0.180 N 
ATOM     13  N   UNL A   1      33.831  26.217  25.104  1.00  0.00    -0.168 NA
ATOM     14  C   UNL A   1      32.009  25.280  26.014  1.00  0.00     0.143 A 
ATOM     15  C   UNL A   1      33.540  25.109  24.419  1.00  0.00     0.066 A 
ATOM     16  C   UNL A   1      32.340  24.520  24.910  1.00  0.00     0.026 A 
ATOM     17  N   UNL A   1      31.160  24.780  26.986  1.00  0.00    -0.310 N 
ATOM     18  C   UNL A   1      34.541  24.596  23.451  1.00  0.00     0.069 C 
ATOM     19  C   UNL A   1      30.462  23.543  26.737  1.00  0.00     0.226 C 
ATOM     20  H   UNL A   1      31.034  25.261  27.836  1.00  0.00     0.171 HD
ATOM     21  C   UNL A   1      30.304  23.154  25.285  1.00  0.00     0.113 C 
ATOM     22  O   UNL A   1      29.980  22.963  27.678  1.00  0.00    -0.275 OA
BRANCH  12  23
ATOM     23  C   UNL A   1      32.169  27.765  25.906  1.00  0.00     0.272 A 
ATOM     24  C   UNL A   1      31.251  29.603  24.940  1.00  0.00     0.095 A 
ATOM     25  C   UNL A   1      31.710  30.371  25.995  1.00  0.00     0.164 A 
ATOM     26  N   UNL A   1      31.523  28.276  24.841  1.00  0.00    -0.208 NA
ATOM     27  N   UNL A   1      32.370  29.815  27.019  1.00  0.00    -0.153 NA
ATOM     28  N   UNL A   1      32.559  28.484  26.992  1.00  0.00    -0.109 NA
BRANCH  24  29
ATOM     29  C   UNL A   1      30.343  30.154  23.935  1.00  0.00     0.002 A 
ATOM     30  C   UNL A   1      27.808  31.996  20.963  1.00  0.00     0.044 C 
ATOM     31  C   UNL A   1      28.692  31.366  21.996  1.00  0.00    -0.051 A 
ATOM     32  C   UNL A   1      29.437  30.225  21.681  1.00  0.00     0.004 A 
ATOM     33  C   UNL A   1      28.775  31.901  23.284  1.00  0.00     0.004 A 
ATOM     34  C   UNL A   1      30.255  29.625  22.640  1.00  0.00     0.011 A 
ATOM     35  C   UNL A   1      29.587  31.298  24.242  1.00  0.00     0.011 A 
ENDBRANCH  24  29
ENDBRANCH  12  23
ENDBRANCH   6  11
ENDBRANCH   3   5
ENDBRANCH   2   3
ENDBRANCH   1   2
BRANCH   1  36
ATOM     36  C   UNL A   1      37.586  23.324  25.025  1.00  0.00     0.275 C 
BRANCH  36  37
ATOM     37  O   UNL A   1      37.996  23.493  26.409  1.00  0.00    -0.458 OA
BRANCH  37  38
ATOM     38  C   UNL A   1      39.269  23.761  26.772  1.00  0.00     0.338 C 
ATOM     39  O   UNL A   1      40.182  22.955  26.726  1.00  0.00    -0.246 OA
BRANCH  38  40
ATOM     40  C   UNL A   1      39.442  25.126  27.296  1.00  0.00     0.060 A 
ATOM     41  C   UNL A   1      39.119  25.362  28.639  1.00  0.00     0.016 A 
ATOM     42  C   UNL A   1      40.086  26.090  26.521  1.00  0.00     0.016 A 
ATOM     43  C   UNL A   1      39.574  26.516  29.258  1.00  0.00     0.010 A 
ATOM     44  C   UNL A   1      40.612  27.188  27.150  1.00  0.00     0.010 A 
ATOM     45  C   UNL A   1      40.335  27.400  28.510  1.00  0.00    -0.014 A 
BRANCH  45  46
ATOM     46  C   UNL A   1      40.508  28.777  28.915  1.00  0.00     0.031 A 
ATOM     47  C   UNL A   1      39.409  29.746  28.867  1.00  0.00     0.074 A 
ATOM     48  C   UNL A   1      41.637  28.831  29.655  1.00  0.00     0.049 A 
ATOM     49  N   UNL A   1      39.529  30.959  29.270  1.00  0.00    -0.248 NA
ATOM     50  C   UNL A   1      38.081  29.484  28.319  1.00  0.00     0.031 C 
ATOM     51  C   UNL A   1      42.027  29.651  30.780  1.00  0.00     0.029 A 
ATOM     52  N   UNL A   1      42.788  28.054  29.393  1.00  0.00    -0.354 N 
ATOM     53  C   UNL A   1      38.257  31.474  29.418  1.00  0.00     0.074 A 
ATOM     54  C   UNL A   1      37.409  30.592  28.662  1.00  0.00     0.031 C 
ATOM     55  C   UNL A   1      43.371  29.590  30.897  1.00  0.00     0.029 A 
ATOM     56  C   UNL A   1      43.869  28.880  29.722  1.00  0.00     0.049 A 
ATOM     57  H   UNL A   1      42.821  27.130  29.054  1.00  0.00     0.167 HD
ATOM     58  C   UNL A   1      38.092  32.481  30.324  1.00  0.00     0.037 A 
ATOM     59  C   UNL A   1      44.545  29.451  28.676  1.00  0.00     0.037 A 
ATOM     60  C   UNL A   1      39.401  32.853  30.857  1.00  0.00     0.049 A 
ATOM     61  C   UNL A   1      44.341  30.954  28.630  1.00  0.00     0.074 A 
ATOM     62  C   UNL A   1      40.116  32.490  31.986  1.00  0.00     0.029 A 
ATOM     63  N   UNL A   1      40.320  33.382  29.976  1.00  0.00    -0.354 N 
ATOM     64  N   UNL A   1      43.323  31.578  29.160  1.00  0.00    -0.248 NA
ATOM     65  C   UNL A   1      45.261  31.864  27.960  1.00  0.00     0.031 C 
ATOM     66  C   UNL A   1      41.491  32.807  31.752  1.00  0.00     0.029 A 
ATOM     67  C   UNL A   1      41.599  33.344  30.481  1.00  0.00     0.049 A 
ATOM     68  H   UNL A   1      40.088  33.745  29.092  1.00  0.00     0.167 HD
ATOM     69  C   UNL A   1      43.491  32.928  29.032  1.00  0.00     0.074 A 
ATOM     70  C   UNL A   1      44.674  33.051  28.194  1.00  0.00     0.031 C 
ATOM     71  C   UNL A   1      42.670  33.841  29.637  1.00  0.00     0.037 A 
BRANCH  58  72
ATOM     72  C   UNL A   1      36.800  32.986  30.925  1.00  0.00     0.064 A 
ATOM     73  C   UNL A   1      35.947  33.810  30.151  1.00  0.00     0.173 A 
ATOM     74  C   UNL A   1      36.341  32.734  32.231  1.00  0.00     0.173 A 
ATOM     75  F   UNL A   1      36.214  34.088  28.868  1.00  0.00    -0.203 F 
ATOM     76  C   UNL A   1      34.781  34.387  30.659  1.00  0.00     0.198 A 
ATOM     77  C   UNL A   1      35.178  33.327  32.745  1.00  0.00     0.198 A 
ATOM     78  F   UNL A   1      36.967  31.879  33.045  1.00  0.00    -0.203 F 
ATOM     79  F   UNL A   1      34.033  35.172  29.871  1.00  0.00    -0.200 F 
ATOM     80  C   UNL A   1      34.404  34.160  31.963  1.00  0.00     0.200 A 
ATOM     81  F   UNL A   1      34.810  33.080  34.011  1.00  0.00    -0.200 F 
ATOM     82  F   UNL A   1      33.293  34.724  32.455  1.00  0.00    -0.200 F 
ENDBRANCH  58  72
BRANCH  59  83
ATOM     83  C   UNL A   1      44.637  28.554  27.468  1.00  0.00     0.064 A 
ATOM     84  C   UNL A   1      45.431  27.385  27.541  1.00  0.00     0.173 A 
ATOM     85  C   UNL A   1      43.726  28.626  26.405  1.00  0.00     0.173 A 
ATOM     86  F   UNL A   1      46.328  27.242  28.532  1.00  0.00    -0.203 F 
ATOM     87  C   UNL A   1      45.233  26.302  26.681  1.00  0.00     0.198 A 
ATOM     88  C   UNL A   1      43.548  27.548  25.528  1.00  0.00     0.198 A 
ATOM     89  F   UNL A   1      42.925  29.691  26.265  1.00  0.00    -0.203 F 
ATOM     90  F   UNL A   1      45.910  25.160  26.870  1.00  0.00    -0.200 F 
ATOM     91  C   UNL A   1      44.276  26.379  25.687  1.00  0.00     0.200 A 
ATOM     92  F   UNL A   1      42.584  27.599  24.595  1.00  0.00    -0.200 F 
ATOM     93  F   UNL A   1      44.003  25.309  24.924  1.00  0.00    -0.200 F 
ENDBRANCH  59  83
BRANCH  71  94
ATOM     94  C   UNL A   1      42.793  35.328  29.460  1.00  0.00     0.064 A 
ATOM     95  C   UNL A   1      42.257  36.005  28.358  1.00  0.00     0.173 A 
ATOM     96  C   UNL A   1      43.528  36.124  30.373  1.00  0.00     0.173 A 
ATOM     97  F   UNL A   1      41.664  35.334  27.361  1.00  0.00    -0.203 F 
ATOM     98  C   UNL A   1      42.337  37.393  28.247  1.00  0.00     0.198 A 
ATOM     99  C   UNL A   1      43.670  37.497  30.219  1.00  0.00     0.198 A 
ATOM    100  F   UNL A   1      44.107  35.614  31.468  1.00  0.00    -0.203 F 
ATOM    101  F   UNL A   1      41.719  38.010  27.232  1.00  0.00    -0.200 F 
ATOM    102  C   UNL A   1      43.042  38.138  29.177  1.00  0.00     0.200 A 
ATOM    103  F   UNL A   1      44.397  38.189  31.108  1.00  0.00    -0.200 F 
ATOM    104  F   UNL A   1      43.113  39.471  29.071  1.00  0.00    -0.200 F 
ENDBRANCH  71  94
ENDBRANCH  45  46
ENDBRANCH  38  40
ENDBRANCH  37  38
ENDBRANCH  36  37
ENDBRANCH   1  36
TORSDOF 14
ENDMDL
MODEL 2
REMARK VINA RESULT:     -14.6      4.052     10.431
REMARK SMILES Cc1ccc(-c2cnnc(-n3nc(C)c4c3NC(=O)C[C@@H]4c3ccc(C(=O)OCCOC(=O)c4ccc(-c5c6nc(c(-c7c(F)c(F)c(F)c(F)c7F)c7ccc([nH]7)c(-c7c(F)c(F)c(F)c(F)c7F)c7nc(c(-c8c(F)c(F)c(F)c(F)c8F)c8ccc5[nH]8)C=C7)C=C6)cc4)cc3)n2)cc1
REMARK SMILES IDX 29 1 28 2 26 3 27 4 25 5 22 6 23 7 98 8 24 9 97 10 21 11
REMARK SMILES IDX 11 12 12 13 16 14 13 15 15 16 17 17 14 18 18 19 20 21 19 22
REMARK SMILES IDX 10 23 6 24 7 25 99 26 8 27 9 28 5 29 1 30 2 31 3 32 101 33
REMARK SMILES IDX 4 34 100 35 30 36 31 37 32 38 33 39 34 40 35 41 96 42 36 43
REMARK SMILES IDX 95 44 37 45 38 46 39 47 89 48 40 49 94 50 88 51 90 52 41 53
REMARK SMILES IDX 93 54 87 55 86 56 42 58 74 59 54 60 73 61 55 62 58 63 72 64
REMARK SMILES IDX 91 65 56 66 57 67 71 69 92 70 59 71 43 72 44 73 52 74 45 75
REMARK SMILES IDX 46 76 50 77 53 78 47 79 48 80 51 81 49 82 75 83 76 84 84 85
REMARK SMILES IDX 77 86 78 87 82 88 85 89 79 90 80 91 83 92 81 93 60 94 61 95
REMARK SMILES IDX 69 96 62 97 63 98 67 99 70 100 64 101 65 102 68 103 66 104
REMARK H PARENT 17 20 90 57 58 68
REMARK Flexibility Score: inf
ROOT
ATOM      1  C   UNL A   1      32.642  30.939  26.735  1.00  0.00     0.275 C 
ENDROOT
BRANCH   1   2
ATOM      2  O   UNL A   1      32.488  30.435  25.402  1.00  0.00    -0.458 OA
BRANCH   2   3
ATOM      3  C   UNL A   1      31.194  30.419  25.015  1.00  0.00     0.338 C 
ATOM      4  O   UNL A   1      30.430  31.372  24.973  1.00  0.00    -0.246 OA
BRANCH   3   5
ATOM      5  C   UNL A   1      30.681  29.066  24.808  1.00  0.00     0.060 A 
ATOM      6  C   UNL A   1      30.696  26.525  23.697  1.00  0.00    -0.040 A 
ATOM      7  C   UNL A   1      31.155  26.705  25.001  1.00  0.00     0.005 A 
ATOM      8  C   UNL A   1      30.024  27.590  23.061  1.00  0.00     0.005 A 
ATOM      9  C   UNL A   1      31.142  27.977  25.553  1.00  0.00     0.016 A 
ATOM     10  C   UNL A   1      30.062  28.869  23.588  1.00  0.00     0.016 A 
BRANCH   6  11
ATOM     11  C   UNL A   1      31.067  25.228  23.007  1.00  0.00     0.064 C 
ATOM     12  N   UNL A   1      33.467  23.332  24.917  1.00  0.00    -0.180 N 
ATOM     13  N   UNL A   1      32.496  23.327  25.870  1.00  0.00    -0.168 NA
ATOM     14  C   UNL A   1      33.190  24.304  23.975  1.00  0.00     0.143 A 
ATOM     15  C   UNL A   1      31.437  23.857  25.255  1.00  0.00     0.066 A 
ATOM     16  C   UNL A   1      31.815  24.420  24.003  1.00  0.00     0.026 A 
ATOM     17  N   UNL A   1      33.949  25.097  23.131  1.00  0.00    -0.310 N 
ATOM     18  C   UNL A   1      30.157  23.941  26.003  1.00  0.00     0.069 C 
ATOM     19  C   UNL A   1      33.280  25.898  22.135  1.00  0.00     0.226 C 
ATOM     20  H   UNL A   1      34.930  25.115  23.209  1.00  0.00     0.171 HD
ATOM     21  C   UNL A   1      31.892  25.445  21.746  1.00  0.00     0.113 C 
ATOM     22  O   UNL A   1      33.896  26.800  21.623  1.00  0.00    -0.275 OA
BRANCH  12  23
ATOM     23  C   UNL A   1      34.276  22.186  24.716  1.00  0.00     0.272 A 
ATOM     24  C   UNL A   1      34.703  19.971  24.975  1.00  0.00     0.095 A 
ATOM     25  C   UNL A   1      36.054  20.227  24.816  1.00  0.00     0.164 A 
ATOM     26  N   UNL A   1      33.777  20.964  24.986  1.00  0.00    -0.208 NA
ATOM     27  N   UNL A   1      36.499  21.467  24.574  1.00  0.00    -0.153 NA
ATOM     28  N   UNL A   1      35.588  22.450  24.476  1.00  0.00    -0.109 NA
BRANCH  24  29
ATOM     29  C   UNL A   1      34.187  18.604  25.017  1.00  0.00     0.002 A 
ATOM     30  C   UNL A   1      32.839  14.512  25.321  1.00  0.00     0.044 C 
ATOM     31  C   UNL A   1      33.316  15.929  25.221  1.00  0.00    -0.051 A 
ATOM     32  C   UNL A   1      32.479  16.980  25.612  1.00  0.00     0.004 A 
ATOM     33  C   UNL A   1      34.590  16.219  24.728  1.00  0.00     0.004 A 
ATOM     34  C   UNL A   1      32.910  18.305  25.512  1.00  0.00     0.011 A 
ATOM     35  C   UNL A   1      35.017  17.541  24.624  1.00  0.00     0.011 A 
ENDBRANCH  24  29
ENDBRANCH  12  23
ENDBRANCH   6  11
ENDBRANCH   3   5
ENDBRANCH   2   3
ENDBRANCH   1   2
BRANCH   1  36
ATOM     36  C   UNL A   1      33.508  30.034  27.619  1.00  0.00     0.275 C 
BRANCH  36  37
ATOM     37  O   UNL A   1      34.893  29.743  27.289  1.00  0.00    -0.458 OA
BRANCH  37  38
ATOM     38  C   UNL A   1      35.923  30.517  27.693  1.00  0.00     0.338 C 
ATOM     39  O   UNL A   1      35.903  31.737  27.710  1.00  0.00    -0.246 OA
BRANCH  38  40
ATOM     40  C   UNL A   1      37.119  29.740  28.059  1.00  0.00     0.060 A 
ATOM     41  C   UNL A   1      38.244  29.831  27.229  1.00  0.00     0.016 A 
ATOM     42  C   UNL A   1      37.174  29.093  29.293  1.00  0.00     0.016 A 
ATOM     43  C   UNL A   1      39.476  29.401  27.697  1.00  0.00     0.010 A 
ATOM     44  C   UNL A   1      38.402  28.747  29.794  1.00  0.00     0.010 A 
ATOM     45  C   UNL A   1      39.540  28.888  28.983  1.00  0.00    -0.014 A 
BRANCH  45  46
ATOM     46  C   UNL A   1      40.646  28.061  29.412  1.00  0.00     0.031 A 
ATOM     47  C   UNL A   1      40.842  26.700  28.904  1.00  0.00     0.074 A 
ATOM     48  C   UNL A   1      41.561  28.884  29.968  1.00  0.00     0.049 A 
ATOM     49  N   UNL A   1      41.844  25.969  29.232  1.00  0.00    -0.248 NA
ATOM     50  C   UNL A   1      39.919  25.992  28.020  1.00  0.00     0.031 C 
ATOM     51  C   UNL A   1      43.005  28.843  30.018  1.00  0.00     0.029 A 
ATOM     52  N   UNL A   1      41.232  30.023  30.736  1.00  0.00    -0.354 N 
ATOM     53  C   UNL A   1      41.911  24.927  28.329  1.00  0.00     0.074 A 
ATOM     54  C   UNL A   1      40.614  24.888  27.710  1.00  0.00     0.031 C 
ATOM     55  C   UNL A   1      43.413  29.665  31.010  1.00  0.00     0.029 A 
ATOM     56  C   UNL A   1      42.216  30.090  31.730  1.00  0.00     0.049 A 
ATOM     57  H   UNL A   1      40.474  30.637  30.602  1.00  0.00     0.167 HD
ATOM     58  C   UNL A   1      43.136  24.366  28.112  1.00  0.00     0.037 A 
ATOM     59  C   UNL A   1      41.852  29.673  32.983  1.00  0.00     0.037 A 
ATOM     60  C   UNL A   1      44.101  24.975  29.025  1.00  0.00     0.049 A 
ATOM     61  C   UNL A   1      42.565  28.392  33.377  1.00  0.00     0.074 A 
ATOM     62  C   UNL A   1      45.000  26.022  28.913  1.00  0.00     0.029 A 
ATOM     63  N   UNL A   1      43.910  24.778  30.376  1.00  0.00    -0.354 N 
ATOM     64  N   UNL A   1      43.063  27.533  32.528  1.00  0.00    -0.248 NA
ATOM     65  C   UNL A   1      42.747  27.974  34.760  1.00  0.00     0.031 C 
ATOM     66  C   UNL A   1      45.335  26.453  30.235  1.00  0.00     0.029 A 
ATOM     67  C   UNL A   1      44.625  25.676  31.134  1.00  0.00     0.049 A 
ATOM     68  H   UNL A   1      43.332  24.077  30.753  1.00  0.00     0.167 HD
ATOM     69  C   UNL A   1      43.723  26.546  33.203  1.00  0.00     0.074 A 
ATOM     70  C   UNL A   1      43.418  26.819  34.599  1.00  0.00     0.031 C 
ATOM     71  C   UNL A   1      44.487  25.598  32.577  1.00  0.00     0.037 A 
BRANCH  58  72
ATOM     72  C   UNL A   1      43.558  23.473  26.967  1.00  0.00     0.064 A 
ATOM     73  C   UNL A   1      43.097  22.135  26.922  1.00  0.00     0.173 A 
ATOM     74  C   UNL A   1      44.410  23.832  25.907  1.00  0.00     0.173 A 
ATOM     75  F   UNL A   1      42.227  21.661  27.825  1.00  0.00    -0.203 F 
ATOM     76  C   UNL A   1      43.507  21.221  25.950  1.00  0.00     0.198 A 
ATOM     77  C   UNL A   1      44.835  22.909  24.939  1.00  0.00     0.198 A 
ATOM     78  F   UNL A   1      44.832  25.089  25.738  1.00  0.00    -0.203 F 
ATOM     79  F   UNL A   1      43.041  19.964  25.983  1.00  0.00    -0.200 F 
ATOM     80  C   UNL A   1      44.391  21.603  24.966  1.00  0.00     0.200 A 
ATOM     81  F   UNL A   1      45.679  23.300  23.973  1.00  0.00    -0.200 F 
ATOM     82  F   UNL A   1      44.795  20.724  24.040  1.00  0.00    -0.200 F 
ENDBRANCH  58  72
BRANCH  59  83
ATOM     83  C   UNL A   1      40.424  30.008  33.330  1.00  0.00     0.064 A 
ATOM     84  C   UNL A   1      40.063  31.364  33.517  1.00  0.00     0.173 A 
ATOM     85  C   UNL A   1      39.371  29.101  33.145  1.00  0.00     0.173 A 
ATOM     86  F   UNL A   1      41.017  32.294  33.699  1.00  0.00    -0.203 F 
ATOM     87  C   UNL A   1      38.742  31.802  33.396  1.00  0.00     0.198 A 
ATOM     88  C   UNL A   1      38.044  29.540  33.050  1.00  0.00     0.198 A 
ATOM     89  F   UNL A   1      39.619  27.799  32.948  1.00  0.00    -0.203 F 
ATOM     90  F   UNL A   1      38.460  33.112  33.442  1.00  0.00    -0.200 F 
ATOM     91  C   UNL A   1      37.736  30.889  33.143  1.00  0.00     0.200 A 
ATOM     92  F   UNL A   1      37.071  28.665  32.753  1.00  0.00    -0.200 F 
ATOM     93  F   UNL A   1      36.481  31.308  32.920  1.00  0.00    -0.200 F 
ENDBRANCH  59  83
BRANCH  71  94
ATOM     94  C   UNL A   1      45.170  24.464  33.289  1.00  0.00     0.064 A 
ATOM     95  C   UNL A   1      44.493  23.307  33.691  1.00  0.00     0.173 A 
ATOM     96  C   UNL A   1      46.535  24.539  33.661  1.00  0.00     0.173 A 
ATOM     97  F   UNL A   1      43.168  23.189  33.518  1.00  0.00    -0.203 F 
ATOM     98  C   UNL A   1      45.163  22.247  34.300  1.00  0.00     0.198 A 
ATOM     99  C   UNL A   1      47.182  23.512  34.335  1.00  0.00     0.198 A 
ATOM    100  F   UNL A   1      47.307  25.590  33.354  1.00  0.00    -0.203 F 
ATOM    101  F   UNL A   1      44.499  21.116  34.571  1.00  0.00    -0.200 F 
ATOM    102  C   UNL A   1      46.506  22.349  34.621  1.00  0.00     0.200 A 
ATOM    103  F   UNL A   1      48.470  23.654  34.676  1.00  0.00    -0.200 F 
ATOM    104  F   UNL A   1      47.148  21.327  35.201  1.00  0.00    -0.200 F 
ENDBRANCH  71  94
ENDBRANCH  45  46
ENDBRANCH  38  40
ENDBRANCH  37  38
ENDBRANCH  36  37
ENDBRANCH   1  36
TORSDOF 14
ENDMDL
MODEL 3
REMARK VINA RESULT:     -14.2      4.148     10.465
REMARK SMILES Cc1ccc(-c2cnnc(-n3nc(C)c4c3NC(=O)C[C@@H]4c3ccc(C(=O)OCCOC(=O)c4ccc(-c5c6nc(c(-c7c(F)c(F)c(F)c(F)c7F)c7ccc([nH]7)c(-c7c(F)c(F)c(F)c(F)c7F)c7nc(c(-c8c(F)c(F)c(F)c(F)c8F)c8ccc5[nH]8)C=C7)C=C6)cc4)cc3)n2)cc1
REMARK SMILES IDX 29 1 28 2 26 3 27 4 25 5 22 6 23 7 98 8 24 9 97 10 21 11
REMARK SMILES IDX 11 12 12 13 16 14 13 15 15 16 17 17 14 18 18 19 20 21 19 22
REMARK SMILES IDX 10 23 6 24 7 25 99 26 8 27 9 28 5 29 1 30 2 31 3 32 101 33
REMARK SMILES IDX 4 34 100 35 30 36 31 37 32 38 33 39 34 40 35 41 96 42 36 43
REMARK SMILES IDX 95 44 37 45 38 46 39 47 89 48 40 49 94 50 88 51 90 52 41 53
REMARK SMILES IDX 93 54 87 55 86 56 42 58 74 59 54 60 73 61 55 62 58 63 72 64
REMARK SMILES IDX 91 65 56 66 57 67 71 69 92 70 59 71 43 72 44 73 52 74 45 75
REMARK SMILES IDX 46 76 50 77 53 78 47 79 48 80 51 81 49 82 75 83 76 84 84 85
REMARK SMILES IDX 77 86 78 87 82 88 85 89 79 90 80 91 83 92 81 93 60 94 61 95
REMARK SMILES IDX 69 96 62 97 63 98 67 99 70 100 64 101 65 102 68 103 66 104
REMARK H PARENT 17 20 90 57 58 68
REMARK Flexibility Score: inf
ROOT
ATOM      1  C   UNL A   1      40.029  32.039  33.835  1.00  0.00     0.275 C 
ENDROOT
BRANCH   1   2
ATOM      2  O   UNL A   1      40.142  32.558  32.504  1.00  0.00    -0.458 OA
BRANCH   2   3
ATOM      3  C   UNL A   1      40.034  33.905  32.478  1.00  0.00     0.338 C 
ATOM      4  O   UNL A   1      40.807  34.711  32.972  1.00  0.00    -0.246 OA
BRANCH   3   5
ATOM      5  C   UNL A   1      38.753  34.360  31.940  1.00  0.00     0.060 A 
ATOM      6  C   UNL A   1      36.158  34.019  31.023  1.00  0.00    -0.040 A 
ATOM      7  C   UNL A   1      36.371  34.497  32.316  1.00  0.00     0.005 A 
ATOM      8  C   UNL A   1      37.256  33.940  30.140  1.00  0.00     0.005 A 
ATOM      9  C   UNL A   1      37.670  34.669  32.767  1.00  0.00     0.016 A 
ATOM     10  C   UNL A   1      38.552  34.057  30.606  1.00  0.00     0.016 A 
BRANCH   6  11
ATOM     11  C   UNL A   1      34.774  33.493  30.700  1.00  0.00     0.064 C 
ATOM     12  N   UNL A   1      34.843  31.112  27.993  1.00  0.00    -0.180 N 
ATOM     13  N   UNL A   1      35.651  30.400  28.824  1.00  0.00    -0.168 NA
ATOM     14  C   UNL A   1      34.759  32.420  28.432  1.00  0.00     0.143 A 
ATOM     15  C   UNL A   1      35.601  31.072  29.977  1.00  0.00     0.066 A 
ATOM     16  C   UNL A   1      34.966  32.333  29.794  1.00  0.00     0.026 A 
ATOM     17  N   UNL A   1      34.553  33.647  27.826  1.00  0.00    -0.310 N 
ATOM     18  C   UNL A   1      36.332  30.520  31.145  1.00  0.00     0.069 C 
ATOM     19  C   UNL A   1      34.351  34.810  28.653  1.00  0.00     0.226 C 
ATOM     20  H   UNL A   1      34.545  33.725  26.844  1.00  0.00     0.171 HD
ATOM     21  C   UNL A   1      33.876  34.544  30.063  1.00  0.00     0.113 C 
ATOM     22  O   UNL A   1      34.480  35.897  28.147  1.00  0.00    -0.275 OA
BRANCH  12  23
ATOM     23  C   UNL A   1      33.895  30.447  27.176  1.00  0.00     0.272 A 
ATOM     24  C   UNL A   1      33.355  28.958  25.550  1.00  0.00     0.095 A 
ATOM     25  C   UNL A   1      32.189  29.664  25.309  1.00  0.00     0.164 A 
ATOM     26  N   UNL A   1      34.274  29.371  26.460  1.00  0.00    -0.208 NA
ATOM     27  N   UNL A   1      31.873  30.744  26.035  1.00  0.00    -0.153 NA
ATOM     28  N   UNL A   1      32.719  31.109  27.013  1.00  0.00    -0.109 NA
BRANCH  24  29
ATOM     29  C   UNL A   1      33.603  27.660  24.923  1.00  0.00     0.002 A 
ATOM     30  C   UNL A   1      34.131  23.736  23.199  1.00  0.00     0.044 C 
ATOM     31  C   UNL A   1      33.941  25.093  23.805  1.00  0.00    -0.051 A 
ATOM     32  C   UNL A   1      33.584  26.178  22.997  1.00  0.00     0.004 A 
ATOM     33  C   UNL A   1      34.128  25.295  25.174  1.00  0.00     0.004 A 
ATOM     34  C   UNL A   1      33.415  27.449  23.549  1.00  0.00     0.011 A 
ATOM     35  C   UNL A   1      33.965  26.565  25.724  1.00  0.00     0.011 A 
ENDBRANCH  24  29
ENDBRANCH  12  23
ENDBRANCH   6  11
ENDBRANCH   3   5
ENDBRANCH   2   3
ENDBRANCH   1   2
BRANCH   1  36
ATOM     36  C   UNL A   1      38.862  31.057  33.994  1.00  0.00     0.275 C 
BRANCH  36  37
ATOM     37  O   UNL A   1      39.076  29.621  34.073  1.00  0.00    -0.458 OA
BRANCH  37  38
ATOM     38  C   UNL A   1      38.627  28.758  33.137  1.00  0.00     0.338 C 
ATOM     39  O   UNL A   1      37.539  28.207  33.174  1.00  0.00    -0.246 OA
BRANCH  38  40
ATOM     40  C   UNL A   1      39.615  28.490  32.079  1.00  0.00     0.060 A 
ATOM     41  C   UNL A   1      40.973  28.628  32.395  1.00  0.00     0.016 A 
ATOM     42  C   UNL A   1      39.201  27.935  30.869  1.00  0.00     0.016 A 
ATOM     43  C   UNL A   1      41.929  28.072  31.559  1.00  0.00     0.010 A 
ATOM     44  C   UNL A   1      40.135  27.310  30.084  1.00  0.00     0.010 A 
ATOM     45  C   UNL A   1      41.493  27.400  30.428  1.00  0.00    -0.014 A 
BRANCH  45  46
ATOM     46  C   UNL A   1      42.377  27.148  29.312  1.00  0.00     0.031 A 
ATOM     47  C   UNL A   1      43.000  25.839  29.094  1.00  0.00     0.074 A 
ATOM     48  C   UNL A   1      42.167  28.133  28.412  1.00  0.00     0.049 A 
ATOM     49  N   UNL A   1      43.746  25.580  28.082  1.00  0.00    -0.248 NA
ATOM     50  C   UNL A   1      42.900  24.699  30.002  1.00  0.00     0.031 C 
ATOM     51  C   UNL A   1      42.222  28.161  26.967  1.00  0.00     0.029 A 
ATOM     52  N   UNL A   1      41.887  29.473  28.762  1.00  0.00    -0.354 N 
ATOM     53  C   UNL A   1      43.865  24.207  27.996  1.00  0.00     0.074 A 
ATOM     54  C   UNL A   1      43.472  23.718  29.289  1.00  0.00     0.031 C 
ATOM     55  C   UNL A   1      42.319  29.450  26.577  1.00  0.00     0.029 A 
ATOM     56  C   UNL A   1      42.523  30.246  27.784  1.00  0.00     0.049 A 
ATOM     57  H   UNL A   1      41.357  29.793  29.528  1.00  0.00     0.167 HD
ATOM     58  C   UNL A   1      44.109  23.678  26.761  1.00  0.00     0.037 A 
ATOM     59  C   UNL A   1      43.697  30.851  28.148  1.00  0.00     0.037 A 
ATOM     60  C   UNL A   1      44.301  24.771  25.810  1.00  0.00     0.049 A 
ATOM     61  C   UNL A   1      44.886  30.252  27.419  1.00  0.00     0.074 A 
ATOM     62  C   UNL A   1      43.465  25.431  24.926  1.00  0.00     0.029 A 
ATOM     63  N   UNL A   1      45.384  25.601  26.005  1.00  0.00    -0.354 N 
ATOM     64  N   UNL A   1      44.909  29.052  26.904  1.00  0.00    -0.248 NA
ATOM     65  C   UNL A   1      46.148  30.957  27.237  1.00  0.00     0.031 C 
ATOM     66  C   UNL A   1      44.073  26.685  24.605  1.00  0.00     0.029 A 
ATOM     67  C   UNL A   1      45.262  26.780  25.307  1.00  0.00     0.049 A 
ATOM     68  H   UNL A   1      46.153  25.376  26.575  1.00  0.00     0.167 HD
ATOM     69  C   UNL A   1      46.083  28.859  26.233  1.00  0.00     0.074 A 
ATOM     70  C   UNL A   1      46.860  30.047  26.549  1.00  0.00     0.031 C 
ATOM     71  C   UNL A   1      46.323  27.760  25.452  1.00  0.00     0.037 A 
BRANCH  58  72
ATOM     72  C   UNL A   1      43.951  22.240  26.321  1.00  0.00     0.064 A 
ATOM     73  C   UNL A   1      45.033  21.584  25.686  1.00  0.00     0.173 A 
ATOM     74  C   UNL A   1      42.792  21.454  26.460  1.00  0.00     0.173 A 
ATOM     75  F   UNL A   1      46.225  22.178  25.538  1.00  0.00    -0.203 F 
ATOM     76  C   UNL A   1      44.942  20.289  25.172  1.00  0.00     0.198 A 
ATOM     77  C   UNL A   1      42.696  20.159  25.929  1.00  0.00     0.198 A 
ATOM     78  F   UNL A   1      41.728  21.884  27.143  1.00  0.00    -0.203 F 
ATOM     79  F   UNL A   1      46.004  19.740  24.567  1.00  0.00    -0.200 F 
ATOM     80  C   UNL A   1      43.766  19.581  25.278  1.00  0.00     0.200 A 
ATOM     81  F   UNL A   1      41.551  19.471  26.058  1.00  0.00    -0.200 F 
ATOM     82  F   UNL A   1      43.673  18.343  24.774  1.00  0.00    -0.200 F 
ENDBRANCH  58  72
BRANCH  59  83
ATOM     83  C   UNL A   1      43.708  31.313  29.583  1.00  0.00     0.064 A 
ATOM     84  C   UNL A   1      44.422  30.555  30.542  1.00  0.00     0.173 A 
ATOM     85  C   UNL A   1      43.343  32.613  29.958  1.00  0.00     0.173 A 
ATOM     86  F   UNL A   1      44.808  29.300  30.255  1.00  0.00    -0.203 F 
ATOM     87  C   UNL A   1      44.856  31.110  31.748  1.00  0.00     0.198 A 
ATOM     88  C   UNL A   1      43.758  33.158  31.181  1.00  0.00     0.198 A 
ATOM     89  F   UNL A   1      42.676  33.406  29.110  1.00  0.00    -0.203 F 
ATOM     90  F   UNL A   1      45.648  30.404  32.568  1.00  0.00    -0.200 F 
ATOM     91  C   UNL A   1      44.539  32.420  32.057  1.00  0.00     0.200 A 
ATOM     92  F   UNL A   1      43.497  34.444  31.461  1.00  0.00    -0.200 F 
ATOM     93  F   UNL A   1      45.039  32.996  33.161  1.00  0.00    -0.200 F 
ENDBRANCH  59  83
BRANCH  71  94
ATOM     94  C   UNL A   1      47.627  27.492  24.756  1.00  0.00     0.064 A 
ATOM     95  C   UNL A   1      47.837  27.790  23.405  1.00  0.00     0.173 A 
ATOM     96  C   UNL A   1      48.702  26.850  25.419  1.00  0.00     0.173 A 
ATOM     97  F   UNL A   1      46.844  28.269  22.642  1.00  0.00    -0.203 F 
ATOM     98  C   UNL A   1      49.076  27.583  22.798  1.00  0.00     0.198 A 
ATOM     99  C   UNL A   1      49.909  26.576  24.790  1.00  0.00     0.198 A 
ATOM    100  F   UNL A   1      48.642  26.495  26.709  1.00  0.00    -0.203 F 
ATOM    101  F   UNL A   1      49.265  27.980  21.533  1.00  0.00    -0.200 F 
ATOM    102  C   UNL A   1      50.110  26.977  23.490  1.00  0.00     0.200 A 
ATOM    103  F   UNL A   1      50.879  25.946  25.468  1.00  0.00    -0.200 F 
ATOM    104  F   UNL A   1      51.300  26.783  22.907  1.00  0.00    -0.200 F 
ENDBRANCH  71  94
ENDBRANCH  45  46
ENDBRANCH  38  40
ENDBRANCH  37  38
ENDBRANCH  36  37
ENDBRANCH   1  36
TORSDOF 14
ENDMDL
