MODEL 1
REMARK VINA RESULT:     -13.1      0.000      0.000
REMARK SMILES CC1=Nc2ncnn2[C@H](c2ccc(F)cc2)[C@@H]1C(=O)OCCOC(=O)c1ccc(-c2c3nc(c(-c4c(F)c(F)c(F)c(F)c4F)c4ccc([nH]4)c(-c4c(F)c(F)c(F)c(F)c4F)c4nc(c(-c5c(F)c(F)c(F)c(F)c5F)c5ccc2[nH]5)C=C4)C=C3)cc1
REMARK SMILES IDX 22 1 21 2 20 3 18 4 19 5 17 6 1 7 2 8 3 9 4 10 9 11 5 12
REMARK SMILES IDX 8 13 6 14 7 15 10 16 11 17 16 18 12 19 15 20 13 21 14 22
REMARK SMILES IDX 23 23 24 24 25 25 26 26 27 27 88 28 28 29 87 30 29 31 30 32
REMARK SMILES IDX 31 33 81 34 32 35 86 36 80 37 82 38 33 39 85 40 79 41 78 42
REMARK SMILES IDX 34 44 66 45 46 46 65 47 47 48 50 49 64 50 83 51 48 52 49 53
REMARK SMILES IDX 63 55 84 56 51 57 35 58 36 59 44 60 37 61 38 62 42 63 45 64
REMARK SMILES IDX 39 65 40 66 43 67 41 68 67 69 68 70 76 71 69 72 70 73 74 74
REMARK SMILES IDX 77 75 71 76 72 77 75 78 73 79 52 80 53 81 61 82 54 83 55 84
REMARK SMILES IDX 59 85 62 86 56 87 57 88 60 89 58 90
REMARK H PARENT 82 43 50 54
REMARK Flexibility Score: inf
ROOT
ATOM      1  C   UNL A   1      37.469  23.666  25.661  1.00  0.00     0.275 C 
ENDROOT
BRANCH   1   2
ATOM      2  C   UNL A   1      36.085  23.191  26.113  1.00  0.00     0.274 C 
BRANCH   2   3
ATOM      3  O   UNL A   1      34.959  23.879  25.517  1.00  0.00    -0.461 OA
BRANCH   3   4
ATOM      4  C   UNL A   1      33.733  23.651  26.069  1.00  0.00     0.317 C 
ATOM      5  O   UNL A   1      33.547  23.345  27.233  1.00  0.00    -0.251 OA
BRANCH   4   6
ATOM      6  C   UNL A   1      32.622  23.737  25.057  1.00  0.00     0.173 C 
ATOM      7  C   UNL A   1      33.210  21.398  24.016  1.00  0.00     0.063 C 
ATOM      8  C   UNL A   1      33.023  22.893  23.849  1.00  0.00     0.036 C 
ATOM      9  N   UNL A   1      33.300  23.354  22.676  1.00  0.00    -0.220 NA
ATOM     10  C   UNL A   1      33.172  24.672  22.450  1.00  0.00     0.248 A 
ATOM     11  C   UNL A   1      32.219  25.235  24.733  1.00  0.00     0.161 C 
ATOM     12  N   UNL A   1      33.444  25.322  21.340  1.00  0.00    -0.198 NA
ATOM     13  N   UNL A   1      32.648  25.562  23.358  1.00  0.00    -0.221 N 
ATOM     14  C   UNL A   1      32.933  26.559  21.556  1.00  0.00     0.248 A 
ATOM     15  N   UNL A   1      32.322  26.717  22.730  1.00  0.00    -0.157 NA
BRANCH  11  16
ATOM     16  C   UNL A   1      32.590  26.347  25.786  1.00  0.00    -0.022 A 
ATOM     17  C   UNL A   1      31.675  26.831  26.743  1.00  0.00     0.009 A 
ATOM     18  C   UNL A   1      33.845  26.996  25.773  1.00  0.00     0.009 A 
ATOM     19  C   UNL A   1      31.874  28.038  27.422  1.00  0.00     0.039 A 
ATOM     20  C   UNL A   1      34.020  28.248  26.386  1.00  0.00     0.039 A 
ATOM     21  C   UNL A   1      33.013  28.776  27.175  1.00  0.00     0.123 A 
ATOM     22  F   UNL A   1      33.148  29.997  27.709  1.00  0.00    -0.207 F 
ENDBRANCH  11  16
ENDBRANCH   4   6
ENDBRANCH   3   4
ENDBRANCH   2   3
ENDBRANCH   1   2
BRANCH   1  23
ATOM     23  O   UNL A   1      38.224  24.124  26.777  1.00  0.00    -0.458 OA
BRANCH  23  24
ATOM     24  C   UNL A   1      39.424  23.526  26.891  1.00  0.00     0.338 C 
ATOM     25  O   UNL A   1      39.635  22.312  26.907  1.00  0.00    -0.246 OA
BRANCH  24  26
ATOM     26  C   UNL A   1      40.495  24.517  26.940  1.00  0.00     0.060 A 
ATOM     27  C   UNL A   1      41.352  24.454  28.046  1.00  0.00     0.016 A 
ATOM     28  C   UNL A   1      40.430  25.624  26.093  1.00  0.00     0.016 A 
ATOM     29  C   UNL A   1      41.826  25.635  28.542  1.00  0.00     0.010 A 
ATOM     30  C   UNL A   1      40.901  26.805  26.588  1.00  0.00     0.010 A 
ATOM     31  C   UNL A   1      41.430  26.793  27.879  1.00  0.00    -0.014 A 
BRANCH  31  32
ATOM     32  C   UNL A   1      41.395  28.020  28.635  1.00  0.00     0.031 A 
ATOM     33  C   UNL A   1      42.527  28.913  28.338  1.00  0.00     0.074 A 
ATOM     34  C   UNL A   1      40.326  28.273  29.417  1.00  0.00     0.049 A 
ATOM     35  N   UNL A   1      43.442  29.342  29.141  1.00  0.00    -0.248 NA
ATOM     36  C   UNL A   1      42.774  29.213  26.918  1.00  0.00     0.031 C 
ATOM     37  C   UNL A   1      39.074  27.511  29.542  1.00  0.00     0.029 A 
ATOM     38  N   UNL A   1      40.089  29.364  30.191  1.00  0.00    -0.354 N 
ATOM     39  C   UNL A   1      44.287  30.105  28.347  1.00  0.00     0.074 A 
ATOM     40  C   UNL A   1      43.962  29.808  26.979  1.00  0.00     0.031 C 
ATOM     41  C   UNL A   1      38.134  28.282  30.136  1.00  0.00     0.029 A 
ATOM     42  C   UNL A   1      38.749  29.530  30.541  1.00  0.00     0.049 A 
ATOM     43  H   UNL A   1      40.799  29.983  30.477  1.00  0.00     0.167 HD
ATOM     44  C   UNL A   1      45.020  31.129  28.855  1.00  0.00     0.037 A 
ATOM     45  C   UNL A   1      38.229  30.702  30.989  1.00  0.00     0.037 A 
ATOM     46  C   UNL A   1      45.161  31.024  30.280  1.00  0.00     0.049 A 
ATOM     47  C   UNL A   1      39.387  31.522  31.458  1.00  0.00     0.074 A 
ATOM     48  C   UNL A   1      45.784  30.108  31.105  1.00  0.00     0.029 A 
ATOM     49  N   UNL A   1      44.262  31.698  31.073  1.00  0.00    -0.354 N 
ATOM     50  N   UNL A   1      40.132  31.199  32.483  1.00  0.00    -0.248 NA
ATOM     51  C   UNL A   1      40.015  32.400  30.477  1.00  0.00     0.031 C 
ATOM     52  C   UNL A   1      44.901  29.946  32.211  1.00  0.00     0.029 A 
ATOM     53  C   UNL A   1      43.830  30.825  32.042  1.00  0.00     0.049 A 
ATOM     54  H   UNL A   1      43.979  32.635  30.966  1.00  0.00     0.167 HD
ATOM     55  C   UNL A   1      41.430  31.500  32.090  1.00  0.00     0.074 A 
ATOM     56  C   UNL A   1      41.291  32.269  30.856  1.00  0.00     0.031 C 
ATOM     57  C   UNL A   1      42.508  30.857  32.627  1.00  0.00     0.037 A 
BRANCH  44  58
ATOM     58  C   UNL A   1      45.339  32.362  28.068  1.00  0.00     0.064 A 
ATOM     59  C   UNL A   1      46.548  32.540  27.355  1.00  0.00     0.173 A 
ATOM     60  C   UNL A   1      44.338  33.312  27.817  1.00  0.00     0.173 A 
ATOM     61  F   UNL A   1      47.527  31.625  27.375  1.00  0.00    -0.203 F 
ATOM     62  C   UNL A   1      46.762  33.617  26.503  1.00  0.00     0.198 A 
ATOM     63  C   UNL A   1      44.531  34.355  26.907  1.00  0.00     0.198 A 
ATOM     64  F   UNL A   1      43.136  33.206  28.404  1.00  0.00    -0.203 F 
ATOM     65  F   UNL A   1      47.939  33.735  25.872  1.00  0.00    -0.200 F 
ATOM     66  C   UNL A   1      45.745  34.512  26.259  1.00  0.00     0.200 A 
ATOM     67  F   UNL A   1      43.518  35.183  26.622  1.00  0.00    -0.200 F 
ATOM     68  F   UNL A   1      45.919  35.492  25.364  1.00  0.00    -0.200 F 
ENDBRANCH  44  58
BRANCH  45  69
ATOM     69  C   UNL A   1      36.926  31.307  30.606  1.00  0.00     0.064 A 
ATOM     70  C   UNL A   1      36.686  31.775  29.298  1.00  0.00     0.173 A 
ATOM     71  C   UNL A   1      35.995  31.694  31.583  1.00  0.00     0.173 A 
ATOM     72  F   UNL A   1      37.554  31.532  28.307  1.00  0.00    -0.203 F 
ATOM     73  C   UNL A   1      35.597  32.593  28.991  1.00  0.00     0.198 A 
ATOM     74  C   UNL A   1      34.905  32.519  31.275  1.00  0.00     0.198 A 
ATOM     75  F   UNL A   1      36.171  31.331  32.862  1.00  0.00    -0.203 F 
ATOM     76  F   UNL A   1      35.447  33.058  27.742  1.00  0.00    -0.200 F 
ATOM     77  C   UNL A   1      34.714  32.976  29.982  1.00  0.00     0.200 A 
ATOM     78  F   UNL A   1      34.070  32.916  32.246  1.00  0.00    -0.200 F 
ATOM     79  F   UNL A   1      33.708  33.816  29.699  1.00  0.00    -0.200 F 
ENDBRANCH  45  69
BRANCH  57  80
ATOM     80  C   UNL A   1      42.272  29.916  33.778  1.00  0.00     0.064 A 
ATOM     81  C   UNL A   1      42.577  30.359  35.071  1.00  0.00     0.173 A 
ATOM     82  C   UNL A   1      41.975  28.550  33.619  1.00  0.00     0.173 A 
ATOM     83  F   UNL A   1      42.919  31.640  35.277  1.00  0.00    -0.203 F 
ATOM     84  C   UNL A   1      42.609  29.477  36.149  1.00  0.00     0.198 A 
ATOM     85  C   UNL A   1      41.973  27.675  34.704  1.00  0.00     0.198 A 
ATOM     86  F   UNL A   1      41.760  28.033  32.403  1.00  0.00    -0.203 F 
ATOM     87  F   UNL A   1      42.979  29.920  37.359  1.00  0.00    -0.200 F 
ATOM     88  C   UNL A   1      42.304  28.137  35.967  1.00  0.00     0.200 A 
ATOM     89  F   UNL A   1      41.697  26.375  34.522  1.00  0.00    -0.200 F 
ATOM     90  F   UNL A   1      42.363  27.288  37.002  1.00  0.00    -0.200 F 
ENDBRANCH  57  80
ENDBRANCH  31  32
ENDBRANCH  24  26
ENDBRANCH  23  24
ENDBRANCH   1  23
TORSDOF 12
ENDMDL
MODEL 2
REMARK VINA RESULT:     -12.9      1.848      3.131
REMARK SMILES CC1=Nc2ncnn2[C@H](c2ccc(F)cc2)[C@@H]1C(=O)OCCOC(=O)c1ccc(-c2c3nc(c(-c4c(F)c(F)c(F)c(F)c4F)c4ccc([nH]4)c(-c4c(F)c(F)c(F)c(F)c4F)c4nc(c(-c5c(F)c(F)c(F)c(F)c5F)c5ccc2[nH]5)C=C4)C=C3)cc1
REMARK SMILES IDX 22 1 21 2 20 3 18 4 19 5 17 6 1 7 2 8 3 9 4 10 9 11 5 12
REMARK SMILES IDX 8 13 6 14 7 15 10 16 11 17 16 18 12 19 15 20 13 21 14 22
REMARK SMILES IDX 23 23 24 24 25 25 26 26 27 27 88 28 28 29 87 30 29 31 30 32
REMARK SMILES IDX 31 33 81 34 32 35 86 36 80 37 82 38 33 39 85 40 79 41 78 42
REMARK SMILES IDX 34 44 66 45 46 46 65 47 47 48 50 49 64 50 83 51 48 52 49 53
REMARK SMILES IDX 63 55 84 56 51 57 35 58 36 59 44 60 37 61 38 62 42 63 45 64
REMARK SMILES IDX 39 65 40 66 43 67 41 68 67 69 68 70 76 71 69 72 70 73 74 74
REMARK SMILES IDX 77 75 71 76 72 77 75 78 73 79 52 80 53 81 61 82 54 83 55 84
REMARK SMILES IDX 59 85 62 86 56 87 57 88 60 89 58 90
REMARK H PARENT 82 43 50 54
REMARK Flexibility Score: inf
ROOT
ATOM      1  C   UNL A   1      37.265  23.197  25.958  1.00  0.00     0.275 C 
ENDROOT
BRANCH   1   2
ATOM      2  C   UNL A   1      36.321  23.937  25.006  1.00  0.00     0.274 C 
BRANCH   2   3
ATOM      3  O   UNL A   1      34.994  23.372  24.873  1.00  0.00    -0.461 OA
BRANCH   3   4
ATOM      4  C   UNL A   1      34.460  23.340  23.619  1.00  0.00     0.317 C 
ATOM      5  O   UNL A   1      35.080  23.043  22.613  1.00  0.00    -0.251 OA
BRANCH   4   6
ATOM      6  C   UNL A   1      33.024  23.792  23.593  1.00  0.00     0.173 C 
ATOM      7  C   UNL A   1      33.673  26.312  23.952  1.00  0.00     0.063 C 
ATOM      8  C   UNL A   1      32.924  25.077  24.412  1.00  0.00     0.036 C 
ATOM      9  N   UNL A   1      32.302  25.199  25.536  1.00  0.00    -0.220 NA
ATOM     10  C   UNL A   1      31.624  24.146  26.019  1.00  0.00     0.248 A 
ATOM     11  C   UNL A   1      32.023  22.639  24.018  1.00  0.00     0.161 C 
ATOM     12  N   UNL A   1      30.969  24.071  27.157  1.00  0.00    -0.198 NA
ATOM     13  N   UNL A   1      31.445  22.965  25.337  1.00  0.00    -0.221 N 
ATOM     14  C   UNL A   1      30.285  22.904  27.061  1.00  0.00     0.248 A 
ATOM     15  N   UNL A   1      30.446  22.252  25.910  1.00  0.00    -0.157 NA
BRANCH  11  16
ATOM     16  C   UNL A   1      32.517  21.147  23.901  1.00  0.00    -0.022 A 
ATOM     17  C   UNL A   1      32.248  20.337  22.780  1.00  0.00     0.009 A 
ATOM     18  C   UNL A   1      33.188  20.500  24.964  1.00  0.00     0.009 A 
ATOM     19  C   UNL A   1      32.363  18.943  22.823  1.00  0.00     0.039 A 
ATOM     20  C   UNL A   1      33.231  19.099  25.047  1.00  0.00     0.039 A 
ATOM     21  C   UNL A   1      32.780  18.331  23.987  1.00  0.00     0.123 A 
ATOM     22  F   UNL A   1      32.758  16.995  24.085  1.00  0.00    -0.207 F 
ENDBRANCH  11  16
ENDBRANCH   4   6
ENDBRANCH   3   4
ENDBRANCH   2   3
ENDBRANCH   1   2
BRANCH   1  23
ATOM     23  O   UNL A   1      38.212  24.099  26.517  1.00  0.00    -0.458 OA
BRANCH  23  24
ATOM     24  C   UNL A   1      39.382  23.516  26.836  1.00  0.00     0.338 C 
ATOM     25  O   UNL A   1      39.570  22.313  27.019  1.00  0.00    -0.246 OA
BRANCH  24  26
ATOM     26  C   UNL A   1      40.457  24.503  26.887  1.00  0.00     0.060 A 
ATOM     27  C   UNL A   1      41.318  24.430  27.989  1.00  0.00     0.016 A 
ATOM     28  C   UNL A   1      40.392  25.616  26.047  1.00  0.00     0.016 A 
ATOM     29  C   UNL A   1      41.799  25.606  28.491  1.00  0.00     0.010 A 
ATOM     30  C   UNL A   1      40.869  26.792  26.549  1.00  0.00     0.010 A 
ATOM     31  C   UNL A   1      41.403  26.769  27.838  1.00  0.00    -0.014 A 
BRANCH  31  32
ATOM     32  C   UNL A   1      41.376  27.991  28.603  1.00  0.00     0.031 A 
ATOM     33  C   UNL A   1      42.512  28.881  28.310  1.00  0.00     0.074 A 
ATOM     34  C   UNL A   1      40.309  28.244  29.388  1.00  0.00     0.049 A 
ATOM     35  N   UNL A   1      43.430  29.300  29.114  1.00  0.00    -0.248 NA
ATOM     36  C   UNL A   1      42.758  29.190  26.891  1.00  0.00     0.031 C 
ATOM     37  C   UNL A   1      39.053  27.488  29.509  1.00  0.00     0.029 A 
ATOM     38  N   UNL A   1      40.079  29.331  30.169  1.00  0.00    -0.354 N 
ATOM     39  C   UNL A   1      44.277  30.064  28.324  1.00  0.00     0.074 A 
ATOM     40  C   UNL A   1      43.949  29.778  26.954  1.00  0.00     0.031 C 
ATOM     41  C   UNL A   1      38.118  28.259  30.110  1.00  0.00     0.029 A 
ATOM     42  C   UNL A   1      38.741  29.501  30.522  1.00  0.00     0.049 A 
ATOM     43  H   UNL A   1      40.792  29.944  30.458  1.00  0.00     0.167 HD
ATOM     44  C   UNL A   1      45.017  31.080  28.838  1.00  0.00     0.037 A 
ATOM     45  C   UNL A   1      38.227  30.673  30.979  1.00  0.00     0.037 A 
ATOM     46  C   UNL A   1      45.159  30.965  30.262  1.00  0.00     0.049 A 
ATOM     47  C   UNL A   1      39.390  31.484  31.453  1.00  0.00     0.074 A 
ATOM     48  C   UNL A   1      45.779  30.041  31.080  1.00  0.00     0.029 A 
ATOM     49  N   UNL A   1      44.265  31.638  31.060  1.00  0.00    -0.354 N 
ATOM     50  N   UNL A   1      40.134  31.150  32.474  1.00  0.00    -0.248 NA
ATOM     51  C   UNL A   1      40.021  32.366  30.477  1.00  0.00     0.031 C 
ATOM     52  C   UNL A   1      44.897  29.875  32.186  1.00  0.00     0.029 A 
ATOM     53  C   UNL A   1      43.830  30.761  32.024  1.00  0.00     0.049 A 
ATOM     54  H   UNL A   1      43.987  32.577  30.961  1.00  0.00     0.167 HD
ATOM     55  C   UNL A   1      41.434  31.447  32.081  1.00  0.00     0.074 A 
ATOM     56  C   UNL A   1      41.296  32.226  30.853  1.00  0.00     0.031 C 
ATOM     57  C   UNL A   1      42.509  30.795  32.612  1.00  0.00     0.037 A 
BRANCH  44  58
ATOM     58  C   UNL A   1      45.340  32.318  28.059  1.00  0.00     0.064 A 
ATOM     59  C   UNL A   1      46.551  32.496  27.349  1.00  0.00     0.173 A 
ATOM     60  C   UNL A   1      44.343  33.272  27.812  1.00  0.00     0.173 A 
ATOM     61  F   UNL A   1      47.528  31.579  27.364  1.00  0.00    -0.203 F 
ATOM     62  C   UNL A   1      46.769  33.577  26.504  1.00  0.00     0.198 A 
ATOM     63  C   UNL A   1      44.540  34.320  26.909  1.00  0.00     0.198 A 
ATOM     64  F   UNL A   1      43.140  33.167  28.397  1.00  0.00    -0.203 F 
ATOM     65  F   UNL A   1      47.948  33.696  25.876  1.00  0.00    -0.200 F 
ATOM     66  C   UNL A   1      45.756  34.477  26.264  1.00  0.00     0.200 A 
ATOM     67  F   UNL A   1      43.530  35.153  26.628  1.00  0.00    -0.200 F 
ATOM     68  F   UNL A   1      45.934  35.463  25.375  1.00  0.00    -0.200 F 
ENDBRANCH  44  58
BRANCH  45  69
ATOM     69  C   UNL A   1      36.927  31.287  30.603  1.00  0.00     0.064 A 
ATOM     70  C   UNL A   1      36.692  31.780  29.303  1.00  0.00     0.173 A 
ATOM     71  C   UNL A   1      35.992  31.657  31.584  1.00  0.00     0.173 A 
ATOM     72  F   UNL A   1      37.564  31.555  28.311  1.00  0.00    -0.203 F 
ATOM     73  C   UNL A   1      35.605  32.606  29.007  1.00  0.00     0.198 A 
ATOM     74  C   UNL A   1      34.904  32.489  31.287  1.00  0.00     0.198 A 
ATOM     75  F   UNL A   1      36.163  31.269  32.856  1.00  0.00    -0.203 F 
ATOM     76  F   UNL A   1      35.461  33.094  27.767  1.00  0.00    -0.200 F 
ATOM     77  C   UNL A   1      34.719  32.971  30.002  1.00  0.00     0.200 A 
ATOM     78  F   UNL A   1      34.066  32.869  32.262  1.00  0.00    -0.200 F 
ATOM     79  F   UNL A   1      33.716  33.818  29.731  1.00  0.00    -0.200 F 
ENDBRANCH  45  69
BRANCH  57  80
ATOM     80  C   UNL A   1      42.270  29.847  33.757  1.00  0.00     0.064 A 
ATOM     81  C   UNL A   1      42.568  30.284  35.054  1.00  0.00     0.173 A 
ATOM     82  C   UNL A   1      41.978  28.481  33.589  1.00  0.00     0.173 A 
ATOM     83  F   UNL A   1      42.907  31.564  35.267  1.00  0.00    -0.203 F 
ATOM     84  C   UNL A   1      42.598  29.396  36.127  1.00  0.00     0.198 A 
ATOM     85  C   UNL A   1      41.973  27.600  34.670  1.00  0.00     0.198 A 
ATOM     86  F   UNL A   1      41.768  27.970  32.369  1.00  0.00    -0.203 F 
ATOM     87  F   UNL A   1      42.962  29.833  37.341  1.00  0.00    -0.200 F 
ATOM     88  C   UNL A   1      42.297  28.057  35.936  1.00  0.00     0.200 A 
ATOM     89  F   UNL A   1      41.700  26.301  34.479  1.00  0.00    -0.200 F 
ATOM     90  F   UNL A   1      42.354  27.202  36.967  1.00  0.00    -0.200 F 
ENDBRANCH  57  80
ENDBRANCH  31  32
ENDBRANCH  24  26
ENDBRANCH  23  24
ENDBRANCH   1  23
TORSDOF 12
ENDMDL
MODEL 3
REMARK VINA RESULT:     -12.8      3.229      8.237
REMARK SMILES CC1=Nc2ncnn2[C@H](c2ccc(F)cc2)[C@@H]1C(=O)OCCOC(=O)c1ccc(-c2c3nc(c(-c4c(F)c(F)c(F)c(F)c4F)c4ccc([nH]4)c(-c4c(F)c(F)c(F)c(F)c4F)c4nc(c(-c5c(F)c(F)c(F)c(F)c5F)c5ccc2[nH]5)C=C4)C=C3)cc1
REMARK SMILES IDX 22 1 21 2 20 3 18 4 19 5 17 6 1 7 2 8 3 9 4 10 9 11 5 12
REMARK SMILES IDX 8 13 6 14 7 15 10 16 11 17 16 18 12 19 15 20 13 21 14 22
REMARK SMILES IDX 23 23 24 24 25 25 26 26 27 27 88 28 28 29 87 30 29 31 30 32
REMARK SMILES IDX 31 33 81 34 32 35 86 36 80 37 82 38 33 39 85 40 79 41 78 42
REMARK SMILES IDX 34 44 66 45 46 46 65 47 47 48 50 49 64 50 83 51 48 52 49 53
REMARK SMILES IDX 63 55 84 56 51 57 35 58 36 59 44 60 37 61 38 62 42 63 45 64
REMARK SMILES IDX 39 65 40 66 43 67 41 68 67 69 68 70 76 71 69 72 70 73 74 74
REMARK SMILES IDX 77 75 71 76 72 77 75 78 73 79 52 80 53 81 61 82 54 83 55 84
REMARK SMILES IDX 59 85 62 86 56 87 57 88 60 89 58 90
REMARK H PARENT 82 43 50 54
REMARK Flexibility Score: inf
ROOT
ATOM      1  C   UNL A   1      34.176  28.973  27.119  1.00  0.00     0.275 C 
ENDROOT
BRANCH   1   2
ATOM      2  C   UNL A   1      33.968  28.644  25.638  1.00  0.00     0.274 C 
BRANCH   2   3
ATOM      3  O   UNL A   1      33.428  27.330  25.356  1.00  0.00    -0.461 OA
BRANCH   3   4
ATOM      4  C   UNL A   1      33.355  26.960  24.046  1.00  0.00     0.317 C 
ATOM      5  O   UNL A   1      34.009  27.464  23.150  1.00  0.00    -0.251 OA
BRANCH   4   6
ATOM      6  C   UNL A   1      32.310  25.903  23.804  1.00  0.00     0.173 C 
ATOM      7  C   UNL A   1      30.338  27.634  23.952  1.00  0.00     0.063 C 
ATOM      8  C   UNL A   1      31.012  26.373  24.457  1.00  0.00     0.036 C 
ATOM      9  N   UNL A   1      30.451  25.823  25.481  1.00  0.00    -0.220 NA
ATOM     10  C   UNL A   1      30.994  24.708  25.997  1.00  0.00     0.248 A 
ATOM     11  C   UNL A   1      32.803  24.461  24.236  1.00  0.00     0.161 C 
ATOM     12  N   UNL A   1      30.588  24.037  27.052  1.00  0.00    -0.198 NA
ATOM     13  N   UNL A   1      32.053  24.035  25.435  1.00  0.00    -0.221 N 
ATOM     14  C   UNL A   1      31.316  22.894  27.008  1.00  0.00     0.248 A 
ATOM     15  N   UNL A   1      32.138  22.791  25.963  1.00  0.00    -0.157 NA
BRANCH  11  16
ATOM     16  C   UNL A   1      34.354  24.208  24.344  1.00  0.00    -0.022 A 
ATOM     17  C   UNL A   1      35.109  23.623  23.308  1.00  0.00     0.009 A 
ATOM     18  C   UNL A   1      35.070  24.473  25.533  1.00  0.00     0.009 A 
ATOM     19  C   UNL A   1      36.379  23.076  23.527  1.00  0.00     0.039 A 
ATOM     20  C   UNL A   1      36.307  23.858  25.787  1.00  0.00     0.039 A 
ATOM     21  C   UNL A   1      36.932  23.129  24.789  1.00  0.00     0.123 A 
ATOM     22  F   UNL A   1      38.080  22.487  25.044  1.00  0.00    -0.207 F 
ENDBRANCH  11  16
ENDBRANCH   4   6
ENDBRANCH   3   4
ENDBRANCH   2   3
ENDBRANCH   1   2
BRANCH   1  23
ATOM     23  O   UNL A   1      35.520  29.377  27.353  1.00  0.00    -0.458 OA
BRANCH  23  24
ATOM     24  C   UNL A   1      35.620  30.566  27.973  1.00  0.00     0.338 C 
ATOM     25  O   UNL A   1      34.986  31.586  27.701  1.00  0.00    -0.246 OA
BRANCH  24  26
ATOM     26  C   UNL A   1      36.564  30.493  29.086  1.00  0.00     0.060 A 
ATOM     27  C   UNL A   1      37.618  31.414  29.070  1.00  0.00     0.016 A 
ATOM     28  C   UNL A   1      36.555  29.364  29.906  1.00  0.00     0.016 A 
ATOM     29  C   UNL A   1      38.827  30.995  29.549  1.00  0.00     0.010 A 
ATOM     30  C   UNL A   1      37.762  28.942  30.383  1.00  0.00     0.010 A 
ATOM     31  C   UNL A   1      38.886  29.692  30.034  1.00  0.00    -0.014 A 
BRANCH  31  32
ATOM     32  C   UNL A   1      40.162  29.022  30.002  1.00  0.00     0.031 A 
ATOM     33  C   UNL A   1      40.790  28.911  31.329  1.00  0.00     0.074 A 
ATOM     34  C   UNL A   1      40.586  28.485  28.839  1.00  0.00     0.049 A 
ATOM     35  N   UNL A   1      41.918  29.396  31.724  1.00  0.00    -0.248 NA
ATOM     36  C   UNL A   1      39.960  28.344  32.405  1.00  0.00     0.031 C 
ATOM     37  C   UNL A   1      39.868  28.369  27.560  1.00  0.00     0.029 A 
ATOM     38  N   UNL A   1      41.736  27.805  28.597  1.00  0.00    -0.354 N 
ATOM     39  C   UNL A   1      42.009  29.046  33.064  1.00  0.00     0.074 A 
ATOM     40  C   UNL A   1      40.703  28.610  33.475  1.00  0.00     0.031 C 
ATOM     41  C   UNL A   1      40.489  27.459  26.775  1.00  0.00     0.029 A 
ATOM     42  C   UNL A   1      41.703  27.028  27.439  1.00  0.00     0.049 A 
ATOM     43  H   UNL A   1      42.523  27.854  29.187  1.00  0.00     0.167 HD
ATOM     44  C   UNL A   1      43.206  28.886  33.685  1.00  0.00     0.037 A 
ATOM     45  C   UNL A   1      42.570  26.013  27.189  1.00  0.00     0.037 A 
ATOM     46  C   UNL A   1      44.267  29.533  32.967  1.00  0.00     0.049 A 
ATOM     47  C   UNL A   1      43.744  26.235  28.087  1.00  0.00     0.074 A 
ATOM     48  C   UNL A   1      44.545  30.854  32.676  1.00  0.00     0.029 A 
ATOM     49  N   UNL A   1      44.994  28.786  32.071  1.00  0.00    -0.354 N 
ATOM     50  N   UNL A   1      44.554  27.256  27.977  1.00  0.00    -0.248 NA
ATOM     51  C   UNL A   1      43.696  25.610  29.404  1.00  0.00     0.031 C 
ATOM     52  C   UNL A   1      45.028  30.844  31.337  1.00  0.00     0.029 A 
ATOM     53  C   UNL A   1      45.094  29.516  30.911  1.00  0.00     0.049 A 
ATOM     54  H   UNL A   1      45.374  27.892  32.230  1.00  0.00     0.167 HD
ATOM     55  C   UNL A   1      44.814  27.647  29.285  1.00  0.00     0.074 A 
ATOM     56  C   UNL A   1      44.284  26.573  30.121  1.00  0.00     0.031 C 
ATOM     57  C   UNL A   1      45.166  28.930  29.591  1.00  0.00     0.037 A 
BRANCH  44  58
ATOM     58  C   UNL A   1      43.419  27.885  34.780  1.00  0.00     0.064 A 
ATOM     59  C   UNL A   1      43.511  26.492  34.553  1.00  0.00     0.173 A 
ATOM     60  C   UNL A   1      43.767  28.318  36.067  1.00  0.00     0.173 A 
ATOM     61  F   UNL A   1      43.363  25.957  33.333  1.00  0.00    -0.203 F 
ATOM     62  C   UNL A   1      43.867  25.594  35.552  1.00  0.00     0.198 A 
ATOM     63  C   UNL A   1      44.191  27.420  37.051  1.00  0.00     0.198 A 
ATOM     64  F   UNL A   1      43.762  29.624  36.371  1.00  0.00    -0.203 F 
ATOM     65  F   UNL A   1      43.917  24.283  35.274  1.00  0.00    -0.200 F 
ATOM     66  C   UNL A   1      44.231  26.059  36.795  1.00  0.00     0.200 A 
ATOM     67  F   UNL A   1      44.609  27.883  38.236  1.00  0.00    -0.200 F 
ATOM     68  F   UNL A   1      44.667  25.203  37.728  1.00  0.00    -0.200 F 
ENDBRANCH  44  58
BRANCH  45  69
ATOM     69  C   UNL A   1      42.246  24.682  26.614  1.00  0.00     0.064 A 
ATOM     70  C   UNL A   1      41.265  23.848  27.188  1.00  0.00     0.173 A 
ATOM     71  C   UNL A   1      43.087  24.083  25.661  1.00  0.00     0.173 A 
ATOM     72  F   UNL A   1      40.463  24.295  28.164  1.00  0.00    -0.203 F 
ATOM     73  C   UNL A   1      41.144  22.499  26.846  1.00  0.00     0.198 A 
ATOM     74  C   UNL A   1      42.969  22.728  25.323  1.00  0.00     0.198 A 
ATOM     75  F   UNL A   1      44.077  24.791  25.098  1.00  0.00    -0.203 F 
ATOM     76  F   UNL A   1      40.231  21.737  27.465  1.00  0.00    -0.200 F 
ATOM     77  C   UNL A   1      42.005  21.936  25.924  1.00  0.00     0.200 A 
ATOM     78  F   UNL A   1      43.828  22.178  24.453  1.00  0.00    -0.200 F 
ATOM     79  F   UNL A   1      41.932  20.626  25.649  1.00  0.00    -0.200 F 
ENDBRANCH  45  69
BRANCH  57  80
ATOM     80  C   UNL A   1      45.423  29.886  28.456  1.00  0.00     0.064 A 
ATOM     81  C   UNL A   1      46.751  30.154  28.102  1.00  0.00     0.173 A 
ATOM     82  C   UNL A   1      44.427  30.693  27.878  1.00  0.00     0.173 A 
ATOM     83  F   UNL A   1      47.748  29.453  28.662  1.00  0.00    -0.203 F 
ATOM     84  C   UNL A   1      47.071  31.194  27.232  1.00  0.00     0.198 A 
ATOM     85  C   UNL A   1      44.745  31.710  26.979  1.00  0.00     0.198 A 
ATOM     86  F   UNL A   1      43.143  30.557  28.233  1.00  0.00    -0.203 F 
ATOM     87  F   UNL A   1      48.357  31.472  26.973  1.00  0.00    -0.200 F 
ATOM     88  C   UNL A   1      46.069  31.969  26.668  1.00  0.00     0.200 A 
ATOM     89  F   UNL A   1      43.776  32.471  26.450  1.00  0.00    -0.200 F 
ATOM     90  F   UNL A   1      46.385  32.985  25.853  1.00  0.00    -0.200 F 
ENDBRANCH  57  80
ENDBRANCH  31  32
ENDBRANCH  24  26
ENDBRANCH  23  24
ENDBRANCH   1  23
TORSDOF 12
ENDMDL
