MODEL 1
REMARK VINA RESULT:     -12.0      0.000      0.000
REMARK SMILES CCC[N@@H+]1CC2(CC[NH+](c3nccnc3C)CC2)C[C@H]1C(=O)OCCOC(=O)c1ccc(-c2c3nc(c(-c4c(F)c(F)c(F)c(F)c4F)c4ccc([nH]4)c(-c4c(F)c(F)c(F)c(F)c4F)c4nc(c(-c5c(F)c(F)c(F)c(F)c5F)c5ccc2[nH]5)C=C4)C=C3)cc1
REMARK SMILES IDX 24 1 23 2 21 3 22 4 20 5 4 6 5 7 6 9 19 10 7 11 18 12 8 13
REMARK SMILES IDX 17 14 9 15 3 17 2 18 1 19 10 20 11 21 15 22 12 23 14 24
REMARK SMILES IDX 16 25 13 26 25 27 26 28 27 29 28 30 29 31 30 32 91 33 31 34
REMARK SMILES IDX 90 35 32 36 33 37 34 38 84 39 35 40 89 41 83 42 85 43 36 44
REMARK SMILES IDX 88 45 82 46 81 47 37 49 69 50 49 51 68 52 50 53 53 54 67 55
REMARK SMILES IDX 86 56 51 57 52 58 66 60 87 61 54 62 38 63 39 64 47 65 40 66
REMARK SMILES IDX 41 67 45 68 48 69 42 70 43 71 46 72 44 73 70 74 71 75 79 76
REMARK SMILES IDX 72 77 73 78 77 79 80 80 74 81 75 82 78 83 76 84 55 85 56 86
REMARK SMILES IDX 64 87 57 88 58 89 62 90 65 91 59 92 60 93 63 94 61 95
REMARK H PARENT 4 8 9 16 85 48 53 59
REMARK Flexibility Score: inf
ROOT
ATOM      1  C   UNL A   1      38.766  20.413  25.356  1.00  0.00     0.274 C 
ENDROOT
BRANCH   1   2
ATOM      2  O   UNL A   1      38.635  21.651  26.079  1.00  0.00    -0.458 OA
BRANCH   2   3
ATOM      3  C   UNL A   1      37.666  22.495  25.642  1.00  0.00     0.365 C 
ATOM      4  O   UNL A   1      37.645  23.703  25.875  1.00  0.00    -0.245 OA
BRANCH   3   5
ATOM      5  C   UNL A   1      36.541  21.823  24.844  1.00  0.00     0.295 C 
ATOM      6  N   UNL A   1      35.409  21.292  25.651  1.00  0.00    -0.323 N 
ATOM      7  C   UNL A   1      34.489  22.425  25.796  1.00  0.00     0.270 C 
ATOM      8  H   UNL A   1      35.668  20.960  26.580  1.00  0.00     0.348 HD
ATOM      9  C   UNL A   1      34.635  23.301  24.535  1.00  0.00     0.036 C 
ATOM     10  C   UNL A   1      35.930  22.809  23.866  1.00  0.00     0.091 C 
ATOM     11  C   UNL A   1      34.778  24.800  24.914  1.00  0.00     0.075 C 
ATOM     12  C   UNL A   1      33.458  23.090  23.550  1.00  0.00     0.075 C 
ATOM     13  C   UNL A   1      33.449  25.451  25.295  1.00  0.00     0.269 C 
ATOM     14  C   UNL A   1      32.169  23.755  24.028  1.00  0.00     0.269 C 
ATOM     15  N   UNL A   1      32.492  25.147  24.249  1.00  0.00    -0.284 N 
ATOM     16  H   UNL A   1      33.120  25.327  24.986  1.00  0.00     0.355 HD
BRANCH   6  17
ATOM     17  C   UNL A   1      34.849  20.091  25.001  1.00  0.00     0.262 C 
BRANCH  17  18
ATOM     18  C   UNL A   1      33.363  19.784  25.248  1.00  0.00     0.058 C 
ATOM     19  C   UNL A   1      32.576  19.482  23.978  1.00  0.00     0.010 C 
ENDBRANCH  17  18
ENDBRANCH   6  17
BRANCH  15  20
ATOM     20  C   UNL A   1      31.613  26.095  23.784  1.00  0.00     0.247 A 
ATOM     21  N   UNL A   1      30.415  26.199  24.403  1.00  0.00    -0.202 NA
ATOM     22  C   UNL A   1      31.886  26.857  22.627  1.00  0.00     0.119 A 
ATOM     23  C   UNL A   1      29.533  27.075  23.874  1.00  0.00     0.137 A 
ATOM     24  N   UNL A   1      30.993  27.745  22.107  1.00  0.00    -0.252 NA
ATOM     25  C   UNL A   1      33.162  26.682  21.856  1.00  0.00     0.075 C 
ATOM     26  C   UNL A   1      29.814  27.829  22.753  1.00  0.00     0.132 A 
ENDBRANCH  15  20
ENDBRANCH   3   5
ENDBRANCH   2   3
ENDBRANCH   1   2
BRANCH   1  27
ATOM     27  C   UNL A   1      39.626  19.410  26.125  1.00  0.00     0.275 C 
BRANCH  27  28
ATOM     28  O   UNL A   1      40.830  19.102  25.398  1.00  0.00    -0.458 OA
BRANCH  28  29
ATOM     29  C   UNL A   1      41.970  19.132  26.125  1.00  0.00     0.338 C 
ATOM     30  O   UNL A   1      42.705  18.200  26.414  1.00  0.00    -0.246 OA
BRANCH  29  31
ATOM     31  C   UNL A   1      42.279  20.524  26.472  1.00  0.00     0.060 A 
ATOM     32  C   UNL A   1      42.509  21.428  25.435  1.00  0.00     0.016 A 
ATOM     33  C   UNL A   1      42.438  20.916  27.799  1.00  0.00     0.016 A 
ATOM     34  C   UNL A   1      42.891  22.736  25.709  1.00  0.00     0.010 A 
ATOM     35  C   UNL A   1      42.816  22.233  28.079  1.00  0.00     0.010 A 
ATOM     36  C   UNL A   1      43.051  23.148  27.036  1.00  0.00    -0.014 A 
BRANCH  36  37
ATOM     37  C   UNL A   1      43.516  24.525  27.322  1.00  0.00     0.031 A 
ATOM     38  C   UNL A   1      42.558  25.529  27.895  1.00  0.00     0.074 A 
ATOM     39  C   UNL A   1      44.797  24.865  27.090  1.00  0.00     0.049 A 
ATOM     40  N   UNL A   1      42.723  26.810  28.094  1.00  0.00    -0.248 NA
ATOM     41  C   UNL A   1      41.238  25.019  28.299  1.00  0.00     0.031 C 
ATOM     42  C   UNL A   1      45.832  23.958  26.593  1.00  0.00     0.029 A 
ATOM     43  N   UNL A   1      45.444  26.066  27.234  1.00  0.00    -0.354 N 
ATOM     44  C   UNL A   1      41.518  27.269  28.610  1.00  0.00     0.074 A 
ATOM     45  C   UNL A   1      40.630  26.129  28.695  1.00  0.00     0.031 C 
ATOM     46  C   UNL A   1      46.985  24.635  26.471  1.00  0.00     0.029 A 
ATOM     47  C   UNL A   1      46.754  26.033  26.823  1.00  0.00     0.049 A 
ATOM     48  H   UNL A   1      45.012  26.872  27.597  1.00  0.00     0.167 HD
ATOM     49  C   UNL A   1      41.188  28.530  28.974  1.00  0.00     0.037 A 
ATOM     50  C   UNL A   1      47.652  27.029  26.702  1.00  0.00     0.037 A 
ATOM     51  C   UNL A   1      42.088  29.652  28.914  1.00  0.00     0.049 A 
ATOM     52  C   UNL A   1      47.243  28.430  27.065  1.00  0.00     0.074 A 
ATOM     53  C   UNL A   1      41.856  30.967  29.276  1.00  0.00     0.029 A 
ATOM     54  N   UNL A   1      43.399  29.587  28.464  1.00  0.00    -0.354 N 
ATOM     55  N   UNL A   1      46.095  28.862  27.527  1.00  0.00    -0.248 NA
ATOM     56  C   UNL A   1      48.249  29.484  26.878  1.00  0.00     0.031 C 
ATOM     57  C   UNL A   1      43.013  31.705  29.009  1.00  0.00     0.029 A 
ATOM     58  C   UNL A   1      43.981  30.842  28.520  1.00  0.00     0.049 A 
ATOM     59  H   UNL A   1      43.848  28.769  28.151  1.00  0.00     0.167 HD
ATOM     60  C   UNL A   1      46.241  30.232  27.695  1.00  0.00     0.074 A 
ATOM     61  C   UNL A   1      47.599  30.556  27.307  1.00  0.00     0.031 C 
ATOM     62  C   UNL A   1      45.334  31.141  28.127  1.00  0.00     0.037 A 
BRANCH  49  63
ATOM     63  C   UNL A   1      39.783  28.775  29.435  1.00  0.00     0.064 A 
ATOM     64  C   UNL A   1      39.405  28.621  30.776  1.00  0.00     0.173 A 
ATOM     65  C   UNL A   1      38.810  29.215  28.524  1.00  0.00     0.173 A 
ATOM     66  F   UNL A   1      40.294  28.188  31.682  1.00  0.00    -0.203 F 
ATOM     67  C   UNL A   1      38.099  28.881  31.185  1.00  0.00     0.198 A 
ATOM     68  C   UNL A   1      37.512  29.497  28.941  1.00  0.00     0.198 A 
ATOM     69  F   UNL A   1      39.122  29.381  27.230  1.00  0.00    -0.203 F 
ATOM     70  F   UNL A   1      37.750  28.694  32.466  1.00  0.00    -0.200 F 
ATOM     71  C   UNL A   1      37.156  29.326  30.270  1.00  0.00     0.200 A 
ATOM     72  F   UNL A   1      36.606  29.936  28.056  1.00  0.00    -0.200 F 
ATOM     73  F   UNL A   1      35.903  29.585  30.668  1.00  0.00    -0.200 F 
ENDBRANCH  49  63
BRANCH  50  74
ATOM     74  C   UNL A   1      49.010  26.742  26.172  1.00  0.00     0.064 A 
ATOM     75  C   UNL A   1      49.306  26.904  24.812  1.00  0.00     0.173 A 
ATOM     76  C   UNL A   1      50.037  26.290  27.015  1.00  0.00     0.173 A 
ATOM     77  F   UNL A   1      48.350  27.306  23.963  1.00  0.00    -0.203 F 
ATOM     78  C   UNL A   1      50.575  26.615  24.314  1.00  0.00     0.198 A 
ATOM     79  C   UNL A   1      51.313  26.029  26.521  1.00  0.00     0.198 A 
ATOM     80  F   UNL A   1      49.803  26.113  28.324  1.00  0.00    -0.203 F 
ATOM     81  F   UNL A   1      50.821  26.738  23.003  1.00  0.00    -0.200 F 
ATOM     82  C   UNL A   1      51.579  26.185  25.170  1.00  0.00     0.200 A 
ATOM     83  F   UNL A   1      52.281  25.625  27.354  1.00  0.00    -0.200 F 
ATOM     84  F   UNL A   1      52.801  25.912  24.690  1.00  0.00    -0.200 F 
ENDBRANCH  50  74
BRANCH  62  85
ATOM     85  C   UNL A   1      45.787  32.567  28.217  1.00  0.00     0.064 A 
ATOM     86  C   UNL A   1      45.621  33.456  27.145  1.00  0.00     0.173 A 
ATOM     87  C   UNL A   1      46.363  33.057  29.399  1.00  0.00     0.173 A 
ATOM     88  F   UNL A   1      45.091  33.028  25.989  1.00  0.00    -0.203 F 
ATOM     89  C   UNL A   1      46.035  34.781  27.245  1.00  0.00     0.198 A 
ATOM     90  C   UNL A   1      46.752  34.390  29.503  1.00  0.00     0.198 A 
ATOM     91  F   UNL A   1      46.538  32.247  30.452  1.00  0.00    -0.203 F 
ATOM     92  F   UNL A   1      45.906  35.603  26.195  1.00  0.00    -0.200 F 
ATOM     93  C   UNL A   1      46.594  35.248  28.426  1.00  0.00     0.200 A 
ATOM     94  F   UNL A   1      47.283  34.842  30.649  1.00  0.00    -0.200 F 
ATOM     95  F   UNL A   1      46.987  36.526  28.523  1.00  0.00    -0.200 F 
ENDBRANCH  62  85
ENDBRANCH  36  37
ENDBRANCH  29  31
ENDBRANCH  28  29
ENDBRANCH  27  28
ENDBRANCH   1  27
TORSDOF 14
ENDMDL
MODEL 2
REMARK VINA RESULT:     -11.9      5.734     11.268
REMARK SMILES CCC[N@@H+]1CC2(CC[NH+](c3nccnc3C)CC2)C[C@H]1C(=O)OCCOC(=O)c1ccc(-c2c3nc(c(-c4c(F)c(F)c(F)c(F)c4F)c4ccc([nH]4)c(-c4c(F)c(F)c(F)c(F)c4F)c4nc(c(-c5c(F)c(F)c(F)c(F)c5F)c5ccc2[nH]5)C=C4)C=C3)cc1
REMARK SMILES IDX 24 1 23 2 21 3 22 4 20 5 4 6 5 7 6 9 19 10 7 11 18 12 8 13
REMARK SMILES IDX 17 14 9 15 3 17 2 18 1 19 10 20 11 21 15 22 12 23 14 24
REMARK SMILES IDX 16 25 13 26 25 27 26 28 27 29 28 30 29 31 30 32 91 33 31 34
REMARK SMILES IDX 90 35 32 36 33 37 34 38 84 39 35 40 89 41 83 42 85 43 36 44
REMARK SMILES IDX 88 45 82 46 81 47 37 49 69 50 49 51 68 52 50 53 53 54 67 55
REMARK SMILES IDX 86 56 51 57 52 58 66 60 87 61 54 62 38 63 39 64 47 65 40 66
REMARK SMILES IDX 41 67 45 68 48 69 42 70 43 71 46 72 44 73 70 74 71 75 79 76
REMARK SMILES IDX 72 77 73 78 77 79 80 80 74 81 75 82 78 83 76 84 55 85 56 86
REMARK SMILES IDX 64 87 57 88 58 89 62 90 65 91 59 92 60 93 63 94 61 95
REMARK H PARENT 4 8 9 16 85 48 53 59
REMARK Flexibility Score: inf
ROOT
ATOM      1  C   UNL A   1      32.040  32.085  27.198  1.00  0.00     0.274 C 
ENDROOT
BRANCH   1   2
ATOM      2  O   UNL A   1      33.243  31.295  27.193  1.00  0.00    -0.458 OA
BRANCH   2   3
ATOM      3  C   UNL A   1      33.071  29.950  27.140  1.00  0.00     0.365 C 
ATOM      4  O   UNL A   1      33.844  29.135  27.639  1.00  0.00    -0.245 OA
BRANCH   3   5
ATOM      5  C   UNL A   1      31.831  29.491  26.361  1.00  0.00     0.295 C 
ATOM      6  N   UNL A   1      31.948  29.539  24.879  1.00  0.00    -0.323 N 
ATOM      7  C   UNL A   1      32.532  28.247  24.507  1.00  0.00     0.270 C 
ATOM      8  H   UNL A   1      32.548  30.284  24.523  1.00  0.00     0.348 HD
ATOM      9  C   UNL A   1      32.058  27.211  25.547  1.00  0.00     0.036 C 
ATOM     10  C   UNL A   1      31.497  28.052  26.707  1.00  0.00     0.091 C 
ATOM     11  C   UNL A   1      33.246  26.348  26.053  1.00  0.00     0.075 C 
ATOM     12  C   UNL A   1      30.923  26.316  24.990  1.00  0.00     0.075 C 
ATOM     13  C   UNL A   1      33.663  25.262  25.061  1.00  0.00     0.269 C 
ATOM     14  C   UNL A   1      31.432  25.279  23.991  1.00  0.00     0.269 C 
ATOM     15  N   UNL A   1      32.469  24.537  24.673  1.00  0.00    -0.284 N 
ATOM     16  H   UNL A   1      33.281  25.047  24.897  1.00  0.00     0.355 HD
BRANCH   6  17
ATOM     17  C   UNL A   1      30.633  29.844  24.281  1.00  0.00     0.262 C 
BRANCH  17  18
ATOM     18  C   UNL A   1      30.350  29.283  22.877  1.00  0.00     0.058 C 
ATOM     19  C   UNL A   1      28.994  28.600  22.748  1.00  0.00     0.010 C 
ENDBRANCH  17  18
ENDBRANCH   6  17
BRANCH  15  20
ATOM     20  C   UNL A   1      32.469  23.169  24.551  1.00  0.00     0.247 A 
ATOM     21  N   UNL A   1      32.970  22.640  23.410  1.00  0.00    -0.202 NA
ATOM     22  C   UNL A   1      31.863  22.336  25.516  1.00  0.00     0.119 A 
ATOM     23  C   UNL A   1      32.880  21.299  23.273  1.00  0.00     0.137 A 
ATOM     24  N   UNL A   1      31.785  20.984  25.372  1.00  0.00    -0.252 NA
ATOM     25  C   UNL A   1      31.201  22.904  26.737  1.00  0.00     0.075 C 
ATOM     26  C   UNL A   1      32.301  20.490  24.229  1.00  0.00     0.132 A 
ENDBRANCH  15  20
ENDBRANCH   3   5
ENDBRANCH   2   3
ENDBRANCH   1   2
BRANCH   1  27
ATOM     27  C   UNL A   1      32.356  33.580  27.151  1.00  0.00     0.275 C 
BRANCH  27  28
ATOM     28  O   UNL A   1      32.164  34.187  28.442  1.00  0.00    -0.458 OA
BRANCH  28  29
ATOM     29  C   UNL A   1      33.102  35.091  28.804  1.00  0.00     0.338 C 
ATOM     30  O   UNL A   1      33.022  36.310  28.777  1.00  0.00    -0.246 OA
BRANCH  29  31
ATOM     31  C   UNL A   1      34.267  34.384  29.345  1.00  0.00     0.060 A 
ATOM     32  C   UNL A   1      34.077  33.538  30.438  1.00  0.00     0.016 A 
ATOM     33  C   UNL A   1      35.547  34.620  28.849  1.00  0.00     0.016 A 
ATOM     34  C   UNL A   1      35.160  32.912  31.044  1.00  0.00     0.010 A 
ATOM     35  C   UNL A   1      36.638  33.986  29.452  1.00  0.00     0.010 A 
ATOM     36  C   UNL A   1      36.452  33.135  30.557  1.00  0.00    -0.014 A 
BRANCH  36  37
ATOM     37  C   UNL A   1      37.608  32.512  31.242  1.00  0.00     0.031 A 
ATOM     38  C   UNL A   1      38.361  31.402  30.569  1.00  0.00     0.074 A 
ATOM     39  C   UNL A   1      37.993  32.959  32.451  1.00  0.00     0.049 A 
ATOM     40  N   UNL A   1      39.311  30.639  31.044  1.00  0.00    -0.248 NA
ATOM     41  C   UNL A   1      37.995  31.113  29.173  1.00  0.00     0.031 C 
ATOM     42  C   UNL A   1      37.377  34.071  33.174  1.00  0.00     0.029 A 
ATOM     43  N   UNL A   1      38.990  32.526  33.288  1.00  0.00    -0.354 N 
ATOM     44  C   UNL A   1      39.630  29.755  30.021  1.00  0.00     0.074 A 
ATOM     45  C   UNL A   1      38.775  30.076  28.899  1.00  0.00     0.031 C 
ATOM     46  C   UNL A   1      38.008  34.233  34.348  1.00  0.00     0.029 A 
ATOM     47  C   UNL A   1      39.029  33.199  34.484  1.00  0.00     0.049 A 
ATOM     48  H   UNL A   1      39.617  31.804  33.054  1.00  0.00     0.167 HD
ATOM     49  C   UNL A   1      40.554  28.765  30.027  1.00  0.00     0.037 A 
ATOM     50  C   UNL A   1      39.776  32.977  35.583  1.00  0.00     0.037 A 
ATOM     51  C   UNL A   1      41.421  28.473  31.139  1.00  0.00     0.049 A 
ATOM     52  C   UNL A   1      40.759  31.838  35.581  1.00  0.00     0.074 A 
ATOM     53  C   UNL A   1      42.402  27.503  31.238  1.00  0.00     0.029 A 
ATOM     54  N   UNL A   1      41.412  29.158  32.345  1.00  0.00    -0.354 N 
ATOM     55  N   UNL A   1      41.038  30.990  34.621  1.00  0.00    -0.248 NA
ATOM     56  C   UNL A   1      41.519  31.616  36.817  1.00  0.00     0.031 C 
ATOM     57  C   UNL A   1      42.960  27.575  32.519  1.00  0.00     0.029 A 
ATOM     58  C   UNL A   1      42.356  28.617  33.202  1.00  0.00     0.049 A 
ATOM     59  H   UNL A   1      40.821  29.916  32.561  1.00  0.00     0.167 HD
ATOM     60  C   UNL A   1      42.011  30.142  35.131  1.00  0.00     0.074 A 
ATOM     61  C   UNL A   1      42.290  30.592  36.479  1.00  0.00     0.031 C 
ATOM     62  C   UNL A   1      42.615  29.082  34.541  1.00  0.00     0.037 A 
BRANCH  49  63
ATOM     63  C   UNL A   1      40.650  27.898  28.809  1.00  0.00     0.064 A 
ATOM     64  C   UNL A   1      39.874  26.740  28.659  1.00  0.00     0.173 A 
ATOM     65  C   UNL A   1      41.502  28.259  27.754  1.00  0.00     0.173 A 
ATOM     66  F   UNL A   1      39.056  26.344  29.645  1.00  0.00    -0.203 F 
ATOM     67  C   UNL A   1      39.961  25.965  27.505  1.00  0.00     0.198 A 
ATOM     68  C   UNL A   1      41.569  27.496  26.592  1.00  0.00     0.198 A 
ATOM     69  F   UNL A   1      42.263  29.360  27.847  1.00  0.00    -0.203 F 
ATOM     70  F   UNL A   1      39.236  24.843  27.396  1.00  0.00    -0.200 F 
ATOM     71  C   UNL A   1      40.802  26.348  26.469  1.00  0.00     0.200 A 
ATOM     72  F   UNL A   1      42.376  27.873  25.589  1.00  0.00    -0.200 F 
ATOM     73  F   UNL A   1      40.877  25.606  25.356  1.00  0.00    -0.200 F 
ENDBRANCH  49  63
BRANCH  50  74
ATOM     74  C   UNL A   1      39.590  33.823  36.789  1.00  0.00     0.064 A 
ATOM     75  C   UNL A   1      38.752  33.418  37.836  1.00  0.00     0.173 A 
ATOM     76  C   UNL A   1      40.239  35.061  36.914  1.00  0.00     0.173 A 
ATOM     77  F   UNL A   1      38.088  32.256  37.750  1.00  0.00    -0.203 F 
ATOM     78  C   UNL A   1      38.563  34.222  38.958  1.00  0.00     0.198 A 
ATOM     79  C   UNL A   1      40.072  35.852  38.049  1.00  0.00     0.198 A 
ATOM     80  F   UNL A   1      41.048  35.498  35.937  1.00  0.00    -0.203 F 
ATOM     81  F   UNL A   1      37.724  33.831  39.927  1.00  0.00    -0.200 F 
ATOM     82  C   UNL A   1      39.228  35.435  39.067  1.00  0.00     0.200 A 
ATOM     83  F   UNL A   1      40.725  37.016  38.153  1.00  0.00    -0.200 F 
ATOM     84  F   UNL A   1      39.049  36.205  40.149  1.00  0.00    -0.200 F 
ENDBRANCH  50  74
BRANCH  62  85
ATOM     85  C   UNL A   1      43.649  28.352  35.345  1.00  0.00     0.064 A 
ATOM     86  C   UNL A   1      45.003  28.712  35.294  1.00  0.00     0.173 A 
ATOM     87  C   UNL A   1      43.275  27.305  36.200  1.00  0.00     0.173 A 
ATOM     88  F   UNL A   1      45.409  29.697  34.478  1.00  0.00    -0.203 F 
ATOM     89  C   UNL A   1      45.951  28.035  36.055  1.00  0.00     0.198 A 
ATOM     90  C   UNL A   1      44.223  26.646  36.978  1.00  0.00     0.198 A 
ATOM     91  F   UNL A   1      41.991  26.927  36.287  1.00  0.00    -0.203 F 
ATOM     92  F   UNL A   1      47.246  28.366  35.959  1.00  0.00    -0.200 F 
ATOM     93  C   UNL A   1      45.560  27.007  36.901  1.00  0.00     0.200 A 
ATOM     94  F   UNL A   1      43.842  25.660  37.803  1.00  0.00    -0.200 F 
ATOM     95  F   UNL A   1      46.473  26.359  37.637  1.00  0.00    -0.200 F 
ENDBRANCH  62  85
ENDBRANCH  36  37
ENDBRANCH  29  31
ENDBRANCH  28  29
ENDBRANCH  27  28
ENDBRANCH   1  27
TORSDOF 14
ENDMDL
MODEL 3
REMARK VINA RESULT:     -11.9      0.671      7.345
REMARK SMILES CCC[N@@H+]1CC2(CC[NH+](c3nccnc3C)CC2)C[C@H]1C(=O)OCCOC(=O)c1ccc(-c2c3nc(c(-c4c(F)c(F)c(F)c(F)c4F)c4ccc([nH]4)c(-c4c(F)c(F)c(F)c(F)c4F)c4nc(c(-c5c(F)c(F)c(F)c(F)c5F)c5ccc2[nH]5)C=C4)C=C3)cc1
REMARK SMILES IDX 24 1 23 2 21 3 22 4 20 5 4 6 5 7 6 9 19 10 7 11 18 12 8 13
REMARK SMILES IDX 17 14 9 15 3 17 2 18 1 19 10 20 11 21 15 22 12 23 14 24
REMARK SMILES IDX 16 25 13 26 25 27 26 28 27 29 28 30 29 31 30 32 91 33 31 34
REMARK SMILES IDX 90 35 32 36 33 37 34 38 84 39 35 40 89 41 83 42 85 43 36 44
REMARK SMILES IDX 88 45 82 46 81 47 37 49 69 50 49 51 68 52 50 53 53 54 67 55
REMARK SMILES IDX 86 56 51 57 52 58 66 60 87 61 54 62 38 63 39 64 47 65 40 66
REMARK SMILES IDX 41 67 45 68 48 69 42 70 43 71 46 72 44 73 70 74 71 75 79 76
REMARK SMILES IDX 72 77 73 78 77 79 80 80 74 81 75 82 78 83 76 84 55 85 56 86
REMARK SMILES IDX 64 87 57 88 58 89 62 90 65 91 59 92 60 93 63 94 61 95
REMARK H PARENT 4 8 9 16 85 48 53 59
REMARK Flexibility Score: inf
ROOT
ATOM      1  C   UNL A   1      38.691  20.162  25.309  1.00  0.00     0.274 C 
ENDROOT
BRANCH   1   2
ATOM      2  O   UNL A   1      38.697  21.474  25.902  1.00  0.00    -0.458 OA
BRANCH   2   3
ATOM      3  C   UNL A   1      37.731  22.325  25.474  1.00  0.00     0.365 C 
ATOM      4  O   UNL A   1      37.743  23.539  25.671  1.00  0.00    -0.245 OA
BRANCH   3   5
ATOM      5  C   UNL A   1      36.565  21.654  24.737  1.00  0.00     0.295 C 
ATOM      6  N   UNL A   1      35.455  21.164  25.599  1.00  0.00    -0.323 N 
ATOM      7  C   UNL A   1      34.562  22.317  25.749  1.00  0.00     0.270 C 
ATOM      8  H   UNL A   1      35.743  20.851  26.526  1.00  0.00     0.348 HD
ATOM      9  C   UNL A   1      34.674  23.158  24.461  1.00  0.00     0.036 C 
ATOM     10  C   UNL A   1      35.935  22.625  23.757  1.00  0.00     0.091 C 
ATOM     11  C   UNL A   1      34.858  24.663  24.795  1.00  0.00     0.075 C 
ATOM     12  C   UNL A   1      33.457  22.944  23.527  1.00  0.00     0.075 C 
ATOM     13  C   UNL A   1      33.556  25.349  25.210  1.00  0.00     0.269 C 
ATOM     14  C   UNL A   1      32.199  23.645  24.035  1.00  0.00     0.269 C 
ATOM     15  N   UNL A   1      32.555  25.036  24.208  1.00  0.00    -0.284 N 
ATOM     16  H   UNL A   1      33.214  25.223  24.916  1.00  0.00     0.355 HD
BRANCH   6  17
ATOM     17  C   UNL A   1      34.850  19.958  25.002  1.00  0.00     0.262 C 
BRANCH  17  18
ATOM     18  C   UNL A   1      33.354  19.717  25.263  1.00  0.00     0.058 C 
ATOM     19  C   UNL A   1      32.515  19.619  23.994  1.00  0.00     0.010 C 
ENDBRANCH  17  18
ENDBRANCH   6  17
BRANCH  15  20
ATOM     20  C   UNL A   1      31.676  25.988  23.751  1.00  0.00     0.247 A 
ATOM     21  N   UNL A   1      30.559  26.213  24.481  1.00  0.00    -0.202 NA
ATOM     22  C   UNL A   1      31.855  26.629  22.507  1.00  0.00     0.119 A 
ATOM     23  C   UNL A   1      29.667  27.089  23.969  1.00  0.00     0.137 A 
ATOM     24  N   UNL A   1      30.953  27.517  22.003  1.00  0.00    -0.252 NA
ATOM     25  C   UNL A   1      33.029  26.316  21.626  1.00  0.00     0.075 C 
ATOM     26  C   UNL A   1      29.858  27.725  22.760  1.00  0.00     0.132 A 
ENDBRANCH  15  20
ENDBRANCH   3   5
ENDBRANCH   2   3
ENDBRANCH   1   2
BRANCH   1  27
ATOM     27  C   UNL A   1      39.627  19.211  26.055  1.00  0.00     0.275 C 
BRANCH  27  28
ATOM     28  O   UNL A   1      40.947  19.234  25.482  1.00  0.00    -0.458 OA
BRANCH  28  29
ATOM     29  C   UNL A   1      41.960  19.387  26.365  1.00  0.00     0.338 C 
ATOM     30  O   UNL A   1      42.684  18.524  26.838  1.00  0.00    -0.246 OA
BRANCH  29  31
ATOM     31  C   UNL A   1      42.148  20.816  26.635  1.00  0.00     0.060 A 
ATOM     32  C   UNL A   1      42.283  21.682  25.549  1.00  0.00     0.016 A 
ATOM     33  C   UNL A   1      42.289  21.290  27.938  1.00  0.00     0.016 A 
ATOM     34  C   UNL A   1      42.551  23.031  25.750  1.00  0.00     0.010 A 
ATOM     35  C   UNL A   1      42.551  22.649  28.143  1.00  0.00     0.010 A 
ATOM     36  C   UNL A   1      42.690  23.525  27.051  1.00  0.00    -0.014 A 
BRANCH  36  37
ATOM     37  C   UNL A   1      43.034  24.951  27.258  1.00  0.00     0.031 A 
ATOM     38  C   UNL A   1      44.405  25.444  26.901  1.00  0.00     0.074 A 
ATOM     39  C   UNL A   1      42.111  25.802  27.742  1.00  0.00     0.049 A 
ATOM     40  N   UNL A   1      44.949  26.612  27.123  1.00  0.00    -0.248 NA
ATOM     41  C   UNL A   1      45.282  24.493  26.198  1.00  0.00     0.031 C 
ATOM     42  C   UNL A   1      40.728  25.449  28.065  1.00  0.00     0.029 A 
ATOM     43  N   UNL A   1      42.199  27.135  28.051  1.00  0.00    -0.354 N 
ATOM     44  C   UNL A   1      46.242  26.527  26.622  1.00  0.00     0.074 A 
ATOM     45  C   UNL A   1      46.403  25.193  26.084  1.00  0.00     0.031 C 
ATOM     46  C   UNL A   1      40.097  26.539  28.532  1.00  0.00     0.029 A 
ATOM     47  C   UNL A   1      41.046  27.646  28.595  1.00  0.00     0.049 A 
ATOM     48  H   UNL A   1      43.009  27.673  27.899  1.00  0.00     0.167 HD
ATOM     49  C   UNL A   1      47.204  27.479  26.620  1.00  0.00     0.037 A 
ATOM     50  C   UNL A   1      40.799  28.860  29.125  1.00  0.00     0.037 A 
ATOM     51  C   UNL A   1      47.025  28.813  27.131  1.00  0.00     0.049 A 
ATOM     52  C   UNL A   1      41.902  29.882  29.156  1.00  0.00     0.074 A 
ATOM     53  C   UNL A   1      47.931  29.858  27.159  1.00  0.00     0.029 A 
ATOM     54  N   UNL A   1      45.852  29.287  27.701  1.00  0.00    -0.354 N 
ATOM     55  N   UNL A   1      43.129  29.788  28.706  1.00  0.00    -0.248 NA
ATOM     56  C   UNL A   1      41.590  31.175  29.779  1.00  0.00     0.031 C 
ATOM     57  C   UNL A   1      47.320  30.951  27.781  1.00  0.00     0.029 A 
ATOM     58  C   UNL A   1      46.019  30.601  28.103  1.00  0.00     0.049 A 
ATOM     59  H   UNL A   1      45.023  28.765  27.805  1.00  0.00     0.167 HD
ATOM     60  C   UNL A   1      43.733  31.007  28.981  1.00  0.00     0.074 A 
ATOM     61  C   UNL A   1      42.728  31.834  29.618  1.00  0.00     0.031 C 
ATOM     62  C   UNL A   1      45.004  31.405  28.736  1.00  0.00     0.037 A 
BRANCH  49  63
ATOM     63  C   UNL A   1      48.552  27.104  26.082  1.00  0.00     0.064 A 
ATOM     64  C   UNL A   1      49.548  26.550  26.898  1.00  0.00     0.173 A 
ATOM     65  C   UNL A   1      48.832  27.261  24.716  1.00  0.00     0.173 A 
ATOM     66  F   UNL A   1      49.334  26.394  28.212  1.00  0.00    -0.203 F 
ATOM     67  C   UNL A   1      50.783  26.183  26.368  1.00  0.00     0.198 A 
ATOM     68  C   UNL A   1      50.059  26.871  24.186  1.00  0.00     0.198 A 
ATOM     69  F   UNL A   1      47.911  27.784  23.893  1.00  0.00    -0.203 F 
ATOM     70  F   UNL A   1      51.735  25.687  27.172  1.00  0.00    -0.200 F 
ATOM     71  C   UNL A   1      51.035  26.337  25.012  1.00  0.00     0.200 A 
ATOM     72  F   UNL A   1      50.296  27.012  22.873  1.00  0.00    -0.200 F 
ATOM     73  F   UNL A   1      52.221  25.975  24.504  1.00  0.00    -0.200 F 
ENDBRANCH  49  63
BRANCH  50  74
ATOM     74  C   UNL A   1      39.466  29.155  29.709  1.00  0.00     0.064 A 
ATOM     75  C   UNL A   1      39.182  28.866  31.051  1.00  0.00     0.173 A 
ATOM     76  C   UNL A   1      38.444  29.724  28.934  1.00  0.00     0.173 A 
ATOM     77  F   UNL A   1      40.118  28.296  31.824  1.00  0.00    -0.203 F 
ATOM     78  C   UNL A   1      37.925  29.126  31.592  1.00  0.00     0.198 A 
ATOM     79  C   UNL A   1      37.196  30.010  29.483  1.00  0.00     0.198 A 
ATOM     80  F   UNL A   1      38.663  30.014  27.642  1.00  0.00    -0.203 F 
ATOM     81  F   UNL A   1      37.666  28.802  32.865  1.00  0.00    -0.200 F 
ATOM     82  C   UNL A   1      36.935  29.704  30.810  1.00  0.00     0.200 A 
ATOM     83  F   UNL A   1      36.248  30.578  28.726  1.00  0.00    -0.200 F 
ATOM     84  F   UNL A   1      35.727  29.958  31.332  1.00  0.00    -0.200 F 
ENDBRANCH  50  74
BRANCH  62  85
ATOM     85  C   UNL A   1      45.372  32.801  29.141  1.00  0.00     0.064 A 
ATOM     86  C   UNL A   1      45.941  33.072  30.393  1.00  0.00     0.173 A 
ATOM     87  C   UNL A   1      45.184  33.871  28.254  1.00  0.00     0.173 A 
ATOM     88  F   UNL A   1      46.124  32.082  31.280  1.00  0.00    -0.203 F 
ATOM     89  C   UNL A   1      46.290  34.370  30.753  1.00  0.00     0.198 A 
ATOM     90  C   UNL A   1      45.558  35.165  28.609  1.00  0.00     0.198 A 
ATOM     91  F   UNL A   1      44.648  33.661  27.044  1.00  0.00    -0.203 F 
ATOM     92  F   UNL A   1      46.793  34.614  31.971  1.00  0.00    -0.200 F 
ATOM     93  C   UNL A   1      46.104  35.414  29.859  1.00  0.00     0.200 A 
ATOM     94  F   UNL A   1      45.387  36.171  27.739  1.00  0.00    -0.200 F 
ATOM     95  F   UNL A   1      46.445  36.663  30.204  1.00  0.00    -0.200 F 
ENDBRANCH  62  85
ENDBRANCH  36  37
ENDBRANCH  29  31
ENDBRANCH  28  29
ENDBRANCH  27  28
ENDBRANCH   1  27
TORSDOF 14
ENDMDL
