MODEL 1
REMARK VINA RESULT:     -11.5      0.000      0.000
REMARK SMILES COc1ccc(F)cc1[C@@H](C(=O)OCCOC(=O)c1ccc(-c2c3nc(c(-c4c(F)c(F)c(F)c(F)c4F)c4ccc([nH]4)c(-c4c(F)c(F)c(F)c(F)c4F)c4nc(c(-c5c(F)c(F)c(F)c(F)c5F)c5ccc2[nH]5)C=C4)C=C3)cc1)[N@@H+](C)CCn1ccnc1C
REMARK SMILES IDX 14 1 13 2 11 3 12 4 10 5 9 6 3 7 4 8 5 9 8 10 6 11 7 12 2 13
REMARK SMILES IDX 1 14 82 15 83 16 84 18 85 19 86 20 87 21 90 22 88 23 89 24
REMARK SMILES IDX 91 25 15 26 16 27 17 28 18 29 19 30 20 31 81 32 21 33 80 34
REMARK SMILES IDX 22 35 23 36 24 37 74 38 25 39 79 40 73 41 75 42 26 43 78 44
REMARK SMILES IDX 72 45 71 46 27 48 59 49 39 50 58 51 40 52 43 53 57 54 76 55
REMARK SMILES IDX 41 56 42 57 56 59 77 60 44 61 28 62 29 63 37 64 30 65 31 66
REMARK SMILES IDX 35 67 38 68 32 69 33 70 36 71 34 72 60 73 61 74 69 75 62 76
REMARK SMILES IDX 63 77 67 78 70 79 64 80 65 81 68 82 66 83 45 84 46 85 54 86
REMARK SMILES IDX 47 87 48 88 52 89 55 90 49 91 50 92 53 93 51 94
REMARK H PARENT 82 17 75 47 43 58
REMARK Flexibility Score: inf
ROOT
ATOM      1  C   UNL A   1      31.832  27.907  26.612  1.00  0.00     0.274 C 
ENDROOT
BRANCH   1   2
ATOM      2  O   UNL A   1      33.150  27.299  26.491  1.00  0.00    -0.457 OA
BRANCH   2   3
ATOM      3  C   UNL A   1      33.473  26.515  25.417  1.00  0.00     0.370 C 
ATOM      4  O   UNL A   1      33.595  26.978  24.289  1.00  0.00    -0.245 OA
BRANCH   3   5
ATOM      5  C   UNL A   1      33.710  24.994  25.818  1.00  0.00     0.330 C 
BRANCH   5   6
ATOM      6  C   UNL A   1      34.869  24.177  25.189  1.00  0.00     0.066 A 
ATOM      7  C   UNL A   1      34.754  23.566  23.925  1.00  0.00     0.128 A 
ATOM      8  C   UNL A   1      35.832  22.829  23.386  1.00  0.00     0.050 A 
ATOM      9  C   UNL A   1      37.034  22.687  24.075  1.00  0.00     0.043 A 
ATOM     10  C   UNL A   1      36.139  24.085  25.802  1.00  0.00     0.053 A 
ATOM     11  C   UNL A   1      37.179  23.327  25.282  1.00  0.00     0.124 A 
ATOM     12  F   UNL A   1      38.333  23.243  25.958  1.00  0.00    -0.207 F 
BRANCH   7  13
ATOM     13  O   UNL A   1      33.567  23.757  23.272  1.00  0.00    -0.496 OA
ATOM     14  C   UNL A   1      33.257  22.843  22.224  1.00  0.00     0.278 C 
ENDBRANCH   7  13
ENDBRANCH   5   6
BRANCH   5  15
ATOM     15  N   UNL A   1      32.432  24.243  25.886  1.00  0.00    -0.320 N 
ATOM     16  C   UNL A   1      32.390  23.361  27.054  1.00  0.00     0.333 C 
ATOM     17  H   UNL A   1      32.505  23.694  25.029  1.00  0.00     0.348 HD
BRANCH  15  18
ATOM     18  C   UNL A   1      31.141  24.848  25.501  1.00  0.00     0.285 C 
BRANCH  18  19
ATOM     19  C   UNL A   1      30.442  24.881  24.104  1.00  0.00     0.184 C 
BRANCH  19  20
ATOM     20  N   UNL A   1      30.133  26.009  23.237  1.00  0.00    -0.330 N 
ATOM     21  C   UNL A   1      29.275  26.991  23.723  1.00  0.00     0.107 A 
ATOM     22  C   UNL A   1      30.888  26.654  22.253  1.00  0.00     0.105 A 
ATOM     23  C   UNL A   1      29.618  28.161  23.103  1.00  0.00     0.131 A 
ATOM     24  N   UNL A   1      30.582  27.936  22.181  1.00  0.00    -0.242 NA
ATOM     25  C   UNL A   1      31.924  26.136  21.332  1.00  0.00     0.087 C 
ENDBRANCH  19  20
ENDBRANCH  18  19
ENDBRANCH  15  18
ENDBRANCH   5  15
ENDBRANCH   3   5
ENDBRANCH   2   3
ENDBRANCH   1   2
BRANCH   1  26
ATOM     26  C   UNL A   1      31.790  29.268  25.860  1.00  0.00     0.275 C 
BRANCH  26  27
ATOM     27  O   UNL A   1      33.085  29.897  25.997  1.00  0.00    -0.458 OA
BRANCH  27  28
ATOM     28  C   UNL A   1      33.208  30.985  26.807  1.00  0.00     0.338 C 
ATOM     29  O   UNL A   1      32.359  31.821  27.039  1.00  0.00    -0.246 OA
BRANCH  28  30
ATOM     30  C   UNL A   1      34.506  30.878  27.547  1.00  0.00     0.060 A 
ATOM     31  C   UNL A   1      34.842  29.676  28.174  1.00  0.00     0.016 A 
ATOM     32  C   UNL A   1      35.324  31.995  27.758  1.00  0.00     0.016 A 
ATOM     33  C   UNL A   1      35.942  29.596  29.024  1.00  0.00     0.010 A 
ATOM     34  C   UNL A   1      36.500  31.879  28.525  1.00  0.00     0.010 A 
ATOM     35  C   UNL A   1      36.836  30.664  29.146  1.00  0.00    -0.014 A 
BRANCH  35  36
ATOM     36  C   UNL A   1      38.164  30.446  29.789  1.00  0.00     0.031 A 
ATOM     37  C   UNL A   1      39.218  29.585  29.156  1.00  0.00     0.074 A 
ATOM     38  C   UNL A   1      38.410  31.007  30.992  1.00  0.00     0.049 A 
ATOM     39  N   UNL A   1      40.244  28.994  29.717  1.00  0.00    -0.248 NA
ATOM     40  C   UNL A   1      39.117  29.364  27.706  1.00  0.00     0.031 C 
ATOM     41  C   UNL A   1      37.529  31.951  31.689  1.00  0.00     0.029 A 
ATOM     42  N   UNL A   1      39.468  30.856  31.859  1.00  0.00    -0.354 N 
ATOM     43  C   UNL A   1      40.874  28.280  28.706  1.00  0.00     0.074 A 
ATOM     44  C   UNL A   1      40.139  28.544  27.486  1.00  0.00     0.031 C 
ATOM     45  C   UNL A   1      38.085  32.308  32.851  1.00  0.00     0.029 A 
ATOM     46  C   UNL A   1      39.277  31.503  33.057  1.00  0.00     0.049 A 
ATOM     47  H   UNL A   1      40.277  30.338  31.643  1.00  0.00     0.167 HD
ATOM     48  C   UNL A   1      41.951  27.465  28.812  1.00  0.00     0.037 A 
ATOM     49  C   UNL A   1      39.908  31.388  34.239  1.00  0.00     0.037 A 
ATOM     50  C   UNL A   1      42.687  27.254  30.034  1.00  0.00     0.049 A 
ATOM     51  C   UNL A   1      41.026  30.404  34.369  1.00  0.00     0.074 A 
ATOM     52  C   UNL A   1      43.773  26.425  30.261  1.00  0.00     0.029 A 
ATOM     53  N   UNL A   1      42.421  27.897  31.235  1.00  0.00    -0.354 N 
ATOM     54  N   UNL A   1      41.531  29.615  33.454  1.00  0.00    -0.248 NA
ATOM     55  C   UNL A   1      41.639  30.266  35.696  1.00  0.00     0.031 C 
ATOM     56  C   UNL A   1      44.141  26.540  31.604  1.00  0.00     0.029 A 
ATOM     57  C   UNL A   1      43.315  27.475  32.206  1.00  0.00     0.049 A 
ATOM     58  H   UNL A   1      41.702  28.554  31.377  1.00  0.00     0.167 HD
ATOM     59  C   UNL A   1      42.527  28.891  34.087  1.00  0.00     0.074 A 
ATOM     60  C   UNL A   1      42.560  29.338  35.466  1.00  0.00     0.031 C 
ATOM     61  C   UNL A   1      43.338  27.940  33.569  1.00  0.00     0.037 A 
BRANCH  48  62
ATOM     62  C   UNL A   1      42.380  26.685  27.602  1.00  0.00     0.064 A 
ATOM     63  C   UNL A   1      41.818  25.422  27.349  1.00  0.00     0.173 A 
ATOM     64  C   UNL A   1      43.404  27.125  26.755  1.00  0.00     0.173 A 
ATOM     65  F   UNL A   1      40.842  24.948  28.138  1.00  0.00    -0.203 F 
ATOM     66  C   UNL A   1      42.277  24.624  26.305  1.00  0.00     0.198 A 
ATOM     67  C   UNL A   1      43.847  26.333  25.695  1.00  0.00     0.198 A 
ATOM     68  F   UNL A   1      43.971  28.325  26.947  1.00  0.00    -0.203 F 
ATOM     69  F   UNL A   1      41.748  23.408  26.109  1.00  0.00    -0.200 F 
ATOM     70  C   UNL A   1      43.290  25.081  25.478  1.00  0.00     0.200 A 
ATOM     71  F   UNL A   1      44.816  26.781  24.885  1.00  0.00    -0.200 F 
ATOM     72  F   UNL A   1      43.731  24.313  24.471  1.00  0.00    -0.200 F 
ENDBRANCH  48  62
BRANCH  49  73
ATOM     73  C   UNL A   1      39.401  32.163  35.401  1.00  0.00     0.064 A 
ATOM     74  C   UNL A   1      39.875  33.457  35.672  1.00  0.00     0.173 A 
ATOM     75  C   UNL A   1      38.516  31.585  36.319  1.00  0.00     0.173 A 
ATOM     76  F   UNL A   1      40.734  34.048  34.827  1.00  0.00    -0.203 F 
ATOM     77  C   UNL A   1      39.524  34.122  36.843  1.00  0.00     0.198 A 
ATOM     78  C   UNL A   1      38.141  32.265  37.476  1.00  0.00     0.198 A 
ATOM     79  F   UNL A   1      38.025  30.358  36.093  1.00  0.00    -0.203 F 
ATOM     80  F   UNL A   1      40.048  35.326  37.111  1.00  0.00    -0.200 F 
ATOM     81  C   UNL A   1      38.656  33.525  37.745  1.00  0.00     0.200 A 
ATOM     82  F   UNL A   1      37.290  31.694  38.338  1.00  0.00    -0.200 F 
ATOM     83  F   UNL A   1      38.325  34.161  38.877  1.00  0.00    -0.200 F 
ENDBRANCH  49  73
BRANCH  61  84
ATOM     84  C   UNL A   1      44.365  27.346  34.479  1.00  0.00     0.064 A 
ATOM     85  C   UNL A   1      45.635  27.931  34.583  1.00  0.00     0.173 A 
ATOM     86  C   UNL A   1      44.119  26.160  35.182  1.00  0.00     0.173 A 
ATOM     87  F   UNL A   1      45.912  29.066  33.925  1.00  0.00    -0.203 F 
ATOM     88  C   UNL A   1      46.633  27.335  35.348  1.00  0.00     0.198 A 
ATOM     89  C   UNL A   1      45.114  25.577  35.961  1.00  0.00     0.198 A 
ATOM     90  F   UNL A   1      42.911  25.579  35.123  1.00  0.00    -0.203 F 
ATOM     91  F   UNL A   1      47.848  27.893  35.413  1.00  0.00    -0.200 F 
ATOM     92  C   UNL A   1      46.371  26.159  36.035  1.00  0.00     0.200 A 
ATOM     93  F   UNL A   1      44.855  24.451  36.640  1.00  0.00    -0.200 F 
ATOM     94  F   UNL A   1      47.333  25.585  36.772  1.00  0.00    -0.200 F 
ENDBRANCH  61  84
ENDBRANCH  35  36
ENDBRANCH  28  30
ENDBRANCH  27  28
ENDBRANCH  26  27
ENDBRANCH   1  26
TORSDOF 17
ENDMDL
MODEL 2
REMARK VINA RESULT:     -11.4      1.222      2.604
REMARK SMILES COc1ccc(F)cc1[C@@H](C(=O)OCCOC(=O)c1ccc(-c2c3nc(c(-c4c(F)c(F)c(F)c(F)c4F)c4ccc([nH]4)c(-c4c(F)c(F)c(F)c(F)c4F)c4nc(c(-c5c(F)c(F)c(F)c(F)c5F)c5ccc2[nH]5)C=C4)C=C3)cc1)[N@@H+](C)CCn1ccnc1C
REMARK SMILES IDX 14 1 13 2 11 3 12 4 10 5 9 6 3 7 4 8 5 9 8 10 6 11 7 12 2 13
REMARK SMILES IDX 1 14 82 15 83 16 84 18 85 19 86 20 87 21 90 22 88 23 89 24
REMARK SMILES IDX 91 25 15 26 16 27 17 28 18 29 19 30 20 31 81 32 21 33 80 34
REMARK SMILES IDX 22 35 23 36 24 37 74 38 25 39 79 40 73 41 75 42 26 43 78 44
REMARK SMILES IDX 72 45 71 46 27 48 59 49 39 50 58 51 40 52 43 53 57 54 76 55
REMARK SMILES IDX 41 56 42 57 56 59 77 60 44 61 28 62 29 63 37 64 30 65 31 66
REMARK SMILES IDX 35 67 38 68 32 69 33 70 36 71 34 72 60 73 61 74 69 75 62 76
REMARK SMILES IDX 63 77 67 78 70 79 64 80 65 81 68 82 66 83 45 84 46 85 54 86
REMARK SMILES IDX 47 87 48 88 52 89 55 90 49 91 50 92 53 93 51 94
REMARK H PARENT 82 17 75 47 43 58
REMARK Flexibility Score: inf
ROOT
ATOM      1  C   UNL A   1      31.699  28.609  26.785  1.00  0.00     0.274 C 
ENDROOT
BRANCH   1   2
ATOM      2  O   UNL A   1      32.748  28.094  25.915  1.00  0.00    -0.457 OA
BRANCH   2   3
ATOM      3  C   UNL A   1      32.483  27.130  24.980  1.00  0.00     0.370 C 
ATOM      4  O   UNL A   1      32.880  27.221  23.825  1.00  0.00    -0.245 OA
BRANCH   3   5
ATOM      5  C   UNL A   1      31.670  25.902  25.581  1.00  0.00     0.330 C 
BRANCH   5   6
ATOM      6  C   UNL A   1      32.407  24.713  26.251  1.00  0.00     0.066 A 
ATOM      7  C   UNL A   1      31.720  23.722  26.980  1.00  0.00     0.128 A 
ATOM      8  C   UNL A   1      32.426  22.654  27.576  1.00  0.00     0.050 A 
ATOM      9  C   UNL A   1      33.810  22.541  27.460  1.00  0.00     0.043 A 
ATOM     10  C   UNL A   1      33.794  24.498  26.082  1.00  0.00     0.053 A 
ATOM     11  C   UNL A   1      34.484  23.467  26.703  1.00  0.00     0.124 A 
ATOM     12  F   UNL A   1      35.810  23.372  26.538  1.00  0.00    -0.207 F 
BRANCH   7  13
ATOM     13  O   UNL A   1      30.360  23.857  27.042  1.00  0.00    -0.496 OA
ATOM     14  C   UNL A   1      29.602  22.660  27.183  1.00  0.00     0.278 C 
ENDBRANCH   7  13
ENDBRANCH   5   6
BRANCH   5  15
ATOM     15  N   UNL A   1      30.575  25.478  24.674  1.00  0.00    -0.320 N 
ATOM     16  C   UNL A   1      29.525  26.495  24.588  1.00  0.00     0.333 C 
ATOM     17  H   UNL A   1      30.236  24.658  25.179  1.00  0.00     0.348 HD
BRANCH  15  18
ATOM     18  C   UNL A   1      30.830  24.724  23.430  1.00  0.00     0.285 C 
BRANCH  18  19
ATOM     19  C   UNL A   1      31.190  23.215  23.245  1.00  0.00     0.184 C 
BRANCH  19  20
ATOM     20  N   UNL A   1      32.489  22.574  23.090  1.00  0.00    -0.330 N 
ATOM     21  C   UNL A   1      33.529  23.325  22.551  1.00  0.00     0.107 A 
ATOM     22  C   UNL A   1      33.123  21.576  23.836  1.00  0.00     0.105 A 
ATOM     23  C   UNL A   1      34.691  22.822  23.067  1.00  0.00     0.131 A 
ATOM     24  N   UNL A   1      34.434  21.732  23.824  1.00  0.00    -0.242 NA
ATOM     25  C   UNL A   1      32.568  20.434  24.596  1.00  0.00     0.087 C 
ENDBRANCH  19  20
ENDBRANCH  18  19
ENDBRANCH  15  18
ENDBRANCH   5  15
ENDBRANCH   3   5
ENDBRANCH   2   3
ENDBRANCH   1   2
BRANCH   1  26
ATOM     26  C   UNL A   1      31.729  30.164  26.811  1.00  0.00     0.275 C 
BRANCH  26  27
ATOM     27  O   UNL A   1      33.097  30.590  26.609  1.00  0.00    -0.458 OA
BRANCH  27  28
ATOM     28  C   UNL A   1      33.576  31.636  27.338  1.00  0.00     0.338 C 
ATOM     29  O   UNL A   1      32.984  32.654  27.630  1.00  0.00    -0.246 OA
BRANCH  28  30
ATOM     30  C   UNL A   1      34.903  31.240  27.912  1.00  0.00     0.060 A 
ATOM     31  C   UNL A   1      35.887  32.213  28.101  1.00  0.00     0.016 A 
ATOM     32  C   UNL A   1      35.239  29.897  28.122  1.00  0.00     0.016 A 
ATOM     33  C   UNL A   1      37.186  31.857  28.451  1.00  0.00     0.010 A 
ATOM     34  C   UNL A   1      36.523  29.553  28.590  1.00  0.00     0.010 A 
ATOM     35  C   UNL A   1      37.505  30.538  28.785  1.00  0.00    -0.014 A 
BRANCH  35  36
ATOM     36  C   UNL A   1      38.798  30.241  29.469  1.00  0.00     0.031 A 
ATOM     37  C   UNL A   1      39.822  29.328  28.861  1.00  0.00     0.074 A 
ATOM     38  C   UNL A   1      39.035  30.777  30.685  1.00  0.00     0.049 A 
ATOM     39  N   UNL A   1      40.795  28.677  29.449  1.00  0.00    -0.248 NA
ATOM     40  C   UNL A   1      39.757  29.126  27.407  1.00  0.00     0.031 C 
ATOM     41  C   UNL A   1      38.184  31.763  31.362  1.00  0.00     0.029 A 
ATOM     42  N   UNL A   1      40.053  30.561  31.584  1.00  0.00    -0.354 N 
ATOM     43  C   UNL A   1      41.418  27.938  28.452  1.00  0.00     0.074 A 
ATOM     44  C   UNL A   1      40.740  28.252  27.211  1.00  0.00     0.031 C 
ATOM     45  C   UNL A   1      38.720  32.079  32.546  1.00  0.00     0.029 A 
ATOM     46  C   UNL A   1      39.859  31.207  32.782  1.00  0.00     0.049 A 
ATOM     47  H   UNL A   1      40.839  30.001  31.389  1.00  0.00     0.167 HD
ATOM     48  C   UNL A   1      42.445  27.063  28.584  1.00  0.00     0.037 A 
ATOM     49  C   UNL A   1      40.444  31.048  33.983  1.00  0.00     0.037 A 
ATOM     50  C   UNL A   1      43.127  26.802  29.827  1.00  0.00     0.049 A 
ATOM     51  C   UNL A   1      41.501  30.002  34.138  1.00  0.00     0.074 A 
ATOM     52  C   UNL A   1      44.158  25.912  30.080  1.00  0.00     0.029 A 
ATOM     53  N   UNL A   1      42.858  27.448  31.025  1.00  0.00    -0.354 N 
ATOM     54  N   UNL A   1      41.991  29.194  33.232  1.00  0.00    -0.248 NA
ATOM     55  C   UNL A   1      42.061  29.819  35.483  1.00  0.00     0.031 C 
ATOM     56  C   UNL A   1      44.488  25.995  31.436  1.00  0.00     0.029 A 
ATOM     57  C   UNL A   1      43.695  26.969  32.020  1.00  0.00     0.049 A 
ATOM     58  H   UNL A   1      42.172  28.143  31.151  1.00  0.00     0.167 HD
ATOM     59  C   UNL A   1      42.924  28.411  33.889  1.00  0.00     0.074 A 
ATOM     60  C   UNL A   1      42.937  28.844  35.273  1.00  0.00     0.031 C 
ATOM     61  C   UNL A   1      43.699  27.421  33.388  1.00  0.00     0.037 A 
BRANCH  48  62
ATOM     62  C   UNL A   1      42.870  26.271  27.381  1.00  0.00     0.064 A 
ATOM     63  C   UNL A   1      42.254  25.039  27.102  1.00  0.00     0.173 A 
ATOM     64  C   UNL A   1      43.938  26.666  26.566  1.00  0.00     0.173 A 
ATOM     65  F   UNL A   1      41.234  24.608  27.860  1.00  0.00    -0.203 F 
ATOM     66  C   UNL A   1      42.703  24.226  26.065  1.00  0.00     0.198 A 
ATOM     67  C   UNL A   1      44.371  25.860  25.513  1.00  0.00     0.198 A 
ATOM     68  F   UNL A   1      44.556  27.836  26.784  1.00  0.00    -0.203 F 
ATOM     69  F   UNL A   1      42.122  23.038  25.845  1.00  0.00    -0.200 F 
ATOM     70  C   UNL A   1      43.760  24.638  25.270  1.00  0.00     0.200 A 
ATOM     71  F   UNL A   1      45.383  26.265  24.733  1.00  0.00    -0.200 F 
ATOM     72  F   UNL A   1      44.192  23.856  24.270  1.00  0.00    -0.200 F 
ENDBRANCH  48  62
BRANCH  49  73
ATOM     73  C   UNL A   1      39.942  31.839  35.135  1.00  0.00     0.064 A 
ATOM     74  C   UNL A   1      40.590  33.017  35.543  1.00  0.00     0.173 A 
ATOM     75  C   UNL A   1      38.874  31.378  35.913  1.00  0.00     0.173 A 
ATOM     76  F   UNL A   1      41.628  33.492  34.836  1.00  0.00    -0.203 F 
ATOM     77  C   UNL A   1      40.223  33.673  36.713  1.00  0.00     0.198 A 
ATOM     78  C   UNL A   1      38.486  32.054  37.068  1.00  0.00     0.198 A 
ATOM     79  F   UNL A   1      38.214  30.268  35.552  1.00  0.00    -0.203 F 
ATOM     80  F   UNL A   1      40.905  34.753  37.117  1.00  0.00    -0.200 F 
ATOM     81  C   UNL A   1      39.170  33.191  37.476  1.00  0.00     0.200 A 
ATOM     82  F   UNL A   1      37.458  31.596  37.795  1.00  0.00    -0.200 F 
ATOM     83  F   UNL A   1      38.820  33.817  38.608  1.00  0.00    -0.200 F 
ENDBRANCH  49  73
BRANCH  61  84
ATOM     84  C   UNL A   1      44.661  26.763  34.325  1.00  0.00     0.064 A 
ATOM     85  C   UNL A   1      44.275  25.621  35.041  1.00  0.00     0.173 A 
ATOM     86  C   UNL A   1      45.928  27.306  34.570  1.00  0.00     0.173 A 
ATOM     87  F   UNL A   1      43.069  25.070  34.836  1.00  0.00    -0.203 F 
ATOM     88  C   UNL A   1      45.122  25.056  35.989  1.00  0.00     0.198 A 
ATOM     89  C   UNL A   1      46.780  26.726  35.506  1.00  0.00     0.198 A 
ATOM     90  F   UNL A   1      46.343  28.387  33.892  1.00  0.00    -0.203 F 
ATOM     91  F   UNL A   1      44.724  23.981  36.683  1.00  0.00    -0.200 F 
ATOM     92  C   UNL A   1      46.372  25.609  36.221  1.00  0.00     0.200 A 
ATOM     93  F   UNL A   1      47.996  27.249  35.716  1.00  0.00    -0.200 F 
ATOM     94  F   UNL A   1      47.187  25.063  37.134  1.00  0.00    -0.200 F 
ENDBRANCH  61  84
ENDBRANCH  35  36
ENDBRANCH  28  30
ENDBRANCH  27  28
ENDBRANCH  26  27
ENDBRANCH   1  26
TORSDOF 17
ENDMDL
MODEL 3
REMARK VINA RESULT:     -11.3      1.686      2.967
REMARK SMILES COc1ccc(F)cc1[C@@H](C(=O)OCCOC(=O)c1ccc(-c2c3nc(c(-c4c(F)c(F)c(F)c(F)c4F)c4ccc([nH]4)c(-c4c(F)c(F)c(F)c(F)c4F)c4nc(c(-c5c(F)c(F)c(F)c(F)c5F)c5ccc2[nH]5)C=C4)C=C3)cc1)[N@@H+](C)CCn1ccnc1C
REMARK SMILES IDX 14 1 13 2 11 3 12 4 10 5 9 6 3 7 4 8 5 9 8 10 6 11 7 12 2 13
REMARK SMILES IDX 1 14 82 15 83 16 84 18 85 19 86 20 87 21 90 22 88 23 89 24
REMARK SMILES IDX 91 25 15 26 16 27 17 28 18 29 19 30 20 31 81 32 21 33 80 34
REMARK SMILES IDX 22 35 23 36 24 37 74 38 25 39 79 40 73 41 75 42 26 43 78 44
REMARK SMILES IDX 72 45 71 46 27 48 59 49 39 50 58 51 40 52 43 53 57 54 76 55
REMARK SMILES IDX 41 56 42 57 56 59 77 60 44 61 28 62 29 63 37 64 30 65 31 66
REMARK SMILES IDX 35 67 38 68 32 69 33 70 36 71 34 72 60 73 61 74 69 75 62 76
REMARK SMILES IDX 63 77 67 78 70 79 64 80 65 81 68 82 66 83 45 84 46 85 54 86
REMARK SMILES IDX 47 87 48 88 52 89 55 90 49 91 50 92 53 93 51 94
REMARK H PARENT 82 17 75 47 43 58
REMARK Flexibility Score: inf
ROOT
ATOM      1  C   UNL A   1      31.373  29.768  25.618  1.00  0.00     0.274 C 
ENDROOT
BRANCH   1   2
ATOM      2  O   UNL A   1      32.538  29.354  24.847  1.00  0.00    -0.457 OA
BRANCH   2   3
ATOM      3  C   UNL A   1      32.418  28.489  23.794  1.00  0.00     0.370 C 
ATOM      4  O   UNL A   1      33.133  28.572  22.802  1.00  0.00    -0.245 OA
BRANCH   3   5
ATOM      5  C   UNL A   1      31.310  27.374  24.039  1.00  0.00     0.330 C 
BRANCH   5   6
ATOM      6  C   UNL A   1      31.704  25.883  24.199  1.00  0.00     0.066 A 
ATOM      7  C   UNL A   1      31.831  25.019  23.094  1.00  0.00     0.128 A 
ATOM      8  C   UNL A   1      32.191  23.666  23.280  1.00  0.00     0.050 A 
ATOM      9  C   UNL A   1      32.437  23.145  24.549  1.00  0.00     0.043 A 
ATOM     10  C   UNL A   1      32.059  25.331  25.451  1.00  0.00     0.053 A 
ATOM     11  C   UNL A   1      32.374  23.992  25.629  1.00  0.00     0.124 A 
ATOM     12  F   UNL A   1      32.639  23.537  26.861  1.00  0.00    -0.207 F 
BRANCH   7  13
ATOM     13  O   UNL A   1      31.609  25.579  21.865  1.00  0.00    -0.496 OA
ATOM     14  C   UNL A   1      32.723  25.649  20.981  1.00  0.00     0.278 C 
ENDBRANCH   7  13
ENDBRANCH   5   6
BRANCH   5  15
ATOM     15  N   UNL A   1      30.130  27.578  23.164  1.00  0.00    -0.320 N 
ATOM     16  C   UNL A   1      28.939  26.922  23.708  1.00  0.00     0.333 C 
ATOM     17  H   UNL A   1      30.448  27.095  22.323  1.00  0.00     0.348 HD
BRANCH  15  18
ATOM     18  C   UNL A   1      29.884  28.850  22.455  1.00  0.00     0.285 C 
BRANCH  18  19
ATOM     19  C   UNL A   1      28.538  29.607  22.220  1.00  0.00     0.184 C 
BRANCH  19  20
ATOM     20  N   UNL A   1      28.220  31.020  22.370  1.00  0.00    -0.330 N 
ATOM     21  C   UNL A   1      28.553  31.642  23.570  1.00  0.00     0.107 A 
ATOM     22  C   UNL A   1      28.162  32.060  21.437  1.00  0.00     0.105 A 
ATOM     23  C   UNL A   1      28.774  32.961  23.285  1.00  0.00     0.131 A 
ATOM     24  N   UNL A   1      28.498  33.212  21.985  1.00  0.00    -0.242 NA
ATOM     25  C   UNL A   1      27.799  32.055  20.002  1.00  0.00     0.087 C 
ENDBRANCH  19  20
ENDBRANCH  18  19
ENDBRANCH  15  18
ENDBRANCH   5  15
ENDBRANCH   3   5
ENDBRANCH   2   3
ENDBRANCH   1   2
BRANCH   1  26
ATOM     26  C   UNL A   1      31.714  31.009  26.493  1.00  0.00     0.275 C 
BRANCH  26  27
ATOM     27  O   UNL A   1      33.080  30.874  26.951  1.00  0.00    -0.458 OA
BRANCH  27  28
ATOM     28  C   UNL A   1      33.689  31.943  27.533  1.00  0.00     0.338 C 
ATOM     29  O   UNL A   1      33.207  33.040  27.730  1.00  0.00    -0.246 OA
BRANCH  28  30
ATOM     30  C   UNL A   1      35.003  31.490  28.093  1.00  0.00     0.060 A 
ATOM     31  C   UNL A   1      36.058  32.399  28.188  1.00  0.00     0.016 A 
ATOM     32  C   UNL A   1      35.251  30.142  28.382  1.00  0.00     0.016 A 
ATOM     33  C   UNL A   1      37.341  31.973  28.523  1.00  0.00     0.010 A 
ATOM     34  C   UNL A   1      36.522  29.736  28.833  1.00  0.00     0.010 A 
ATOM     35  C   UNL A   1      37.577  30.658  28.934  1.00  0.00    -0.014 A 
BRANCH  35  36
ATOM     36  C   UNL A   1      38.868  30.312  29.597  1.00  0.00     0.031 A 
ATOM     37  C   UNL A   1      39.851  29.366  28.971  1.00  0.00     0.074 A 
ATOM     38  C   UNL A   1      39.141  30.835  30.812  1.00  0.00     0.049 A 
ATOM     39  N   UNL A   1      40.808  28.678  29.543  1.00  0.00    -0.248 NA
ATOM     40  C   UNL A   1      39.757  29.172  27.518  1.00  0.00     0.031 C 
ATOM     41  C   UNL A   1      38.337  31.846  31.506  1.00  0.00     0.029 A 
ATOM     42  N   UNL A   1      40.164  30.578  31.695  1.00  0.00    -0.354 N 
ATOM     43  C   UNL A   1      41.390  27.921  28.534  1.00  0.00     0.074 A 
ATOM     44  C   UNL A   1      40.705  28.265  27.304  1.00  0.00     0.031 C 
ATOM     45  C   UNL A   1      38.901  32.138  32.682  1.00  0.00     0.029 A 
ATOM     46  C   UNL A   1      40.010  31.225  32.898  1.00  0.00     0.049 A 
ATOM     47  H   UNL A   1      40.927  29.991  31.487  1.00  0.00     0.167 HD
ATOM     48  C   UNL A   1      42.386  27.010  28.647  1.00  0.00     0.037 A 
ATOM     49  C   UNL A   1      40.607  31.040  34.090  1.00  0.00     0.037 A 
ATOM     50  C   UNL A   1      43.077  26.719  29.880  1.00  0.00     0.049 A 
ATOM     51  C   UNL A   1      41.628  29.957  34.226  1.00  0.00     0.074 A 
ATOM     52  C   UNL A   1      44.078  25.792  30.114  1.00  0.00     0.029 A 
ATOM     53  N   UNL A   1      42.848  27.369  31.084  1.00  0.00    -0.354 N 
ATOM     54  N   UNL A   1      42.076  29.136  33.310  1.00  0.00    -0.248 NA
ATOM     55  C   UNL A   1      42.201  29.748  35.562  1.00  0.00     0.031 C 
ATOM     56  C   UNL A   1      44.431  25.857  31.465  1.00  0.00     0.029 A 
ATOM     57  C   UNL A   1      43.681  26.857  32.065  1.00  0.00     0.049 A 
ATOM     58  H   UNL A   1      42.189  28.088  31.222  1.00  0.00     0.167 HD
ATOM     59  C   UNL A   1      42.990  28.317  33.950  1.00  0.00     0.074 A 
ATOM     60  C   UNL A   1      43.038  28.743  35.335  1.00  0.00     0.031 C 
ATOM     61  C   UNL A   1      43.722  27.302  33.434  1.00  0.00     0.037 A 
BRANCH  48  62
ATOM     62  C   UNL A   1      42.765  26.209  27.435  1.00  0.00     0.064 A 
ATOM     63  C   UNL A   1      42.119  24.988  27.175  1.00  0.00     0.173 A 
ATOM     64  C   UNL A   1      43.819  26.582  26.593  1.00  0.00     0.173 A 
ATOM     65  F   UNL A   1      41.111  24.577  27.959  1.00  0.00    -0.203 F 
ATOM     66  C   UNL A   1      42.526  24.166  26.128  1.00  0.00     0.198 A 
ATOM     67  C   UNL A   1      44.210  25.767  25.531  1.00  0.00     0.198 A 
ATOM     68  F   UNL A   1      44.465  27.741  26.793  1.00  0.00    -0.203 F 
ATOM     69  F   UNL A   1      41.917  22.989  25.924  1.00  0.00    -0.200 F 
ATOM     70  C   UNL A   1      43.570  24.556  25.306  1.00  0.00     0.200 A 
ATOM     71  F   UNL A   1      45.210  26.152  24.725  1.00  0.00    -0.200 F 
ATOM     72  F   UNL A   1      43.962  23.765  24.296  1.00  0.00    -0.200 F 
ENDBRANCH  48  62
BRANCH  49  73
ATOM     73  C   UNL A   1      40.150  31.844  35.253  1.00  0.00     0.064 A 
ATOM     74  C   UNL A   1      39.075  31.419  36.051  1.00  0.00     0.173 A 
ATOM     75  C   UNL A   1      40.707  33.100  35.521  1.00  0.00     0.173 A 
ATOM     76  F   UNL A   1      38.500  30.227  35.824  1.00  0.00    -0.203 F 
ATOM     77  C   UNL A   1      38.542  32.241  37.039  1.00  0.00     0.198 A 
ATOM     78  C   UNL A   1      40.192  33.909  36.532  1.00  0.00     0.198 A 
ATOM     79  F   UNL A   1      41.745  33.539  34.796  1.00  0.00    -0.203 F 
ATOM     80  F   UNL A   1      37.471  31.840  37.737  1.00  0.00    -0.200 F 
ATOM     81  C   UNL A   1      39.102  33.487  37.279  1.00  0.00     0.200 A 
ATOM     82  F   UNL A   1      40.744  35.105  36.773  1.00  0.00    -0.200 F 
ATOM     83  F   UNL A   1      38.583  34.283  38.224  1.00  0.00    -0.200 F 
ENDBRANCH  49  73
BRANCH  61  84
ATOM     84  C   UNL A   1      44.673  26.606  34.354  1.00  0.00     0.064 A 
ATOM     85  C   UNL A   1      44.260  25.469  35.064  1.00  0.00     0.173 A 
ATOM     86  C   UNL A   1      45.958  27.108  34.591  1.00  0.00     0.173 A 
ATOM     87  F   UNL A   1      43.036  24.958  34.867  1.00  0.00    -0.203 F 
ATOM     88  C   UNL A   1      45.098  24.869  35.997  1.00  0.00     0.198 A 
ATOM     89  C   UNL A   1      46.802  26.494  35.512  1.00  0.00     0.198 A 
ATOM     90  F   UNL A   1      46.399  28.183  33.919  1.00  0.00    -0.203 F 
ATOM     91  F   UNL A   1      44.676  23.801  36.686  1.00  0.00    -0.200 F 
ATOM     92  C   UNL A   1      46.368  25.383  36.221  1.00  0.00     0.200 A 
ATOM     93  F   UNL A   1      48.035  26.977  35.714  1.00  0.00    -0.200 F 
ATOM     94  F   UNL A   1      47.176  24.803  37.120  1.00  0.00    -0.200 F 
ENDBRANCH  61  84
ENDBRANCH  35  36
ENDBRANCH  28  30
ENDBRANCH  27  28
ENDBRANCH  26  27
ENDBRANCH   1  26
TORSDOF 17
ENDMDL
