MODEL 1
REMARK VINA RESULT:     -11.3      0.000      0.000
REMARK SMILES CCCc1cc(OCC(=O)OCCOC(=O)c2ccc(-c3c4nc(c(-c5c(F)c(F)c(F)c(F)c5F)c5ccc([nH]5)c(-c5c(F)c(F)c(F)c(F)c5F)c5nc(c(-c6c(F)c(F)c(F)c(F)c6F)c6ccc3[nH]6)C=C5)C=C4)cc2)nc(Nc2ccc(C#N)cc2)n1
REMARK SMILES IDX 11 1 9 2 10 3 8 4 7 5 6 6 4 7 5 8 91 9 81 10 80 11 3 12 2 13
REMARK SMILES IDX 1 14 82 15 83 17 84 18 90 19 85 20 89 21 86 22 87 23 88 24
REMARK SMILES IDX 12 25 13 26 14 27 15 28 16 29 17 30 18 31 79 32 19 33 78 34
REMARK SMILES IDX 20 35 21 36 22 37 72 38 23 39 77 40 71 41 73 42 24 43 76 44
REMARK SMILES IDX 70 45 69 46 25 48 57 49 37 50 56 51 38 52 41 53 55 54 74 55
REMARK SMILES IDX 39 56 40 57 54 59 75 60 42 61 26 62 27 63 35 64 28 65 29 66
REMARK SMILES IDX 33 67 36 68 30 69 31 70 34 71 32 72 58 73 59 74 67 75 60 76
REMARK SMILES IDX 61 77 65 78 68 79 62 80 63 81 66 82 64 83 43 84 44 85 52 86
REMARK SMILES IDX 45 87 46 88 50 89 53 90 47 91 48 92 51 93 49 94
REMARK H PARENT 82 16 73 47 41 58
REMARK Flexibility Score: inf
ROOT
ATOM      1  O   UNL A   1      44.168  20.051  24.553  1.00  0.00    -0.460 OA
ENDROOT
BRANCH   1   2
ATOM      2  C   UNL A   1      44.299  18.874  25.220  1.00  0.00     0.344 C 
ATOM      3  O   UNL A   1      45.296  18.155  25.152  1.00  0.00    -0.248 OA
BRANCH   2   4
ATOM      4  C   UNL A   1      43.120  18.516  26.154  1.00  0.00     0.353 C 
BRANCH   4   5
ATOM      5  O   UNL A   1      41.772  18.447  25.751  1.00  0.00    -0.466 OA
BRANCH   5   6
ATOM      6  C   UNL A   1      40.866  19.423  26.048  1.00  0.00     0.218 A 
ATOM      7  C   UNL A   1      40.152  21.555  26.732  1.00  0.00     0.050 A 
ATOM      8  C   UNL A   1      41.058  20.524  26.863  1.00  0.00     0.092 A 
ATOM      9  N   UNL A   1      39.043  21.381  26.028  1.00  0.00    -0.218 NA
ATOM     10  C   UNL A   1      38.802  20.199  25.461  1.00  0.00     0.230 A 
ATOM     11  N   UNL A   1      39.696  19.213  25.413  1.00  0.00    -0.177 NA
BRANCH   7  12
ATOM     12  C   UNL A   1      40.218  22.923  27.351  1.00  0.00     0.056 C 
BRANCH  12  13
ATOM     13  C   UNL A   1      39.764  24.096  26.504  1.00  0.00     0.003 C 
ATOM     14  C   UNL A   1      38.547  24.854  27.013  1.00  0.00     0.004 C 
ENDBRANCH  12  13
ENDBRANCH   7  12
BRANCH  10  15
ATOM     15  N   UNL A   1      37.502  19.997  25.002  1.00  0.00    -0.324 N 
ATOM     16  H   UNL A   1      37.188  19.072  24.883  1.00  0.00     0.170 HD
BRANCH  15  17
ATOM     17  C   UNL A   1      36.618  21.044  24.703  1.00  0.00     0.041 A 
ATOM     18  C   UNL A   1      37.028  22.125  23.920  1.00  0.00     0.027 A 
ATOM     19  C   UNL A   1      35.248  20.915  24.997  1.00  0.00     0.027 A 
ATOM     20  C   UNL A   1      36.092  23.064  23.460  1.00  0.00     0.021 A 
ATOM     21  C   UNL A   1      34.313  21.844  24.546  1.00  0.00     0.021 A 
ATOM     22  C   UNL A   1      34.735  22.928  23.779  1.00  0.00     0.052 A 
BRANCH  22  23
ATOM     23  C   UNL A   1      33.777  23.884  23.319  1.00  0.00     0.099 C 
ATOM     24  N   UNL A   1      32.992  24.652  22.933  1.00  0.00    -0.192 NA
ENDBRANCH  22  23
ENDBRANCH  15  17
ENDBRANCH  10  15
ENDBRANCH   5   6
ENDBRANCH   4   5
ENDBRANCH   2   4
ENDBRANCH   1   2
BRANCH   1  25
ATOM     25  C   UNL A   1      44.573  21.249  25.273  1.00  0.00     0.274 C 
BRANCH  25  26
ATOM     26  C   UNL A   1      44.861  22.457  24.349  1.00  0.00     0.275 C 
BRANCH  26  27
ATOM     27  O   UNL A   1      45.184  23.686  25.064  1.00  0.00    -0.458 OA
BRANCH  27  28
ATOM     28  C   UNL A   1      44.065  24.300  25.482  1.00  0.00     0.338 C 
ATOM     29  O   UNL A   1      43.009  24.236  24.869  1.00  0.00    -0.246 OA
BRANCH  28  30
ATOM     30  C   UNL A   1      44.040  25.115  26.711  1.00  0.00     0.060 A 
ATOM     31  C   UNL A   1      43.309  24.539  27.761  1.00  0.00     0.016 A 
ATOM     32  C   UNL A   1      44.105  26.509  26.606  1.00  0.00     0.016 A 
ATOM     33  C   UNL A   1      42.515  25.329  28.592  1.00  0.00     0.010 A 
ATOM     34  C   UNL A   1      43.357  27.311  27.494  1.00  0.00     0.010 A 
ATOM     35  C   UNL A   1      42.527  26.728  28.469  1.00  0.00    -0.014 A 
BRANCH  35  36
ATOM     36  C   UNL A   1      41.902  27.545  29.544  1.00  0.00     0.031 A 
ATOM     37  C   UNL A   1      40.653  28.369  29.395  1.00  0.00     0.074 A 
ATOM     38  C   UNL A   1      42.544  27.517  30.726  1.00  0.00     0.049 A 
ATOM     39  N   UNL A   1      40.037  29.107  30.289  1.00  0.00    -0.248 NA
ATOM     40  C   UNL A   1      40.006  28.372  28.081  1.00  0.00     0.031 C 
ATOM     41  C   UNL A   1      43.763  26.747  30.988  1.00  0.00     0.029 A 
ATOM     42  N   UNL A   1      42.279  28.144  31.911  1.00  0.00    -0.354 N 
ATOM     43  C   UNL A   1      38.930  29.660  29.650  1.00  0.00     0.074 A 
ATOM     44  C   UNL A   1      38.967  29.176  28.284  1.00  0.00     0.031 C 
ATOM     45  C   UNL A   1      44.141  26.945  32.253  1.00  0.00     0.029 A 
ATOM     46  C   UNL A   1      43.232  27.903  32.866  1.00  0.00     0.049 A 
ATOM     47  H   UNL A   1      41.487  28.708  32.063  1.00  0.00     0.167 HD
ATOM     48  C   UNL A   1      37.991  30.502  30.159  1.00  0.00     0.037 A 
ATOM     49  C   UNL A   1      43.392  28.425  34.091  1.00  0.00     0.037 A 
ATOM     50  C   UNL A   1      38.000  31.009  31.515  1.00  0.00     0.049 A 
ATOM     51  C   UNL A   1      42.376  29.395  34.605  1.00  0.00     0.074 A 
ATOM     52  C   UNL A   1      37.078  31.836  32.138  1.00  0.00     0.029 A 
ATOM     53  N   UNL A   1      38.999  30.765  32.449  1.00  0.00    -0.354 N 
ATOM     54  N   UNL A   1      41.306  29.864  34.014  1.00  0.00    -0.248 NA
ATOM     55  C   UNL A   1      42.585  29.893  35.967  1.00  0.00     0.031 C 
ATOM     56  C   UNL A   1      37.562  32.161  33.411  1.00  0.00     0.029 A 
ATOM     57  C   UNL A   1      38.738  31.461  33.624  1.00  0.00     0.049 A 
ATOM     58  H   UNL A   1      39.779  30.183  32.301  1.00  0.00     0.167 HD
ATOM     59  C   UNL A   1      40.693  30.692  34.941  1.00  0.00     0.074 A 
ATOM     60  C   UNL A   1      41.505  30.640  36.141  1.00  0.00     0.031 C 
ATOM     61  C   UNL A   1      39.557  31.422  34.811  1.00  0.00     0.037 A 
BRANCH  48  62
ATOM     62  C   UNL A   1      36.888  30.983  29.244  1.00  0.00     0.064 A 
ATOM     63  C   UNL A   1      35.809  30.163  28.879  1.00  0.00     0.173 A 
ATOM     64  C   UNL A   1      36.869  32.314  28.790  1.00  0.00     0.173 A 
ATOM     65  F   UNL A   1      35.762  28.887  29.290  1.00  0.00    -0.203 F 
ATOM     66  C   UNL A   1      34.778  30.643  28.070  1.00  0.00     0.198 A 
ATOM     67  C   UNL A   1      35.820  32.800  28.011  1.00  0.00     0.198 A 
ATOM     68  F   UNL A   1      37.859  33.156  29.123  1.00  0.00    -0.203 F 
ATOM     69  F   UNL A   1      33.782  29.825  27.701  1.00  0.00    -0.200 F 
ATOM     70  C   UNL A   1      34.780  31.962  27.643  1.00  0.00     0.200 A 
ATOM     71  F   UNL A   1      35.813  34.083  27.623  1.00  0.00    -0.200 F 
ATOM     72  F   UNL A   1      33.783  32.425  26.876  1.00  0.00    -0.200 F 
ENDBRANCH  48  62
BRANCH  49  73
ATOM     73  C   UNL A   1      44.574  28.023  34.891  1.00  0.00     0.064 A 
ATOM     74  C   UNL A   1      45.768  28.748  34.825  1.00  0.00     0.173 A 
ATOM     75  C   UNL A   1      44.508  26.941  35.782  1.00  0.00     0.173 A 
ATOM     76  F   UNL A   1      45.874  29.789  33.985  1.00  0.00    -0.203 F 
ATOM     77  C   UNL A   1      46.863  28.392  35.604  1.00  0.00     0.198 A 
ATOM     78  C   UNL A   1      45.591  26.611  36.591  1.00  0.00     0.198 A 
ATOM     79  F   UNL A   1      43.375  26.232  35.901  1.00  0.00    -0.203 F 
ATOM     80  F   UNL A   1      48.010  29.075  35.492  1.00  0.00    -0.200 F 
ATOM     81  C   UNL A   1      46.771  27.330  36.493  1.00  0.00     0.200 A 
ATOM     82  F   UNL A   1      45.486  25.607  37.472  1.00  0.00    -0.200 F 
ATOM     83  F   UNL A   1      47.823  27.001  37.255  1.00  0.00    -0.200 F 
ENDBRANCH  49  73
BRANCH  61  84
ATOM     84  C   UNL A   1      39.105  32.191  36.023  1.00  0.00     0.064 A 
ATOM     85  C   UNL A   1      39.543  33.500  36.282  1.00  0.00     0.173 A 
ATOM     86  C   UNL A   1      38.234  31.601  36.952  1.00  0.00     0.173 A 
ATOM     87  F   UNL A   1      40.390  34.109  35.438  1.00  0.00    -0.203 F 
ATOM     88  C   UNL A   1      39.171  34.164  37.448  1.00  0.00     0.198 A 
ATOM     89  C   UNL A   1      37.828  32.284  38.094  1.00  0.00     0.198 A 
ATOM     90  F   UNL A   1      37.778  30.354  36.755  1.00  0.00    -0.203 F 
ATOM     91  F   UNL A   1      39.672  35.378  37.715  1.00  0.00    -0.200 F 
ATOM     92  C   UNL A   1      38.310  33.558  38.351  1.00  0.00     0.200 A 
ATOM     93  F   UNL A   1      36.981  31.703  38.955  1.00  0.00    -0.200 F 
ATOM     94  F   UNL A   1      37.956  34.197  39.475  1.00  0.00    -0.200 F 
ENDBRANCH  61  84
ENDBRANCH  35  36
ENDBRANCH  28  30
ENDBRANCH  27  28
ENDBRANCH  26  27
ENDBRANCH  25  26
ENDBRANCH   1  25
TORSDOF 18
ENDMDL
MODEL 2
REMARK VINA RESULT:     -11.3      5.336     11.650
REMARK SMILES CCCc1cc(OCC(=O)OCCOC(=O)c2ccc(-c3c4nc(c(-c5c(F)c(F)c(F)c(F)c5F)c5ccc([nH]5)c(-c5c(F)c(F)c(F)c(F)c5F)c5nc(c(-c6c(F)c(F)c(F)c(F)c6F)c6ccc3[nH]6)C=C5)C=C4)cc2)nc(Nc2ccc(C#N)cc2)n1
REMARK SMILES IDX 11 1 9 2 10 3 8 4 7 5 6 6 4 7 5 8 91 9 81 10 80 11 3 12 2 13
REMARK SMILES IDX 1 14 82 15 83 17 84 18 90 19 85 20 89 21 86 22 87 23 88 24
REMARK SMILES IDX 12 25 13 26 14 27 15 28 16 29 17 30 18 31 79 32 19 33 78 34
REMARK SMILES IDX 20 35 21 36 22 37 72 38 23 39 77 40 71 41 73 42 24 43 76 44
REMARK SMILES IDX 70 45 69 46 25 48 57 49 37 50 56 51 38 52 41 53 55 54 74 55
REMARK SMILES IDX 39 56 40 57 54 59 75 60 42 61 26 62 27 63 35 64 28 65 29 66
REMARK SMILES IDX 33 67 36 68 30 69 31 70 34 71 32 72 58 73 59 74 67 75 60 76
REMARK SMILES IDX 61 77 65 78 68 79 62 80 63 81 66 82 64 83 43 84 44 85 52 86
REMARK SMILES IDX 45 87 46 88 50 89 53 90 47 91 48 92 51 93 49 94
REMARK H PARENT 82 16 73 47 41 58
REMARK Flexibility Score: inf
ROOT
ATOM      1  O   UNL A   1      34.094  34.434  28.467  1.00  0.00    -0.460 OA
ENDROOT
BRANCH   1   2
ATOM      2  C   UNL A   1      33.334  35.202  29.291  1.00  0.00     0.344 C 
ATOM      3  O   UNL A   1      32.482  35.996  28.895  1.00  0.00    -0.248 OA
BRANCH   2   4
ATOM      4  C   UNL A   1      33.558  34.960  30.802  1.00  0.00     0.353 C 
BRANCH   4   5
ATOM      5  O   UNL A   1      34.006  33.748  31.361  1.00  0.00    -0.466 OA
BRANCH   5   6
ATOM      6  C   UNL A   1      35.329  33.448  31.503  1.00  0.00     0.218 A 
ATOM      7  C   UNL A   1      37.643  33.843  31.397  1.00  0.00     0.050 A 
ATOM      8  C   UNL A   1      36.395  34.035  30.845  1.00  0.00     0.092 A 
ATOM      9  N   UNL A   1      37.812  32.957  32.369  1.00  0.00    -0.218 NA
ATOM     10  C   UNL A   1      36.772  32.243  32.796  1.00  0.00     0.230 A 
ATOM     11  N   UNL A   1      35.516  32.481  32.422  1.00  0.00    -0.177 NA
BRANCH   7  12
ATOM     12  C   UNL A   1      38.936  34.499  31.001  1.00  0.00     0.056 C 
BRANCH  12  13
ATOM     13  C   UNL A   1      39.404  34.317  29.570  1.00  0.00     0.003 C 
ATOM     14  C   UNL A   1      40.526  35.237  29.113  1.00  0.00     0.004 C 
ENDBRANCH  12  13
ENDBRANCH   7  12
BRANCH  10  15
ATOM     15  N   UNL A   1      37.076  31.139  33.590  1.00  0.00    -0.324 N 
ATOM     16  H   UNL A   1      36.408  30.839  34.248  1.00  0.00     0.170 HD
BRANCH  15  17
ATOM     17  C   UNL A   1      38.284  30.432  33.498  1.00  0.00     0.041 A 
ATOM     18  C   UNL A   1      39.414  30.851  34.203  1.00  0.00     0.027 A 
ATOM     19  C   UNL A   1      38.316  29.171  32.874  1.00  0.00     0.027 A 
ATOM     20  C   UNL A   1      40.554  30.037  34.265  1.00  0.00     0.021 A 
ATOM     21  C   UNL A   1      39.446  28.357  32.931  1.00  0.00     0.021 A 
ATOM     22  C   UNL A   1      40.574  28.793  33.623  1.00  0.00     0.052 A 
BRANCH  22  23
ATOM     23  C   UNL A   1      41.735  27.960  33.677  1.00  0.00     0.099 C 
ATOM     24  N   UNL A   1      42.684  27.287  33.706  1.00  0.00    -0.192 NA
ENDBRANCH  22  23
ENDBRANCH  15  17
ENDBRANCH  10  15
ENDBRANCH   5   6
ENDBRANCH   4   5
ENDBRANCH   2   4
ENDBRANCH   1   2
BRANCH   1  25
ATOM     25  C   UNL A   1      33.445  33.264  27.895  1.00  0.00     0.274 C 
BRANCH  25  26
ATOM     26  C   UNL A   1      34.104  31.926  28.310  1.00  0.00     0.275 C 
BRANCH  26  27
ATOM     27  O   UNL A   1      33.905  30.845  27.352  1.00  0.00    -0.458 OA
BRANCH  27  28
ATOM     28  C   UNL A   1      34.800  29.864  27.552  1.00  0.00     0.338 C 
ATOM     29  O   UNL A   1      34.616  28.715  27.175  1.00  0.00    -0.246 OA
BRANCH  28  30
ATOM     30  C   UNL A   1      36.070  30.105  28.263  1.00  0.00     0.060 A 
ATOM     31  C   UNL A   1      37.156  30.365  27.414  1.00  0.00     0.016 A 
ATOM     32  C   UNL A   1      36.296  29.468  29.489  1.00  0.00     0.016 A 
ATOM     33  C   UNL A   1      38.422  29.851  27.700  1.00  0.00     0.010 A 
ATOM     34  C   UNL A   1      37.592  29.012  29.809  1.00  0.00     0.010 A 
ATOM     35  C   UNL A   1      38.657  29.165  28.903  1.00  0.00    -0.014 A 
BRANCH  35  36
ATOM     36  C   UNL A   1      40.063  28.888  29.302  1.00  0.00     0.031 A 
ATOM     37  C   UNL A   1      40.945  29.822  30.083  1.00  0.00     0.074 A 
ATOM     38  C   UNL A   1      40.542  27.695  28.905  1.00  0.00     0.049 A 
ATOM     39  N   UNL A   1      42.186  29.651  30.479  1.00  0.00    -0.248 NA
ATOM     40  C   UNL A   1      40.374  31.113  30.474  1.00  0.00     0.031 C 
ATOM     41  C   UNL A   1      39.773  26.705  28.146  1.00  0.00     0.029 A 
ATOM     42  N   UNL A   1      41.769  27.117  29.069  1.00  0.00    -0.354 N 
ATOM     43  C   UNL A   1      42.544  30.808  31.166  1.00  0.00     0.074 A 
ATOM     44  C   UNL A   1      41.385  31.680  31.125  1.00  0.00     0.031 C 
ATOM     45  C   UNL A   1      40.544  25.640  27.911  1.00  0.00     0.029 A 
ATOM     46  C   UNL A   1      41.874  25.902  28.442  1.00  0.00     0.049 A 
ATOM     47  H   UNL A   1      42.500  27.528  29.584  1.00  0.00     0.167 HD
ATOM     48  C   UNL A   1      43.732  31.111  31.756  1.00  0.00     0.037 A 
ATOM     49  C   UNL A   1      42.932  25.097  28.270  1.00  0.00     0.037 A 
ATOM     50  C   UNL A   1      44.890  30.242  31.745  1.00  0.00     0.049 A 
ATOM     51  C   UNL A   1      44.244  25.481  28.879  1.00  0.00     0.074 A 
ATOM     52  C   UNL A   1      46.127  30.439  32.342  1.00  0.00     0.029 A 
ATOM     53  N   UNL A   1      44.969  29.028  31.075  1.00  0.00    -0.354 N 
ATOM     54  N   UNL A   1      44.552  26.547  29.575  1.00  0.00    -0.248 NA
ATOM     55  C   UNL A   1      45.348  24.537  28.692  1.00  0.00     0.031 C 
ATOM     56  C   UNL A   1      46.974  29.391  31.962  1.00  0.00     0.029 A 
ATOM     57  C   UNL A   1      46.244  28.489  31.207  1.00  0.00     0.049 A 
ATOM     58  H   UNL A   1      44.229  28.609  30.579  1.00  0.00     0.167 HD
ATOM     59  C   UNL A   1      45.881  26.391  29.936  1.00  0.00     0.074 A 
ATOM     60  C   UNL A   1      46.309  25.114  29.398  1.00  0.00     0.031 C 
ATOM     61  C   UNL A   1      46.672  27.227  30.655  1.00  0.00     0.037 A 
BRANCH  48  62
ATOM     62  C   UNL A   1      43.876  32.455  32.429  1.00  0.00     0.064 A 
ATOM     63  C   UNL A   1      43.680  32.626  33.808  1.00  0.00     0.173 A 
ATOM     64  C   UNL A   1      44.297  33.578  31.694  1.00  0.00     0.173 A 
ATOM     65  F   UNL A   1      43.290  31.593  34.568  1.00  0.00    -0.203 F 
ATOM     66  C   UNL A   1      43.864  33.869  34.415  1.00  0.00     0.198 A 
ATOM     67  C   UNL A   1      44.513  34.810  32.309  1.00  0.00     0.198 A 
ATOM     68  F   UNL A   1      44.524  33.477  30.375  1.00  0.00    -0.203 F 
ATOM     69  F   UNL A   1      43.628  34.014  35.727  1.00  0.00    -0.200 F 
ATOM     70  C   UNL A   1      44.287  34.958  33.668  1.00  0.00     0.200 A 
ATOM     71  F   UNL A   1      44.948  35.852  31.587  1.00  0.00    -0.200 F 
ATOM     72  F   UNL A   1      44.475  36.148  34.255  1.00  0.00    -0.200 F 
ENDBRANCH  48  62
BRANCH  49  73
ATOM     73  C   UNL A   1      42.765  23.855  27.477  1.00  0.00     0.064 A 
ATOM     74  C   UNL A   1      43.115  23.813  26.124  1.00  0.00     0.173 A 
ATOM     75  C   UNL A   1      42.309  22.672  28.078  1.00  0.00     0.173 A 
ATOM     76  F   UNL A   1      43.554  24.922  25.511  1.00  0.00    -0.203 F 
ATOM     77  C   UNL A   1      42.992  22.637  25.391  1.00  0.00     0.198 A 
ATOM     78  C   UNL A   1      42.226  21.486  27.354  1.00  0.00     0.198 A 
ATOM     79  F   UNL A   1      41.987  22.657  29.380  1.00  0.00    -0.203 F 
ATOM     80  F   UNL A   1      43.293  22.631  24.086  1.00  0.00    -0.200 F 
ATOM     81  C   UNL A   1      42.558  21.473  26.009  1.00  0.00     0.200 A 
ATOM     82  F   UNL A   1      41.838  20.358  27.963  1.00  0.00    -0.200 F 
ATOM     83  F   UNL A   1      42.458  20.337  25.305  1.00  0.00    -0.200 F 
ENDBRANCH  49  73
BRANCH  61  84
ATOM     84  C   UNL A   1      48.074  26.757  30.936  1.00  0.00     0.064 A 
ATOM     85  C   UNL A   1      49.141  27.030  30.065  1.00  0.00     0.173 A 
ATOM     86  C   UNL A   1      48.350  26.002  32.087  1.00  0.00     0.173 A 
ATOM     87  F   UNL A   1      48.934  27.733  28.941  1.00  0.00    -0.203 F 
ATOM     88  C   UNL A   1      50.414  26.521  30.308  1.00  0.00     0.198 A 
ATOM     89  C   UNL A   1      49.634  25.533  32.350  1.00  0.00     0.198 A 
ATOM     90  F   UNL A   1      47.371  25.714  32.958  1.00  0.00    -0.203 F 
ATOM     91  F   UNL A   1      51.396  26.722  29.417  1.00  0.00    -0.200 F 
ATOM     92  C   UNL A   1      50.661  25.777  31.451  1.00  0.00     0.200 A 
ATOM     93  F   UNL A   1      49.873  24.830  33.465  1.00  0.00    -0.200 F 
ATOM     94  F   UNL A   1      51.886  25.284  31.682  1.00  0.00    -0.200 F 
ENDBRANCH  61  84
ENDBRANCH  35  36
ENDBRANCH  28  30
ENDBRANCH  27  28
ENDBRANCH  26  27
ENDBRANCH  25  26
ENDBRANCH   1  25
TORSDOF 18
ENDMDL
MODEL 3
REMARK VINA RESULT:     -11.1      4.176      8.845
REMARK SMILES CCCc1cc(OCC(=O)OCCOC(=O)c2ccc(-c3c4nc(c(-c5c(F)c(F)c(F)c(F)c5F)c5ccc([nH]5)c(-c5c(F)c(F)c(F)c(F)c5F)c5nc(c(-c6c(F)c(F)c(F)c(F)c6F)c6ccc3[nH]6)C=C5)C=C4)cc2)nc(Nc2ccc(C#N)cc2)n1
REMARK SMILES IDX 11 1 9 2 10 3 8 4 7 5 6 6 4 7 5 8 91 9 81 10 80 11 3 12 2 13
REMARK SMILES IDX 1 14 82 15 83 17 84 18 90 19 85 20 89 21 86 22 87 23 88 24
REMARK SMILES IDX 12 25 13 26 14 27 15 28 16 29 17 30 18 31 79 32 19 33 78 34
REMARK SMILES IDX 20 35 21 36 22 37 72 38 23 39 77 40 71 41 73 42 24 43 76 44
REMARK SMILES IDX 70 45 69 46 25 48 57 49 37 50 56 51 38 52 41 53 55 54 74 55
REMARK SMILES IDX 39 56 40 57 54 59 75 60 42 61 26 62 27 63 35 64 28 65 29 66
REMARK SMILES IDX 33 67 36 68 30 69 31 70 34 71 32 72 58 73 59 74 67 75 60 76
REMARK SMILES IDX 61 77 65 78 68 79 62 80 63 81 66 82 64 83 43 84 44 85 52 86
REMARK SMILES IDX 45 87 46 88 50 89 53 90 47 91 48 92 51 93 49 94
REMARK H PARENT 82 16 73 47 41 58
REMARK Flexibility Score: inf
ROOT
ATOM      1  O   UNL A   1      31.972  28.661  24.119  1.00  0.00    -0.460 OA
ENDROOT
BRANCH   1   2
ATOM      2  C   UNL A   1      31.810  27.360  23.762  1.00  0.00     0.344 C 
ATOM      3  O   UNL A   1      31.889  26.952  22.604  1.00  0.00    -0.248 OA
BRANCH   2   4
ATOM      4  C   UNL A   1      31.587  26.382  24.938  1.00  0.00     0.353 C 
BRANCH   4   5
ATOM      5  O   UNL A   1      31.330  25.004  24.797  1.00  0.00    -0.466 OA
BRANCH   5   6
ATOM      6  C   UNL A   1      32.326  24.073  24.738  1.00  0.00     0.218 A 
ATOM      7  C   UNL A   1      34.338  23.039  25.372  1.00  0.00     0.050 A 
ATOM      8  C   UNL A   1      33.622  24.204  25.202  1.00  0.00     0.092 A 
ATOM      9  N   UNL A   1      33.869  21.894  24.896  1.00  0.00    -0.218 NA
ATOM     10  C   UNL A   1      32.710  21.880  24.238  1.00  0.00     0.230 A 
ATOM     11  N   UNL A   1      31.894  22.931  24.170  1.00  0.00    -0.177 NA
BRANCH   7  12
ATOM     12  C   UNL A   1      35.684  22.870  26.020  1.00  0.00     0.056 C 
BRANCH  12  13
ATOM     13  C   UNL A   1      36.884  23.460  25.303  1.00  0.00     0.003 C 
ATOM     14  C   UNL A   1      38.050  23.875  26.187  1.00  0.00     0.004 C 
ENDBRANCH  12  13
ENDBRANCH   7  12
BRANCH  10  15
ATOM     15  N   UNL A   1      32.433  20.722  23.515  1.00  0.00    -0.324 N 
ATOM     16  H   UNL A   1      31.992  20.813  22.640  1.00  0.00     0.170 HD
BRANCH  15  17
ATOM     17  C   UNL A   1      32.751  19.434  23.971  1.00  0.00     0.041 A 
ATOM     18  C   UNL A   1      32.565  19.081  25.309  1.00  0.00     0.027 A 
ATOM     19  C   UNL A   1      33.050  18.414  23.048  1.00  0.00     0.027 A 
ATOM     20  C   UNL A   1      32.694  17.746  25.716  1.00  0.00     0.021 A 
ATOM     21  C   UNL A   1      33.181  17.085  23.444  1.00  0.00     0.021 A 
ATOM     22  C   UNL A   1      33.010  16.748  24.786  1.00  0.00     0.052 A 
BRANCH  22  23
ATOM     23  C   UNL A   1      33.150  15.385  25.195  1.00  0.00     0.099 C 
ATOM     24  N   UNL A   1      33.247  14.272  25.522  1.00  0.00    -0.192 NA
ENDBRANCH  22  23
ENDBRANCH  15  17
ENDBRANCH  10  15
ENDBRANCH   5   6
ENDBRANCH   4   5
ENDBRANCH   2   4
ENDBRANCH   1   2
BRANCH   1  25
ATOM     25  C   UNL A   1      31.712  28.986  25.513  1.00  0.00     0.274 C 
BRANCH  25  26
ATOM     26  C   UNL A   1      32.122  30.427  25.900  1.00  0.00     0.275 C 
BRANCH  26  27
ATOM     27  O   UNL A   1      32.419  30.599  27.316  1.00  0.00    -0.458 OA
BRANCH  27  28
ATOM     28  C   UNL A   1      33.401  31.500  27.489  1.00  0.00     0.338 C 
ATOM     29  O   UNL A   1      33.185  32.700  27.584  1.00  0.00    -0.246 OA
BRANCH  28  30
ATOM     30  C   UNL A   1      34.818  31.100  27.557  1.00  0.00     0.060 A 
ATOM     31  C   UNL A   1      35.016  29.781  27.993  1.00  0.00     0.016 A 
ATOM     32  C   UNL A   1      35.787  32.068  27.844  1.00  0.00     0.016 A 
ATOM     33  C   UNL A   1      36.075  29.464  28.845  1.00  0.00     0.010 A 
ATOM     34  C   UNL A   1      36.896  31.729  28.647  1.00  0.00     0.010 A 
ATOM     35  C   UNL A   1      37.030  30.437  29.185  1.00  0.00    -0.014 A 
BRANCH  35  36
ATOM     36  C   UNL A   1      38.287  29.999  29.851  1.00  0.00     0.031 A 
ATOM     37  C   UNL A   1      39.273  29.015  29.285  1.00  0.00     0.074 A 
ATOM     38  C   UNL A   1      38.514  30.550  31.057  1.00  0.00     0.049 A 
ATOM     39  N   UNL A   1      40.401  28.584  29.802  1.00  0.00    -0.248 NA
ATOM     40  C   UNL A   1      38.965  28.436  27.975  1.00  0.00     0.031 C 
ATOM     41  C   UNL A   1      37.627  31.522  31.702  1.00  0.00     0.029 A 
ATOM     42  N   UNL A   1      39.533  30.377  31.950  1.00  0.00    -0.354 N 
ATOM     43  C   UNL A   1      40.939  27.687  28.883  1.00  0.00     0.074 A 
ATOM     44  C   UNL A   1      40.004  27.630  27.776  1.00  0.00     0.031 C 
ATOM     45  C   UNL A   1      38.139  31.861  32.888  1.00  0.00     0.029 A 
ATOM     46  C   UNL A   1      39.350  31.083  33.111  1.00  0.00     0.049 A 
ATOM     47  H   UNL A   1      40.316  29.806  31.779  1.00  0.00     0.167 HD
ATOM     48  C   UNL A   1      42.093  26.972  28.971  1.00  0.00     0.037 A 
ATOM     49  C   UNL A   1      40.050  31.079  34.255  1.00  0.00     0.037 A 
ATOM     50  C   UNL A   1      42.989  27.011  30.108  1.00  0.00     0.049 A 
ATOM     51  C   UNL A   1      41.284  30.238  34.348  1.00  0.00     0.074 A 
ATOM     52  C   UNL A   1      44.199  26.355  30.281  1.00  0.00     0.029 A 
ATOM     53  N   UNL A   1      42.758  27.718  31.281  1.00  0.00    -0.354 N 
ATOM     54  N   UNL A   1      41.812  29.442  33.452  1.00  0.00    -0.248 NA
ATOM     55  C   UNL A   1      42.028  30.314  35.607  1.00  0.00     0.031 C 
ATOM     56  C   UNL A   1      44.651  26.595  31.584  1.00  0.00     0.029 A 
ATOM     57  C   UNL A   1      43.777  27.478  32.195  1.00  0.00     0.049 A 
ATOM     58  H   UNL A   1      41.984  28.305  31.442  1.00  0.00     0.167 HD
ATOM     59  C   UNL A   1      42.969  28.941  34.028  1.00  0.00     0.074 A 
ATOM     60  C   UNL A   1      43.072  29.544  35.342  1.00  0.00     0.031 C 
ATOM     61  C   UNL A   1      43.868  28.066  33.510  1.00  0.00     0.037 A 
BRANCH  48  62
ATOM     62  C   UNL A   1      42.449  26.041  27.836  1.00  0.00     0.064 A 
ATOM     63  C   UNL A   1      41.826  24.795  27.668  1.00  0.00     0.173 A 
ATOM     64  C   UNL A   1      43.372  26.438  26.852  1.00  0.00     0.173 A 
ATOM     65  F   UNL A   1      40.926  24.364  28.564  1.00  0.00    -0.203 F 
ATOM     66  C   UNL A   1      42.138  23.971  26.585  1.00  0.00     0.198 A 
ATOM     67  C   UNL A   1      43.657  25.628  25.754  1.00  0.00     0.198 A 
ATOM     68  F   UNL A   1      43.987  27.628  26.942  1.00  0.00    -0.203 F 
ATOM     69  F   UNL A   1      41.559  22.767  26.473  1.00  0.00    -0.200 F 
ATOM     70  C   UNL A   1      43.047  24.390  25.626  1.00  0.00     0.200 A 
ATOM     71  F   UNL A   1      44.516  26.049  24.816  1.00  0.00    -0.200 F 
ATOM     72  F   UNL A   1      43.336  23.603  24.581  1.00  0.00    -0.200 F 
ENDBRANCH  48  62
BRANCH  49  73
ATOM     73  C   UNL A   1      39.573  31.907  35.388  1.00  0.00     0.064 A 
ATOM     74  C   UNL A   1      40.011  33.226  35.551  1.00  0.00     0.173 A 
ATOM     75  C   UNL A   1      38.622  31.412  36.294  1.00  0.00     0.173 A 
ATOM     76  F   UNL A   1      40.920  33.738  34.708  1.00  0.00    -0.203 F 
ATOM     77  C   UNL A   1      39.533  34.013  36.593  1.00  0.00     0.198 A 
ATOM     78  C   UNL A   1      38.115  32.214  37.311  1.00  0.00     0.198 A 
ATOM     79  F   UNL A   1      38.152  30.162  36.161  1.00  0.00    -0.203 F 
ATOM     80  F   UNL A   1      40.000  35.258  36.754  1.00  0.00    -0.200 F 
ATOM     81  C   UNL A   1      38.579  33.510  37.466  1.00  0.00     0.200 A 
ATOM     82  F   UNL A   1      37.169  31.735  38.130  1.00  0.00    -0.200 F 
ATOM     83  F   UNL A   1      38.108  34.277  38.459  1.00  0.00    -0.200 F 
ENDBRANCH  49  73
BRANCH  61  84
ATOM     84  C   UNL A   1      45.067  27.746  34.360  1.00  0.00     0.064 A 
ATOM     85  C   UNL A   1      45.041  26.740  35.340  1.00  0.00     0.173 A 
ATOM     86  C   UNL A   1      46.258  28.472  34.205  1.00  0.00     0.173 A 
ATOM     87  F   UNL A   1      43.925  26.025  35.544  1.00  0.00    -0.203 F 
ATOM     88  C   UNL A   1      46.139  26.513  36.165  1.00  0.00     0.198 A 
ATOM     89  C   UNL A   1      47.370  28.212  35.001  1.00  0.00     0.198 A 
ATOM     90  F   UNL A   1      46.345  29.442  33.281  1.00  0.00    -0.203 F 
ATOM     91  F   UNL A   1      46.059  25.608  37.151  1.00  0.00    -0.200 F 
ATOM     92  C   UNL A   1      47.304  27.245  35.993  1.00  0.00     0.200 A 
ATOM     93  F   UNL A   1      48.500  28.908  34.820  1.00  0.00    -0.200 F 
ATOM     94  F   UNL A   1      48.359  27.028  36.791  1.00  0.00    -0.200 F 
ENDBRANCH  61  84
ENDBRANCH  35  36
ENDBRANCH  28  30
ENDBRANCH  27  28
ENDBRANCH  26  27
ENDBRANCH  25  26
ENDBRANCH   1  25
TORSDOF 18
ENDMDL
