MODEL 1
REMARK VINA RESULT:     -11.5      0.000      0.000
REMARK SMILES CC[C@@H](Nc1ccc([N+](=O)[O-])c(N)n1)C(=O)OCCOC(=O)c1ccc(-c2c3nc(c(-c4c(F)c(F)c(F)c(F)c4F)c4ccc([nH]4)c(-c4c(F)c(F)c(F)c(F)c4F)c4nc(c(-c5c(F)c(F)c(F)c(F)c5F)c5ccc2[nH]5)C=C4)C=C3)cc1
REMARK SMILES IDX 18 1 17 2 15 3 16 4 3 5 2 6 1 7 4 8 5 10 6 11 14 12 7 13
REMARK SMILES IDX 12 14 8 15 13 16 9 19 10 20 11 21 19 22 20 23 21 24 22 25
REMARK SMILES IDX 23 26 24 27 85 28 25 29 84 30 26 31 27 32 28 33 78 34 29 35
REMARK SMILES IDX 83 36 77 37 79 38 30 39 82 40 76 41 75 42 31 44 63 45 43 46
REMARK SMILES IDX 62 47 44 48 47 49 61 50 80 51 45 52 46 53 60 55 81 56 48 57
REMARK SMILES IDX 32 58 33 59 41 60 34 61 35 62 39 63 42 64 36 65 37 66 40 67
REMARK SMILES IDX 38 68 64 69 65 70 73 71 66 72 67 73 71 74 74 75 68 76 69 77
REMARK SMILES IDX 72 78 70 79 49 80 50 81 58 82 51 83 52 84 56 85 59 86 53 87
REMARK SMILES IDX 54 88 57 89 55 90
REMARK H PARENT 4 9 13 17 13 18 79 43 47 54
REMARK Flexibility Score: inf
ROOT
ATOM      1  C   UNL A   1      36.409  22.581  23.658  1.00  0.00     0.274 C 
ENDROOT
BRANCH   1   2
ATOM      2  O   UNL A   1      35.151  23.054  24.173  1.00  0.00    -0.461 OA
BRANCH   2   3
ATOM      3  C   UNL A   1      34.082  22.990  23.327  1.00  0.00     0.328 C 
ATOM      4  O   UNL A   1      34.097  23.330  22.150  1.00  0.00    -0.250 OA
BRANCH   3   5
ATOM      5  C   UNL A   1      32.815  22.473  24.041  1.00  0.00     0.191 C 
BRANCH   5   6
ATOM      6  C   UNL A   1      31.870  23.648  24.324  1.00  0.00     0.033 C 
ATOM      7  C   UNL A   1      30.690  23.701  23.357  1.00  0.00     0.007 C 
ENDBRANCH   5   6
BRANCH   5   8
ATOM      8  N   UNL A   1      32.255  21.366  23.243  1.00  0.00    -0.357 N 
ATOM      9  H   UNL A   1      31.713  21.598  22.455  1.00  0.00     0.162 HD
BRANCH   8  10
ATOM     10  C   UNL A   1      32.437  20.032  23.524  1.00  0.00     0.129 A 
ATOM     11  C   UNL A   1      32.527  19.049  22.551  1.00  0.00     0.054 A 
ATOM     12  N   UNL A   1      32.599  19.745  24.833  1.00  0.00    -0.208 NA
ATOM     13  C   UNL A   1      32.743  17.728  22.926  1.00  0.00     0.093 A 
ATOM     14  C   UNL A   1      32.829  18.466  25.215  1.00  0.00     0.204 A 
ATOM     15  C   UNL A   1      32.890  17.439  24.281  1.00  0.00     0.311 A 
BRANCH  14  16
ATOM     16  N   UNL A   1      32.903  18.284  26.582  1.00  0.00    -0.378 N 
ATOM     17  H   UNL A   1      32.427  18.897  27.186  1.00  0.00     0.158 HD
ATOM     18  H   UNL A   1      33.432  17.540  26.951  1.00  0.00     0.158 HD
ENDBRANCH  14  16
BRANCH  15  19
ATOM     19  N   UNL A   1      33.137  16.068  24.681  1.00  0.00     0.066 N 
ATOM     20  O   UNL A   1      34.169  15.517  24.268  1.00  0.00    -0.258 OA
ATOM     21  O   UNL A   1      32.273  15.516  25.379  1.00  0.00    -0.258 OA
ENDBRANCH  15  19
ENDBRANCH   8  10
ENDBRANCH   5   8
ENDBRANCH   3   5
ENDBRANCH   2   3
ENDBRANCH   1   2
BRANCH   1  22
ATOM     22  C   UNL A   1      36.916  21.380  24.455  1.00  0.00     0.275 C 
BRANCH  22  23
ATOM     23  O   UNL A   1      37.379  21.794  25.754  1.00  0.00    -0.458 OA
BRANCH  23  24
ATOM     24  C   UNL A   1      38.678  21.533  26.020  1.00  0.00     0.338 C 
ATOM     25  O   UNL A   1      39.295  20.504  25.815  1.00  0.00    -0.246 OA
BRANCH  24  26
ATOM     26  C   UNL A   1      39.314  22.749  26.541  1.00  0.00     0.060 A 
ATOM     27  C   UNL A   1      38.916  23.989  26.037  1.00  0.00     0.016 A 
ATOM     28  C   UNL A   1      40.369  22.652  27.448  1.00  0.00     0.016 A 
ATOM     29  C   UNL A   1      39.591  25.145  26.417  1.00  0.00     0.010 A 
ATOM     30  C   UNL A   1      41.031  23.815  27.847  1.00  0.00     0.010 A 
ATOM     31  C   UNL A   1      40.658  25.065  27.321  1.00  0.00    -0.014 A 
BRANCH  31  32
ATOM     32  C   UNL A   1      41.419  26.284  27.680  1.00  0.00     0.031 A 
ATOM     33  C   UNL A   1      40.758  27.363  28.488  1.00  0.00     0.074 A 
ATOM     34  C   UNL A   1      42.696  26.419  27.283  1.00  0.00     0.049 A 
ATOM     35  N   UNL A   1      41.205  28.549  28.810  1.00  0.00    -0.248 NA
ATOM     36  C   UNL A   1      39.412  27.066  29.002  1.00  0.00     0.031 C 
ATOM     37  C   UNL A   1      43.457  25.420  26.534  1.00  0.00     0.029 A 
ATOM     38  N   UNL A   1      43.575  27.459  27.446  1.00  0.00    -0.354 N 
ATOM     39  C   UNL A   1      40.188  29.151  29.537  1.00  0.00     0.074 A 
ATOM     40  C   UNL A   1      39.096  28.203  29.605  1.00  0.00     0.031 C 
ATOM     41  C   UNL A   1      44.690  25.896  26.300  1.00  0.00     0.029 A 
ATOM     42  C   UNL A   1      44.789  27.250  26.840  1.00  0.00     0.049 A 
ATOM     43  H   UNL A   1      43.357  28.277  27.951  1.00  0.00     0.167 HD
ATOM     44  C   UNL A   1      40.171  30.384  30.096  1.00  0.00     0.037 A 
ATOM     45  C   UNL A   1      45.847  28.071  26.708  1.00  0.00     0.037 A 
ATOM     46  C   UNL A   1      41.268  31.314  30.045  1.00  0.00     0.049 A 
ATOM     47  C   UNL A   1      45.781  29.456  27.293  1.00  0.00     0.074 A 
ATOM     48  C   UNL A   1      41.356  32.579  30.601  1.00  0.00     0.029 A 
ATOM     49  N   UNL A   1      42.472  31.077  29.399  1.00  0.00    -0.354 N 
ATOM     50  N   UNL A   1      44.813  30.021  27.972  1.00  0.00    -0.248 NA
ATOM     51  C   UNL A   1      46.951  30.318  27.084  1.00  0.00     0.031 C 
ATOM     52  C   UNL A   1      42.600  33.122  30.259  1.00  0.00     0.029 A 
ATOM     53  C   UNL A   1      43.302  32.180  29.524  1.00  0.00     0.049 A 
ATOM     54  H   UNL A   1      42.703  30.248  28.921  1.00  0.00     0.167 HD
ATOM     55  C   UNL A   1      45.263  31.296  28.288  1.00  0.00     0.074 A 
ATOM     56  C   UNL A   1      46.597  31.416  27.736  1.00  0.00     0.031 C 
ATOM     57  C   UNL A   1      44.628  32.278  28.972  1.00  0.00     0.037 A 
BRANCH  44  58
ATOM     58  C   UNL A   1      38.912  30.811  30.788  1.00  0.00     0.064 A 
ATOM     59  C   UNL A   1      38.739  30.653  32.171  1.00  0.00     0.173 A 
ATOM     60  C   UNL A   1      37.878  31.420  30.061  1.00  0.00     0.173 A 
ATOM     61  F   UNL A   1      39.694  30.063  32.907  1.00  0.00    -0.203 F 
ATOM     62  C   UNL A   1      37.568  31.070  32.797  1.00  0.00     0.198 A 
ATOM     63  C   UNL A   1      36.718  31.856  30.694  1.00  0.00     0.198 A 
ATOM     64  F   UNL A   1      37.997  31.597  28.737  1.00  0.00    -0.203 F 
ATOM     65  F   UNL A   1      37.406  30.873  34.113  1.00  0.00    -0.200 F 
ATOM     66  C   UNL A   1      36.561  31.676  32.059  1.00  0.00     0.200 A 
ATOM     67  F   UNL A   1      35.750  32.449  29.982  1.00  0.00    -0.200 F 
ATOM     68  F   UNL A   1      35.436  32.081  32.666  1.00  0.00    -0.200 F 
ENDBRANCH  44  58
BRANCH  45  69
ATOM     69  C   UNL A   1      47.051  27.611  25.972  1.00  0.00     0.064 A 
ATOM     70  C   UNL A   1      48.152  27.081  26.657  1.00  0.00     0.173 A 
ATOM     71  C   UNL A   1      47.125  27.694  24.574  1.00  0.00     0.173 A 
ATOM     72  F   UNL A   1      48.136  27.007  27.995  1.00  0.00    -0.203 F 
ATOM     73  C   UNL A   1      49.289  26.659  25.970  1.00  0.00     0.198 A 
ATOM     74  C   UNL A   1      48.252  27.250  23.887  1.00  0.00     0.198 A 
ATOM     75  F   UNL A   1      46.098  28.198  23.875  1.00  0.00    -0.203 F 
ATOM     76  F   UNL A   1      50.344  26.190  26.649  1.00  0.00    -0.200 F 
ATOM     77  C   UNL A   1      49.335  26.738  24.585  1.00  0.00     0.200 A 
ATOM     78  F   UNL A   1      48.289  27.319  22.549  1.00  0.00    -0.200 F 
ATOM     79  F   UNL A   1      50.427  26.329  23.925  1.00  0.00    -0.200 F 
ENDBRANCH  45  69
BRANCH  57  80
ATOM     80  C   UNL A   1      45.380  33.556  29.187  1.00  0.00     0.064 A 
ATOM     81  C   UNL A   1      46.218  33.735  30.297  1.00  0.00     0.173 A 
ATOM     82  C   UNL A   1      45.290  34.599  28.254  1.00  0.00     0.173 A 
ATOM     83  F   UNL A   1      46.322  32.772  31.226  1.00  0.00    -0.203 F 
ATOM     84  C   UNL A   1      46.925  34.921  30.475  1.00  0.00     0.198 A 
ATOM     85  C   UNL A   1      46.016  35.775  28.422  1.00  0.00     0.198 A 
ATOM     86  F   UNL A   1      44.504  34.473  27.174  1.00  0.00    -0.203 F 
ATOM     87  F   UNL A   1      47.689  35.087  31.563  1.00  0.00    -0.200 F 
ATOM     88  C   UNL A   1      46.827  35.937  29.534  1.00  0.00     0.200 A 
ATOM     89  F   UNL A   1      45.928  36.752  27.509  1.00  0.00    -0.200 F 
ATOM     90  F   UNL A   1      47.512  37.076  29.705  1.00  0.00    -0.200 F 
ENDBRANCH  57  80
ENDBRANCH  31  32
ENDBRANCH  24  26
ENDBRANCH  23  24
ENDBRANCH  22  23
ENDBRANCH   1  22
TORSDOF 16
ENDMDL
MODEL 2
REMARK VINA RESULT:     -11.4      5.288     10.349
REMARK SMILES CC[C@@H](Nc1ccc([N+](=O)[O-])c(N)n1)C(=O)OCCOC(=O)c1ccc(-c2c3nc(c(-c4c(F)c(F)c(F)c(F)c4F)c4ccc([nH]4)c(-c4c(F)c(F)c(F)c(F)c4F)c4nc(c(-c5c(F)c(F)c(F)c(F)c5F)c5ccc2[nH]5)C=C4)C=C3)cc1
REMARK SMILES IDX 18 1 17 2 15 3 16 4 3 5 2 6 1 7 4 8 5 10 6 11 14 12 7 13
REMARK SMILES IDX 12 14 8 15 13 16 9 19 10 20 11 21 19 22 20 23 21 24 22 25
REMARK SMILES IDX 23 26 24 27 85 28 25 29 84 30 26 31 27 32 28 33 78 34 29 35
REMARK SMILES IDX 83 36 77 37 79 38 30 39 82 40 76 41 75 42 31 44 63 45 43 46
REMARK SMILES IDX 62 47 44 48 47 49 61 50 80 51 45 52 46 53 60 55 81 56 48 57
REMARK SMILES IDX 32 58 33 59 41 60 34 61 35 62 39 63 42 64 36 65 37 66 40 67
REMARK SMILES IDX 38 68 64 69 65 70 73 71 66 72 67 73 71 74 74 75 68 76 69 77
REMARK SMILES IDX 72 78 70 79 49 80 50 81 58 82 51 83 52 84 56 85 59 86 53 87
REMARK SMILES IDX 54 88 57 89 55 90
REMARK H PARENT 4 9 13 17 13 18 79 43 47 54
REMARK Flexibility Score: inf
ROOT
ATOM      1  C   UNL A   1      32.947  28.576  25.479  1.00  0.00     0.274 C 
ENDROOT
BRANCH   1   2
ATOM      2  O   UNL A   1      32.397  27.700  26.479  1.00  0.00    -0.461 OA
BRANCH   2   3
ATOM      3  C   UNL A   1      31.652  26.650  26.028  1.00  0.00     0.328 C 
ATOM      4  O   UNL A   1      30.702  26.155  26.624  1.00  0.00    -0.250 OA
BRANCH   3   5
ATOM      5  C   UNL A   1      32.174  26.115  24.678  1.00  0.00     0.191 C 
BRANCH   5   6
ATOM      6  C   UNL A   1      33.029  24.864  24.917  1.00  0.00     0.033 C 
ATOM      7  C   UNL A   1      34.445  25.199  25.382  1.00  0.00     0.007 C 
ENDBRANCH   5   6
BRANCH   5   8
ATOM      8  N   UNL A   1      31.021  25.950  23.771  1.00  0.00    -0.357 N 
ATOM      9  H   UNL A   1      30.843  25.050  23.415  1.00  0.00     0.162 HD
BRANCH   8  10
ATOM     10  C   UNL A   1      30.179  26.967  23.388  1.00  0.00     0.129 A 
ATOM     11  C   UNL A   1      28.828  27.000  23.696  1.00  0.00     0.054 A 
ATOM     12  N   UNL A   1      30.780  27.989  22.742  1.00  0.00    -0.208 NA
ATOM     13  C   UNL A   1      28.058  28.085  23.293  1.00  0.00     0.093 A 
ATOM     14  C   UNL A   1      30.048  29.062  22.360  1.00  0.00     0.204 A 
ATOM     15  C   UNL A   1      28.683  29.126  22.611  1.00  0.00     0.311 A 
BRANCH  14  16
ATOM     16  N   UNL A   1      30.755  30.008  21.643  1.00  0.00    -0.378 N 
ATOM     17  H   UNL A   1      30.360  30.412  20.838  1.00  0.00     0.158 HD
ATOM     18  H   UNL A   1      31.655  30.278  21.938  1.00  0.00     0.158 HD
ENDBRANCH  14  16
BRANCH  15  19
ATOM     19  N   UNL A   1      27.893  30.272  22.206  1.00  0.00     0.066 N 
ATOM     20  O   UNL A   1      27.933  30.615  21.015  1.00  0.00    -0.258 OA
ATOM     21  O   UNL A   1      27.258  30.864  23.092  1.00  0.00    -0.258 OA
ENDBRANCH  15  19
ENDBRANCH   8  10
ENDBRANCH   5   8
ENDBRANCH   3   5
ENDBRANCH   2   3
ENDBRANCH   1   2
BRANCH   1  22
ATOM     22  C   UNL A   1      32.455  30.011  25.670  1.00  0.00     0.275 C 
BRANCH  22  23
ATOM     23  O   UNL A   1      32.573  30.406  27.049  1.00  0.00    -0.458 OA
BRANCH  23  24
ATOM     24  C   UNL A   1      33.279  31.537  27.272  1.00  0.00     0.338 C 
ATOM     25  O   UNL A   1      32.922  32.689  27.111  1.00  0.00    -0.246 OA
BRANCH  24  26
ATOM     26  C   UNL A   1      34.582  31.183  27.849  1.00  0.00     0.060 A 
ATOM     27  C   UNL A   1      34.770  29.894  28.351  1.00  0.00     0.016 A 
ATOM     28  C   UNL A   1      35.573  32.155  27.985  1.00  0.00     0.016 A 
ATOM     29  C   UNL A   1      35.948  29.573  29.019  1.00  0.00     0.010 A 
ATOM     30  C   UNL A   1      36.764  31.824  28.635  1.00  0.00     0.010 A 
ATOM     31  C   UNL A   1      36.951  30.538  29.171  1.00  0.00    -0.014 A 
BRANCH  31  32
ATOM     32  C   UNL A   1      38.179  30.219  29.935  1.00  0.00     0.031 A 
ATOM     33  C   UNL A   1      39.204  29.295  29.344  1.00  0.00     0.074 A 
ATOM     34  C   UNL A   1      38.371  30.757  31.152  1.00  0.00     0.049 A 
ATOM     35  N   UNL A   1      40.284  28.798  29.889  1.00  0.00    -0.248 NA
ATOM     36  C   UNL A   1      38.981  28.871  27.953  1.00  0.00     0.031 C 
ATOM     37  C   UNL A   1      37.469  31.702  31.808  1.00  0.00     0.029 A 
ATOM     38  N   UNL A   1      39.386  30.576  32.057  1.00  0.00    -0.354 N 
ATOM     39  C   UNL A   1      40.855  27.984  28.922  1.00  0.00     0.074 A 
ATOM     40  C   UNL A   1      39.999  28.045  27.756  1.00  0.00     0.031 C 
ATOM     41  C   UNL A   1      37.969  32.017  33.014  1.00  0.00     0.029 A 
ATOM     42  C   UNL A   1      39.199  31.260  33.232  1.00  0.00     0.049 A 
ATOM     43  H   UNL A   1      40.173  30.010  31.880  1.00  0.00     0.167 HD
ATOM     44  C   UNL A   1      41.991  27.252  29.003  1.00  0.00     0.037 A 
ATOM     45  C   UNL A   1      39.922  31.251  34.367  1.00  0.00     0.037 A 
ATOM     46  C   UNL A   1      42.851  27.213  30.156  1.00  0.00     0.049 A 
ATOM     47  C   UNL A   1      41.152  30.387  34.448  1.00  0.00     0.074 A 
ATOM     48  C   UNL A   1      44.038  26.520  30.326  1.00  0.00     0.029 A 
ATOM     49  N   UNL A   1      42.616  27.899  31.338  1.00  0.00    -0.354 N 
ATOM     50  N   UNL A   1      41.681  29.613  33.533  1.00  0.00    -0.248 NA
ATOM     51  C   UNL A   1      41.879  30.390  35.725  1.00  0.00     0.031 C 
ATOM     52  C   UNL A   1      44.501  26.758  31.625  1.00  0.00     0.029 A 
ATOM     53  C   UNL A   1      43.624  27.630  32.250  1.00  0.00     0.049 A 
ATOM     54  H   UNL A   1      41.846  28.489  31.504  1.00  0.00     0.167 HD
ATOM     55  C   UNL A   1      42.810  29.053  34.113  1.00  0.00     0.074 A 
ATOM     56  C   UNL A   1      42.897  29.586  35.457  1.00  0.00     0.031 C 
ATOM     57  C   UNL A   1      43.695  28.174  33.581  1.00  0.00     0.037 A 
BRANCH  44  58
ATOM     58  C   UNL A   1      42.356  26.409  27.818  1.00  0.00     0.064 A 
ATOM     59  C   UNL A   1      43.274  26.847  26.854  1.00  0.00     0.173 A 
ATOM     60  C   UNL A   1      41.803  25.128  27.666  1.00  0.00     0.173 A 
ATOM     61  F   UNL A   1      43.819  28.070  26.948  1.00  0.00    -0.203 F 
ATOM     62  C   UNL A   1      43.610  26.043  25.769  1.00  0.00     0.198 A 
ATOM     63  C   UNL A   1      42.158  24.318  26.592  1.00  0.00     0.198 A 
ATOM     64  F   UNL A   1      40.922  24.662  28.563  1.00  0.00    -0.203 F 
ATOM     65  F   UNL A   1      44.461  26.497  24.837  1.00  0.00    -0.200 F 
ATOM     66  C   UNL A   1      43.057  24.776  25.642  1.00  0.00     0.200 A 
ATOM     67  F   UNL A   1      41.629  23.092  26.476  1.00  0.00    -0.200 F 
ATOM     68  F   UNL A   1      43.385  24.002  24.599  1.00  0.00    -0.200 F 
ENDBRANCH  44  58
BRANCH  45  69
ATOM     69  C   UNL A   1      39.489  32.071  35.525  1.00  0.00     0.064 A 
ATOM     70  C   UNL A   1      39.975  33.373  35.706  1.00  0.00     0.173 A 
ATOM     71  C   UNL A   1      38.585  31.571  36.474  1.00  0.00     0.173 A 
ATOM     72  F   UNL A   1      40.861  33.883  34.839  1.00  0.00    -0.203 F 
ATOM     73  C   UNL A   1      39.579  34.141  36.799  1.00  0.00     0.198 A 
ATOM     74  C   UNL A   1      38.172  32.348  37.553  1.00  0.00     0.198 A 
ATOM     75  F   UNL A   1      38.096  30.329  36.345  1.00  0.00    -0.203 F 
ATOM     76  F   UNL A   1      40.086  35.369  36.970  1.00  0.00    -0.200 F 
ATOM     77  C   UNL A   1      38.673  33.631  37.717  1.00  0.00     0.200 A 
ATOM     78  F   UNL A   1      37.289  31.855  38.432  1.00  0.00    -0.200 F 
ATOM     79  F   UNL A   1      38.290  34.371  38.766  1.00  0.00    -0.200 F 
ENDBRANCH  45  69
BRANCH  57  80
ATOM     80  C   UNL A   1      44.848  27.759  34.444  1.00  0.00     0.064 A 
ATOM     81  C   UNL A   1      46.064  28.458  34.426  1.00  0.00     0.173 A 
ATOM     82  C   UNL A   1      44.722  26.676  35.324  1.00  0.00     0.173 A 
ATOM     83  F   UNL A   1      46.237  29.491  33.587  1.00  0.00    -0.203 F 
ATOM     84  C   UNL A   1      47.121  28.072  35.246  1.00  0.00     0.198 A 
ATOM     85  C   UNL A   1      45.773  26.307  36.160  1.00  0.00     0.198 A 
ATOM     86  F   UNL A   1      43.577  25.980  35.380  1.00  0.00    -0.203 F 
ATOM     87  F   UNL A   1      48.288  28.727  35.184  1.00  0.00    -0.200 F 
ATOM     88  C   UNL A   1      46.972  27.001  36.116  1.00  0.00     0.200 A 
ATOM     89  F   UNL A   1      45.625  25.278  37.006  1.00  0.00    -0.200 F 
ATOM     90  F   UNL A   1      47.989  26.635  36.907  1.00  0.00    -0.200 F 
ENDBRANCH  57  80
ENDBRANCH  31  32
ENDBRANCH  24  26
ENDBRANCH  23  24
ENDBRANCH  22  23
ENDBRANCH   1  22
TORSDOF 16
ENDMDL
MODEL 3
REMARK VINA RESULT:     -11.3      0.259      2.012
REMARK SMILES CC[C@@H](Nc1ccc([N+](=O)[O-])c(N)n1)C(=O)OCCOC(=O)c1ccc(-c2c3nc(c(-c4c(F)c(F)c(F)c(F)c4F)c4ccc([nH]4)c(-c4c(F)c(F)c(F)c(F)c4F)c4nc(c(-c5c(F)c(F)c(F)c(F)c5F)c5ccc2[nH]5)C=C4)C=C3)cc1
REMARK SMILES IDX 18 1 17 2 15 3 16 4 3 5 2 6 1 7 4 8 5 10 6 11 14 12 7 13
REMARK SMILES IDX 12 14 8 15 13 16 9 19 10 20 11 21 19 22 20 23 21 24 22 25
REMARK SMILES IDX 23 26 24 27 85 28 25 29 84 30 26 31 27 32 28 33 78 34 29 35
REMARK SMILES IDX 83 36 77 37 79 38 30 39 82 40 76 41 75 42 31 44 63 45 43 46
REMARK SMILES IDX 62 47 44 48 47 49 61 50 80 51 45 52 46 53 60 55 81 56 48 57
REMARK SMILES IDX 32 58 33 59 41 60 34 61 35 62 39 63 42 64 36 65 37 66 40 67
REMARK SMILES IDX 38 68 64 69 65 70 73 71 66 72 67 73 71 74 74 75 68 76 69 77
REMARK SMILES IDX 72 78 70 79 49 80 50 81 58 82 51 83 52 84 56 85 59 86 53 87
REMARK SMILES IDX 54 88 57 89 55 90
REMARK H PARENT 4 9 13 17 13 18 79 43 47 54
REMARK Flexibility Score: inf
ROOT
ATOM      1  C   UNL A   1      36.482  22.598  23.607  1.00  0.00     0.274 C 
ENDROOT
BRANCH   1   2
ATOM      2  O   UNL A   1      35.312  23.269  24.110  1.00  0.00    -0.461 OA
BRANCH   2   3
ATOM      3  C   UNL A   1      34.159  23.097  23.403  1.00  0.00     0.328 C 
ATOM      4  O   UNL A   1      34.063  23.181  22.183  1.00  0.00    -0.250 OA
BRANCH   3   5
ATOM      5  C   UNL A   1      32.954  22.822  24.327  1.00  0.00     0.191 C 
BRANCH   5   6
ATOM      6  C   UNL A   1      32.259  24.146  24.672  1.00  0.00     0.033 C 
ATOM      7  C   UNL A   1      30.980  24.368  23.868  1.00  0.00     0.007 C 
ENDBRANCH   5   6
BRANCH   5   8
ATOM      8  N   UNL A   1      32.109  21.792  23.691  1.00  0.00    -0.357 N 
ATOM      9  H   UNL A   1      31.366  22.096  23.123  1.00  0.00     0.162 HD
BRANCH   8  10
ATOM     10  C   UNL A   1      32.290  20.437  23.838  1.00  0.00     0.129 A 
ATOM     11  C   UNL A   1      32.354  19.552  22.773  1.00  0.00     0.054 A 
ATOM     12  N   UNL A   1      32.478  20.023  25.110  1.00  0.00    -0.208 NA
ATOM     13  C   UNL A   1      32.570  18.201  23.014  1.00  0.00     0.093 A 
ATOM     14  C   UNL A   1      32.708  18.713  25.361  1.00  0.00     0.204 A 
ATOM     15  C   UNL A   1      32.744  17.781  24.331  1.00  0.00     0.311 A 
BRANCH  14  16
ATOM     16  N   UNL A   1      32.810  18.399  26.702  1.00  0.00    -0.378 N 
ATOM     17  H   UNL A   1      32.011  18.421  27.274  1.00  0.00     0.158 HD
ATOM     18  H   UNL A   1      33.684  18.153  27.085  1.00  0.00     0.158 HD
ENDBRANCH  14  16
BRANCH  15  19
ATOM     19  N   UNL A   1      32.991  16.377  24.591  1.00  0.00     0.066 N 
ATOM     20  O   UNL A   1      33.824  15.791  23.882  1.00  0.00    -0.258 OA
ATOM     21  O   UNL A   1      32.318  15.838  25.483  1.00  0.00    -0.258 OA
ENDBRANCH  15  19
ENDBRANCH   8  10
ENDBRANCH   5   8
ENDBRANCH   3   5
ENDBRANCH   2   3
ENDBRANCH   1   2
BRANCH   1  22
ATOM     22  C   UNL A   1      36.875  21.425  24.504  1.00  0.00     0.275 C 
BRANCH  22  23
ATOM     23  O   UNL A   1      37.369  21.898  25.770  1.00  0.00    -0.458 OA
BRANCH  23  24
ATOM     24  C   UNL A   1      38.661  21.609  26.036  1.00  0.00     0.338 C 
ATOM     25  O   UNL A   1      39.259  20.571  25.820  1.00  0.00    -0.246 OA
BRANCH  24  26
ATOM     26  C   UNL A   1      39.319  22.806  26.575  1.00  0.00     0.060 A 
ATOM     27  C   UNL A   1      38.889  24.063  26.146  1.00  0.00     0.016 A 
ATOM     28  C   UNL A   1      40.422  22.677  27.419  1.00  0.00     0.016 A 
ATOM     29  C   UNL A   1      39.580  25.206  26.540  1.00  0.00     0.010 A 
ATOM     30  C   UNL A   1      41.099  23.826  27.832  1.00  0.00     0.010 A 
ATOM     31  C   UNL A   1      40.694  25.095  27.381  1.00  0.00    -0.014 A 
BRANCH  31  32
ATOM     32  C   UNL A   1      41.467  26.302  27.751  1.00  0.00     0.031 A 
ATOM     33  C   UNL A   1      40.818  27.381  28.568  1.00  0.00     0.074 A 
ATOM     34  C   UNL A   1      42.746  26.426  27.355  1.00  0.00     0.049 A 
ATOM     35  N   UNL A   1      41.277  28.559  28.900  1.00  0.00    -0.248 NA
ATOM     36  C   UNL A   1      39.468  27.094  29.078  1.00  0.00     0.031 C 
ATOM     37  C   UNL A   1      43.497  25.426  26.599  1.00  0.00     0.029 A 
ATOM     38  N   UNL A   1      43.637  27.455  27.529  1.00  0.00    -0.354 N 
ATOM     39  C   UNL A   1      40.267  29.166  29.632  1.00  0.00     0.074 A 
ATOM     40  C   UNL A   1      39.164  28.230  29.691  1.00  0.00     0.031 C 
ATOM     41  C   UNL A   1      44.736  25.890  26.370  1.00  0.00     0.029 A 
ATOM     42  C   UNL A   1      44.848  27.238  26.921  1.00  0.00     0.049 A 
ATOM     43  H   UNL A   1      43.427  28.271  28.040  1.00  0.00     0.167 HD
ATOM     44  C   UNL A   1      40.263  30.395  30.201  1.00  0.00     0.037 A 
ATOM     45  C   UNL A   1      45.915  28.049  26.797  1.00  0.00     0.037 A 
ATOM     46  C   UNL A   1      41.370  31.313  30.159  1.00  0.00     0.049 A 
ATOM     47  C   UNL A   1      45.864  29.429  27.394  1.00  0.00     0.074 A 
ATOM     48  C   UNL A   1      41.472  32.572  30.726  1.00  0.00     0.029 A 
ATOM     49  N   UNL A   1      42.572  31.068  29.512  1.00  0.00    -0.354 N 
ATOM     50  N   UNL A   1      44.903  29.999  28.077  1.00  0.00    -0.248 NA
ATOM     51  C   UNL A   1      47.044  30.280  27.193  1.00  0.00     0.031 C 
ATOM     52  C   UNL A   1      42.722  33.104  30.390  1.00  0.00     0.029 A 
ATOM     53  C   UNL A   1      43.414  32.160  29.647  1.00  0.00     0.049 A 
ATOM     54  H   UNL A   1      42.794  30.241  29.027  1.00  0.00     0.167 HD
ATOM     55  C   UNL A   1      45.366  31.266  28.404  1.00  0.00     0.074 A 
ATOM     56  C   UNL A   1      46.701  31.376  27.855  1.00  0.00     0.031 C 
ATOM     57  C   UNL A   1      44.741  32.249  29.097  1.00  0.00     0.037 A 
BRANCH  44  58
ATOM     58  C   UNL A   1      39.008  30.830  30.897  1.00  0.00     0.064 A 
ATOM     59  C   UNL A   1      37.939  31.409  30.198  1.00  0.00     0.173 A 
ATOM     60  C   UNL A   1      38.861  30.631  32.278  1.00  0.00     0.173 A 
ATOM     61  F   UNL A   1      38.038  31.632  28.878  1.00  0.00    -0.203 F 
ATOM     62  C   UNL A   1      36.777  31.792  30.861  1.00  0.00     0.198 A 
ATOM     63  C   UNL A   1      37.689  30.995  32.933  1.00  0.00     0.198 A 
ATOM     64  F   UNL A   1      39.854  30.079  32.990  1.00  0.00    -0.203 F 
ATOM     65  F   UNL A   1      35.782  32.380  30.180  1.00  0.00    -0.200 F 
ATOM     66  C   UNL A   1      36.650  31.580  32.226  1.00  0.00     0.200 A 
ATOM     67  F   UNL A   1      37.565  30.782  34.251  1.00  0.00    -0.200 F 
ATOM     68  F   UNL A   1      35.528  31.946  32.861  1.00  0.00    -0.200 F 
ENDBRANCH  44  58
BRANCH  45  69
ATOM     69  C   UNL A   1      47.115  27.582  26.058  1.00  0.00     0.064 A 
ATOM     70  C   UNL A   1      47.191  27.701  24.664  1.00  0.00     0.173 A 
ATOM     71  C   UNL A   1      48.205  27.008  26.728  1.00  0.00     0.173 A 
ATOM     72  F   UNL A   1      46.162  28.219  23.979  1.00  0.00    -0.203 F 
ATOM     73  C   UNL A   1      48.311  27.253  23.966  1.00  0.00     0.198 A 
ATOM     74  C   UNL A   1      49.334  26.583  26.032  1.00  0.00     0.198 A 
ATOM     75  F   UNL A   1      48.176  26.869  28.061  1.00  0.00    -0.203 F 
ATOM     76  F   UNL A   1      48.345  27.344  22.630  1.00  0.00    -0.200 F 
ATOM     77  C   UNL A   1      49.384  26.701  24.651  1.00  0.00     0.200 A 
ATOM     78  F   UNL A   1      50.371  26.059  26.698  1.00  0.00    -0.200 F 
ATOM     79  F   UNL A   1      50.461  26.274  23.980  1.00  0.00    -0.200 F 
ENDBRANCH  45  69
BRANCH  57  80
ATOM     80  C   UNL A   1      45.507  33.517  29.323  1.00  0.00     0.064 A 
ATOM     81  C   UNL A   1      45.418  34.596  28.431  1.00  0.00     0.173 A 
ATOM     82  C   UNL A   1      46.309  33.669  30.463  1.00  0.00     0.173 A 
ATOM     83  F   UNL A   1      44.676  34.490  27.318  1.00  0.00    -0.203 F 
ATOM     84  C   UNL A   1      46.121  35.774  28.663  1.00  0.00     0.198 A 
ATOM     85  C   UNL A   1      46.992  34.857  30.704  1.00  0.00     0.198 A 
ATOM     86  F   UNL A   1      46.423  32.666  31.348  1.00  0.00    -0.203 F 
ATOM     87  F   UNL A   1      46.054  36.778  27.778  1.00  0.00    -0.200 F 
ATOM     88  C   UNL A   1      46.903  35.906  29.802  1.00  0.00     0.200 A 
ATOM     89  F   UNL A   1      47.740  34.986  31.809  1.00  0.00    -0.200 F 
ATOM     90  F   UNL A   1      47.575  37.043  30.026  1.00  0.00    -0.200 F 
ENDBRANCH  57  80
ENDBRANCH  31  32
ENDBRANCH  24  26
ENDBRANCH  23  24
ENDBRANCH  22  23
ENDBRANCH   1  22
TORSDOF 16
ENDMDL
