MODEL 1
REMARK VINA RESULT:     -12.5      0.000      0.000
REMARK SMILES C[C@@](NC(=O)[C@H]1COc2ccccc21)(C(=O)OCCOC(=O)c1ccc(-c2c3nc(c(-c4c(F)c(F)c(F)c(F)c4F)c4ccc([nH]4)c(-c4c(F)c(F)c(F)c(F)c4F)c4nc(c(-c5c(F)c(F)c(F)c(F)c5F)c5ccc2[nH]5)C=C4)C=C3)cc1)C(F)(F)F
REMARK SMILES IDX 18 1 17 2 15 3 16 4 2 5 1 6 3 7 4 8 5 10 6 11 7 12 14 13
REMARK SMILES IDX 8 14 9 15 13 16 10 17 12 18 11 19 86 20 87 21 88 22 89 23
REMARK SMILES IDX 19 24 20 25 21 26 22 27 23 28 24 29 85 30 25 31 84 32 26 33
REMARK SMILES IDX 27 34 28 35 78 36 29 37 83 38 77 39 79 40 30 41 82 42 76 43
REMARK SMILES IDX 75 44 31 46 63 47 43 48 62 49 44 50 47 51 61 52 80 53 45 54
REMARK SMILES IDX 46 55 60 57 81 58 48 59 32 60 33 61 41 62 34 63 35 64 39 65
REMARK SMILES IDX 42 66 36 67 37 68 40 69 38 70 64 71 65 72 73 73 66 74 67 75
REMARK SMILES IDX 71 76 74 77 68 78 69 79 72 80 70 81 49 82 50 83 58 84 51 85
REMARK SMILES IDX 52 86 56 87 59 88 53 89 54 90 57 91 55 92
REMARK H PARENT 3 9 79 45 47 56
REMARK Flexibility Score: inf
ROOT
ATOM      1  C   UNL A   1      31.445  29.706  24.659  1.00  0.00     0.274 C 
ENDROOT
BRANCH   1   2
ATOM      2  O   UNL A   1      32.274  28.525  24.759  1.00  0.00    -0.460 OA
BRANCH   2   3
ATOM      3  C   UNL A   1      31.710  27.352  24.348  1.00  0.00     0.341 C 
ATOM      4  O   UNL A   1      30.572  27.288  23.898  1.00  0.00    -0.249 OA
BRANCH   3   5
ATOM      5  C   UNL A   1      32.517  26.119  24.764  1.00  0.00     0.231 C 
ATOM      6  C   UNL A   1      33.626  26.510  25.755  1.00  0.00     0.058 C 
BRANCH   5   7
ATOM      7  N   UNL A   1      31.678  25.044  25.414  1.00  0.00    -0.332 N 
ATOM      8  C   UNL A   1      32.052  24.111  26.348  1.00  0.00     0.232 C 
ATOM      9  H   UNL A   1      30.735  25.009  25.130  1.00  0.00     0.164 HD
ATOM     10  O   UNL A   1      31.317  23.965  27.322  1.00  0.00    -0.274 OA
BRANCH   8  11
ATOM     11  C   UNL A   1      33.244  23.215  26.062  1.00  0.00     0.150 C 
ATOM     12  C   UNL A   1      33.850  22.606  27.329  1.00  0.00     0.248 C 
ATOM     13  C   UNL A   1      32.925  21.980  25.301  1.00  0.00     0.010 A 
ATOM     14  O   UNL A   1      33.757  21.160  27.293  1.00  0.00    -0.492 OA
ATOM     15  C   UNL A   1      33.283  20.870  26.045  1.00  0.00     0.123 A 
ATOM     16  C   UNL A   1      32.447  21.847  24.006  1.00  0.00     0.008 A 
ATOM     17  C   UNL A   1      33.185  19.593  25.535  1.00  0.00     0.047 A 
ATOM     18  C   UNL A   1      32.346  20.562  23.469  1.00  0.00     0.001 A 
ATOM     19  C   UNL A   1      32.717  19.441  24.229  1.00  0.00     0.004 A 
ENDBRANCH   8  11
ENDBRANCH   5   7
BRANCH   5  20
ATOM     20  C   UNL A   1      33.206  25.598  23.485  1.00  0.00     0.422 C 
ATOM     21  F   UNL A   1      32.395  24.797  22.760  1.00  0.00    -0.168 F 
ATOM     22  F   UNL A   1      33.535  26.639  22.675  1.00  0.00    -0.168 F 
ATOM     23  F   UNL A   1      34.349  24.926  23.733  1.00  0.00    -0.168 F 
ENDBRANCH   5  20
ENDBRANCH   3   5
ENDBRANCH   2   3
ENDBRANCH   1   2
BRANCH   1  24
ATOM     24  C   UNL A   1      31.539  30.642  25.867  1.00  0.00     0.275 C 
BRANCH  24  25
ATOM     25  O   UNL A   1      32.714  30.398  26.662  1.00  0.00    -0.458 OA
BRANCH  25  26
ATOM     26  C   UNL A   1      33.285  31.508  27.175  1.00  0.00     0.338 C 
ATOM     27  O   UNL A   1      32.745  32.594  27.361  1.00  0.00    -0.246 OA
BRANCH  26  28
ATOM     28  C   UNL A   1      34.636  31.216  27.667  1.00  0.00     0.060 A 
ATOM     29  C   UNL A   1      34.902  29.893  28.017  1.00  0.00     0.016 A 
ATOM     30  C   UNL A   1      35.575  32.212  27.928  1.00  0.00     0.016 A 
ATOM     31  C   UNL A   1      36.068  29.552  28.679  1.00  0.00     0.010 A 
ATOM     32  C   UNL A   1      36.769  31.867  28.576  1.00  0.00     0.010 A 
ATOM     33  C   UNL A   1      37.006  30.539  28.982  1.00  0.00    -0.014 A 
BRANCH  33  34
ATOM     34  C   UNL A   1      38.169  30.168  29.820  1.00  0.00     0.031 A 
ATOM     35  C   UNL A   1      39.260  29.322  29.231  1.00  0.00     0.074 A 
ATOM     36  C   UNL A   1      38.300  30.680  31.058  1.00  0.00     0.049 A 
ATOM     37  N   UNL A   1      40.306  28.797  29.813  1.00  0.00    -0.248 NA
ATOM     38  C   UNL A   1      39.163  29.034  27.792  1.00  0.00     0.031 C 
ATOM     39  C   UNL A   1      37.360  31.603  31.693  1.00  0.00     0.029 A 
ATOM     40  N   UNL A   1      39.289  30.513  31.993  1.00  0.00    -0.354 N 
ATOM     41  C   UNL A   1      40.965  28.077  28.826  1.00  0.00     0.074 A 
ATOM     42  C   UNL A   1      40.208  28.241  27.602  1.00  0.00     0.031 C 
ATOM     43  C   UNL A   1      37.828  31.939  32.906  1.00  0.00     0.029 A 
ATOM     44  C   UNL A   1      39.062  31.203  33.158  1.00  0.00     0.049 A 
ATOM     45  H   UNL A   1      40.085  29.952  31.843  1.00  0.00     0.167 HD
ATOM     46  C   UNL A   1      42.093  27.339  28.939  1.00  0.00     0.037 A 
ATOM     47  C   UNL A   1      39.756  31.207  34.311  1.00  0.00     0.037 A 
ATOM     48  C   UNL A   1      42.859  27.219  30.150  1.00  0.00     0.049 A 
ATOM     49  C   UNL A   1      40.982  30.344  34.425  1.00  0.00     0.074 A 
ATOM     50  C   UNL A   1      43.998  26.469  30.385  1.00  0.00     0.029 A 
ATOM     51  N   UNL A   1      42.571  27.890  31.330  1.00  0.00    -0.354 N 
ATOM     52  N   UNL A   1      41.544  29.582  33.519  1.00  0.00    -0.248 NA
ATOM     53  C   UNL A   1      41.659  30.324  35.729  1.00  0.00     0.031 C 
ATOM     54  C   UNL A   1      44.385  26.669  31.716  1.00  0.00     0.029 A 
ATOM     55  C   UNL A   1      43.506  27.568  32.298  1.00  0.00     0.049 A 
ATOM     56  H   UNL A   1      41.813  28.505  31.459  1.00  0.00     0.167 HD
ATOM     57  C   UNL A   1      42.635  28.992  34.139  1.00  0.00     0.074 A 
ATOM     58  C   UNL A   1      42.675  29.506  35.492  1.00  0.00     0.031 C 
ATOM     59  C   UNL A   1      43.519  28.094  33.638  1.00  0.00     0.037 A 
BRANCH  46  60
ATOM     60  C   UNL A   1      42.534  26.564  27.735  1.00  0.00     0.064 A 
ATOM     61  C   UNL A   1      43.481  27.067  26.833  1.00  0.00     0.173 A 
ATOM     62  C   UNL A   1      42.009  25.285  27.494  1.00  0.00     0.173 A 
ATOM     63  F   UNL A   1      43.996  28.293  27.009  1.00  0.00    -0.203 F 
ATOM     64  C   UNL A   1      43.875  26.323  25.722  1.00  0.00     0.198 A 
ATOM     65  C   UNL A   1      42.420  24.536  26.395  1.00  0.00     0.198 A 
ATOM     66  F   UNL A   1      41.097  24.761  28.326  1.00  0.00    -0.203 F 
ATOM     67  F   UNL A   1      44.753  26.838  24.851  1.00  0.00    -0.200 F 
ATOM     68  C   UNL A   1      43.349  25.058  25.508  1.00  0.00     0.200 A 
ATOM     69  F   UNL A   1      41.914  23.312  26.193  1.00  0.00    -0.200 F 
ATOM     70  F   UNL A   1      43.731  24.344  24.440  1.00  0.00    -0.200 F 
ENDBRANCH  46  60
BRANCH  47  71
ATOM     71  C   UNL A   1      39.273  32.010  35.463  1.00  0.00     0.064 A 
ATOM     72  C   UNL A   1      39.627  33.359  35.607  1.00  0.00     0.173 A 
ATOM     73  C   UNL A   1      38.446  31.444  36.446  1.00  0.00     0.173 A 
ATOM     74  F   UNL A   1      40.439  33.936  34.709  1.00  0.00    -0.203 F 
ATOM     75  C   UNL A   1      39.180  34.108  36.693  1.00  0.00     0.198 A 
ATOM     76  C   UNL A   1      37.978  32.202  37.517  1.00  0.00     0.198 A 
ATOM     77  F   UNL A   1      38.084  30.156  36.359  1.00  0.00    -0.203 F 
ATOM     78  F   UNL A   1      39.566  35.384  36.829  1.00  0.00    -0.200 F 
ATOM     79  C   UNL A   1      38.349  33.531  37.643  1.00  0.00     0.200 A 
ATOM     80  F   UNL A   1      37.168  31.642  38.426  1.00  0.00    -0.200 F 
ATOM     81  F   UNL A   1      37.915  34.253  38.685  1.00  0.00    -0.200 F 
ENDBRANCH  47  71
BRANCH  59  82
ATOM     82  C   UNL A   1      44.602  27.626  34.560  1.00  0.00     0.064 A 
ATOM     83  C   UNL A   1      45.811  28.326  34.677  1.00  0.00     0.173 A 
ATOM     84  C   UNL A   1      44.416  26.487  35.355  1.00  0.00     0.173 A 
ATOM     85  F   UNL A   1      46.037  29.413  33.924  1.00  0.00    -0.203 F 
ATOM     86  C   UNL A   1      46.807  27.889  35.545  1.00  0.00     0.198 A 
ATOM     87  C   UNL A   1      45.406  26.064  36.238  1.00  0.00     0.198 A 
ATOM     88  F   UNL A   1      43.273  25.788  35.281  1.00  0.00    -0.203 F 
ATOM     89  F   UNL A   1      47.971  28.549  35.614  1.00  0.00    -0.200 F 
ATOM     90  C   UNL A   1      46.601  26.762  36.327  1.00  0.00     0.200 A 
ATOM     91  F   UNL A   1      45.205  24.980  36.999  1.00  0.00    -0.200 F 
ATOM     92  F   UNL A   1      47.561  26.343  37.164  1.00  0.00    -0.200 F 
ENDBRANCH  59  82
ENDBRANCH  33  34
ENDBRANCH  26  28
ENDBRANCH  25  26
ENDBRANCH  24  25
ENDBRANCH   1  24
TORSDOF 14
ENDMDL
MODEL 2
REMARK VINA RESULT:     -12.5      0.169      1.204
REMARK SMILES C[C@@](NC(=O)[C@H]1COc2ccccc21)(C(=O)OCCOC(=O)c1ccc(-c2c3nc(c(-c4c(F)c(F)c(F)c(F)c4F)c4ccc([nH]4)c(-c4c(F)c(F)c(F)c(F)c4F)c4nc(c(-c5c(F)c(F)c(F)c(F)c5F)c5ccc2[nH]5)C=C4)C=C3)cc1)C(F)(F)F
REMARK SMILES IDX 18 1 17 2 15 3 16 4 2 5 1 6 3 7 4 8 5 10 6 11 7 12 14 13
REMARK SMILES IDX 8 14 9 15 13 16 10 17 12 18 11 19 86 20 87 21 88 22 89 23
REMARK SMILES IDX 19 24 20 25 21 26 22 27 23 28 24 29 85 30 25 31 84 32 26 33
REMARK SMILES IDX 27 34 28 35 78 36 29 37 83 38 77 39 79 40 30 41 82 42 76 43
REMARK SMILES IDX 75 44 31 46 63 47 43 48 62 49 44 50 47 51 61 52 80 53 45 54
REMARK SMILES IDX 46 55 60 57 81 58 48 59 32 60 33 61 41 62 34 63 35 64 39 65
REMARK SMILES IDX 42 66 36 67 37 68 40 69 38 70 64 71 65 72 73 73 66 74 67 75
REMARK SMILES IDX 71 76 74 77 68 78 69 79 72 80 70 81 49 82 50 83 58 84 51 85
REMARK SMILES IDX 52 86 56 87 59 88 53 89 54 90 57 91 55 92
REMARK H PARENT 3 9 79 45 47 56
REMARK Flexibility Score: inf
ROOT
ATOM      1  C   UNL A   1      31.249  29.829  24.972  1.00  0.00     0.274 C 
ENDROOT
BRANCH   1   2
ATOM      2  O   UNL A   1      32.094  28.661  25.095  1.00  0.00    -0.460 OA
BRANCH   2   3
ATOM      3  C   UNL A   1      31.641  27.520  24.497  1.00  0.00     0.341 C 
ATOM      4  O   UNL A   1      30.566  27.462  23.912  1.00  0.00    -0.249 OA
BRANCH   3   5
ATOM      5  C   UNL A   1      32.459  26.280  24.870  1.00  0.00     0.231 C 
ATOM      6  C   UNL A   1      33.532  26.638  25.914  1.00  0.00     0.058 C 
BRANCH   5   7
ATOM      7  N   UNL A   1      31.623  25.158  25.436  1.00  0.00    -0.332 N 
ATOM      8  C   UNL A   1      31.995  24.167  26.311  1.00  0.00     0.232 C 
ATOM      9  H   UNL A   1      30.684  25.134  25.139  1.00  0.00     0.164 HD
ATOM     10  O   UNL A   1      31.249  23.950  27.263  1.00  0.00    -0.274 OA
BRANCH   8  11
ATOM     11  C   UNL A   1      33.197  23.303  25.981  1.00  0.00     0.150 C 
ATOM     12  C   UNL A   1      33.844  22.681  27.221  1.00  0.00     0.248 C 
ATOM     13  C   UNL A   1      32.888  22.076  25.200  1.00  0.00     0.010 A 
ATOM     14  O   UNL A   1      33.780  21.234  27.156  1.00  0.00    -0.492 OA
ATOM     15  C   UNL A   1      33.284  20.960  25.913  1.00  0.00     0.123 A 
ATOM     16  C   UNL A   1      32.384  21.960  23.914  1.00  0.00     0.008 A 
ATOM     17  C   UNL A   1      33.202  19.691  25.380  1.00  0.00     0.047 A 
ATOM     18  C   UNL A   1      32.297  20.684  23.353  1.00  0.00     0.001 A 
ATOM     19  C   UNL A   1      32.708  19.556  24.081  1.00  0.00     0.004 A 
ENDBRANCH   8  11
ENDBRANCH   5   7
BRANCH   5  20
ATOM     20  C   UNL A   1      33.195  25.842  23.587  1.00  0.00     0.422 C 
ATOM     21  F   UNL A   1      33.481  26.888  22.782  1.00  0.00    -0.168 F 
ATOM     22  F   UNL A   1      34.386  25.269  23.904  1.00  0.00    -0.168 F 
ATOM     23  F   UNL A   1      32.510  24.930  22.866  1.00  0.00    -0.168 F 
ENDBRANCH   5  20
ENDBRANCH   3   5
ENDBRANCH   2   3
ENDBRANCH   1   2
BRANCH   1  24
ATOM     24  C   UNL A   1      31.495  30.896  26.042  1.00  0.00     0.275 C 
BRANCH  24  25
ATOM     25  O   UNL A   1      32.672  30.628  26.827  1.00  0.00    -0.458 OA
BRANCH  25  26
ATOM     26  C   UNL A   1      33.312  31.729  27.272  1.00  0.00     0.338 C 
ATOM     27  O   UNL A   1      32.834  32.850  27.414  1.00  0.00    -0.246 OA
BRANCH  26  28
ATOM     28  C   UNL A   1      34.655  31.388  27.754  1.00  0.00     0.060 A 
ATOM     29  C   UNL A   1      34.866  30.064  28.135  1.00  0.00     0.016 A 
ATOM     30  C   UNL A   1      35.642  32.348  27.977  1.00  0.00     0.016 A 
ATOM     31  C   UNL A   1      36.025  29.688  28.791  1.00  0.00     0.010 A 
ATOM     32  C   UNL A   1      36.828  31.965  28.619  1.00  0.00     0.010 A 
ATOM     33  C   UNL A   1      37.011  30.638  29.055  1.00  0.00    -0.014 A 
BRANCH  33  34
ATOM     34  C   UNL A   1      38.167  30.237  29.887  1.00  0.00     0.031 A 
ATOM     35  C   UNL A   1      39.235  29.365  29.293  1.00  0.00     0.074 A 
ATOM     36  C   UNL A   1      38.317  30.742  31.126  1.00  0.00     0.049 A 
ATOM     37  N   UNL A   1      40.270  28.812  29.868  1.00  0.00    -0.248 NA
ATOM     38  C   UNL A   1      39.124  29.082  27.853  1.00  0.00     0.031 C 
ATOM     39  C   UNL A   1      37.403  31.687  31.767  1.00  0.00     0.029 A 
ATOM     40  N   UNL A   1      39.305  30.548  32.056  1.00  0.00    -0.354 N 
ATOM     41  C   UNL A   1      40.905  28.078  28.877  1.00  0.00     0.074 A 
ATOM     42  C   UNL A   1      40.148  28.264  27.657  1.00  0.00     0.031 C 
ATOM     43  C   UNL A   1      37.884  32.009  32.979  1.00  0.00     0.029 A 
ATOM     44  C   UNL A   1      39.100  31.241  33.224  1.00  0.00     0.049 A 
ATOM     45  H   UNL A   1      40.086  29.968  31.902  1.00  0.00     0.167 HD
ATOM     46  C   UNL A   1      42.016  27.312  28.983  1.00  0.00     0.037 A 
ATOM     47  C   UNL A   1      39.799  31.225  34.374  1.00  0.00     0.037 A 
ATOM     48  C   UNL A   1      42.784  27.170  30.191  1.00  0.00     0.049 A 
ATOM     49  C   UNL A   1      41.004  30.332  34.481  1.00  0.00     0.074 A 
ATOM     50  C   UNL A   1      43.904  26.391  30.420  1.00  0.00     0.029 A 
ATOM     51  N   UNL A   1      42.518  27.845  31.373  1.00  0.00    -0.354 N 
ATOM     52  N   UNL A   1      41.542  29.557  33.570  1.00  0.00    -0.248 NA
ATOM     53  C   UNL A   1      41.685  30.292  35.782  1.00  0.00     0.031 C 
ATOM     54  C   UNL A   1      44.302  26.578  31.749  1.00  0.00     0.029 A 
ATOM     55  C   UNL A   1      43.448  27.497  32.337  1.00  0.00     0.049 A 
ATOM     56  H   UNL A   1      41.775  28.478  31.507  1.00  0.00     0.167 HD
ATOM     57  C   UNL A   1      42.621  28.939  34.184  1.00  0.00     0.074 A 
ATOM     58  C   UNL A   1      42.679  29.449  35.539  1.00  0.00     0.031 C 
ATOM     59  C   UNL A   1      43.480  28.020  33.678  1.00  0.00     0.037 A 
BRANCH  46  60
ATOM     60  C   UNL A   1      42.432  26.529  27.776  1.00  0.00     0.064 A 
ATOM     61  C   UNL A   1      43.383  27.012  26.868  1.00  0.00     0.173 A 
ATOM     62  C   UNL A   1      41.877  25.261  27.537  1.00  0.00     0.173 A 
ATOM     63  F   UNL A   1      43.926  28.226  27.042  1.00  0.00    -0.203 F 
ATOM     64  C   UNL A   1      43.754  26.261  25.755  1.00  0.00     0.198 A 
ATOM     65  C   UNL A   1      42.265  24.505  26.435  1.00  0.00     0.198 A 
ATOM     66  F   UNL A   1      40.960  24.756  28.375  1.00  0.00    -0.203 F 
ATOM     67  F   UNL A   1      44.637  26.757  24.877  1.00  0.00    -0.200 F 
ATOM     68  C   UNL A   1      43.199  25.008  25.542  1.00  0.00     0.200 A 
ATOM     69  F   UNL A   1      41.732  23.293  26.235  1.00  0.00    -0.200 F 
ATOM     70  F   UNL A   1      43.558  24.286  24.472  1.00  0.00    -0.200 F 
ENDBRANCH  46  60
BRANCH  47  71
ATOM     71  C   UNL A   1      39.341  32.038  35.530  1.00  0.00     0.064 A 
ATOM     72  C   UNL A   1      39.746  33.371  35.685  1.00  0.00     0.173 A 
ATOM     73  C   UNL A   1      38.490  31.497  36.505  1.00  0.00     0.173 A 
ATOM     74  F   UNL A   1      40.583  33.924  34.795  1.00  0.00    -0.203 F 
ATOM     75  C   UNL A   1      39.322  34.128  36.775  1.00  0.00     0.198 A 
ATOM     76  C   UNL A   1      38.045  32.263  37.579  1.00  0.00     0.198 A 
ATOM     77  F   UNL A   1      38.080  30.224  36.406  1.00  0.00    -0.203 F 
ATOM     78  F   UNL A   1      39.755  35.388  36.922  1.00  0.00    -0.200 F 
ATOM     79  C   UNL A   1      38.466  33.577  37.716  1.00  0.00     0.200 A 
ATOM     80  F   UNL A   1      37.210  31.728  38.481  1.00  0.00    -0.200 F 
ATOM     81  F   UNL A   1      38.055  34.307  38.762  1.00  0.00    -0.200 F 
ENDBRANCH  47  71
BRANCH  59  82
ATOM     82  C   UNL A   1      44.554  27.523  34.594  1.00  0.00     0.064 A 
ATOM     83  C   UNL A   1      44.370  26.373  35.375  1.00  0.00     0.173 A 
ATOM     84  C   UNL A   1      45.789  28.184  34.669  1.00  0.00     0.173 A 
ATOM     85  F   UNL A   1      43.200  25.719  35.346  1.00  0.00    -0.203 F 
ATOM     86  C   UNL A   1      45.379  25.913  36.215  1.00  0.00     0.198 A 
ATOM     87  C   UNL A   1      46.803  27.708  35.495  1.00  0.00     0.198 A 
ATOM     88  F   UNL A   1      46.012  29.285  33.936  1.00  0.00    -0.203 F 
ATOM     89  F   UNL A   1      45.169  24.835  36.983  1.00  0.00    -0.200 F 
ATOM     90  C   UNL A   1      46.595  26.578  36.271  1.00  0.00     0.200 A 
ATOM     91  F   UNL A   1      47.980  28.346  35.543  1.00  0.00    -0.200 F 
ATOM     92  F   UNL A   1      47.566  26.133  37.080  1.00  0.00    -0.200 F 
ENDBRANCH  59  82
ENDBRANCH  33  34
ENDBRANCH  26  28
ENDBRANCH  25  26
ENDBRANCH  24  25
ENDBRANCH   1  24
TORSDOF 14
ENDMDL
MODEL 3
REMARK VINA RESULT:     -12.2      4.243      9.816
REMARK SMILES C[C@@](NC(=O)[C@H]1COc2ccccc21)(C(=O)OCCOC(=O)c1ccc(-c2c3nc(c(-c4c(F)c(F)c(F)c(F)c4F)c4ccc([nH]4)c(-c4c(F)c(F)c(F)c(F)c4F)c4nc(c(-c5c(F)c(F)c(F)c(F)c5F)c5ccc2[nH]5)C=C4)C=C3)cc1)C(F)(F)F
REMARK SMILES IDX 18 1 17 2 15 3 16 4 2 5 1 6 3 7 4 8 5 10 6 11 7 12 14 13
REMARK SMILES IDX 8 14 9 15 13 16 10 17 12 18 11 19 86 20 87 21 88 22 89 23
REMARK SMILES IDX 19 24 20 25 21 26 22 27 23 28 24 29 85 30 25 31 84 32 26 33
REMARK SMILES IDX 27 34 28 35 78 36 29 37 83 38 77 39 79 40 30 41 82 42 76 43
REMARK SMILES IDX 75 44 31 46 63 47 43 48 62 49 44 50 47 51 61 52 80 53 45 54
REMARK SMILES IDX 46 55 60 57 81 58 48 59 32 60 33 61 41 62 34 63 35 64 39 65
REMARK SMILES IDX 42 66 36 67 37 68 40 69 38 70 64 71 65 72 73 73 66 74 67 75
REMARK SMILES IDX 71 76 74 77 68 78 69 79 72 80 70 81 49 82 50 83 58 84 51 85
REMARK SMILES IDX 52 86 56 87 59 88 53 89 54 90 57 91 55 92
REMARK H PARENT 3 9 79 45 47 56
REMARK Flexibility Score: inf
ROOT
ATOM      1  C   UNL A   1      35.721  20.690  24.999  1.00  0.00     0.274 C 
ENDROOT
BRANCH   1   2
ATOM      2  O   UNL A   1      35.338  22.068  24.780  1.00  0.00    -0.460 OA
BRANCH   2   3
ATOM      3  C   UNL A   1      34.038  22.286  24.426  1.00  0.00     0.341 C 
ATOM      4  O   UNL A   1      33.346  21.430  23.887  1.00  0.00    -0.249 OA
BRANCH   3   5
ATOM      5  C   UNL A   1      33.632  23.761  24.507  1.00  0.00     0.231 C 
ATOM      6  C   UNL A   1      34.816  24.619  24.986  1.00  0.00     0.058 C 
BRANCH   5   7
ATOM      7  N   UNL A   1      33.158  24.326  23.190  1.00  0.00    -0.332 N 
ATOM      8  C   UNL A   1      33.348  25.586  22.678  1.00  0.00     0.232 C 
ATOM      9  H   UNL A   1      32.643  23.708  22.621  1.00  0.00     0.164 HD
ATOM     10  O   UNL A   1      33.722  25.666  21.510  1.00  0.00    -0.274 OA
BRANCH   8  11
ATOM     11  C   UNL A   1      32.946  26.790  23.509  1.00  0.00     0.150 C 
ATOM     12  C   UNL A   1      33.688  28.068  23.106  1.00  0.00     0.248 C 
ATOM     13  C   UNL A   1      31.539  27.232  23.325  1.00  0.00     0.010 A 
ATOM     14  O   UNL A   1      32.753  29.072  22.637  1.00  0.00    -0.492 OA
ATOM     15  C   UNL A   1      31.518  28.539  22.873  1.00  0.00     0.123 A 
ATOM     16  C   UNL A   1      30.364  26.563  23.629  1.00  0.00     0.008 A 
ATOM     17  C   UNL A   1      30.337  29.231  22.710  1.00  0.00     0.047 A 
ATOM     18  C   UNL A   1      29.156  27.248  23.476  1.00  0.00     0.001 A 
ATOM     19  C   UNL A   1      29.144  28.577  23.023  1.00  0.00     0.004 A 
ENDBRANCH   8  11
ENDBRANCH   5   7
BRANCH   5  20
ATOM     20  C   UNL A   1      32.533  23.851  25.587  1.00  0.00     0.422 C 
ATOM     21  F   UNL A   1      32.710  22.942  26.571  1.00  0.00    -0.168 F 
ATOM     22  F   UNL A   1      32.566  25.070  26.186  1.00  0.00    -0.168 F 
ATOM     23  F   UNL A   1      31.287  23.698  25.092  1.00  0.00    -0.168 F 
ENDBRANCH   5  20
ENDBRANCH   3   5
ENDBRANCH   2   3
ENDBRANCH   1   2
BRANCH   1  24
ATOM     24  C   UNL A   1      37.233  20.451  24.992  1.00  0.00     0.275 C 
BRANCH  24  25
ATOM     25  O   UNL A   1      37.975  21.602  25.438  1.00  0.00    -0.458 OA
BRANCH  25  26
ATOM     26  C   UNL A   1      39.116  21.313  26.096  1.00  0.00     0.338 C 
ATOM     27  O   UNL A   1      39.718  20.244  26.090  1.00  0.00    -0.246 OA
BRANCH  26  28
ATOM     28  C   UNL A   1      39.679  22.520  26.710  1.00  0.00     0.060 A 
ATOM     29  C   UNL A   1      39.200  23.743  26.243  1.00  0.00     0.016 A 
ATOM     30  C   UNL A   1      40.748  22.483  27.604  1.00  0.00     0.016 A 
ATOM     31  C   UNL A   1      39.807  24.932  26.606  1.00  0.00     0.010 A 
ATOM     32  C   UNL A   1      41.350  23.687  27.994  1.00  0.00     0.010 A 
ATOM     33  C   UNL A   1      40.900  24.915  27.472  1.00  0.00    -0.014 A 
BRANCH  33  34
ATOM     34  C   UNL A   1      41.617  26.186  27.721  1.00  0.00     0.031 A 
ATOM     35  C   UNL A   1      40.981  27.232  28.590  1.00  0.00     0.074 A 
ATOM     36  C   UNL A   1      42.873  26.353  27.268  1.00  0.00     0.049 A 
ATOM     37  N   UNL A   1      41.382  28.449  28.850  1.00  0.00    -0.248 NA
ATOM     38  C   UNL A   1      39.727  26.854  29.260  1.00  0.00     0.031 C 
ATOM     39  C   UNL A   1      43.635  25.362  26.510  1.00  0.00     0.029 A 
ATOM     40  N   UNL A   1      43.737  27.410  27.400  1.00  0.00    -0.354 N 
ATOM     41  C   UNL A   1      40.408  28.998  29.673  1.00  0.00     0.074 A 
ATOM     42  C   UNL A   1      39.400  27.979  29.880  1.00  0.00     0.031 C 
ATOM     43  C   UNL A   1      44.862  25.847  26.262  1.00  0.00     0.029 A 
ATOM     44  C   UNL A   1      44.947  27.207  26.783  1.00  0.00     0.049 A 
ATOM     45  H   UNL A   1      43.511  28.234  27.889  1.00  0.00     0.167 HD
ATOM     46  C   UNL A   1      40.360  30.245  30.197  1.00  0.00     0.037 A 
ATOM     47  C   UNL A   1      45.990  28.044  26.626  1.00  0.00     0.037 A 
ATOM     48  C   UNL A   1      41.389  31.234  30.018  1.00  0.00     0.049 A 
ATOM     49  C   UNL A   1      45.893  29.438  27.181  1.00  0.00     0.074 A 
ATOM     50  C   UNL A   1      41.425  32.540  30.474  1.00  0.00     0.029 A 
ATOM     51  N   UNL A   1      42.579  31.013  29.341  1.00  0.00    -0.354 N 
ATOM     52  N   UNL A   1      44.924  29.989  27.870  1.00  0.00    -0.248 NA
ATOM     53  C   UNL A   1      47.026  30.336  26.915  1.00  0.00     0.031 C 
ATOM     54  C   UNL A   1      42.628  33.116  30.052  1.00  0.00     0.029 A 
ATOM     55  C   UNL A   1      43.355  32.159  29.362  1.00  0.00     0.049 A 
ATOM     56  H   UNL A   1      42.835  30.166  28.909  1.00  0.00     0.167 HD
ATOM     57  C   UNL A   1      45.325  31.292  28.120  1.00  0.00     0.074 A 
ATOM     58  C   UNL A   1      46.640  31.444  27.532  1.00  0.00     0.031 C 
ATOM     59  C   UNL A   1      44.660  32.281  28.767  1.00  0.00     0.037 A 
BRANCH  46  60
ATOM     60  C   UNL A   1      39.131  30.623  30.965  1.00  0.00     0.064 A 
ATOM     61  C   UNL A   1      39.047  30.468  32.356  1.00  0.00     0.173 A 
ATOM     62  C   UNL A   1      38.024  31.168  30.295  1.00  0.00     0.173 A 
ATOM     63  F   UNL A   1      40.070  29.932  33.038  1.00  0.00    -0.203 F 
ATOM     64  C   UNL A   1      37.893  30.831  33.046  1.00  0.00     0.198 A 
ATOM     65  C   UNL A   1      36.881  31.548  30.991  1.00  0.00     0.198 A 
ATOM     66  F   UNL A   1      38.055  31.333  28.964  1.00  0.00    -0.203 F 
ATOM     67  F   UNL A   1      37.818  30.639  34.370  1.00  0.00    -0.200 F 
ATOM     68  C   UNL A   1      36.814  31.375  32.365  1.00  0.00     0.200 A 
ATOM     69  F   UNL A   1      35.842  32.079  30.331  1.00  0.00    -0.200 F 
ATOM     70  F   UNL A   1      35.705  31.725  33.031  1.00  0.00    -0.200 F 
ENDBRANCH  46  60
BRANCH  47  71
ATOM     71  C   UNL A   1      47.186  27.601  25.866  1.00  0.00     0.064 A 
ATOM     72  C   UNL A   1      48.302  27.061  26.519  1.00  0.00     0.173 A 
ATOM     73  C   UNL A   1      47.238  27.710  24.468  1.00  0.00     0.173 A 
ATOM     74  F   UNL A   1      48.313  26.964  27.857  1.00  0.00    -0.203 F 
ATOM     75  C   UNL A   1      49.427  26.656  25.804  1.00  0.00     0.198 A 
ATOM     76  C   UNL A   1      48.351  27.278  23.752  1.00  0.00     0.198 A 
ATOM     77  F   UNL A   1      46.198  28.226  23.796  1.00  0.00    -0.203 F 
ATOM     78  F   UNL A   1      50.498  26.181  26.455  1.00  0.00    -0.200 F 
ATOM     79  C   UNL A   1      49.448  26.756  24.421  1.00  0.00     0.200 A 
ATOM     80  F   UNL A   1      48.362  27.369  22.415  1.00  0.00    -0.200 F 
ATOM     81  F   UNL A   1      50.528  26.361  23.733  1.00  0.00    -0.200 F 
ENDBRANCH  47  71
BRANCH  59  82
ATOM     82  C   UNL A   1      45.354  33.603  28.875  1.00  0.00     0.064 A 
ATOM     83  C   UNL A   1      46.230  33.880  29.934  1.00  0.00     0.173 A 
ATOM     84  C   UNL A   1      45.167  34.588  27.896  1.00  0.00     0.173 A 
ATOM     85  F   UNL A   1      46.427  32.973  30.902  1.00  0.00    -0.203 F 
ATOM     86  C   UNL A   1      46.879  35.108  30.020  1.00  0.00     0.198 A 
ATOM     87  C   UNL A   1      45.834  35.807  27.973  1.00  0.00     0.198 A 
ATOM     88  F   UNL A   1      44.342  34.366  26.861  1.00  0.00    -0.203 F 
ATOM     89  F   UNL A   1      47.681  35.369  31.062  1.00  0.00    -0.200 F 
ATOM     90  C   UNL A   1      46.684  36.068  29.038  1.00  0.00     0.200 A 
ATOM     91  F   UNL A   1      45.652  36.731  27.020  1.00  0.00    -0.200 F 
ATOM     92  F   UNL A   1      47.311  37.250  29.121  1.00  0.00    -0.200 F 
ENDBRANCH  59  82
ENDBRANCH  33  34
ENDBRANCH  26  28
ENDBRANCH  25  26
ENDBRANCH  24  25
ENDBRANCH   1  24
TORSDOF 14
ENDMDL
