MODEL 1
REMARK VINA RESULT:     -11.2      0.000      0.000
REMARK SMILES C[C@H](NC(=O)N(CC(=O)OCCOC(=O)c1ccc(-c2c3nc(c(-c4c(F)c(F)c(F)c(F)c4F)c4ccc([nH]4)c(-c4c(F)c(F)c(F)c(F)c4F)c4nc(c(-c5c(F)c(F)c(F)c(F)c5F)c5ccc2[nH]5)C=C4)C=C3)cc1)C(C)(C)C)c1ccccc1
REMARK SMILES IDX 11 1 10 2 8 3 9 4 7 5 6 6 4 7 3 8 5 10 2 11 1 12 83 13 84 14
REMARK SMILES IDX 88 15 85 16 87 17 86 18 79 19 80 20 81 21 82 22 12 23 13 24
REMARK SMILES IDX 14 25 15 26 16 27 17 28 78 29 18 30 77 31 19 32 20 33 21 34
REMARK SMILES IDX 71 35 22 36 76 37 70 38 72 39 23 40 75 41 69 42 68 43 24 45
REMARK SMILES IDX 56 46 36 47 55 48 37 49 40 50 54 51 73 52 38 53 39 54 53 56
REMARK SMILES IDX 74 57 41 58 25 59 26 60 34 61 27 62 28 63 32 64 35 65 29 66
REMARK SMILES IDX 30 67 33 68 31 69 57 70 58 71 66 72 59 73 60 74 64 75 67 76
REMARK SMILES IDX 61 77 62 78 65 79 63 80 42 81 43 82 51 83 44 84 45 85 49 86
REMARK SMILES IDX 52 87 46 88 47 89 50 90 48 91
REMARK H PARENT 3 9 72 44 40 55
REMARK Flexibility Score: inf
ROOT
ATOM      1  C   UNL A   1      34.708  20.519  25.057  1.00  0.00     0.274 C 
ENDROOT
BRANCH   1   2
ATOM      2  O   UNL A   1      33.759  20.914  24.048  1.00  0.00    -0.461 OA
BRANCH   2   3
ATOM      3  C   UNL A   1      32.562  21.332  24.539  1.00  0.00     0.325 C 
ATOM      4  O   UNL A   1      31.877  20.699  25.339  1.00  0.00    -0.250 OA
BRANCH   3   5
ATOM      5  C   UNL A   1      32.240  22.782  24.199  1.00  0.00     0.244 C 
BRANCH   5   6
ATOM      6  N   UNL A   1      32.335  23.790  25.250  1.00  0.00    -0.309 N 
BRANCH   6   7
ATOM      7  C   UNL A   1      31.217  24.261  25.903  1.00  0.00     0.318 C 
ATOM      8  N   UNL A   1      30.351  25.135  25.358  1.00  0.00    -0.331 N 
ATOM      9  H   UNL A   1      29.743  25.500  26.041  1.00  0.00     0.165 HD
ATOM     10  O   UNL A   1      30.915  23.902  27.045  1.00  0.00    -0.249 OA
BRANCH   8  11
ATOM     11  C   UNL A   1      30.054  25.696  24.042  1.00  0.00     0.111 C 
ATOM     12  C   UNL A   1      28.653  26.319  23.978  1.00  0.00     0.036 C 
BRANCH  11  13
ATOM     13  C   UNL A   1      31.125  26.711  23.663  1.00  0.00    -0.026 A 
ATOM     14  C   UNL A   1      32.071  26.398  22.674  1.00  0.00     0.006 A 
ATOM     15  C   UNL A   1      31.207  27.964  24.294  1.00  0.00     0.006 A 
ATOM     16  C   UNL A   1      33.049  27.325  22.304  1.00  0.00     0.000 A 
ATOM     17  C   UNL A   1      32.180  28.891  23.920  1.00  0.00     0.000 A 
ATOM     18  C   UNL A   1      33.097  28.573  22.922  1.00  0.00     0.000 A 
ENDBRANCH  11  13
ENDBRANCH   8  11
ENDBRANCH   6   7
BRANCH   6  19
ATOM     19  C   UNL A   1      33.687  24.399  25.580  1.00  0.00     0.037 C 
ATOM     20  C   UNL A   1      34.369  23.644  26.741  1.00  0.00     0.034 C 
ATOM     21  C   UNL A   1      34.598  24.379  24.326  1.00  0.00     0.034 C 
ATOM     22  C   UNL A   1      33.634  25.891  26.007  1.00  0.00     0.034 C 
ENDBRANCH   6  19
ENDBRANCH   5   6
ENDBRANCH   3   5
ENDBRANCH   2   3
ENDBRANCH   1   2
BRANCH   1  23
ATOM     23  C   UNL A   1      36.118  20.988  24.683  1.00  0.00     0.275 C 
BRANCH  23  24
ATOM     24  O   UNL A   1      36.812  21.490  25.845  1.00  0.00    -0.458 OA
BRANCH  24  25
ATOM     25  C   UNL A   1      38.162  21.408  25.797  1.00  0.00     0.338 C 
ATOM     26  O   UNL A   1      38.819  20.505  25.305  1.00  0.00    -0.246 OA
BRANCH  25  27
ATOM     27  C   UNL A   1      38.805  22.601  26.405  1.00  0.00     0.060 A 
ATOM     28  C   UNL A   1      38.359  23.902  26.160  1.00  0.00     0.016 A 
ATOM     29  C   UNL A   1      39.969  22.408  27.153  1.00  0.00     0.016 A 
ATOM     30  C   UNL A   1      39.132  24.999  26.558  1.00  0.00     0.010 A 
ATOM     31  C   UNL A   1      40.682  23.505  27.643  1.00  0.00     0.010 A 
ATOM     32  C   UNL A   1      40.297  24.817  27.319  1.00  0.00    -0.014 A 
BRANCH  32  33
ATOM     33  C   UNL A   1      41.129  25.965  27.785  1.00  0.00     0.031 A 
ATOM     34  C   UNL A   1      40.522  27.044  28.647  1.00  0.00     0.074 A 
ATOM     35  C   UNL A   1      42.415  26.086  27.397  1.00  0.00     0.049 A 
ATOM     36  N   UNL A   1      40.980  28.239  28.929  1.00  0.00    -0.248 NA
ATOM     37  C   UNL A   1      39.217  26.746  29.257  1.00  0.00     0.031 C 
ATOM     38  C   UNL A   1      43.157  25.117  26.592  1.00  0.00     0.029 A 
ATOM     39  N   UNL A   1      43.323  27.096  27.617  1.00  0.00    -0.354 N 
ATOM     40  C   UNL A   1      39.993  28.857  29.687  1.00  0.00     0.074 A 
ATOM     41  C   UNL A   1      38.916  27.902  29.835  1.00  0.00     0.031 C 
ATOM     42  C   UNL A   1      44.407  25.565  26.401  1.00  0.00     0.029 A 
ATOM     43  C   UNL A   1      44.531  26.890  26.998  1.00  0.00     0.049 A 
ATOM     44  H   UNL A   1      43.125  27.888  28.167  1.00  0.00     0.167 HD
ATOM     45  C   UNL A   1      39.984  30.110  30.203  1.00  0.00     0.037 A 
ATOM     46  C   UNL A   1      45.604  27.695  26.875  1.00  0.00     0.037 A 
ATOM     47  C   UNL A   1      41.081  31.039  30.121  1.00  0.00     0.049 A 
ATOM     48  C   UNL A   1      45.571  29.078  27.458  1.00  0.00     0.074 A 
ATOM     49  C   UNL A   1      41.171  32.318  30.644  1.00  0.00     0.029 A 
ATOM     50  N   UNL A   1      42.289  30.780  29.492  1.00  0.00    -0.354 N 
ATOM     51  N   UNL A   1      44.611  29.672  28.120  1.00  0.00    -0.248 NA
ATOM     52  C   UNL A   1      46.767  29.909  27.257  1.00  0.00     0.031 C 
ATOM     53  C   UNL A   1      42.426  32.842  30.314  1.00  0.00     0.029 A 
ATOM     54  C   UNL A   1      43.128  31.876  29.613  1.00  0.00     0.049 A 
ATOM     55  H   UNL A   1      42.516  29.942  29.029  1.00  0.00     0.167 HD
ATOM     56  C   UNL A   1      45.087  30.939  28.425  1.00  0.00     0.074 A 
ATOM     57  C   UNL A   1      46.429  31.024  27.889  1.00  0.00     0.031 C 
ATOM     58  C   UNL A   1      44.464  31.944  29.086  1.00  0.00     0.037 A 
BRANCH  45  59
ATOM     59  C   UNL A   1      38.737  30.573  30.895  1.00  0.00     0.064 A 
ATOM     60  C   UNL A   1      38.606  30.538  32.289  1.00  0.00     0.173 A 
ATOM     61  C   UNL A   1      37.687  31.133  30.148  1.00  0.00     0.173 A 
ATOM     62  F   UNL A   1      39.577  30.004  33.044  1.00  0.00    -0.203 F 
ATOM     63  C   UNL A   1      37.464  31.038  32.912  1.00  0.00     0.198 A 
ATOM     64  C   UNL A   1      36.557  31.649  30.775  1.00  0.00     0.198 A 
ATOM     65  F   UNL A   1      37.769  31.195  28.810  1.00  0.00    -0.203 F 
ATOM     66  F   UNL A   1      37.348  30.972  34.245  1.00  0.00    -0.200 F 
ATOM     67  C   UNL A   1      36.445  31.600  32.155  1.00  0.00     0.200 A 
ATOM     68  F   UNL A   1      35.579  32.202  30.043  1.00  0.00    -0.200 F 
ATOM     69  F   UNL A   1      35.354  32.093  32.758  1.00  0.00    -0.200 F 
ENDBRANCH  45  59
BRANCH  46  70
ATOM     70  C   UNL A   1      46.797  27.218  26.130  1.00  0.00     0.064 A 
ATOM     71  C   UNL A   1      46.945  27.493  24.764  1.00  0.00     0.173 A 
ATOM     72  C   UNL A   1      47.810  26.487  26.766  1.00  0.00     0.173 A 
ATOM     73  F   UNL A   1      45.987  28.166  24.110  1.00  0.00    -0.203 F 
ATOM     74  C   UNL A   1      48.061  27.048  24.061  1.00  0.00     0.198 A 
ATOM     75  C   UNL A   1      48.938  26.066  26.067  1.00  0.00     0.198 A 
ATOM     76  F   UNL A   1      47.712  26.199  28.073  1.00  0.00    -0.203 F 
ATOM     77  F   UNL A   1      48.164  27.294  22.747  1.00  0.00    -0.200 F 
ATOM     78  C   UNL A   1      49.060  26.342  24.714  1.00  0.00     0.200 A 
ATOM     79  F   UNL A   1      49.906  25.393  26.705  1.00  0.00    -0.200 F 
ATOM     80  F   UNL A   1      50.137  25.921  24.037  1.00  0.00    -0.200 F 
ENDBRANCH  46  70
BRANCH  58  81
ATOM     81  C   UNL A   1      45.242  33.205  29.301  1.00  0.00     0.064 A 
ATOM     82  C   UNL A   1      45.175  34.270  28.391  1.00  0.00     0.173 A 
ATOM     83  C   UNL A   1      46.045  33.359  30.439  1.00  0.00     0.173 A 
ATOM     84  F   UNL A   1      44.433  34.161  27.279  1.00  0.00    -0.203 F 
ATOM     85  C   UNL A   1      45.903  35.439  28.605  1.00  0.00     0.198 A 
ATOM     86  C   UNL A   1      46.756  34.536  30.659  1.00  0.00     0.198 A 
ATOM     87  F   UNL A   1      46.139  32.368  31.338  1.00  0.00    -0.203 F 
ATOM     88  F   UNL A   1      45.855  36.430  27.703  1.00  0.00    -0.200 F 
ATOM     89  C   UNL A   1      46.688  35.571  29.740  1.00  0.00     0.200 A 
ATOM     90  F   UNL A   1      47.511  34.664  31.759  1.00  0.00    -0.200 F 
ATOM     91  F   UNL A   1      47.389  36.695  29.943  1.00  0.00    -0.200 F 
ENDBRANCH  58  81
ENDBRANCH  32  33
ENDBRANCH  25  27
ENDBRANCH  24  25
ENDBRANCH  23  24
ENDBRANCH   1  23
TORSDOF 16
ENDMDL
MODEL 2
REMARK VINA RESULT:     -11.1      4.196      9.478
REMARK SMILES C[C@H](NC(=O)N(CC(=O)OCCOC(=O)c1ccc(-c2c3nc(c(-c4c(F)c(F)c(F)c(F)c4F)c4ccc([nH]4)c(-c4c(F)c(F)c(F)c(F)c4F)c4nc(c(-c5c(F)c(F)c(F)c(F)c5F)c5ccc2[nH]5)C=C4)C=C3)cc1)C(C)(C)C)c1ccccc1
REMARK SMILES IDX 11 1 10 2 8 3 9 4 7 5 6 6 4 7 3 8 5 10 2 11 1 12 83 13 84 14
REMARK SMILES IDX 88 15 85 16 87 17 86 18 79 19 80 20 81 21 82 22 12 23 13 24
REMARK SMILES IDX 14 25 15 26 16 27 17 28 78 29 18 30 77 31 19 32 20 33 21 34
REMARK SMILES IDX 71 35 22 36 76 37 70 38 72 39 23 40 75 41 69 42 68 43 24 45
REMARK SMILES IDX 56 46 36 47 55 48 37 49 40 50 54 51 73 52 38 53 39 54 53 56
REMARK SMILES IDX 74 57 41 58 25 59 26 60 34 61 27 62 28 63 32 64 35 65 29 66
REMARK SMILES IDX 30 67 33 68 31 69 57 70 58 71 66 72 59 73 60 74 64 75 67 76
REMARK SMILES IDX 61 77 62 78 65 79 63 80 42 81 43 82 51 83 44 84 45 85 49 86
REMARK SMILES IDX 52 87 46 88 47 89 50 90 48 91
REMARK H PARENT 3 9 72 44 40 55
REMARK Flexibility Score: inf
ROOT
ATOM      1  C   UNL A   1      31.218  29.527  24.605  1.00  0.00     0.274 C 
ENDROOT
BRANCH   1   2
ATOM      2  O   UNL A   1      32.204  28.479  24.556  1.00  0.00    -0.461 OA
BRANCH   2   3
ATOM      3  C   UNL A   1      32.489  28.039  23.301  1.00  0.00     0.325 C 
ATOM      4  O   UNL A   1      32.931  28.745  22.397  1.00  0.00    -0.250 OA
BRANCH   3   5
ATOM      5  C   UNL A   1      32.444  26.522  23.166  1.00  0.00     0.244 C 
BRANCH   5   6
ATOM      6  N   UNL A   1      32.383  25.709  24.377  1.00  0.00    -0.309 N 
BRANCH   6   7
ATOM      7  C   UNL A   1      33.505  25.460  25.137  1.00  0.00     0.318 C 
ATOM      8  N   UNL A   1      34.444  24.556  24.802  1.00  0.00    -0.331 N 
ATOM      9  H   UNL A   1      35.050  24.380  25.559  1.00  0.00     0.165 HD
ATOM     10  O   UNL A   1      33.743  26.063  26.187  1.00  0.00    -0.249 OA
BRANCH   8  11
ATOM     11  C   UNL A   1      34.823  23.760  23.637  1.00  0.00     0.111 C 
ATOM     12  C   UNL A   1      36.291  23.316  23.688  1.00  0.00     0.036 C 
BRANCH  11  13
ATOM     13  C   UNL A   1      33.891  22.562  23.507  1.00  0.00    -0.026 A 
ATOM     14  C   UNL A   1      32.914  22.539  22.499  1.00  0.00     0.006 A 
ATOM     15  C   UNL A   1      33.968  21.471  24.389  1.00  0.00     0.006 A 
ATOM     16  C   UNL A   1      32.062  21.440  22.358  1.00  0.00     0.000 A 
ATOM     17  C   UNL A   1      33.121  20.372  24.243  1.00  0.00     0.000 A 
ATOM     18  C   UNL A   1      32.172  20.355  23.224  1.00  0.00     0.000 A 
ENDBRANCH  11  13
ENDBRANCH   8  11
ENDBRANCH   6   7
BRANCH   6  19
ATOM     19  C   UNL A   1      31.072  25.050  24.769  1.00  0.00     0.037 C 
ATOM     20  C   UNL A   1      30.228  25.980  25.666  1.00  0.00     0.034 C 
ATOM     21  C   UNL A   1      30.271  24.668  23.498  1.00  0.00     0.034 C 
ATOM     22  C   UNL A   1      31.229  23.719  25.553  1.00  0.00     0.034 C 
ENDBRANCH   6  19
ENDBRANCH   5   6
ENDBRANCH   3   5
ENDBRANCH   2   3
ENDBRANCH   1   2
BRANCH   1  23
ATOM     23  C   UNL A   1      31.518  30.495  25.755  1.00  0.00     0.275 C 
BRANCH  23  24
ATOM     24  O   UNL A   1      32.924  30.483  26.077  1.00  0.00    -0.458 OA
BRANCH  24  25
ATOM     25  C   UNL A   1      33.307  31.345  27.048  1.00  0.00     0.338 C 
ATOM     26  O   UNL A   1      32.672  32.301  27.462  1.00  0.00    -0.246 OA
BRANCH  25  27
ATOM     27  C   UNL A   1      34.632  30.982  27.612  1.00  0.00     0.060 A 
ATOM     28  C   UNL A   1      34.986  29.664  27.909  1.00  0.00     0.016 A 
ATOM     29  C   UNL A   1      35.500  32.019  27.962  1.00  0.00     0.016 A 
ATOM     30  C   UNL A   1      36.141  29.396  28.653  1.00  0.00     0.010 A 
ATOM     31  C   UNL A   1      36.707  31.738  28.610  1.00  0.00     0.010 A 
ATOM     32  C   UNL A   1      37.026  30.427  29.001  1.00  0.00    -0.014 A 
BRANCH  32  33
ATOM     33  C   UNL A   1      38.281  30.173  29.769  1.00  0.00     0.031 A 
ATOM     34  C   UNL A   1      39.356  29.284  29.196  1.00  0.00     0.074 A 
ATOM     35  C   UNL A   1      38.447  30.684  31.006  1.00  0.00     0.049 A 
ATOM     36  N   UNL A   1      40.379  28.724  29.794  1.00  0.00    -0.248 NA
ATOM     37  C   UNL A   1      39.258  28.968  27.762  1.00  0.00     0.031 C 
ATOM     38  C   UNL A   1      37.518  31.583  31.689  1.00  0.00     0.029 A 
ATOM     39  N   UNL A   1      39.459  30.499  31.919  1.00  0.00    -0.354 N 
ATOM     40  C   UNL A   1      41.000  27.938  28.831  1.00  0.00     0.074 A 
ATOM     41  C   UNL A   1      40.251  28.103  27.604  1.00  0.00     0.031 C 
ATOM     42  C   UNL A   1      38.007  31.888  32.900  1.00  0.00     0.029 A 
ATOM     43  C   UNL A   1      39.241  31.140  33.114  1.00  0.00     0.049 A 
ATOM     44  H   UNL A   1      40.261  29.960  31.734  1.00  0.00     0.167 HD
ATOM     45  C   UNL A   1      42.091  27.145  28.964  1.00  0.00     0.037 A 
ATOM     46  C   UNL A   1      39.925  31.096  34.274  1.00  0.00     0.037 A 
ATOM     47  C   UNL A   1      42.883  27.032  30.161  1.00  0.00     0.049 A 
ATOM     48  C   UNL A   1      41.132  30.211  34.394  1.00  0.00     0.074 A 
ATOM     49  C   UNL A   1      44.024  26.276  30.374  1.00  0.00     0.029 A 
ATOM     50  N   UNL A   1      42.628  27.710  31.342  1.00  0.00    -0.354 N 
ATOM     51  N   UNL A   1      41.675  29.427  33.497  1.00  0.00    -0.248 NA
ATOM     52  C   UNL A   1      41.809  30.190  35.699  1.00  0.00     0.031 C 
ATOM     53  C   UNL A   1      44.449  26.482  31.692  1.00  0.00     0.029 A 
ATOM     54  C   UNL A   1      43.590  27.389  32.287  1.00  0.00     0.049 A 
ATOM     55  H   UNL A   1      41.877  28.328  31.488  1.00  0.00     0.167 HD
ATOM     56  C   UNL A   1      42.761  28.830  34.121  1.00  0.00     0.074 A 
ATOM     57  C   UNL A   1      42.811  29.353  35.470  1.00  0.00     0.031 C 
ATOM     58  C   UNL A   1      43.635  27.924  33.621  1.00  0.00     0.037 A 
BRANCH  45  59
ATOM     59  C   UNL A   1      42.495  26.308  27.787  1.00  0.00     0.064 A 
ATOM     60  C   UNL A   1      43.488  26.722  26.889  1.00  0.00     0.173 A 
ATOM     61  C   UNL A   1      41.929  25.035  27.603  1.00  0.00     0.173 A 
ATOM     62  F   UNL A   1      44.050  27.932  27.017  1.00  0.00    -0.203 F 
ATOM     63  C   UNL A   1      43.894  25.897  25.843  1.00  0.00     0.198 A 
ATOM     64  C   UNL A   1      42.352  24.206  26.568  1.00  0.00     0.198 A 
ATOM     65  F   UNL A   1      40.980  24.592  28.440  1.00  0.00    -0.203 F 
ATOM     66  F   UNL A   1      44.827  26.322  24.980  1.00  0.00    -0.200 F 
ATOM     67  C   UNL A   1      43.331  24.637  25.688  1.00  0.00     0.200 A 
ATOM     68  F   UNL A   1      41.815  22.985  26.429  1.00  0.00    -0.200 F 
ATOM     69  F   UNL A   1      43.734  23.839  24.689  1.00  0.00    -0.200 F 
ENDBRANCH  45  59
BRANCH  46  70
ATOM     70  C   UNL A   1      39.456  31.895  35.434  1.00  0.00     0.064 A 
ATOM     71  C   UNL A   1      39.875  33.220  35.607  1.00  0.00     0.173 A 
ATOM     72  C   UNL A   1      38.579  31.353  36.385  1.00  0.00     0.173 A 
ATOM     73  F   UNL A   1      40.735  33.769  34.737  1.00  0.00    -0.203 F 
ATOM     74  C   UNL A   1      39.438  33.973  36.693  1.00  0.00     0.198 A 
ATOM     75  C   UNL A   1      38.123  32.116  37.456  1.00  0.00     0.198 A 
ATOM     76  F   UNL A   1      38.151  30.088  36.261  1.00  0.00    -0.203 F 
ATOM     77  F   UNL A   1      39.880  35.228  36.857  1.00  0.00    -0.200 F 
ATOM     78  C   UNL A   1      38.557  33.424  37.613  1.00  0.00     0.200 A 
ATOM     79  F   UNL A   1      37.263  31.585  38.336  1.00  0.00    -0.200 F 
ATOM     80  F   UNL A   1      38.131  34.153  38.653  1.00  0.00    -0.200 F 
ENDBRANCH  46  70
BRANCH  58  81
ATOM     81  C   UNL A   1      44.742  27.473  34.523  1.00  0.00     0.064 A 
ATOM     82  C   UNL A   1      45.955  28.172  34.598  1.00  0.00     0.173 A 
ATOM     83  C   UNL A   1      44.579  26.344  35.338  1.00  0.00     0.173 A 
ATOM     84  F   UNL A   1      46.162  29.249  33.824  1.00  0.00    -0.203 F 
ATOM     85  C   UNL A   1      46.976  27.742  35.443  1.00  0.00     0.198 A 
ATOM     86  C   UNL A   1      45.594  25.929  36.195  1.00  0.00     0.198 A 
ATOM     87  F   UNL A   1      43.434  25.645  35.301  1.00  0.00    -0.203 F 
ATOM     88  F   UNL A   1      48.143  28.402  35.471  1.00  0.00    -0.200 F 
ATOM     89  C   UNL A   1      46.792  26.624  36.243  1.00  0.00     0.200 A 
ATOM     90  F   UNL A   1      45.413  24.851  36.971  1.00  0.00    -0.200 F 
ATOM     91  F   UNL A   1      47.775  26.211  37.054  1.00  0.00    -0.200 F 
ENDBRANCH  58  81
ENDBRANCH  32  33
ENDBRANCH  25  27
ENDBRANCH  24  25
ENDBRANCH  23  24
ENDBRANCH   1  23
TORSDOF 16
ENDMDL
MODEL 3
REMARK VINA RESULT:     -11.1      0.799      1.547
REMARK SMILES C[C@H](NC(=O)N(CC(=O)OCCOC(=O)c1ccc(-c2c3nc(c(-c4c(F)c(F)c(F)c(F)c4F)c4ccc([nH]4)c(-c4c(F)c(F)c(F)c(F)c4F)c4nc(c(-c5c(F)c(F)c(F)c(F)c5F)c5ccc2[nH]5)C=C4)C=C3)cc1)C(C)(C)C)c1ccccc1
REMARK SMILES IDX 11 1 10 2 8 3 9 4 7 5 6 6 4 7 3 8 5 10 2 11 1 12 83 13 84 14
REMARK SMILES IDX 88 15 85 16 87 17 86 18 79 19 80 20 81 21 82 22 12 23 13 24
REMARK SMILES IDX 14 25 15 26 16 27 17 28 78 29 18 30 77 31 19 32 20 33 21 34
REMARK SMILES IDX 71 35 22 36 76 37 70 38 72 39 23 40 75 41 69 42 68 43 24 45
REMARK SMILES IDX 56 46 36 47 55 48 37 49 40 50 54 51 73 52 38 53 39 54 53 56
REMARK SMILES IDX 74 57 41 58 25 59 26 60 34 61 27 62 28 63 32 64 35 65 29 66
REMARK SMILES IDX 30 67 33 68 31 69 57 70 58 71 66 72 59 73 60 74 64 75 67 76
REMARK SMILES IDX 61 77 62 78 65 79 63 80 42 81 43 82 51 83 44 84 45 85 49 86
REMARK SMILES IDX 52 87 46 88 47 89 50 90 48 91
REMARK H PARENT 3 9 72 44 40 55
REMARK Flexibility Score: inf
ROOT
ATOM      1  C   UNL A   1      34.949  20.639  25.401  1.00  0.00     0.274 C 
ENDROOT
BRANCH   1   2
ATOM      2  O   UNL A   1      34.075  20.533  24.262  1.00  0.00    -0.461 OA
BRANCH   2   3
ATOM      3  C   UNL A   1      32.788  20.896  24.509  1.00  0.00     0.325 C 
ATOM      4  O   UNL A   1      32.008  20.264  25.218  1.00  0.00    -0.250 OA
BRANCH   3   5
ATOM      5  C   UNL A   1      32.451  22.301  24.025  1.00  0.00     0.244 C 
BRANCH   5   6
ATOM      6  N   UNL A   1      32.947  23.446  24.784  1.00  0.00    -0.309 N 
BRANCH   6   7
ATOM      7  C   UNL A   1      32.522  23.698  26.070  1.00  0.00     0.318 C 
ATOM      8  N   UNL A   1      31.604  24.632  26.380  1.00  0.00    -0.331 N 
ATOM      9  H   UNL A   1      31.586  24.800  27.350  1.00  0.00     0.165 HD
ATOM     10  O   UNL A   1      32.947  23.071  27.045  1.00  0.00    -0.249 OA
BRANCH   8  11
ATOM     11  C   UNL A   1      30.626  25.468  25.688  1.00  0.00     0.111 C 
ATOM     12  C   UNL A   1      29.203  25.264  26.226  1.00  0.00     0.036 C 
BRANCH  11  13
ATOM     13  C   UNL A   1      31.043  26.931  25.780  1.00  0.00    -0.026 A 
ATOM     14  C   UNL A   1      31.031  27.737  24.630  1.00  0.00     0.006 A 
ATOM     15  C   UNL A   1      31.462  27.502  26.993  1.00  0.00     0.006 A 
ATOM     16  C   UNL A   1      31.395  29.084  24.702  1.00  0.00     0.000 A 
ATOM     17  C   UNL A   1      31.820  28.848  27.064  1.00  0.00     0.000 A 
ATOM     18  C   UNL A   1      31.781  29.640  25.919  1.00  0.00     0.000 A 
ENDBRANCH  11  13
ENDBRANCH   8  11
ENDBRANCH   6   7
BRANCH   6  19
ATOM     19  C   UNL A   1      33.891  24.432  24.117  1.00  0.00     0.037 C 
ATOM     20  C   UNL A   1      35.146  23.720  23.573  1.00  0.00     0.034 C 
ATOM     21  C   UNL A   1      33.159  25.170  22.967  1.00  0.00     0.034 C 
ATOM     22  C   UNL A   1      34.404  25.563  25.050  1.00  0.00     0.034 C 
ENDBRANCH   6  19
ENDBRANCH   5   6
ENDBRANCH   3   5
ENDBRANCH   2   3
ENDBRANCH   1   2
BRANCH   1  23
ATOM     23  C   UNL A   1      36.395  20.328  25.001  1.00  0.00     0.275 C 
BRANCH  23  24
ATOM     24  O   UNL A   1      37.238  21.482  25.203  1.00  0.00    -0.458 OA
BRANCH  24  25
ATOM     25  C   UNL A   1      38.451  21.228  25.748  1.00  0.00     0.338 C 
ATOM     26  O   UNL A   1      39.037  20.158  25.751  1.00  0.00    -0.246 OA
BRANCH  25  27
ATOM     27  C   UNL A   1      39.048  22.449  26.348  1.00  0.00     0.060 A 
ATOM     28  C   UNL A   1      38.538  23.728  26.114  1.00  0.00     0.016 A 
ATOM     29  C   UNL A   1      40.233  22.308  27.075  1.00  0.00     0.016 A 
ATOM     30  C   UNL A   1      39.266  24.859  26.501  1.00  0.00     0.010 A 
ATOM     31  C   UNL A   1      40.902  23.437  27.556  1.00  0.00     0.010 A 
ATOM     32  C   UNL A   1      40.451  24.730  27.241  1.00  0.00    -0.014 A 
BRANCH  32  33
ATOM     33  C   UNL A   1      41.237  25.915  27.696  1.00  0.00     0.031 A 
ATOM     34  C   UNL A   1      40.581  26.990  28.525  1.00  0.00     0.074 A 
ATOM     35  C   UNL A   1      42.525  26.071  27.325  1.00  0.00     0.049 A 
ATOM     36  N   UNL A   1      40.995  28.205  28.789  1.00  0.00    -0.248 NA
ATOM     37  C   UNL A   1      39.277  26.661  29.122  1.00  0.00     0.031 C 
ATOM     38  C   UNL A   1      43.311  25.111  26.551  1.00  0.00     0.029 A 
ATOM     39  N   UNL A   1      43.394  27.115  27.537  1.00  0.00    -0.354 N 
ATOM     40  C   UNL A   1      39.975  28.805  29.519  1.00  0.00     0.074 A 
ATOM     41  C   UNL A   1      38.928  27.818  29.670  1.00  0.00     0.031 C 
ATOM     42  C   UNL A   1      44.548  25.597  26.371  1.00  0.00     0.029 A 
ATOM     43  C   UNL A   1      44.618  26.938  26.941  1.00  0.00     0.049 A 
ATOM     44  H   UNL A   1      43.162  27.912  28.067  1.00  0.00     0.167 HD
ATOM     45  C   UNL A   1      39.917  30.067  30.009  1.00  0.00     0.037 A 
ATOM     46  C   UNL A   1      45.666  27.776  26.817  1.00  0.00     0.037 A 
ATOM     47  C   UNL A   1      40.983  31.031  29.923  1.00  0.00     0.049 A 
ATOM     48  C   UNL A   1      45.577  29.168  27.370  1.00  0.00     0.074 A 
ATOM     49  C   UNL A   1      41.022  32.323  30.421  1.00  0.00     0.029 A 
ATOM     50  N   UNL A   1      42.209  30.800  29.318  1.00  0.00    -0.354 N 
ATOM     51  N   UNL A   1      44.588  29.743  28.005  1.00  0.00    -0.248 NA
ATOM     52  C   UNL A   1      46.748  30.035  27.170  1.00  0.00     0.031 C 
ATOM     53  C   UNL A   1      42.264  32.882  30.099  1.00  0.00     0.029 A 
ATOM     54  C   UNL A   1      43.009  31.926  29.429  1.00  0.00     0.049 A 
ATOM     55  H   UNL A   1      42.471  29.961  28.876  1.00  0.00     0.167 HD
ATOM     56  C   UNL A   1      45.016  31.032  28.291  1.00  0.00     0.074 A 
ATOM     57  C   UNL A   1      46.363  31.151  27.774  1.00  0.00     0.031 C 
ATOM     58  C   UNL A   1      44.350  32.028  28.921  1.00  0.00     0.037 A 
BRANCH  45  59
ATOM     59  C   UNL A   1      38.644  30.503  30.671  1.00  0.00     0.064 A 
ATOM     60  C   UNL A   1      38.499  30.511  32.065  1.00  0.00     0.173 A 
ATOM     61  C   UNL A   1      37.580  30.992  29.895  1.00  0.00     0.173 A 
ATOM     62  F   UNL A   1      39.483  30.044  32.847  1.00  0.00    -0.203 F 
ATOM     63  C   UNL A   1      37.331  30.984  32.659  1.00  0.00     0.198 A 
ATOM     64  C   UNL A   1      36.423  31.483  30.493  1.00  0.00     0.198 A 
ATOM     65  F   UNL A   1      37.674  31.010  28.557  1.00  0.00    -0.203 F 
ATOM     66  F   UNL A   1      37.203  30.961  33.992  1.00  0.00    -0.200 F 
ATOM     67  C   UNL A   1      36.298  31.477  31.873  1.00  0.00     0.200 A 
ATOM     68  F   UNL A   1      35.431  31.968  29.732  1.00  0.00    -0.200 F 
ATOM     69  F   UNL A   1      35.181  31.945  32.448  1.00  0.00    -0.200 F 
ENDBRANCH  45  59
BRANCH  46  70
ATOM     70  C   UNL A   1      46.886  27.324  26.100  1.00  0.00     0.064 A 
ATOM     71  C   UNL A   1      47.926  26.687  26.789  1.00  0.00     0.173 A 
ATOM     72  C   UNL A   1      47.033  27.516  24.719  1.00  0.00     0.173 A 
ATOM     73  F   UNL A   1      47.839  26.508  28.115  1.00  0.00    -0.203 F 
ATOM     74  C   UNL A   1      49.072  26.262  26.122  1.00  0.00     0.198 A 
ATOM     75  C   UNL A   1      48.168  27.067  24.050  1.00  0.00     0.198 A 
ATOM     76  F   UNL A   1      46.063  28.122  24.018  1.00  0.00    -0.203 F 
ATOM     77  F   UNL A   1      50.069  25.685  26.808  1.00  0.00    -0.200 F 
ATOM     78  C   UNL A   1      49.189  26.446  24.752  1.00  0.00     0.200 A 
ATOM     79  F   UNL A   1      48.272  27.236  22.725  1.00  0.00    -0.200 F 
ATOM     80  F   UNL A   1      50.289  26.029  24.110  1.00  0.00    -0.200 F 
ENDBRANCH  46  70
BRANCH  58  81
ATOM     81  C   UNL A   1      45.082  33.319  29.121  1.00  0.00     0.064 A 
ATOM     82  C   UNL A   1      44.989  34.364  28.191  1.00  0.00     0.173 A 
ATOM     83  C   UNL A   1      45.866  33.521  30.266  1.00  0.00     0.173 A 
ATOM     84  F   UNL A   1      44.265  34.210  27.072  1.00  0.00    -0.203 F 
ATOM     85  C   UNL A   1      45.674  35.560  28.391  1.00  0.00     0.198 A 
ATOM     86  C   UNL A   1      46.533  34.725  30.472  1.00  0.00     0.198 A 
ATOM     87  F   UNL A   1      45.983  32.550  31.184  1.00  0.00    -0.203 F 
ATOM     88  F   UNL A   1      45.604  36.533  27.470  1.00  0.00    -0.200 F 
ATOM     89  C   UNL A   1      46.442  35.741  29.532  1.00  0.00     0.200 A 
ATOM     90  F   UNL A   1      47.271  34.900  31.577  1.00  0.00    -0.200 F 
ATOM     91  F   UNL A   1      47.101  36.892  29.722  1.00  0.00    -0.200 F 
ENDBRANCH  58  81
ENDBRANCH  32  33
ENDBRANCH  25  27
ENDBRANCH  24  25
ENDBRANCH  23  24
ENDBRANCH   1  23
TORSDOF 16
ENDMDL
