MODEL 1
REMARK VINA RESULT:     -13.0      0.000      0.000
REMARK SMILES CC1=C(C(=O)Nc2ccccc2)[C@@H](c2ccc(C(=O)OCCOC(=O)c3ccc(-c4c5nc(c(-c6c(F)c(F)c(F)c(F)c6F)c6ccc([nH]6)c(-c6c(F)c(F)c(F)c(F)c6F)c6nc(c(-c7c(F)c(F)c(F)c(F)c7F)c7ccc4[nH]7)C=C6)C=C5)cc3)cc2)n2ncnc2N1
REMARK SMILES IDX 21 1 20 2 18 3 19 4 17 5 14 6 15 7 90 8 16 9 89 10 13 11
REMARK SMILES IDX 1 12 2 13 3 14 96 15 95 16 91 18 94 19 92 20 93 21 4 22 5 23
REMARK SMILES IDX 6 24 7 26 8 27 12 28 9 29 11 30 10 31 22 32 23 33 24 34
REMARK SMILES IDX 25 35 26 36 27 37 88 38 28 39 87 40 29 41 30 42 31 43 81 44
REMARK SMILES IDX 32 45 86 46 80 47 82 48 33 49 85 50 79 51 78 52 34 54 66 55
REMARK SMILES IDX 46 56 65 57 47 58 50 59 64 60 83 61 48 62 49 63 63 65 84 66
REMARK SMILES IDX 51 67 35 68 36 69 44 70 37 71 38 72 42 73 45 74 39 75 40 76
REMARK SMILES IDX 43 77 41 78 67 79 68 80 76 81 69 82 70 83 74 84 77 85 71 86
REMARK SMILES IDX 72 87 75 88 73 89 52 90 53 91 61 92 54 93 55 94 59 95 62 96
REMARK SMILES IDX 56 97 57 98 60 99 58 100
REMARK H PARENT 96 17 6 25 82 53 50 64
REMARK Flexibility Score: inf
ROOT
ATOM      1  C   UNL A   1      39.869  20.946  26.631  1.00  0.00     0.275 C 
ENDROOT
BRANCH   1   2
ATOM      2  O   UNL A   1      38.933  21.553  25.725  1.00  0.00    -0.458 OA
BRANCH   2   3
ATOM      3  C   UNL A   1      38.670  22.869  25.932  1.00  0.00     0.338 C 
ATOM      4  O   UNL A   1      39.428  23.683  26.444  1.00  0.00    -0.246 OA
BRANCH   3   5
ATOM      5  C   UNL A   1      37.357  23.241  25.341  1.00  0.00     0.060 A 
ATOM      6  C   UNL A   1      34.800  23.870  24.352  1.00  0.00    -0.019 A 
ATOM      7  C   UNL A   1      35.206  24.353  25.601  1.00  0.00     0.007 A 
ATOM      8  C   UNL A   1      35.724  23.143  23.571  1.00  0.00     0.007 A 
ATOM      9  C   UNL A   1      36.476  24.033  26.094  1.00  0.00     0.016 A 
ATOM     10  C   UNL A   1      36.991  22.830  24.059  1.00  0.00     0.016 A 
BRANCH   6  11
ATOM     11  C   UNL A   1      33.355  23.932  23.873  1.00  0.00     0.179 C 
ATOM     12  C   UNL A   1      30.417  26.417  23.263  1.00  0.00     0.065 C 
ATOM     13  C   UNL A   1      31.332  25.383  23.876  1.00  0.00     0.026 C 
ATOM     14  C   UNL A   1      32.679  25.301  23.687  1.00  0.00     0.065 C 
ATOM     15  N   UNL A   1      30.655  24.389  24.574  1.00  0.00    -0.328 N 
ATOM     16  C   UNL A   1      31.226  23.252  24.996  1.00  0.00     0.226 A 
ATOM     17  H   UNL A   1      29.700  24.530  24.770  1.00  0.00     0.169 HD
ATOM     18  N   UNL A   1      32.529  23.010  24.673  1.00  0.00    -0.219 N 
ATOM     19  N   UNL A   1      30.739  22.237  25.662  1.00  0.00    -0.200 NA
ATOM     20  N   UNL A   1      32.899  21.767  25.055  1.00  0.00    -0.157 NA
ATOM     21  C   UNL A   1      31.790  21.359  25.680  1.00  0.00     0.248 A 
BRANCH  14  22
ATOM     22  C   UNL A   1      33.522  26.310  22.986  1.00  0.00     0.255 C 
ATOM     23  O   UNL A   1      33.919  26.055  21.847  1.00  0.00    -0.269 OA
ATOM     24  N   UNL A   1      33.839  27.533  23.511  1.00  0.00    -0.322 N 
ATOM     25  H   UNL A   1      34.415  28.079  22.930  1.00  0.00     0.170 HD
BRANCH  24  26
ATOM     26  C   UNL A   1      33.496  28.156  24.720  1.00  0.00     0.041 A 
ATOM     27  C   UNL A   1      32.553  29.191  24.634  1.00  0.00     0.026 A 
ATOM     28  C   UNL A   1      33.957  27.748  25.972  1.00  0.00     0.026 A 
ATOM     29  C   UNL A   1      31.967  29.708  25.790  1.00  0.00     0.002 A 
ATOM     30  C   UNL A   1      33.398  28.302  27.130  1.00  0.00     0.002 A 
ATOM     31  C   UNL A   1      32.380  29.253  27.038  1.00  0.00     0.000 A 
ENDBRANCH  24  26
ENDBRANCH  14  22
ENDBRANCH   6  11
ENDBRANCH   3   5
ENDBRANCH   2   3
ENDBRANCH   1   2
BRANCH   1  32
ATOM     32  C   UNL A   1      40.980  20.234  25.871  1.00  0.00     0.275 C 
BRANCH  32  33
ATOM     33  O   UNL A   1      42.259  20.521  26.431  1.00  0.00    -0.458 OA
BRANCH  33  34
ATOM     34  C   UNL A   1      43.197  20.928  25.546  1.00  0.00     0.338 C 
ATOM     35  O   UNL A   1      43.823  20.240  24.759  1.00  0.00    -0.246 OA
BRANCH  34  36
ATOM     36  C   UNL A   1      43.539  22.327  25.822  1.00  0.00     0.060 A 
ATOM     37  C   UNL A   1      44.363  22.581  26.923  1.00  0.00     0.016 A 
ATOM     38  C   UNL A   1      42.811  23.345  25.192  1.00  0.00     0.016 A 
ATOM     39  C   UNL A   1      44.318  23.830  27.507  1.00  0.00     0.010 A 
ATOM     40  C   UNL A   1      42.752  24.583  25.783  1.00  0.00     0.010 A 
ATOM     41  C   UNL A   1      43.446  24.785  26.975  1.00  0.00    -0.014 A 
BRANCH  41  42
ATOM     42  C   UNL A   1      43.293  26.045  27.672  1.00  0.00     0.031 A 
ATOM     43  C   UNL A   1      44.315  27.064  27.334  1.00  0.00     0.074 A 
ATOM     44  C   UNL A   1      42.202  26.298  28.418  1.00  0.00     0.049 A 
ATOM     45  N   UNL A   1      45.082  27.732  28.129  1.00  0.00    -0.248 NA
ATOM     46  C   UNL A   1      44.574  27.303  25.903  1.00  0.00     0.031 C 
ATOM     47  C   UNL A   1      40.997  25.472  28.560  1.00  0.00     0.029 A 
ATOM     48  N   UNL A   1      41.888  27.422  29.115  1.00  0.00    -0.354 N 
ATOM     49  C   UNL A   1      45.810  28.594  27.313  1.00  0.00     0.074 A 
ATOM     50  C   UNL A   1      45.562  28.194  25.955  1.00  0.00     0.031 C 
ATOM     51  C   UNL A   1      40.012  26.218  29.108  1.00  0.00     0.029 A 
ATOM     52  C   UNL A   1      40.550  27.521  29.458  1.00  0.00     0.049 A 
ATOM     53  H   UNL A   1      42.555  28.106  29.356  1.00  0.00     0.167 HD
ATOM     54  C   UNL A   1      46.381  29.725  27.803  1.00  0.00     0.037 A 
ATOM     55  C   UNL A   1      39.919  28.633  29.908  1.00  0.00     0.037 A 
ATOM     56  C   UNL A   1      46.591  29.644  29.223  1.00  0.00     0.049 A 
ATOM     57  C   UNL A   1      40.963  29.570  30.396  1.00  0.00     0.074 A 
ATOM     58  C   UNL A   1      47.327  28.812  30.044  1.00  0.00     0.029 A 
ATOM     59  N   UNL A   1      45.719  30.304  30.051  1.00  0.00    -0.354 N 
ATOM     60  N   UNL A   1      41.702  29.363  31.451  1.00  0.00    -0.248 NA
ATOM     61  C   UNL A   1      41.477  30.561  29.462  1.00  0.00     0.031 C 
ATOM     62  C   UNL A   1      46.547  28.671  31.229  1.00  0.00     0.029 A 
ATOM     63  C   UNL A   1      45.397  29.445  31.070  1.00  0.00     0.049 A 
ATOM     64  H   UNL A   1      45.387  31.224  29.935  1.00  0.00     0.167 HD
ATOM     65  C   UNL A   1      42.948  29.877  31.119  1.00  0.00     0.074 A 
ATOM     66  C   UNL A   1      42.720  30.693  29.932  1.00  0.00     0.031 C 
ATOM     67  C   UNL A   1      44.087  29.365  31.669  1.00  0.00     0.037 A 
BRANCH  54  68
ATOM     68  C   UNL A   1      46.411  31.027  27.044  1.00  0.00     0.064 A 
ATOM     69  C   UNL A   1      47.617  31.750  26.964  1.00  0.00     0.173 A 
ATOM     70  C   UNL A   1      45.249  31.729  26.653  1.00  0.00     0.173 A 
ATOM     71  F   UNL A   1      48.776  31.189  27.337  1.00  0.00    -0.203 F 
ATOM     72  C   UNL A   1      47.642  33.096  26.589  1.00  0.00     0.198 A 
ATOM     73  C   UNL A   1      45.287  33.054  26.224  1.00  0.00     0.198 A 
ATOM     74  F   UNL A   1      44.023  31.208  26.777  1.00  0.00    -0.203 F 
ATOM     75  F   UNL A   1      48.792  33.780  26.650  1.00  0.00    -0.200 F 
ATOM     76  C   UNL A   1      46.478  33.748  26.224  1.00  0.00     0.200 A 
ATOM     77  F   UNL A   1      44.144  33.672  25.894  1.00  0.00    -0.200 F 
ATOM     78  F   UNL A   1      46.492  35.052  25.924  1.00  0.00    -0.200 F 
ENDBRANCH  54  68
BRANCH  55  79
ATOM     79  C   UNL A   1      38.522  29.052  29.648  1.00  0.00     0.064 A 
ATOM     80  C   UNL A   1      37.682  29.462  30.694  1.00  0.00     0.173 A 
ATOM     81  C   UNL A   1      38.059  29.301  28.340  1.00  0.00     0.173 A 
ATOM     82  F   UNL A   1      38.068  29.309  31.968  1.00  0.00    -0.203 F 
ATOM     83  C   UNL A   1      36.459  30.097  30.447  1.00  0.00     0.198 A 
ATOM     84  C   UNL A   1      36.834  29.922  28.094  1.00  0.00     0.198 A 
ATOM     85  F   UNL A   1      38.826  29.035  27.273  1.00  0.00    -0.203 F 
ATOM     86  F   UNL A   1      35.711  30.529  31.470  1.00  0.00    -0.200 F 
ATOM     87  C   UNL A   1      36.040  30.332  29.147  1.00  0.00     0.200 A 
ATOM     88  F   UNL A   1      36.460  30.174  26.832  1.00  0.00    -0.200 F 
ATOM     89  F   UNL A   1      34.895  30.987  28.910  1.00  0.00    -0.200 F 
ENDBRANCH  55  79
BRANCH  67  90
ATOM     90  C   UNL A   1      43.934  28.425  32.832  1.00  0.00     0.064 A 
ATOM     91  C   UNL A   1      43.811  27.031  32.689  1.00  0.00     0.173 A 
ATOM     92  C   UNL A   1      44.071  28.932  34.130  1.00  0.00     0.173 A 
ATOM     93  F   UNL A   1      43.784  26.463  31.479  1.00  0.00    -0.203 F 
ATOM     94  C   UNL A   1      43.781  26.191  33.800  1.00  0.00     0.198 A 
ATOM     95  C   UNL A   1      44.079  28.086  35.236  1.00  0.00     0.198 A 
ATOM     96  F   UNL A   1      44.255  30.247  34.322  1.00  0.00    -0.203 F 
ATOM     97  F   UNL A   1      43.656  24.865  33.637  1.00  0.00    -0.200 F 
ATOM     98  C   UNL A   1      43.924  26.718  35.072  1.00  0.00     0.200 A 
ATOM     99  F   UNL A   1      44.269  28.594  36.461  1.00  0.00    -0.200 F 
ATOM    100  F   UNL A   1      43.942  25.906  36.139  1.00  0.00    -0.200 F 
ENDBRANCH  67  90
ENDBRANCH  41  42
ENDBRANCH  34  36
ENDBRANCH  33  34
ENDBRANCH  32  33
ENDBRANCH   1  32
TORSDOF 14
ENDMDL
MODEL 2
REMARK VINA RESULT:     -12.9      3.108      8.135
REMARK SMILES CC1=C(C(=O)Nc2ccccc2)[C@@H](c2ccc(C(=O)OCCOC(=O)c3ccc(-c4c5nc(c(-c6c(F)c(F)c(F)c(F)c6F)c6ccc([nH]6)c(-c6c(F)c(F)c(F)c(F)c6F)c6nc(c(-c7c(F)c(F)c(F)c(F)c7F)c7ccc4[nH]7)C=C6)C=C5)cc3)cc2)n2ncnc2N1
REMARK SMILES IDX 21 1 20 2 18 3 19 4 17 5 14 6 15 7 90 8 16 9 89 10 13 11
REMARK SMILES IDX 1 12 2 13 3 14 96 15 95 16 91 18 94 19 92 20 93 21 4 22 5 23
REMARK SMILES IDX 6 24 7 26 8 27 12 28 9 29 11 30 10 31 22 32 23 33 24 34
REMARK SMILES IDX 25 35 26 36 27 37 88 38 28 39 87 40 29 41 30 42 31 43 81 44
REMARK SMILES IDX 32 45 86 46 80 47 82 48 33 49 85 50 79 51 78 52 34 54 66 55
REMARK SMILES IDX 46 56 65 57 47 58 50 59 64 60 83 61 48 62 49 63 63 65 84 66
REMARK SMILES IDX 51 67 35 68 36 69 44 70 37 71 38 72 42 73 45 74 39 75 40 76
REMARK SMILES IDX 43 77 41 78 67 79 68 80 76 81 69 82 70 83 74 84 77 85 71 86
REMARK SMILES IDX 72 87 75 88 73 89 52 90 53 91 61 92 54 93 55 94 59 95 62 96
REMARK SMILES IDX 56 97 57 98 60 99 58 100
REMARK H PARENT 96 17 6 25 82 53 50 64
REMARK Flexibility Score: inf
ROOT
ATOM      1  C   UNL A   1      32.471  30.072  25.592  1.00  0.00     0.275 C 
ENDROOT
BRANCH   1   2
ATOM      2  O   UNL A   1      33.342  29.143  24.927  1.00  0.00    -0.458 OA
BRANCH   2   3
ATOM      3  C   UNL A   1      32.809  28.477  23.871  1.00  0.00     0.338 C 
ATOM      4  O   UNL A   1      32.049  28.946  23.033  1.00  0.00    -0.246 OA
BRANCH   3   5
ATOM      5  C   UNL A   1      33.365  27.101  23.783  1.00  0.00     0.060 A 
ATOM      6  C   UNL A   1      34.273  24.449  23.548  1.00  0.00    -0.019 A 
ATOM      7  C   UNL A   1      33.925  25.174  22.403  1.00  0.00     0.007 A 
ATOM      8  C   UNL A   1      34.244  25.100  24.800  1.00  0.00     0.007 A 
ATOM      9  C   UNL A   1      33.467  26.491  22.523  1.00  0.00     0.016 A 
ATOM     10  C   UNL A   1      33.794  26.413  24.919  1.00  0.00     0.016 A 
BRANCH   6  11
ATOM     11  C   UNL A   1      34.506  22.943  23.533  1.00  0.00     0.179 C 
ATOM     12  C   UNL A   1      32.649  19.536  23.886  1.00  0.00     0.065 C 
ATOM     13  C   UNL A   1      33.464  20.775  24.175  1.00  0.00     0.026 C 
ATOM     14  C   UNL A   1      33.298  21.992  23.584  1.00  0.00     0.065 C 
ATOM     15  N   UNL A   1      34.536  20.545  25.030  1.00  0.00    -0.328 N 
ATOM     16  C   UNL A   1      35.525  21.425  25.239  1.00  0.00     0.226 A 
ATOM     17  H   UNL A   1      34.570  19.686  25.509  1.00  0.00     0.169 HD
ATOM     18  N   UNL A   1      35.531  22.591  24.531  1.00  0.00    -0.219 N 
ATOM     19  N   UNL A   1      36.584  21.367  26.006  1.00  0.00    -0.200 NA
ATOM     20  N   UNL A   1      36.664  23.292  24.763  1.00  0.00    -0.157 NA
ATOM     21  C   UNL A   1      37.246  22.523  25.689  1.00  0.00     0.248 A 
BRANCH  14  22
ATOM     22  C   UNL A   1      32.180  22.373  22.676  1.00  0.00     0.255 C 
ATOM     23  O   UNL A   1      32.132  21.861  21.555  1.00  0.00    -0.269 OA
ATOM     24  N   UNL A   1      31.165  23.219  23.032  1.00  0.00    -0.322 N 
ATOM     25  H   UNL A   1      30.511  23.380  22.316  1.00  0.00     0.170 HD
BRANCH  24  26
ATOM     26  C   UNL A   1      30.882  23.898  24.226  1.00  0.00     0.041 A 
ATOM     27  C   UNL A   1      30.403  25.210  24.089  1.00  0.00     0.026 A 
ATOM     28  C   UNL A   1      30.955  23.322  25.495  1.00  0.00     0.026 A 
ATOM     29  C   UNL A   1      29.866  25.882  25.187  1.00  0.00     0.002 A 
ATOM     30  C   UNL A   1      30.457  24.019  26.602  1.00  0.00     0.002 A 
ATOM     31  C   UNL A   1      29.880  25.280  26.442  1.00  0.00     0.000 A 
ENDBRANCH  24  26
ENDBRANCH  14  22
ENDBRANCH   6  11
ENDBRANCH   3   5
ENDBRANCH   2   3
ENDBRANCH   1   2
BRANCH   1  32
ATOM     32  C   UNL A   1      33.028  30.464  26.955  1.00  0.00     0.275 C 
BRANCH  32  33
ATOM     33  O   UNL A   1      34.454  30.424  26.963  1.00  0.00    -0.458 OA
BRANCH  33  34
ATOM     34  C   UNL A   1      35.052  31.403  27.679  1.00  0.00     0.338 C 
ATOM     35  O   UNL A   1      34.893  32.606  27.569  1.00  0.00    -0.246 OA
BRANCH  34  36
ATOM     36  C   UNL A   1      36.128  30.816  28.484  1.00  0.00     0.060 A 
ATOM     37  C   UNL A   1      37.133  31.677  28.938  1.00  0.00     0.016 A 
ATOM     38  C   UNL A   1      36.278  29.424  28.512  1.00  0.00     0.016 A 
ATOM     39  C   UNL A   1      38.365  31.144  29.253  1.00  0.00     0.010 A 
ATOM     40  C   UNL A   1      37.510  28.894  28.808  1.00  0.00     0.010 A 
ATOM     41  C   UNL A   1      38.557  29.767  29.101  1.00  0.00    -0.014 A 
BRANCH  41  42
ATOM     42  C   UNL A   1      39.888  29.229  29.295  1.00  0.00     0.031 A 
ATOM     43  C   UNL A   1      40.288  29.073  30.713  1.00  0.00     0.074 A 
ATOM     44  C   UNL A   1      40.601  28.753  28.258  1.00  0.00     0.049 A 
ATOM     45  N   UNL A   1      41.344  29.520  31.307  1.00  0.00    -0.248 NA
ATOM     46  C   UNL A   1      39.332  28.398  31.609  1.00  0.00     0.031 C 
ATOM     47  C   UNL A   1      40.165  28.582  26.867  1.00  0.00     0.029 A 
ATOM     48  N   UNL A   1      41.843  28.199  28.261  1.00  0.00    -0.354 N 
ATOM     49  C   UNL A   1      41.268  29.048  32.614  1.00  0.00     0.074 A 
ATOM     50  C   UNL A   1      39.955  28.488  32.781  1.00  0.00     0.031 C 
ATOM     51  C   UNL A   1      41.037  27.772  26.226  1.00  0.00     0.029 A 
ATOM     52  C   UNL A   1      42.140  27.469  27.122  1.00  0.00     0.049 A 
ATOM     53  H   UNL A   1      42.475  28.307  29.009  1.00  0.00     0.167 HD
ATOM     54  C   UNL A   1      42.373  28.941  33.397  1.00  0.00     0.037 A 
ATOM     55  C   UNL A   1      43.175  26.607  26.971  1.00  0.00     0.037 A 
ATOM     56  C   UNL A   1      43.431  29.804  32.947  1.00  0.00     0.049 A 
ATOM     57  C   UNL A   1      44.167  26.912  28.034  1.00  0.00     0.074 A 
ATOM     58  C   UNL A   1      43.563  31.171  32.798  1.00  0.00     0.029 A 
ATOM     59  N   UNL A   1      44.469  29.252  32.242  1.00  0.00    -0.354 N 
ATOM     60  N   UNL A   1      44.874  28.007  28.086  1.00  0.00    -0.248 NA
ATOM     61  C   UNL A   1      44.076  26.170  29.283  1.00  0.00     0.031 C 
ATOM     62  C   UNL A   1      44.377  31.342  31.640  1.00  0.00     0.029 A 
ATOM     63  C   UNL A   1      44.714  30.072  31.171  1.00  0.00     0.049 A 
ATOM     64  H   UNL A   1      44.950  28.422  32.464  1.00  0.00     0.167 HD
ATOM     65  C   UNL A   1      44.967  28.306  29.438  1.00  0.00     0.074 A 
ATOM     66  C   UNL A   1      44.553  27.089  30.127  1.00  0.00     0.031 C 
ATOM     67  C   UNL A   1      45.100  29.595  29.865  1.00  0.00     0.037 A 
BRANCH  54  68
ATOM     68  C   UNL A   1      42.601  27.790  34.344  1.00  0.00     0.064 A 
ATOM     69  C   UNL A   1      43.126  26.582  33.847  1.00  0.00     0.173 A 
ATOM     70  C   UNL A   1      42.052  27.730  35.645  1.00  0.00     0.173 A 
ATOM     71  F   UNL A   1      43.647  26.520  32.613  1.00  0.00    -0.203 F 
ATOM     72  C   UNL A   1      43.040  25.391  34.572  1.00  0.00     0.198 A 
ATOM     73  C   UNL A   1      42.022  26.552  36.387  1.00  0.00     0.198 A 
ATOM     74  F   UNL A   1      41.423  28.770  36.204  1.00  0.00    -0.203 F 
ATOM     75  F   UNL A   1      43.436  24.242  34.009  1.00  0.00    -0.200 F 
ATOM     76  C   UNL A   1      42.485  25.375  35.839  1.00  0.00     0.200 A 
ATOM     77  F   UNL A   1      41.460  26.555  37.605  1.00  0.00    -0.200 F 
ATOM     78  F   UNL A   1      42.346  24.225  36.509  1.00  0.00    -0.200 F 
ENDBRANCH  54  68
BRANCH  55  79
ATOM     79  C   UNL A   1      43.204  25.353  26.182  1.00  0.00     0.064 A 
ATOM     80  C   UNL A   1      44.236  25.097  25.267  1.00  0.00     0.173 A 
ATOM     81  C   UNL A   1      42.359  24.268  26.491  1.00  0.00     0.173 A 
ATOM     82  F   UNL A   1      45.116  26.060  24.956  1.00  0.00    -0.203 F 
ATOM     83  C   UNL A   1      44.421  23.828  24.707  1.00  0.00     0.198 A 
ATOM     84  C   UNL A   1      42.536  23.006  25.922  1.00  0.00     0.198 A 
ATOM     85  F   UNL A   1      41.402  24.381  27.423  1.00  0.00    -0.203 F 
ATOM     86  F   UNL A   1      45.454  23.605  23.883  1.00  0.00    -0.200 F 
ATOM     87  C   UNL A   1      43.575  22.783  25.040  1.00  0.00     0.200 A 
ATOM     88  F   UNL A   1      41.731  21.997  26.282  1.00  0.00    -0.200 F 
ATOM     89  F   UNL A   1      43.784  21.555  24.545  1.00  0.00    -0.200 F 
ENDBRANCH  55  79
BRANCH  67  90
ATOM     90  C   UNL A   1      45.409  30.640  28.830  1.00  0.00     0.064 A 
ATOM     91  C   UNL A   1      44.421  31.311  28.089  1.00  0.00     0.173 A 
ATOM     92  C   UNL A   1      46.730  31.083  28.695  1.00  0.00     0.173 A 
ATOM     93  F   UNL A   1      43.126  31.017  28.244  1.00  0.00    -0.203 F 
ATOM     94  C   UNL A   1      44.750  32.349  27.219  1.00  0.00     0.198 A 
ATOM     95  C   UNL A   1      47.051  32.145  27.854  1.00  0.00     0.198 A 
ATOM     96  F   UNL A   1      47.706  30.522  29.426  1.00  0.00    -0.203 F 
ATOM     97  F   UNL A   1      43.788  32.968  26.517  1.00  0.00    -0.200 F 
ATOM     98  C   UNL A   1      46.063  32.770  27.108  1.00  0.00     0.200 A 
ATOM     99  F   UNL A   1      48.315  32.585  27.789  1.00  0.00    -0.200 F 
ATOM    100  F   UNL A   1      46.375  33.800  26.307  1.00  0.00    -0.200 F 
ENDBRANCH  67  90
ENDBRANCH  41  42
ENDBRANCH  34  36
ENDBRANCH  33  34
ENDBRANCH  32  33
ENDBRANCH   1  32
TORSDOF 14
ENDMDL
MODEL 3
REMARK VINA RESULT:     -12.9      1.893      6.445
REMARK SMILES CC1=C(C(=O)Nc2ccccc2)[C@@H](c2ccc(C(=O)OCCOC(=O)c3ccc(-c4c5nc(c(-c6c(F)c(F)c(F)c(F)c6F)c6ccc([nH]6)c(-c6c(F)c(F)c(F)c(F)c6F)c6nc(c(-c7c(F)c(F)c(F)c(F)c7F)c7ccc4[nH]7)C=C6)C=C5)cc3)cc2)n2ncnc2N1
REMARK SMILES IDX 21 1 20 2 18 3 19 4 17 5 14 6 15 7 90 8 16 9 89 10 13 11
REMARK SMILES IDX 1 12 2 13 3 14 96 15 95 16 91 18 94 19 92 20 93 21 4 22 5 23
REMARK SMILES IDX 6 24 7 26 8 27 12 28 9 29 11 30 10 31 22 32 23 33 24 34
REMARK SMILES IDX 25 35 26 36 27 37 88 38 28 39 87 40 29 41 30 42 31 43 81 44
REMARK SMILES IDX 32 45 86 46 80 47 82 48 33 49 85 50 79 51 78 52 34 54 66 55
REMARK SMILES IDX 46 56 65 57 47 58 50 59 64 60 83 61 48 62 49 63 63 65 84 66
REMARK SMILES IDX 51 67 35 68 36 69 44 70 37 71 38 72 42 73 45 74 39 75 40 76
REMARK SMILES IDX 43 77 41 78 67 79 68 80 76 81 69 82 70 83 74 84 77 85 71 86
REMARK SMILES IDX 72 87 75 88 73 89 52 90 53 91 61 92 54 93 55 94 59 95 62 96
REMARK SMILES IDX 56 97 57 98 60 99 58 100
REMARK H PARENT 96 17 6 25 82 53 50 64
REMARK Flexibility Score: inf
ROOT
ATOM      1  C   UNL A   1      37.472  20.241  25.074  1.00  0.00     0.275 C 
ENDROOT
BRANCH   1   2
ATOM      2  O   UNL A   1      37.426  21.466  24.324  1.00  0.00    -0.458 OA
BRANCH   2   3
ATOM      3  C   UNL A   1      37.229  22.600  25.044  1.00  0.00     0.338 C 
ATOM      4  O   UNL A   1      38.062  23.162  25.744  1.00  0.00    -0.246 OA
BRANCH   3   5
ATOM      5  C   UNL A   1      35.876  23.158  24.785  1.00  0.00     0.060 A 
ATOM      6  C   UNL A   1      33.270  24.162  24.445  1.00  0.00    -0.019 A 
ATOM      7  C   UNL A   1      34.080  24.649  25.479  1.00  0.00     0.007 A 
ATOM      8  C   UNL A   1      33.817  23.233  23.535  1.00  0.00     0.007 A 
ATOM      9  C   UNL A   1      35.373  24.143  25.650  1.00  0.00     0.016 A 
ATOM     10  C   UNL A   1      35.106  22.733  23.702  1.00  0.00     0.016 A 
BRANCH   6  11
ATOM     11  C   UNL A   1      31.776  24.447  24.363  1.00  0.00     0.179 C 
ATOM     12  C   UNL A   1      29.211  27.359  24.013  1.00  0.00     0.065 C 
ATOM     13  C   UNL A   1      30.097  26.274  24.577  1.00  0.00     0.026 C 
ATOM     14  C   UNL A   1      31.295  25.877  24.063  1.00  0.00     0.065 C 
ATOM     15  N   UNL A   1      29.517  25.578  25.633  1.00  0.00    -0.328 N 
ATOM     16  C   UNL A   1      30.006  24.434  26.131  1.00  0.00     0.226 A 
ATOM     17  H   UNL A   1      28.700  25.949  26.037  1.00  0.00     0.169 HD
ATOM     18  N   UNL A   1      31.098  23.870  25.537  1.00  0.00    -0.219 N 
ATOM     19  N   UNL A   1      29.592  23.673  27.111  1.00  0.00    -0.200 NA
ATOM     20  N   UNL A   1      31.369  22.660  26.075  1.00  0.00    -0.157 NA
ATOM     21  C   UNL A   1      30.451  22.608  27.045  1.00  0.00     0.248 A 
BRANCH  14  22
ATOM     22  C   UNL A   1      32.033  26.552  22.958  1.00  0.00     0.255 C 
ATOM     23  O   UNL A   1      31.907  26.112  21.812  1.00  0.00    -0.269 OA
ATOM     24  N   UNL A   1      32.803  27.670  23.129  1.00  0.00    -0.322 N 
ATOM     25  H   UNL A   1      33.236  27.986  22.303  1.00  0.00     0.170 HD
BRANCH  24  26
ATOM     26  C   UNL A   1      33.092  28.451  24.257  1.00  0.00     0.041 A 
ATOM     27  C   UNL A   1      32.155  29.445  24.574  1.00  0.00     0.026 A 
ATOM     28  C   UNL A   1      34.176  28.231  25.108  1.00  0.00     0.026 A 
ATOM     29  C   UNL A   1      32.220  30.109  25.799  1.00  0.00     0.002 A 
ATOM     30  C   UNL A   1      34.262  28.933  26.316  1.00  0.00     0.002 A 
ATOM     31  C   UNL A   1      33.266  29.842  26.677  1.00  0.00     0.000 A 
ENDBRANCH  24  26
ENDBRANCH  14  22
ENDBRANCH   6  11
ENDBRANCH   3   5
ENDBRANCH   2   3
ENDBRANCH   1   2
BRANCH   1  32
ATOM     32  C   UNL A   1      38.834  19.572  24.943  1.00  0.00     0.275 C 
BRANCH  32  33
ATOM     33  O   UNL A   1      39.631  19.788  26.106  1.00  0.00    -0.458 OA
BRANCH  33  34
ATOM     34  C   UNL A   1      40.957  19.579  25.942  1.00  0.00     0.338 C 
ATOM     35  O   UNL A   1      41.502  18.582  25.502  1.00  0.00    -0.246 OA
BRANCH  34  36
ATOM     36  C   UNL A   1      41.696  20.663  26.596  1.00  0.00     0.060 A 
ATOM     37  C   UNL A   1      41.684  20.696  27.995  1.00  0.00     0.016 A 
ATOM     38  C   UNL A   1      42.112  21.763  25.834  1.00  0.00     0.016 A 
ATOM     39  C   UNL A   1      41.920  21.898  28.628  1.00  0.00     0.010 A 
ATOM     40  C   UNL A   1      42.329  22.964  26.464  1.00  0.00     0.010 A 
ATOM     41  C   UNL A   1      42.156  23.032  27.845  1.00  0.00    -0.014 A 
BRANCH  41  42
ATOM     42  C   UNL A   1      42.261  24.317  28.504  1.00  0.00     0.031 A 
ATOM     43  C   UNL A   1      41.121  25.232  28.256  1.00  0.00     0.074 A 
ATOM     44  C   UNL A   1      43.234  24.559  29.402  1.00  0.00     0.049 A 
ATOM     45  N   UNL A   1      41.143  26.448  27.823  1.00  0.00    -0.248 NA
ATOM     46  C   UNL A   1      39.767  24.679  28.435  1.00  0.00     0.031 C 
ATOM     47  C   UNL A   1      44.218  23.613  29.941  1.00  0.00     0.029 A 
ATOM     48  N   UNL A   1      43.466  25.687  30.124  1.00  0.00    -0.354 N 
ATOM     49  C   UNL A   1      39.817  26.871  27.826  1.00  0.00     0.074 A 
ATOM     50  C   UNL A   1      39.007  25.710  28.075  1.00  0.00     0.031 C 
ATOM     51  C   UNL A   1      44.783  24.144  31.048  1.00  0.00     0.029 A 
ATOM     52  C   UNL A   1      44.288  25.498  31.222  1.00  0.00     0.049 A 
ATOM     53  H   UNL A   1      43.082  26.563  29.886  1.00  0.00     0.167 HD
ATOM     54  C   UNL A   1      39.491  28.190  27.855  1.00  0.00     0.037 A 
ATOM     55  C   UNL A   1      44.469  26.368  32.246  1.00  0.00     0.037 A 
ATOM     56  C   UNL A   1      40.565  29.015  27.372  1.00  0.00     0.049 A 
ATOM     57  C   UNL A   1      44.012  27.703  31.782  1.00  0.00     0.074 A 
ATOM     58  C   UNL A   1      41.237  29.119  26.170  1.00  0.00     0.029 A 
ATOM     59  N   UNL A   1      41.339  29.682  28.288  1.00  0.00    -0.354 N 
ATOM     60  N   UNL A   1      44.614  28.406  30.862  1.00  0.00    -0.248 NA
ATOM     61  C   UNL A   1      42.633  28.082  32.052  1.00  0.00     0.031 C 
ATOM     62  C   UNL A   1      42.584  29.425  26.521  1.00  0.00     0.029 A 
ATOM     63  C   UNL A   1      42.646  29.517  27.912  1.00  0.00     0.049 A 
ATOM     64  H   UNL A   1      41.014  30.187  29.069  1.00  0.00     0.167 HD
ATOM     65  C   UNL A   1      43.588  29.026  30.162  1.00  0.00     0.074 A 
ATOM     66  C   UNL A   1      42.406  28.875  31.003  1.00  0.00     0.031 C 
ATOM     67  C   UNL A   1      43.735  29.351  28.845  1.00  0.00     0.037 A 
BRANCH  54  68
ATOM     68  C   UNL A   1      38.337  28.734  28.657  1.00  0.00     0.064 A 
ATOM     69  C   UNL A   1      37.490  29.699  28.079  1.00  0.00     0.173 A 
ATOM     70  C   UNL A   1      38.211  28.569  30.055  1.00  0.00     0.173 A 
ATOM     71  F   UNL A   1      37.545  29.956  26.763  1.00  0.00    -0.203 F 
ATOM     72  C   UNL A   1      36.636  30.486  28.855  1.00  0.00     0.198 A 
ATOM     73  C   UNL A   1      37.316  29.316  30.816  1.00  0.00     0.198 A 
ATOM     74  F   UNL A   1      39.023  27.768  30.756  1.00  0.00    -0.203 F 
ATOM     75  F   UNL A   1      35.942  31.478  28.280  1.00  0.00    -0.200 F 
ATOM     76  C   UNL A   1      36.552  30.297  30.223  1.00  0.00     0.200 A 
ATOM     77  F   UNL A   1      37.266  29.131  32.144  1.00  0.00    -0.200 F 
ATOM     78  F   UNL A   1      35.781  31.091  30.975  1.00  0.00    -0.200 F 
ENDBRANCH  54  68
BRANCH  55  79
ATOM     79  C   UNL A   1      44.705  26.052  33.674  1.00  0.00     0.064 A 
ATOM     80  C   UNL A   1      43.642  25.720  34.528  1.00  0.00     0.173 A 
ATOM     81  C   UNL A   1      46.003  25.821  34.173  1.00  0.00     0.173 A 
ATOM     82  F   UNL A   1      42.375  25.860  34.113  1.00  0.00    -0.203 F 
ATOM     83  C   UNL A   1      43.865  25.176  35.798  1.00  0.00     0.198 A 
ATOM     84  C   UNL A   1      46.224  25.291  35.445  1.00  0.00     0.198 A 
ATOM     85  F   UNL A   1      47.083  26.015  33.404  1.00  0.00    -0.203 F 
ATOM     86  F   UNL A   1      42.825  24.815  36.562  1.00  0.00    -0.200 F 
ATOM     87  C   UNL A   1      45.155  24.956  36.252  1.00  0.00     0.200 A 
ATOM     88  F   UNL A   1      47.478  25.052  35.855  1.00  0.00    -0.200 F 
ATOM     89  F   UNL A   1      45.368  24.386  37.447  1.00  0.00    -0.200 F 
ENDBRANCH  55  79
BRANCH  67  90
ATOM     90  C   UNL A   1      45.116  29.265  28.259  1.00  0.00     0.064 A 
ATOM     91  C   UNL A   1      45.645  28.092  27.691  1.00  0.00     0.173 A 
ATOM     92  C   UNL A   1      45.867  30.440  28.129  1.00  0.00     0.173 A 
ATOM     93  F   UNL A   1      44.941  26.955  27.680  1.00  0.00    -0.203 F 
ATOM     94  C   UNL A   1      46.889  28.090  27.063  1.00  0.00     0.198 A 
ATOM     95  C   UNL A   1      47.092  30.442  27.468  1.00  0.00     0.198 A 
ATOM     96  F   UNL A   1      45.383  31.602  28.596  1.00  0.00    -0.203 F 
ATOM     97  F   UNL A   1      47.373  26.955  26.536  1.00  0.00    -0.200 F 
ATOM     98  C   UNL A   1      47.607  29.266  26.945  1.00  0.00     0.200 A 
ATOM     99  F   UNL A   1      47.761  31.593  27.309  1.00  0.00    -0.200 F 
ATOM    100  F   UNL A   1      48.783  29.275  26.299  1.00  0.00    -0.200 F 
ENDBRANCH  67  90
ENDBRANCH  41  42
ENDBRANCH  34  36
ENDBRANCH  33  34
ENDBRANCH  32  33
ENDBRANCH   1  32
TORSDOF 14
ENDMDL
