MODEL 1
REMARK VINA RESULT:     -11.2      0.000      0.000
REMARK SMILES COc1ccc(CSc2ncccc2C(=O)OCCOC(=O)c2ccc(-c3c4nc(c(-c5c(F)c(F)c(F)c(F)c5F)c5ccc([nH]5)c(-c5c(F)c(F)c(F)c(F)c5F)c5nc(c(-c6c(F)c(F)c(F)c(F)c6F)c6ccc3[nH]6)C=C5)C=C4)cc2)cc1
REMARK SMILES IDX 18 1 17 2 15 3 16 4 14 5 9 6 10 7 11 8 13 9 12 10 8 11 7 12
REMARK SMILES IDX 6 13 3 14 4 15 87 16 5 17 86 18 2 19 1 20 19 21 20 22 21 23
REMARK SMILES IDX 22 24 23 25 24 26 85 27 25 28 84 29 26 30 27 31 28 32 78 33
REMARK SMILES IDX 29 34 83 35 77 36 79 37 30 38 82 39 76 40 75 41 31 43 63 44
REMARK SMILES IDX 43 45 62 46 44 47 47 48 61 49 80 50 45 51 46 52 60 54 81 55
REMARK SMILES IDX 48 56 32 57 33 58 41 59 34 60 35 61 39 62 42 63 36 64 37 65
REMARK SMILES IDX 40 66 38 67 64 68 65 69 73 70 66 71 67 72 71 73 74 74 68 75
REMARK SMILES IDX 69 76 72 77 70 78 49 79 50 80 58 81 51 82 52 83 56 84 59 85
REMARK SMILES IDX 53 86 54 87 57 88 55 89
REMARK H PARENT 79 42 47 53
REMARK Flexibility Score: inf
ROOT
ATOM      1  C   UNL A   1      31.917  29.454  25.225  1.00  0.00     0.275 C 
ENDROOT
BRANCH   1   2
ATOM      2  O   UNL A   1      32.618  28.535  26.103  1.00  0.00    -0.458 OA
BRANCH   2   3
ATOM      3  C   UNL A   1      31.834  27.651  26.770  1.00  0.00     0.341 C 
ATOM      4  O   UNL A   1      31.423  27.780  27.917  1.00  0.00    -0.246 OA
BRANCH   3   5
ATOM      5  C   UNL A   1      31.543  26.445  25.953  1.00  0.00     0.092 A 
ATOM      6  C   UNL A   1      30.243  25.899  26.020  1.00  0.00     0.111 A 
ATOM      7  N   UNL A   1      30.044  24.635  26.500  1.00  0.00    -0.249 NA
ATOM      8  C   UNL A   1      31.126  23.826  26.591  1.00  0.00     0.112 A 
ATOM      9  C   UNL A   1      32.632  25.561  25.987  1.00  0.00     0.020 A 
ATOM     10  C   UNL A   1      32.414  24.217  26.267  1.00  0.00     0.021 A 
BRANCH   6  11
ATOM     11  S   UNL A   1      29.266  26.014  24.440  1.00  0.00    -0.101 SA
BRANCH  11  12
ATOM     12  C   UNL A   1      30.263  27.043  23.269  1.00  0.00     0.112 C 
BRANCH  12  13
ATOM     13  C   UNL A   1      29.521  28.295  22.812  1.00  0.00    -0.037 A 
ATOM     14  C   UNL A   1      28.352  30.845  22.499  1.00  0.00     0.118 A 
ATOM     15  C   UNL A   1      27.633  29.805  23.086  1.00  0.00     0.047 A 
ATOM     16  C   UNL A   1      29.586  30.562  21.924  1.00  0.00     0.047 A 
ATOM     17  C   UNL A   1      28.193  28.527  23.196  1.00  0.00     0.008 A 
ATOM     18  C   UNL A   1      30.158  29.295  22.068  1.00  0.00     0.008 A 
BRANCH  14  19
ATOM     19  O   UNL A   1      27.769  32.076  22.598  1.00  0.00    -0.497 OA
ATOM     20  C   UNL A   1      28.616  33.192  22.837  1.00  0.00     0.278 C 
ENDBRANCH  14  19
ENDBRANCH  12  13
ENDBRANCH  11  12
ENDBRANCH   6  11
ENDBRANCH   3   5
ENDBRANCH   2   3
ENDBRANCH   1   2
BRANCH   1  21
ATOM     21  C   UNL A   1      31.852  30.894  25.778  1.00  0.00     0.275 C 
BRANCH  21  22
ATOM     22  O   UNL A   1      32.200  31.015  27.185  1.00  0.00    -0.458 OA
BRANCH  22  23
ATOM     23  C   UNL A   1      33.154  31.943  27.374  1.00  0.00     0.338 C 
ATOM     24  O   UNL A   1      32.981  33.144  27.258  1.00  0.00    -0.246 OA
BRANCH  23  25
ATOM     25  C   UNL A   1      34.517  31.534  27.714  1.00  0.00     0.060 A 
ATOM     26  C   UNL A   1      34.633  30.257  28.282  1.00  0.00     0.016 A 
ATOM     27  C   UNL A   1      35.481  32.511  27.973  1.00  0.00     0.016 A 
ATOM     28  C   UNL A   1      35.674  29.974  29.161  1.00  0.00     0.010 A 
ATOM     29  C   UNL A   1      36.547  32.216  28.834  1.00  0.00     0.010 A 
ATOM     30  C   UNL A   1      36.647  30.948  29.437  1.00  0.00    -0.014 A 
BRANCH  30  31
ATOM     31  C   UNL A   1      37.917  30.517  30.067  1.00  0.00     0.031 A 
ATOM     32  C   UNL A   1      38.943  29.648  29.406  1.00  0.00     0.074 A 
ATOM     33  C   UNL A   1      38.100  30.969  31.320  1.00  0.00     0.049 A 
ATOM     34  N   UNL A   1      40.082  29.217  29.894  1.00  0.00    -0.248 NA
ATOM     35  C   UNL A   1      38.670  29.195  28.035  1.00  0.00     0.031 C 
ATOM     36  C   UNL A   1      37.146  31.821  32.039  1.00  0.00     0.029 A 
ATOM     37  N   UNL A   1      39.122  30.788  32.209  1.00  0.00    -0.354 N 
ATOM     38  C   UNL A   1      40.663  28.439  28.902  1.00  0.00     0.074 A 
ATOM     39  C   UNL A   1      39.741  28.446  27.781  1.00  0.00     0.031 C 
ATOM     40  C   UNL A   1      37.632  32.100  33.250  1.00  0.00     0.029 A 
ATOM     41  C   UNL A   1      38.900  31.403  33.414  1.00  0.00     0.049 A 
ATOM     42  H   UNL A   1      39.933  30.270  32.005  1.00  0.00     0.167 HD
ATOM     43  C   UNL A   1      41.853  27.784  28.940  1.00  0.00     0.037 A 
ATOM     44  C   UNL A   1      39.621  31.393  34.546  1.00  0.00     0.037 A 
ATOM     45  C   UNL A   1      42.751  27.798  30.077  1.00  0.00     0.049 A 
ATOM     46  C   UNL A   1      40.916  30.649  34.560  1.00  0.00     0.074 A 
ATOM     47  C   UNL A   1      44.001  27.214  30.199  1.00  0.00     0.029 A 
ATOM     48  N   UNL A   1      42.486  28.414  31.294  1.00  0.00    -0.354 N 
ATOM     49  N   UNL A   1      41.474  29.951  33.601  1.00  0.00    -0.248 NA
ATOM     50  C   UNL A   1      41.685  30.696  35.807  1.00  0.00     0.031 C 
ATOM     51  C   UNL A   1      44.463  27.423  31.504  1.00  0.00     0.029 A 
ATOM     52  C   UNL A   1      43.533  28.193  32.180  1.00  0.00     0.049 A 
ATOM     53  H   UNL A   1      41.674  28.933  31.498  1.00  0.00     0.167 HD
ATOM     54  C   UNL A   1      42.668  29.481  34.122  1.00  0.00     0.074 A 
ATOM     55  C   UNL A   1      42.762  29.999  35.474  1.00  0.00     0.031 C 
ATOM     56  C   UNL A   1      43.599  28.692  33.532  1.00  0.00     0.037 A 
BRANCH  43  57
ATOM     57  C   UNL A   1      42.272  26.973  27.740  1.00  0.00     0.064 A 
ATOM     58  C   UNL A   1      43.143  27.482  26.766  1.00  0.00     0.173 A 
ATOM     59  C   UNL A   1      41.888  25.626  27.627  1.00  0.00     0.173 A 
ATOM     60  F   UNL A   1      43.551  28.759  26.826  1.00  0.00    -0.203 F 
ATOM     61  C   UNL A   1      43.602  26.681  25.719  1.00  0.00     0.198 A 
ATOM     62  C   UNL A   1      42.369  24.820  26.594  1.00  0.00     0.198 A 
ATOM     63  F   UNL A   1      41.073  25.075  28.537  1.00  0.00    -0.203 F 
ATOM     64  F   UNL A   1      44.416  27.198  24.789  1.00  0.00    -0.200 F 
ATOM     65  C   UNL A   1      43.222  25.349  25.640  1.00  0.00     0.200 A 
ATOM     66  F   UNL A   1      42.020  23.528  26.535  1.00  0.00    -0.200 F 
ATOM     67  F   UNL A   1      43.681  24.577  24.646  1.00  0.00    -0.200 F 
ENDBRANCH  43  57
BRANCH  44  68
ATOM     68  C   UNL A   1      39.107  32.128  35.725  1.00  0.00     0.064 A 
ATOM     69  C   UNL A   1      38.332  31.481  36.693  1.00  0.00     0.173 A 
ATOM     70  C   UNL A   1      39.467  33.465  35.955  1.00  0.00     0.173 A 
ATOM     71  F   UNL A   1      37.960  30.206  36.512  1.00  0.00    -0.203 F 
ATOM     72  C   UNL A   1      37.933  32.145  37.850  1.00  0.00     0.198 A 
ATOM     73  C   UNL A   1      39.098  34.116  37.127  1.00  0.00     0.198 A 
ATOM     74  F   UNL A   1      40.230  34.119  35.065  1.00  0.00    -0.203 F 
ATOM     75  F   UNL A   1      37.173  31.512  38.753  1.00  0.00    -0.200 F 
ATOM     76  C   UNL A   1      38.327  33.457  38.071  1.00  0.00     0.200 A 
ATOM     77  F   UNL A   1      39.507  35.373  37.350  1.00  0.00    -0.200 F 
ATOM     78  F   UNL A   1      37.967  34.086  39.199  1.00  0.00    -0.200 F 
ENDBRANCH  44  68
BRANCH  56  79
ATOM     79  C   UNL A   1      44.802  28.352  34.362  1.00  0.00     0.064 A 
ATOM     80  C   UNL A   1      45.942  29.170  34.372  1.00  0.00     0.173 A 
ATOM     81  C   UNL A   1      44.822  27.188  35.144  1.00  0.00     0.173 A 
ATOM     82  F   UNL A   1      45.980  30.283  33.622  1.00  0.00    -0.203 F 
ATOM     83  C   UNL A   1      47.072  28.815  35.102  1.00  0.00     0.198 A 
ATOM     84  C   UNL A   1      45.942  26.852  35.899  1.00  0.00     0.198 A 
ATOM     85  F   UNL A   1      43.758  26.371  35.170  1.00  0.00    -0.203 F 
ATOM     86  F   UNL A   1      48.173  29.577  35.043  1.00  0.00    -0.200 F 
ATOM     87  C   UNL A   1      47.069  27.659  35.869  1.00  0.00     0.200 A 
ATOM     88  F   UNL A   1      45.936  25.739  36.646  1.00  0.00    -0.200 F 
ATOM     89  F   UNL A   1      48.160  27.316  36.568  1.00  0.00    -0.200 F 
ENDBRANCH  56  79
ENDBRANCH  30  31
ENDBRANCH  23  25
ENDBRANCH  22  23
ENDBRANCH  21  22
ENDBRANCH   1  21
TORSDOF 15
ENDMDL
MODEL 2
REMARK VINA RESULT:     -11.2      5.719      9.337
REMARK SMILES COc1ccc(CSc2ncccc2C(=O)OCCOC(=O)c2ccc(-c3c4nc(c(-c5c(F)c(F)c(F)c(F)c5F)c5ccc([nH]5)c(-c5c(F)c(F)c(F)c(F)c5F)c5nc(c(-c6c(F)c(F)c(F)c(F)c6F)c6ccc3[nH]6)C=C5)C=C4)cc2)cc1
REMARK SMILES IDX 18 1 17 2 15 3 16 4 14 5 9 6 10 7 11 8 13 9 12 10 8 11 7 12
REMARK SMILES IDX 6 13 3 14 4 15 87 16 5 17 86 18 2 19 1 20 19 21 20 22 21 23
REMARK SMILES IDX 22 24 23 25 24 26 85 27 25 28 84 29 26 30 27 31 28 32 78 33
REMARK SMILES IDX 29 34 83 35 77 36 79 37 30 38 82 39 76 40 75 41 31 43 63 44
REMARK SMILES IDX 43 45 62 46 44 47 47 48 61 49 80 50 45 51 46 52 60 54 81 55
REMARK SMILES IDX 48 56 32 57 33 58 41 59 34 60 35 61 39 62 42 63 36 64 37 65
REMARK SMILES IDX 40 66 38 67 64 68 65 69 73 70 66 71 67 72 71 73 74 74 68 75
REMARK SMILES IDX 69 76 72 77 70 78 49 79 50 80 58 81 51 82 52 83 56 84 59 85
REMARK SMILES IDX 53 86 54 87 57 88 55 89
REMARK H PARENT 79 42 47 53
REMARK Flexibility Score: inf
ROOT
ATOM      1  C   UNL A   1      40.698  20.821  26.184  1.00  0.00     0.275 C 
ENDROOT
BRANCH   1   2
ATOM      2  O   UNL A   1      41.642  21.636  26.927  1.00  0.00    -0.458 OA
BRANCH   2   3
ATOM      3  C   UNL A   1      42.489  22.381  26.174  1.00  0.00     0.341 C 
ATOM      4  O   UNL A   1      42.732  22.211  24.985  1.00  0.00    -0.246 OA
BRANCH   3   5
ATOM      5  C   UNL A   1      43.151  23.443  26.974  1.00  0.00     0.092 A 
ATOM      6  C   UNL A   1      44.559  23.522  26.934  1.00  0.00     0.111 A 
ATOM      7  N   UNL A   1      45.300  23.328  28.066  1.00  0.00    -0.249 NA
ATOM      8  C   UNL A   1      44.650  23.390  29.252  1.00  0.00     0.112 A 
ATOM      9  C   UNL A   1      42.518  23.576  28.220  1.00  0.00     0.020 A 
ATOM     10  C   UNL A   1      43.286  23.595  29.379  1.00  0.00     0.021 A 
BRANCH   6  11
ATOM     11  S   UNL A   1      45.232  25.062  26.132  1.00  0.00    -0.101 SA
BRANCH  11  12
ATOM     12  C   UNL A   1      43.788  26.178  25.825  1.00  0.00     0.112 C 
BRANCH  12  13
ATOM     13  C   UNL A   1      44.079  27.628  26.199  1.00  0.00    -0.037 A 
ATOM     14  C   UNL A   1      44.461  30.125  27.457  1.00  0.00     0.118 A 
ATOM     15  C   UNL A   1      43.234  29.806  26.876  1.00  0.00     0.047 A 
ATOM     16  C   UNL A   1      45.536  29.265  27.262  1.00  0.00     0.047 A 
ATOM     17  C   UNL A   1      43.059  28.589  26.208  1.00  0.00     0.008 A 
ATOM     18  C   UNL A   1      45.348  28.035  26.627  1.00  0.00     0.008 A 
BRANCH  14  19
ATOM     19  O   UNL A   1      44.460  31.259  28.218  1.00  0.00    -0.497 OA
ATOM     20  C   UNL A   1      44.150  32.488  27.574  1.00  0.00     0.278 C 
ENDBRANCH  14  19
ENDBRANCH  12  13
ENDBRANCH  11  12
ENDBRANCH   6  11
ENDBRANCH   3   5
ENDBRANCH   2   3
ENDBRANCH   1   2
BRANCH   1  21
ATOM     21  C   UNL A   1      39.269  21.409  26.163  1.00  0.00     0.275 C 
BRANCH  21  22
ATOM     22  O   UNL A   1      39.159  22.697  25.496  1.00  0.00    -0.458 OA
BRANCH  22  23
ATOM     23  C   UNL A   1      38.554  23.604  26.283  1.00  0.00     0.338 C 
ATOM     24  O   UNL A   1      37.346  23.717  26.404  1.00  0.00    -0.246 OA
BRANCH  23  25
ATOM     25  C   UNL A   1      39.355  24.562  27.045  1.00  0.00     0.060 A 
ATOM     26  C   UNL A   1      38.965  24.738  28.381  1.00  0.00     0.016 A 
ATOM     27  C   UNL A   1      40.033  25.580  26.368  1.00  0.00     0.016 A 
ATOM     28  C   UNL A   1      39.192  25.953  29.021  1.00  0.00     0.010 A 
ATOM     29  C   UNL A   1      40.289  26.791  27.024  1.00  0.00     0.010 A 
ATOM     30  C   UNL A   1      39.866  26.987  28.352  1.00  0.00    -0.014 A 
BRANCH  30  31
ATOM     31  C   UNL A   1      40.411  28.107  29.154  1.00  0.00     0.031 A 
ATOM     32  C   UNL A   1      41.800  28.155  29.716  1.00  0.00     0.074 A 
ATOM     33  C   UNL A   1      39.549  29.119  29.359  1.00  0.00     0.049 A 
ATOM     34  N   UNL A   1      42.353  29.099  30.439  1.00  0.00    -0.248 NA
ATOM     35  C   UNL A   1      42.682  27.011  29.449  1.00  0.00     0.031 C 
ATOM     36  C   UNL A   1      38.175  29.150  28.846  1.00  0.00     0.029 A 
ATOM     37  N   UNL A   1      39.680  30.299  30.036  1.00  0.00    -0.354 N 
ATOM     38  C   UNL A   1      43.644  28.670  30.721  1.00  0.00     0.074 A 
ATOM     39  C   UNL A   1      43.788  27.366  30.099  1.00  0.00     0.031 C 
ATOM     40  C   UNL A   1      37.594  30.294  29.214  1.00  0.00     0.029 A 
ATOM     41  C   UNL A   1      38.532  31.048  30.032  1.00  0.00     0.049 A 
ATOM     42  H   UNL A   1      40.511  30.581  30.480  1.00  0.00     0.167 HD
ATOM     43  C   UNL A   1      44.603  29.313  31.436  1.00  0.00     0.037 A 
ATOM     44  C   UNL A   1      38.246  32.210  30.642  1.00  0.00     0.037 A 
ATOM     45  C   UNL A   1      44.425  30.616  32.045  1.00  0.00     0.049 A 
ATOM     46  C   UNL A   1      39.318  32.882  31.436  1.00  0.00     0.074 A 
ATOM     47  C   UNL A   1      45.348  31.378  32.743  1.00  0.00     0.029 A 
ATOM     48  N   UNL A   1      43.240  31.342  32.042  1.00  0.00    -0.354 N 
ATOM     49  N   UNL A   1      40.546  32.485  31.660  1.00  0.00    -0.248 NA
ATOM     50  C   UNL A   1      38.969  34.165  32.053  1.00  0.00     0.031 C 
ATOM     51  C   UNL A   1      44.707  32.530  33.213  1.00  0.00     0.029 A 
ATOM     52  C   UNL A   1      43.400  32.523  32.755  1.00  0.00     0.049 A 
ATOM     53  H   UNL A   1      42.407  31.060  31.597  1.00  0.00     0.167 HD
ATOM     54  C   UNL A   1      41.126  33.473  32.437  1.00  0.00     0.074 A 
ATOM     55  C   UNL A   1      40.118  34.501  32.621  1.00  0.00     0.031 C 
ATOM     56  C   UNL A   1      42.379  33.523  32.952  1.00  0.00     0.037 A 
BRANCH  43  57
ATOM     57  C   UNL A   1      45.935  28.635  31.634  1.00  0.00     0.064 A 
ATOM     58  C   UNL A   1      46.110  27.595  32.558  1.00  0.00     0.173 A 
ATOM     59  C   UNL A   1      47.022  28.953  30.802  1.00  0.00     0.173 A 
ATOM     60  F   UNL A   1      45.105  27.240  33.374  1.00  0.00    -0.203 F 
ATOM     61  C   UNL A   1      47.322  26.910  32.652  1.00  0.00     0.198 A 
ATOM     62  C   UNL A   1      48.224  28.249  30.881  1.00  0.00     0.198 A 
ATOM     63  F   UNL A   1      46.911  29.925  29.885  1.00  0.00    -0.203 F 
ATOM     64  F   UNL A   1      47.470  25.934  33.560  1.00  0.00    -0.200 F 
ATOM     65  C   UNL A   1      48.374  27.231  31.808  1.00  0.00     0.200 A 
ATOM     66  F   UNL A   1      49.229  28.546  30.046  1.00  0.00    -0.200 F 
ATOM     67  F   UNL A   1      49.530  26.557  31.885  1.00  0.00    -0.200 F 
ENDBRANCH  43  57
BRANCH  44  68
ATOM     68  C   UNL A   1      36.885  32.777  30.492  1.00  0.00     0.064 A 
ATOM     69  C   UNL A   1      35.934  32.641  31.507  1.00  0.00     0.173 A 
ATOM     70  C   UNL A   1      36.547  33.552  29.371  1.00  0.00     0.173 A 
ATOM     71  F   UNL A   1      36.213  31.904  32.593  1.00  0.00    -0.203 F 
ATOM     72  C   UNL A   1      34.690  33.258  31.409  1.00  0.00     0.198 A 
ATOM     73  C   UNL A   1      35.318  34.197  29.290  1.00  0.00     0.198 A 
ATOM     74  F   UNL A   1      37.437  33.730  28.383  1.00  0.00    -0.203 F 
ATOM     75  F   UNL A   1      33.786  33.096  32.384  1.00  0.00    -0.200 F 
ATOM     76  C   UNL A   1      34.388  34.046  30.307  1.00  0.00     0.200 A 
ATOM     77  F   UNL A   1      35.043  34.982  28.239  1.00  0.00    -0.200 F 
ATOM     78  F   UNL A   1      33.201  34.663  30.227  1.00  0.00    -0.200 F 
ENDBRANCH  44  68
BRANCH  56  79
ATOM     79  C   UNL A   1      42.717  34.741  33.760  1.00  0.00     0.064 A 
ATOM     80  C   UNL A   1      43.183  35.917  33.154  1.00  0.00     0.173 A 
ATOM     81  C   UNL A   1      42.589  34.727  35.157  1.00  0.00     0.173 A 
ATOM     82  F   UNL A   1      43.344  35.972  31.823  1.00  0.00    -0.203 F 
ATOM     83  C   UNL A   1      43.545  37.022  33.919  1.00  0.00     0.198 A 
ATOM     84  C   UNL A   1      42.922  35.845  35.917  1.00  0.00     0.198 A 
ATOM     85  F   UNL A   1      42.148  33.628  35.786  1.00  0.00    -0.203 F 
ATOM     86  F   UNL A   1      44.051  38.111  33.324  1.00  0.00    -0.200 F 
ATOM     87  C   UNL A   1      43.410  36.986  35.299  1.00  0.00     0.200 A 
ATOM     88  F   UNL A   1      42.783  35.813  37.250  1.00  0.00    -0.200 F 
ATOM     89  F   UNL A   1      43.764  38.049  36.035  1.00  0.00    -0.200 F 
ENDBRANCH  56  79
ENDBRANCH  30  31
ENDBRANCH  23  25
ENDBRANCH  22  23
ENDBRANCH  21  22
ENDBRANCH   1  21
TORSDOF 15
ENDMDL
MODEL 3
REMARK VINA RESULT:     -11.2      4.990     10.299
REMARK SMILES COc1ccc(CSc2ncccc2C(=O)OCCOC(=O)c2ccc(-c3c4nc(c(-c5c(F)c(F)c(F)c(F)c5F)c5ccc([nH]5)c(-c5c(F)c(F)c(F)c(F)c5F)c5nc(c(-c6c(F)c(F)c(F)c(F)c6F)c6ccc3[nH]6)C=C5)C=C4)cc2)cc1
REMARK SMILES IDX 18 1 17 2 15 3 16 4 14 5 9 6 10 7 11 8 13 9 12 10 8 11 7 12
REMARK SMILES IDX 6 13 3 14 4 15 87 16 5 17 86 18 2 19 1 20 19 21 20 22 21 23
REMARK SMILES IDX 22 24 23 25 24 26 85 27 25 28 84 29 26 30 27 31 28 32 78 33
REMARK SMILES IDX 29 34 83 35 77 36 79 37 30 38 82 39 76 40 75 41 31 43 63 44
REMARK SMILES IDX 43 45 62 46 44 47 47 48 61 49 80 50 45 51 46 52 60 54 81 55
REMARK SMILES IDX 48 56 32 57 33 58 41 59 34 60 35 61 39 62 42 63 36 64 37 65
REMARK SMILES IDX 40 66 38 67 64 68 65 69 73 70 66 71 67 72 71 73 74 74 68 75
REMARK SMILES IDX 69 76 72 77 70 78 49 79 50 80 58 81 51 82 52 83 56 84 59 85
REMARK SMILES IDX 53 86 54 87 57 88 55 89
REMARK H PARENT 79 42 47 53
REMARK Flexibility Score: inf
ROOT
ATOM      1  C   UNL A   1      39.232  21.351  26.120  1.00  0.00     0.275 C 
ENDROOT
BRANCH   1   2
ATOM      2  O   UNL A   1      38.083  21.755  25.330  1.00  0.00    -0.458 OA
BRANCH   2   3
ATOM      3  C   UNL A   1      37.511  22.931  25.690  1.00  0.00     0.341 C 
ATOM      4  O   UNL A   1      38.090  23.887  26.192  1.00  0.00    -0.246 OA
BRANCH   3   5
ATOM      5  C   UNL A   1      36.047  22.933  25.439  1.00  0.00     0.092 A 
ATOM      6  C   UNL A   1      35.568  22.234  24.311  1.00  0.00     0.111 A 
ATOM      7  N   UNL A   1      34.928  22.898  23.301  1.00  0.00    -0.249 NA
ATOM      8  C   UNL A   1      34.484  24.150  23.564  1.00  0.00     0.112 A 
ATOM      9  C   UNL A   1      35.510  24.202  25.706  1.00  0.00     0.020 A 
ATOM     10  C   UNL A   1      34.677  24.803  24.770  1.00  0.00     0.021 A 
BRANCH   6  11
ATOM     11  S   UNL A   1      34.518  20.747  24.700  1.00  0.00    -0.101 SA
BRANCH  11  12
ATOM     12  C   UNL A   1      33.651  21.109  26.295  1.00  0.00     0.112 C 
BRANCH  12  13
ATOM     13  C   UNL A   1      32.534  22.135  26.134  1.00  0.00    -0.037 A 
ATOM     14  C   UNL A   1      30.914  24.382  25.592  1.00  0.00     0.118 A 
ATOM     15  C   UNL A   1      31.530  24.237  26.835  1.00  0.00     0.047 A 
ATOM     16  C   UNL A   1      30.977  23.327  24.689  1.00  0.00     0.047 A 
ATOM     17  C   UNL A   1      32.292  23.099  27.122  1.00  0.00     0.008 A 
ATOM     18  C   UNL A   1      31.769  22.209  24.964  1.00  0.00     0.008 A 
BRANCH  14  19
ATOM     19  O   UNL A   1      30.340  25.602  25.373  1.00  0.00    -0.497 OA
ATOM     20  C   UNL A   1      29.860  25.882  24.065  1.00  0.00     0.278 C 
ENDBRANCH  14  19
ENDBRANCH  12  13
ENDBRANCH  11  12
ENDBRANCH   6  11
ENDBRANCH   3   5
ENDBRANCH   2   3
ENDBRANCH   1   2
BRANCH   1  21
ATOM     21  C   UNL A   1      39.700  19.910  25.821  1.00  0.00     0.275 C 
BRANCH  21  22
ATOM     22  O   UNL A   1      40.792  19.446  26.663  1.00  0.00    -0.458 OA
BRANCH  22  23
ATOM     23  C   UNL A   1      41.986  19.757  26.129  1.00  0.00     0.338 C 
ATOM     24  O   UNL A   1      42.648  19.005  25.434  1.00  0.00    -0.246 OA
BRANCH  23  25
ATOM     25  C   UNL A   1      42.589  21.063  26.395  1.00  0.00     0.060 A 
ATOM     26  C   UNL A   1      42.535  21.485  27.731  1.00  0.00     0.016 A 
ATOM     27  C   UNL A   1      42.678  21.999  25.362  1.00  0.00     0.016 A 
ATOM     28  C   UNL A   1      42.500  22.843  28.034  1.00  0.00     0.010 A 
ATOM     29  C   UNL A   1      42.675  23.366  25.670  1.00  0.00     0.010 A 
ATOM     30  C   UNL A   1      42.581  23.797  27.007  1.00  0.00    -0.014 A 
BRANCH  30  31
ATOM     31  C   UNL A   1      42.910  25.195  27.368  1.00  0.00     0.031 A 
ATOM     32  C   UNL A   1      41.959  26.152  28.020  1.00  0.00     0.074 A 
ATOM     33  C   UNL A   1      44.165  25.571  27.062  1.00  0.00     0.049 A 
ATOM     34  N   UNL A   1      42.168  27.401  28.363  1.00  0.00    -0.248 NA
ATOM     35  C   UNL A   1      40.606  25.667  28.323  1.00  0.00     0.031 C 
ATOM     36  C   UNL A   1      45.156  24.698  26.424  1.00  0.00     0.029 A 
ATOM     37  N   UNL A   1      44.824  26.755  27.235  1.00  0.00    -0.354 N 
ATOM     38  C   UNL A   1      40.979  27.858  28.917  1.00  0.00     0.074 A 
ATOM     39  C   UNL A   1      40.043  26.751  28.852  1.00  0.00     0.031 C 
ATOM     40  C   UNL A   1      46.299  25.370  26.270  1.00  0.00     0.029 A 
ATOM     41  C   UNL A   1      46.105  26.731  26.745  1.00  0.00     0.049 A 
ATOM     42  H   UNL A   1      44.422  27.543  27.665  1.00  0.00     0.167 HD
ATOM     43  C   UNL A   1      40.710  29.090  29.422  1.00  0.00     0.037 A 
ATOM     44  C   UNL A   1      47.025  27.705  26.661  1.00  0.00     0.037 A 
ATOM     45  C   UNL A   1      41.670  30.175  29.471  1.00  0.00     0.049 A 
ATOM     46  C   UNL A   1      46.691  29.053  27.211  1.00  0.00     0.074 A 
ATOM     47  C   UNL A   1      41.516  31.442  30.011  1.00  0.00     0.029 A 
ATOM     48  N   UNL A   1      42.955  30.126  28.947  1.00  0.00    -0.354 N 
ATOM     49  N   UNL A   1      45.578  29.460  27.769  1.00  0.00    -0.248 NA
ATOM     50  C   UNL A   1      47.740  30.073  27.127  1.00  0.00     0.031 C 
ATOM     51  C   UNL A   1      42.681  32.176  29.757  1.00  0.00     0.029 A 
ATOM     52  C   UNL A   1      43.589  31.350  29.118  1.00  0.00     0.049 A 
ATOM     53  H   UNL A   1      43.359  29.337  28.516  1.00  0.00     0.167 HD
ATOM     54  C   UNL A   1      45.791  30.783  28.115  1.00  0.00     0.074 A 
ATOM     55  C   UNL A   1      47.153  31.099  27.727  1.00  0.00     0.031 C 
ATOM     56  C   UNL A   1      44.936  31.657  28.701  1.00  0.00     0.037 A 
BRANCH  43  57
ATOM     57  C   UNL A   1      39.327  29.368  29.953  1.00  0.00     0.064 A 
ATOM     58  C   UNL A   1      39.005  29.209  31.309  1.00  0.00     0.173 A 
ATOM     59  C   UNL A   1      38.342  29.915  29.113  1.00  0.00     0.173 A 
ATOM     60  F   UNL A   1      39.907  28.700  32.162  1.00  0.00    -0.203 F 
ATOM     61  C   UNL A   1      37.749  29.571  31.800  1.00  0.00     0.198 A 
ATOM     62  C   UNL A   1      37.097  30.300  29.612  1.00  0.00     0.198 A 
ATOM     63  F   UNL A   1      38.595  30.110  27.811  1.00  0.00    -0.203 F 
ATOM     64  F   UNL A   1      37.460  29.387  33.096  1.00  0.00    -0.200 F 
ATOM     65  C   UNL A   1      36.801  30.125  30.953  1.00  0.00     0.200 A 
ATOM     66  F   UNL A   1      36.193  30.858  28.795  1.00  0.00    -0.200 F 
ATOM     67  F   UNL A   1      35.604  30.492  31.431  1.00  0.00    -0.200 F 
ENDBRANCH  43  57
BRANCH  44  68
ATOM     68  C   UNL A   1      48.333  27.396  26.036  1.00  0.00     0.064 A 
ATOM     69  C   UNL A   1      49.418  26.974  26.812  1.00  0.00     0.173 A 
ATOM     70  C   UNL A   1      48.490  27.420  24.641  1.00  0.00     0.173 A 
ATOM     71  F   UNL A   1      49.314  26.941  28.148  1.00  0.00    -0.203 F 
ATOM     72  C   UNL A   1      50.615  26.588  26.216  1.00  0.00     0.198 A 
ATOM     73  C   UNL A   1      49.674  27.001  24.045  1.00  0.00     0.198 A 
ATOM     74  F   UNL A   1      47.468  27.795  23.856  1.00  0.00    -0.203 F 
ATOM     75  F   UNL A   1      51.648  26.209  26.980  1.00  0.00    -0.200 F 
ATOM     76  C   UNL A   1      50.738  26.590  24.833  1.00  0.00     0.200 A 
ATOM     77  F   UNL A   1      49.777  26.974  22.710  1.00  0.00    -0.200 F 
ATOM     78  F   UNL A   1      51.881  26.190  24.260  1.00  0.00    -0.200 F 
ENDBRANCH  44  68
BRANCH  56  79
ATOM     79  C   UNL A   1      45.467  33.036  28.955  1.00  0.00     0.064 A 
ATOM     80  C   UNL A   1      45.308  34.068  28.018  1.00  0.00     0.173 A 
ATOM     81  C   UNL A   1      46.155  33.327  30.143  1.00  0.00     0.173 A 
ATOM     82  F   UNL A   1      44.677  33.834  26.857  1.00  0.00    -0.203 F 
ATOM     83  C   UNL A   1      45.853  35.329  28.241  1.00  0.00     0.198 A 
ATOM     84  C   UNL A   1      46.671  34.598  30.378  1.00  0.00     0.198 A 
ATOM     85  F   UNL A   1      46.334  32.377  31.072  1.00  0.00    -0.203 F 
ATOM     86  F   UNL A   1      45.747  36.279  27.302  1.00  0.00    -0.200 F 
ATOM     87  C   UNL A   1      46.530  35.594  29.423  1.00  0.00     0.200 A 
ATOM     88  F   UNL A   1      47.317  34.857  31.523  1.00  0.00    -0.200 F 
ATOM     89  F   UNL A   1      47.059  36.807  29.635  1.00  0.00    -0.200 F 
ENDBRANCH  56  79
ENDBRANCH  30  31
ENDBRANCH  23  25
ENDBRANCH  22  23
ENDBRANCH  21  22
ENDBRANCH   1  21
TORSDOF 15
ENDMDL
