MODEL 1
REMARK VINA RESULT:     -13.0      0.000      0.000
REMARK SMILES Cc1cc(Nc2ccc(C(=O)OCCOC(=O)c3ccc(-c4c5nc(c(-c6c(F)c(F)c(F)c(F)c6F)c6ccc([nH]6)c(-c6c(F)c(F)c(F)c(F)c6F)c6nc(c(-c7c(F)c(F)c(F)c(F)c7F)c7ccc4[nH]7)C=C6)C=C5)cc3)cc2)nc(C(C)C)n1
REMARK SMILES IDX 13 1 12 2 10 3 11 4 9 5 6 6 7 7 82 8 8 9 81 10 5 11 4 13
REMARK SMILES IDX 1 14 2 15 3 16 88 17 84 18 83 19 85 20 86 21 87 22 14 23
REMARK SMILES IDX 15 24 16 25 17 26 18 27 19 28 80 29 20 30 79 31 21 32 22 33
REMARK SMILES IDX 23 34 73 35 24 36 78 37 72 38 74 39 25 40 77 41 71 42 70 43
REMARK SMILES IDX 26 45 58 46 38 47 57 48 39 49 42 50 56 51 75 52 40 53 41 54
REMARK SMILES IDX 55 56 76 57 43 58 27 59 28 60 36 61 29 62 30 63 34 64 37 65
REMARK SMILES IDX 31 66 32 67 35 68 33 69 59 70 60 71 68 72 61 73 62 74 66 75
REMARK SMILES IDX 69 76 63 77 64 78 67 79 65 80 44 81 45 82 53 83 46 84 47 85
REMARK SMILES IDX 51 86 54 87 48 88 49 89 52 90 50 91
REMARK H PARENT 5 12 74 44 42 55
REMARK Flexibility Score: inf
ROOT
ATOM      1  C   UNL A   1      31.320  29.236  24.377  1.00  0.00     0.275 C 
ENDROOT
BRANCH   1   2
ATOM      2  O   UNL A   1      31.631  27.857  24.088  1.00  0.00    -0.458 OA
BRANCH   2   3
ATOM      3  C   UNL A   1      30.601  27.115  23.615  1.00  0.00     0.338 C 
ATOM      4  O   UNL A   1      29.774  27.460  22.785  1.00  0.00    -0.246 OA
BRANCH   3   5
ATOM      5  C   UNL A   1      30.642  25.745  24.177  1.00  0.00     0.060 A 
ATOM      6  C   UNL A   1      30.921  23.210  25.353  1.00  0.00     0.040 A 
ATOM      7  C   UNL A   1      30.681  24.330  26.150  1.00  0.00     0.027 A 
ATOM      8  C   UNL A   1      30.999  23.369  23.961  1.00  0.00     0.027 A 
ATOM      9  C   UNL A   1      30.576  25.590  25.567  1.00  0.00     0.018 A 
ATOM     10  C   UNL A   1      30.836  24.626  23.367  1.00  0.00     0.018 A 
BRANCH   6  11
ATOM     11  N   UNL A   1      31.294  22.001  25.975  1.00  0.00    -0.340 N 
ATOM     12  H   UNL A   1      30.794  21.710  26.772  1.00  0.00     0.168 HD
BRANCH  11  13
ATOM     13  C   UNL A   1      32.349  21.186  25.509  1.00  0.00     0.134 A 
ATOM     14  C   UNL A   1      36.060  21.280  25.026  1.00  0.00     0.067 C 
ATOM     15  C   UNL A   1      34.629  20.843  25.042  1.00  0.00     0.043 A 
ATOM     16  C   UNL A   1      33.640  21.670  25.539  1.00  0.00     0.070 A 
ATOM     17  N   UNL A   1      34.369  19.605  24.574  1.00  0.00    -0.238 NA
ATOM     18  C   UNL A   1      33.087  19.203  24.602  1.00  0.00     0.133 A 
ATOM     19  N   UNL A   1      32.074  19.952  25.059  1.00  0.00    -0.216 NA
BRANCH  18  20
ATOM     20  C   UNL A   1      32.738  17.811  24.131  1.00  0.00     0.051 C 
ATOM     21  C   UNL A   1      33.837  17.223  23.251  1.00  0.00     0.016 C 
ATOM     22  C   UNL A   1      32.428  16.907  25.322  1.00  0.00     0.016 C 
ENDBRANCH  18  20
ENDBRANCH  11  13
ENDBRANCH   6  11
ENDBRANCH   3   5
ENDBRANCH   2   3
ENDBRANCH   1   2
BRANCH   1  23
ATOM     23  C   UNL A   1      31.680  29.593  25.819  1.00  0.00     0.275 C 
BRANCH  23  24
ATOM     24  O   UNL A   1      33.018  30.120  25.890  1.00  0.00    -0.458 OA
BRANCH  24  25
ATOM     25  C   UNL A   1      33.235  31.036  26.859  1.00  0.00     0.338 C 
ATOM     26  O   UNL A   1      32.474  31.901  27.257  1.00  0.00    -0.246 OA
BRANCH  25  27
ATOM     27  C   UNL A   1      34.577  30.846  27.424  1.00  0.00     0.060 A 
ATOM     28  C   UNL A   1      35.023  29.555  27.688  1.00  0.00     0.016 A 
ATOM     29  C   UNL A   1      35.334  31.943  27.823  1.00  0.00     0.016 A 
ATOM     30  C   UNL A   1      36.173  29.347  28.444  1.00  0.00     0.010 A 
ATOM     31  C   UNL A   1      36.551  31.732  28.481  1.00  0.00     0.010 A 
ATOM     32  C   UNL A   1      36.968  30.433  28.830  1.00  0.00    -0.014 A 
BRANCH  32  33
ATOM     33  C   UNL A   1      38.226  30.228  29.601  1.00  0.00     0.031 A 
ATOM     34  C   UNL A   1      39.312  29.349  29.046  1.00  0.00     0.074 A 
ATOM     35  C   UNL A   1      38.387  30.793  30.813  1.00  0.00     0.049 A 
ATOM     36  N   UNL A   1      40.347  28.822  29.650  1.00  0.00    -0.248 NA
ATOM     37  C   UNL A   1      39.208  29.001  27.620  1.00  0.00     0.031 C 
ATOM     38  C   UNL A   1      37.441  31.707  31.457  1.00  0.00     0.029 A 
ATOM     39  N   UNL A   1      39.400  30.664  31.733  1.00  0.00    -0.354 N 
ATOM     40  C   UNL A   1      40.973  28.023  28.701  1.00  0.00     0.074 A 
ATOM     41  C   UNL A   1      40.209  28.143  27.478  1.00  0.00     0.031 C 
ATOM     42  C   UNL A   1      37.919  32.061  32.657  1.00  0.00     0.029 A 
ATOM     43  C   UNL A   1      39.151  31.325  32.911  1.00  0.00     0.049 A 
ATOM     44  H   UNL A   1      40.222  30.149  31.564  1.00  0.00     0.167 HD
ATOM     45  C   UNL A   1      42.079  27.252  28.847  1.00  0.00     0.037 A 
ATOM     46  C   UNL A   1      39.798  31.294  34.091  1.00  0.00     0.037 A 
ATOM     47  C   UNL A   1      42.865  27.187  30.053  1.00  0.00     0.049 A 
ATOM     48  C   UNL A   1      41.012  30.423  34.240  1.00  0.00     0.074 A 
ATOM     49  C   UNL A   1      44.022  26.466  30.292  1.00  0.00     0.029 A 
ATOM     50  N   UNL A   1      42.576  27.879  31.220  1.00  0.00    -0.354 N 
ATOM     51  N   UNL A   1      41.569  29.629  33.359  1.00  0.00    -0.248 NA
ATOM     52  C   UNL A   1      41.676  30.430  35.549  1.00  0.00     0.031 C 
ATOM     53  C   UNL A   1      44.412  26.693  31.617  1.00  0.00     0.029 A 
ATOM     54  C   UNL A   1      43.524  27.590  32.189  1.00  0.00     0.049 A 
ATOM     55  H   UNL A   1      41.811  28.485  31.343  1.00  0.00     0.167 HD
ATOM     56  C   UNL A   1      42.653  29.047  34.000  1.00  0.00     0.074 A 
ATOM     57  C   UNL A   1      42.684  29.592  35.343  1.00  0.00     0.031 C 
ATOM     58  C   UNL A   1      43.539  28.143  33.520  1.00  0.00     0.037 A 
BRANCH  45  59
ATOM     59  C   UNL A   1      42.472  26.380  27.691  1.00  0.00     0.064 A 
ATOM     60  C   UNL A   1      41.885  25.126  27.463  1.00  0.00     0.173 A 
ATOM     61  C   UNL A   1      43.453  26.816  26.785  1.00  0.00     0.173 A 
ATOM     62  F   UNL A   1      40.953  24.655  28.305  1.00  0.00    -0.203 F 
ATOM     63  C   UNL A   1      42.291  24.327  26.396  1.00  0.00     0.198 A 
ATOM     64  C   UNL A   1      43.834  26.029  25.702  1.00  0.00     0.198 A 
ATOM     65  F   UNL A   1      44.042  28.011  26.950  1.00  0.00    -0.203 F 
ATOM     66  F   UNL A   1      41.756  23.110  26.232  1.00  0.00    -0.200 F 
ATOM     67  C   UNL A   1      43.261  24.781  25.514  1.00  0.00     0.200 A 
ATOM     68  F   UNL A   1      44.763  26.476  24.845  1.00  0.00    -0.200 F 
ATOM     69  F   UNL A   1      43.650  24.011  24.489  1.00  0.00    -0.200 F 
ENDBRANCH  45  59
BRANCH  46  70
ATOM     70  C   UNL A   1      39.260  32.077  35.232  1.00  0.00     0.064 A 
ATOM     71  C   UNL A   1      38.465  31.474  36.213  1.00  0.00     0.173 A 
ATOM     72  C   UNL A   1      39.583  33.434  35.394  1.00  0.00     0.173 A 
ATOM     73  F   UNL A   1      38.111  30.186  36.088  1.00  0.00    -0.203 F 
ATOM     74  C   UNL A   1      38.019  32.195  37.319  1.00  0.00     0.198 A 
ATOM     75  C   UNL A   1      39.162  34.146  36.513  1.00  0.00     0.198 A 
ATOM     76  F   UNL A   1      40.345  34.056  34.481  1.00  0.00    -0.203 F 
ATOM     77  F   UNL A   1      37.242  31.601  38.234  1.00  0.00    -0.200 F 
ATOM     78  C   UNL A   1      38.377  33.527  37.474  1.00  0.00     0.200 A 
ATOM     79  F   UNL A   1      39.526  35.427  36.668  1.00  0.00    -0.200 F 
ATOM     80  F   UNL A   1      37.967  34.212  38.550  1.00  0.00    -0.200 F 
ENDBRANCH  46  70
BRANCH  58  81
ATOM     81  C   UNL A   1      44.638  27.705  34.443  1.00  0.00     0.064 A 
ATOM     82  C   UNL A   1      45.828  28.435  34.565  1.00  0.00     0.173 A 
ATOM     83  C   UNL A   1      44.476  26.566  35.245  1.00  0.00     0.173 A 
ATOM     84  F   UNL A   1      46.035  29.522  33.806  1.00  0.00    -0.203 F 
ATOM     85  C   UNL A   1      46.826  28.030  35.447  1.00  0.00     0.198 A 
ATOM     86  C   UNL A   1      45.466  26.178  36.143  1.00  0.00     0.198 A 
ATOM     87  F   UNL A   1      43.353  25.836  35.166  1.00  0.00    -0.203 F 
ATOM     88  F   UNL A   1      47.972  28.721  35.524  1.00  0.00    -0.200 F 
ATOM     89  C   UNL A   1      46.641  26.907  36.240  1.00  0.00     0.200 A 
ATOM     90  F   UNL A   1      45.283  25.097  36.915  1.00  0.00    -0.200 F 
ATOM     91  F   UNL A   1      47.600  26.523  37.095  1.00  0.00    -0.200 F 
ENDBRANCH  58  81
ENDBRANCH  32  33
ENDBRANCH  25  27
ENDBRANCH  24  25
ENDBRANCH  23  24
ENDBRANCH   1  23
TORSDOF 14
ENDMDL
MODEL 2
REMARK VINA RESULT:     -12.9      3.809      8.327
REMARK SMILES Cc1cc(Nc2ccc(C(=O)OCCOC(=O)c3ccc(-c4c5nc(c(-c6c(F)c(F)c(F)c(F)c6F)c6ccc([nH]6)c(-c6c(F)c(F)c(F)c(F)c6F)c6nc(c(-c7c(F)c(F)c(F)c(F)c7F)c7ccc4[nH]7)C=C6)C=C5)cc3)cc2)nc(C(C)C)n1
REMARK SMILES IDX 13 1 12 2 10 3 11 4 9 5 6 6 7 7 82 8 8 9 81 10 5 11 4 13
REMARK SMILES IDX 1 14 2 15 3 16 88 17 84 18 83 19 85 20 86 21 87 22 14 23
REMARK SMILES IDX 15 24 16 25 17 26 18 27 19 28 80 29 20 30 79 31 21 32 22 33
REMARK SMILES IDX 23 34 73 35 24 36 78 37 72 38 74 39 25 40 77 41 71 42 70 43
REMARK SMILES IDX 26 45 58 46 38 47 57 48 39 49 42 50 56 51 75 52 40 53 41 54
REMARK SMILES IDX 55 56 76 57 43 58 27 59 28 60 36 61 29 62 30 63 34 64 37 65
REMARK SMILES IDX 31 66 32 67 35 68 33 69 59 70 60 71 68 72 61 73 62 74 66 75
REMARK SMILES IDX 69 76 63 77 64 78 67 79 65 80 44 81 45 82 53 83 46 84 47 85
REMARK SMILES IDX 51 86 54 87 48 88 49 89 52 90 50 91
REMARK H PARENT 5 12 74 44 42 55
REMARK Flexibility Score: inf
ROOT
ATOM      1  C   UNL A   1      41.713  20.161  26.342  1.00  0.00     0.275 C 
ENDROOT
BRANCH   1   2
ATOM      2  O   UNL A   1      40.459  20.856  26.498  1.00  0.00    -0.458 OA
BRANCH   2   3
ATOM      3  C   UNL A   1      39.420  20.352  25.789  1.00  0.00     0.338 C 
ATOM      4  O   UNL A   1      39.306  19.208  25.376  1.00  0.00    -0.246 OA
BRANCH   3   5
ATOM      5  C   UNL A   1      38.350  21.365  25.635  1.00  0.00     0.060 A 
ATOM      6  C   UNL A   1      36.360  23.275  25.107  1.00  0.00     0.040 A 
ATOM      7  C   UNL A   1      36.208  21.963  24.660  1.00  0.00     0.027 A 
ATOM      8  C   UNL A   1      37.509  23.616  25.838  1.00  0.00     0.027 A 
ATOM      9  C   UNL A   1      37.211  21.025  24.894  1.00  0.00     0.018 A 
ATOM     10  C   UNL A   1      38.492  22.662  26.126  1.00  0.00     0.018 A 
BRANCH   6  11
ATOM     11  N   UNL A   1      35.476  24.263  24.629  1.00  0.00    -0.340 N 
ATOM     12  H   UNL A   1      35.713  24.744  23.803  1.00  0.00     0.168 HD
BRANCH  11  13
ATOM     13  C   UNL A   1      34.266  24.597  25.276  1.00  0.00     0.134 A 
ATOM     14  C   UNL A   1      31.309  22.949  26.875  1.00  0.00     0.067 C 
ATOM     15  C   UNL A   1      32.265  23.970  26.341  1.00  0.00     0.043 A 
ATOM     16  C   UNL A   1      33.451  23.588  25.744  1.00  0.00     0.070 A 
ATOM     17  N   UNL A   1      31.917  25.264  26.498  1.00  0.00    -0.238 NA
ATOM     18  C   UNL A   1      32.780  26.184  26.034  1.00  0.00     0.133 A 
ATOM     19  N   UNL A   1      33.942  25.890  25.435  1.00  0.00    -0.216 NA
BRANCH  18  20
ATOM     20  C   UNL A   1      32.468  27.650  26.217  1.00  0.00     0.051 C 
ATOM     21  C   UNL A   1      31.917  28.271  24.936  1.00  0.00     0.016 C 
ATOM     22  C   UNL A   1      31.515  27.850  27.393  1.00  0.00     0.016 C 
ENDBRANCH  18  20
ENDBRANCH  11  13
ENDBRANCH   6  11
ENDBRANCH   3   5
ENDBRANCH   2   3
ENDBRANCH   1   2
BRANCH   1  23
ATOM     23  C   UNL A   1      42.792  21.087  25.782  1.00  0.00     0.275 C 
BRANCH  23  24
ATOM     24  O   UNL A   1      42.202  22.300  25.277  1.00  0.00    -0.458 OA
BRANCH  24  25
ATOM     25  C   UNL A   1      43.029  23.367  25.206  1.00  0.00     0.338 C 
ATOM     26  O   UNL A   1      44.012  23.508  24.499  1.00  0.00    -0.246 OA
BRANCH  25  27
ATOM     27  C   UNL A   1      42.565  24.411  26.129  1.00  0.00     0.060 A 
ATOM     28  C   UNL A   1      43.091  25.694  26.018  1.00  0.00     0.016 A 
ATOM     29  C   UNL A   1      41.721  24.090  27.187  1.00  0.00     0.016 A 
ATOM     30  C   UNL A   1      42.867  26.637  27.017  1.00  0.00     0.010 A 
ATOM     31  C   UNL A   1      41.401  25.073  28.130  1.00  0.00     0.010 A 
ATOM     32  C   UNL A   1      41.998  26.348  28.075  1.00  0.00    -0.014 A 
BRANCH  32  33
ATOM     33  C   UNL A   1      41.711  27.359  29.131  1.00  0.00     0.031 A 
ATOM     34  C   UNL A   1      42.515  27.367  30.401  1.00  0.00     0.074 A 
ATOM     35  C   UNL A   1      40.710  28.247  28.976  1.00  0.00     0.049 A 
ATOM     36  N   UNL A   1      42.267  27.962  31.540  1.00  0.00    -0.248 NA
ATOM     37  C   UNL A   1      43.759  26.582  30.393  1.00  0.00     0.031 C 
ATOM     38  C   UNL A   1      39.879  28.390  27.780  1.00  0.00     0.029 A 
ATOM     39  N   UNL A   1      40.207  29.188  29.842  1.00  0.00    -0.354 N 
ATOM     40  C   UNL A   1      43.280  27.565  32.404  1.00  0.00     0.074 A 
ATOM     41  C   UNL A   1      44.153  26.686  31.655  1.00  0.00     0.031 C 
ATOM     42  C   UNL A   1      38.978  29.360  27.982  1.00  0.00     0.029 A 
ATOM     43  C   UNL A   1      39.101  29.840  29.353  1.00  0.00     0.049 A 
ATOM     44  H   UNL A   1      40.600  29.376  30.726  1.00  0.00     0.167 HD
ATOM     45  C   UNL A   1      43.454  27.897  33.707  1.00  0.00     0.037 A 
ATOM     46  C   UNL A   1      38.237  30.678  29.955  1.00  0.00     0.037 A 
ATOM     47  C   UNL A   1      42.612  28.819  34.425  1.00  0.00     0.049 A 
ATOM     48  C   UNL A   1      38.435  31.023  31.402  1.00  0.00     0.074 A 
ATOM     49  C   UNL A   1      42.723  29.251  35.735  1.00  0.00     0.029 A 
ATOM     50  N   UNL A   1      41.505  29.460  33.886  1.00  0.00    -0.354 N 
ATOM     51  N   UNL A   1      39.360  30.604  32.230  1.00  0.00    -0.248 NA
ATOM     52  C   UNL A   1      37.460  31.942  32.004  1.00  0.00     0.031 C 
ATOM     53  C   UNL A   1      41.661  30.124  36.000  1.00  0.00     0.029 A 
ATOM     54  C   UNL A   1      40.914  30.271  34.842  1.00  0.00     0.049 A 
ATOM     55  H   UNL A   1      41.185  29.353  32.961  1.00  0.00     0.167 HD
ATOM     56  C   UNL A   1      39.089  31.212  33.446  1.00  0.00     0.074 A 
ATOM     57  C   UNL A   1      37.918  32.042  33.245  1.00  0.00     0.031 C 
ATOM     58  C   UNL A   1      39.749  31.091  34.623  1.00  0.00     0.037 A 
BRANCH  45  59
ATOM     59  C   UNL A   1      44.568  27.220  34.451  1.00  0.00     0.064 A 
ATOM     60  C   UNL A   1      44.407  25.969  35.065  1.00  0.00     0.173 A 
ATOM     61  C   UNL A   1      45.826  27.836  34.542  1.00  0.00     0.173 A 
ATOM     62  F   UNL A   1      43.222  25.343  35.020  1.00  0.00    -0.203 F 
ATOM     63  C   UNL A   1      45.452  25.378  35.773  1.00  0.00     0.198 A 
ATOM     64  C   UNL A   1      46.878  27.228  35.224  1.00  0.00     0.198 A 
ATOM     65  F   UNL A   1      46.038  29.030  33.967  1.00  0.00    -0.203 F 
ATOM     66  F   UNL A   1      45.258  24.208  36.398  1.00  0.00    -0.200 F 
ATOM     67  C   UNL A   1      46.687  26.005  35.847  1.00  0.00     0.200 A 
ATOM     68  F   UNL A   1      48.073  27.832  35.283  1.00  0.00    -0.200 F 
ATOM     69  F   UNL A   1      47.690  25.435  36.528  1.00  0.00    -0.200 F 
ENDBRANCH  45  59
BRANCH  46  70
ATOM     70  C   UNL A   1      37.075  31.193  29.186  1.00  0.00     0.064 A 
ATOM     71  C   UNL A   1      35.964  30.383  28.923  1.00  0.00     0.173 A 
ATOM     72  C   UNL A   1      37.029  32.528  28.752  1.00  0.00     0.173 A 
ATOM     73  F   UNL A   1      35.972  29.095  29.297  1.00  0.00    -0.203 F 
ATOM     74  C   UNL A   1      34.847  30.890  28.262  1.00  0.00     0.198 A 
ATOM     75  C   UNL A   1      35.902  33.041  28.118  1.00  0.00     0.198 A 
ATOM     76  F   UNL A   1      38.069  33.344  28.983  1.00  0.00    -0.203 F 
ATOM     77  F   UNL A   1      33.804  30.089  28.003  1.00  0.00    -0.200 F 
ATOM     78  C   UNL A   1      34.812  32.221  27.870  1.00  0.00     0.200 A 
ATOM     79  F   UNL A   1      35.866  34.332  27.758  1.00  0.00    -0.200 F 
ATOM     80  F   UNL A   1      33.727  32.712  27.256  1.00  0.00    -0.200 F 
ENDBRANCH  46  70
BRANCH  58  81
ATOM     81  C   UNL A   1      39.238  31.897  35.780  1.00  0.00     0.064 A 
ATOM     82  C   UNL A   1      39.644  33.223  35.986  1.00  0.00     0.173 A 
ATOM     83  C   UNL A   1      38.299  31.348  36.665  1.00  0.00     0.173 A 
ATOM     84  F   UNL A   1      40.554  33.785  35.176  1.00  0.00    -0.203 F 
ATOM     85  C   UNL A   1      39.139  33.966  37.050  1.00  0.00     0.198 A 
ATOM     86  C   UNL A   1      37.778  32.103  37.712  1.00  0.00     0.198 A 
ATOM     87  F   UNL A   1      37.878  30.084  36.506  1.00  0.00    -0.203 F 
ATOM     88  F   UNL A   1      39.567  35.221  37.252  1.00  0.00    -0.200 F 
ATOM     89  C   UNL A   1      38.202  33.408  37.906  1.00  0.00     0.200 A 
ATOM     90  F   UNL A   1      36.866  31.565  38.534  1.00  0.00    -0.200 F 
ATOM     91  F   UNL A   1      37.710  34.128  38.924  1.00  0.00    -0.200 F 
ENDBRANCH  58  81
ENDBRANCH  32  33
ENDBRANCH  25  27
ENDBRANCH  24  25
ENDBRANCH  23  24
ENDBRANCH   1  23
TORSDOF 14
ENDMDL
MODEL 3
REMARK VINA RESULT:     -12.9      4.477      9.886
REMARK SMILES Cc1cc(Nc2ccc(C(=O)OCCOC(=O)c3ccc(-c4c5nc(c(-c6c(F)c(F)c(F)c(F)c6F)c6ccc([nH]6)c(-c6c(F)c(F)c(F)c(F)c6F)c6nc(c(-c7c(F)c(F)c(F)c(F)c7F)c7ccc4[nH]7)C=C6)C=C5)cc3)cc2)nc(C(C)C)n1
REMARK SMILES IDX 13 1 12 2 10 3 11 4 9 5 6 6 7 7 82 8 8 9 81 10 5 11 4 13
REMARK SMILES IDX 1 14 2 15 3 16 88 17 84 18 83 19 85 20 86 21 87 22 14 23
REMARK SMILES IDX 15 24 16 25 17 26 18 27 19 28 80 29 20 30 79 31 21 32 22 33
REMARK SMILES IDX 23 34 73 35 24 36 78 37 72 38 74 39 25 40 77 41 71 42 70 43
REMARK SMILES IDX 26 45 58 46 38 47 57 48 39 49 42 50 56 51 75 52 40 53 41 54
REMARK SMILES IDX 55 56 76 57 43 58 27 59 28 60 36 61 29 62 30 63 34 64 37 65
REMARK SMILES IDX 31 66 32 67 35 68 33 69 59 70 60 71 68 72 61 73 62 74 66 75
REMARK SMILES IDX 69 76 63 77 64 78 67 79 65 80 44 81 45 82 53 83 46 84 47 85
REMARK SMILES IDX 51 86 54 87 48 88 49 89 52 90 50 91
REMARK H PARENT 5 12 74 44 42 55
REMARK Flexibility Score: inf
ROOT
ATOM      1  C   UNL A   1      34.952  20.952  25.368  1.00  0.00     0.275 C 
ENDROOT
BRANCH   1   2
ATOM      2  O   UNL A   1      34.062  20.437  24.356  1.00  0.00    -0.458 OA
BRANCH   2   3
ATOM      3  C   UNL A   1      32.753  20.386  24.702  1.00  0.00     0.338 C 
ATOM      4  O   UNL A   1      32.149  19.411  25.123  1.00  0.00    -0.246 OA
BRANCH   3   5
ATOM      5  C   UNL A   1      32.127  21.723  24.589  1.00  0.00     0.060 A 
ATOM      6  C   UNL A   1      30.728  24.151  24.400  1.00  0.00     0.040 A 
ATOM      7  C   UNL A   1      30.719  23.427  25.593  1.00  0.00     0.027 A 
ATOM      8  C   UNL A   1      31.461  23.656  23.310  1.00  0.00     0.027 A 
ATOM      9  C   UNL A   1      31.386  22.208  25.674  1.00  0.00     0.018 A 
ATOM     10  C   UNL A   1      32.180  22.460  23.406  1.00  0.00     0.018 A 
BRANCH   6  11
ATOM     11  N   UNL A   1      29.832  25.230  24.252  1.00  0.00    -0.340 N 
ATOM     12  H   UNL A   1      28.872  25.032  24.163  1.00  0.00     0.168 HD
BRANCH  11  13
ATOM     13  C   UNL A   1      30.246  26.580  24.229  1.00  0.00     0.134 A 
ATOM     14  C   UNL A   1      30.081  29.602  22.025  1.00  0.00     0.067 C 
ATOM     15  C   UNL A   1      30.378  28.670  23.160  1.00  0.00     0.043 A 
ATOM     16  C   UNL A   1      29.921  27.367  23.145  1.00  0.00     0.070 A 
ATOM     17  N   UNL A   1      31.083  29.178  24.191  1.00  0.00    -0.238 NA
ATOM     18  C   UNL A   1      31.337  28.349  25.218  1.00  0.00     0.133 A 
ATOM     19  N   UNL A   1      30.936  27.072  25.270  1.00  0.00    -0.216 NA
BRANCH  18  20
ATOM     20  C   UNL A   1      32.086  28.870  26.421  1.00  0.00     0.051 C 
ATOM     21  C   UNL A   1      32.006  30.391  26.518  1.00  0.00     0.016 C 
ATOM     22  C   UNL A   1      31.580  28.199  27.696  1.00  0.00     0.016 C 
ENDBRANCH  18  20
ENDBRANCH  11  13
ENDBRANCH   6  11
ENDBRANCH   3   5
ENDBRANCH   2   3
ENDBRANCH   1   2
BRANCH   1  23
ATOM     23  C   UNL A   1      36.412  20.677  25.010  1.00  0.00     0.275 C 
BRANCH  23  24
ATOM     24  O   UNL A   1      37.253  21.756  25.460  1.00  0.00    -0.458 OA
BRANCH  24  25
ATOM     25  C   UNL A   1      38.497  21.402  25.854  1.00  0.00     0.338 C 
ATOM     26  O   UNL A   1      39.044  20.320  25.730  1.00  0.00    -0.246 OA
BRANCH  25  27
ATOM     27  C   UNL A   1      39.162  22.555  26.476  1.00  0.00     0.060 A 
ATOM     28  C   UNL A   1      38.729  23.838  26.159  1.00  0.00     0.016 A 
ATOM     29  C   UNL A   1      40.298  22.373  27.258  1.00  0.00     0.016 A 
ATOM     30  C   UNL A   1      39.483  24.948  26.529  1.00  0.00     0.010 A 
ATOM     31  C   UNL A   1      40.992  23.494  27.729  1.00  0.00     0.010 A 
ATOM     32  C   UNL A   1      40.612  24.794  27.341  1.00  0.00    -0.014 A 
BRANCH  32  33
ATOM     33  C   UNL A   1      41.407  25.973  27.783  1.00  0.00     0.031 A 
ATOM     34  C   UNL A   1      40.754  27.055  28.600  1.00  0.00     0.074 A 
ATOM     35  C   UNL A   1      42.700  26.102  27.428  1.00  0.00     0.049 A 
ATOM     36  N   UNL A   1      41.168  28.270  28.854  1.00  0.00    -0.248 NA
ATOM     37  C   UNL A   1      39.448  26.729  29.193  1.00  0.00     0.031 C 
ATOM     38  C   UNL A   1      43.477  25.111  26.682  1.00  0.00     0.029 A 
ATOM     39  N   UNL A   1      43.585  27.132  27.631  1.00  0.00    -0.354 N 
ATOM     40  C   UNL A   1      40.145  28.877  29.572  1.00  0.00     0.074 A 
ATOM     41  C   UNL A   1      39.094  27.892  29.722  1.00  0.00     0.031 C 
ATOM     42  C   UNL A   1      44.720  25.576  26.496  1.00  0.00     0.029 A 
ATOM     43  C   UNL A   1      44.799  26.933  27.020  1.00  0.00     0.049 A 
ATOM     44  H   UNL A   1      43.370  27.934  28.161  1.00  0.00     0.167 HD
ATOM     45  C   UNL A   1      40.088  30.144  30.049  1.00  0.00     0.037 A 
ATOM     46  C   UNL A   1      45.839  27.769  26.838  1.00  0.00     0.037 A 
ATOM     47  C   UNL A   1      41.164  31.096  29.944  1.00  0.00     0.049 A 
ATOM     48  C   UNL A   1      45.753  29.174  27.360  1.00  0.00     0.074 A 
ATOM     49  C   UNL A   1      41.221  32.392  30.426  1.00  0.00     0.029 A 
ATOM     50  N   UNL A   1      42.379  30.847  29.321  1.00  0.00    -0.354 N 
ATOM     51  N   UNL A   1      44.765  29.760  27.989  1.00  0.00    -0.248 NA
ATOM     52  C   UNL A   1      46.918  30.038  27.130  1.00  0.00     0.031 C 
ATOM     53  C   UNL A   1      42.456  32.941  30.061  1.00  0.00     0.029 A 
ATOM     54  C   UNL A   1      43.186  31.971  29.391  1.00  0.00     0.049 A 
ATOM     55  H   UNL A   1      42.630  29.998  28.891  1.00  0.00     0.167 HD
ATOM     56  C   UNL A   1      45.187  31.057  28.240  1.00  0.00     0.074 A 
ATOM     57  C   UNL A   1      46.531  31.168  27.707  1.00  0.00     0.031 C 
ATOM     58  C   UNL A   1      44.521  32.063  28.855  1.00  0.00     0.037 A 
BRANCH  45  59
ATOM     59  C   UNL A   1      38.801  30.588  30.682  1.00  0.00     0.064 A 
ATOM     60  C   UNL A   1      37.711  31.042  29.925  1.00  0.00     0.173 A 
ATOM     61  C   UNL A   1      38.656  30.549  32.078  1.00  0.00     0.173 A 
ATOM     62  F   UNL A   1      37.800  31.113  28.588  1.00  0.00    -0.203 F 
ATOM     63  C   UNL A   1      36.539  31.474  30.543  1.00  0.00     0.198 A 
ATOM     64  C   UNL A   1      37.473  30.952  32.691  1.00  0.00     0.198 A 
ATOM     65  F   UNL A   1      39.665  30.116  32.850  1.00  0.00    -0.203 F 
ATOM     66  F   UNL A   1      35.532  31.956  29.802  1.00  0.00    -0.200 F 
ATOM     67  C   UNL A   1      36.419  31.424  31.923  1.00  0.00     0.200 A 
ATOM     68  F   UNL A   1      37.356  30.890  34.025  1.00  0.00    -0.200 F 
ATOM     69  F   UNL A   1      35.291  31.840  32.516  1.00  0.00    -0.200 F 
ENDBRANCH  45  59
BRANCH  46  70
ATOM     70  C   UNL A   1      47.021  27.295  26.073  1.00  0.00     0.064 A 
ATOM     71  C   UNL A   1      47.131  27.522  24.697  1.00  0.00     0.173 A 
ATOM     72  C   UNL A   1      48.093  26.659  26.720  1.00  0.00     0.173 A 
ATOM     73  F   UNL A   1      46.123  28.105  24.033  1.00  0.00    -0.203 F 
ATOM     74  C   UNL A   1      48.272  27.138  23.995  1.00  0.00     0.198 A 
ATOM     75  C   UNL A   1      49.244  26.302  26.025  1.00  0.00     0.198 A 
ATOM     76  F   UNL A   1      48.035  26.422  28.039  1.00  0.00    -0.203 F 
ATOM     77  F   UNL A   1      48.346  27.348  22.674  1.00  0.00    -0.200 F 
ATOM     78  C   UNL A   1      49.333  26.539  24.662  1.00  0.00     0.200 A 
ATOM     79  F   UNL A   1      50.273  25.741  26.676  1.00  0.00    -0.200 F 
ATOM     80  F   UNL A   1      50.439  26.193  23.989  1.00  0.00    -0.200 F 
ENDBRANCH  46  70
BRANCH  58  81
ATOM     81  C   UNL A   1      45.245  33.367  29.011  1.00  0.00     0.064 A 
ATOM     82  C   UNL A   1      46.083  33.615  30.107  1.00  0.00     0.173 A 
ATOM     83  C   UNL A   1      45.131  34.362  28.029  1.00  0.00     0.173 A 
ATOM     84  F   UNL A   1      46.210  32.700  31.081  1.00  0.00    -0.203 F 
ATOM     85  C   UNL A   1      46.770  34.821  30.223  1.00  0.00     0.198 A 
ATOM     86  C   UNL A   1      45.839  35.556  28.136  1.00  0.00     0.198 A 
ATOM     87  F   UNL A   1      44.344  34.171  26.960  1.00  0.00    -0.203 F 
ATOM     88  F   UNL A   1      47.538  35.052  31.297  1.00  0.00    -0.200 F 
ATOM     89  C   UNL A   1      46.653  35.786  29.234  1.00  0.00     0.200 A 
ATOM     90  F   UNL A   1      45.731  36.485  27.176  1.00  0.00    -0.200 F 
ATOM     91  F   UNL A   1      47.321  36.943  29.343  1.00  0.00    -0.200 F 
ENDBRANCH  58  81
ENDBRANCH  32  33
ENDBRANCH  25  27
ENDBRANCH  24  25
ENDBRANCH  23  24
ENDBRANCH   1  23
TORSDOF 14
ENDMDL
