MODEL 1
REMARK VINA RESULT:     -15.5      0.000      0.000
REMARK SMILES Cc1ccc(-c2nc(NC(=O)[C@H]3[C@@H](C(=O)OCCOC(=O)c4ccc(-c5c6nc(c(-c7c(F)c(F)c(F)c(F)c7F)c7ccc([nH]7)c(-c7c(F)c(F)c(F)c(F)c7F)c7nc(c(-c8c(F)c(F)c(F)c(F)c8F)c8ccc5[nH]8)C=C7)C=C6)cc4)[C@@H]4CC[C@H]3O4)sc2C)cc1
REMARK SMILES IDX 17 1 16 2 14 3 15 4 13 5 12 6 88 7 85 8 87 9 89 10 86 11
REMARK SMILES IDX 10 12 9 13 11 15 8 16 6 17 7 18 91 19 90 20 92 21 5 22 1 23
REMARK SMILES IDX 2 24 3 25 94 26 4 27 93 28 18 29 19 30 20 31 21 32 22 33
REMARK SMILES IDX 23 34 84 35 24 36 83 37 25 38 26 39 27 40 77 41 28 42 82 43
REMARK SMILES IDX 76 44 78 45 29 46 81 47 75 48 74 49 30 51 62 52 42 53 61 54
REMARK SMILES IDX 43 55 46 56 60 57 79 58 44 59 45 60 59 62 80 63 47 64 31 65
REMARK SMILES IDX 32 66 40 67 33 68 34 69 38 70 41 71 35 72 36 73 39 74 37 75
REMARK SMILES IDX 63 76 64 77 72 78 65 79 66 80 70 81 73 82 67 83 68 84 71 85
REMARK SMILES IDX 69 86 48 87 49 88 57 89 50 90 51 91 55 92 58 93 52 94 53 95
REMARK SMILES IDX 56 96 54 97
REMARK H PARENT 9 14 78 50 46 61
REMARK Flexibility Score: inf
ROOT
ATOM      1  C   UNL A   1      37.032  22.601  23.230  1.00  0.00     0.274 C 
ENDROOT
BRANCH   1   2
ATOM      2  O   UNL A   1      35.617  23.415  23.162  1.00  0.00    -0.462 OA
BRANCH   2   3
ATOM      3  C   UNL A   1      34.841  24.023  24.234  1.00  0.00     0.312 C 
ATOM      4  O   UNL A   1      34.468  25.189  24.251  1.00  0.00    -0.252 OA
BRANCH   3   5
ATOM      5  C   UNL A   1      34.446  22.953  25.388  1.00  0.00     0.143 C 
ATOM      6  C   UNL A   1      33.586  22.018  24.620  1.00  0.00     0.124 C 
ATOM      7  C   UNL A   1      32.656  21.335  25.609  1.00  0.00     0.132 C 
ATOM      8  C   UNL A   1      33.488  23.038  26.684  1.00  0.00     0.133 C 
ATOM      9  C   UNL A   1      33.364  20.673  26.782  1.00  0.00     0.035 C 
ATOM     10  O   UNL A   1      32.178  22.549  26.217  1.00  0.00    -0.373 OA
ATOM     11  C   UNL A   1      33.601  21.881  27.686  1.00  0.00     0.036 C 
BRANCH   6  12
ATOM     12  C   UNL A   1      32.615  22.746  23.692  1.00  0.00     0.232 C 
ATOM     13  N   UNL A   1      31.916  24.098  24.056  1.00  0.00    -0.302 N 
ATOM     14  H   UNL A   1      32.243  24.228  24.975  1.00  0.00     0.172 HD
ATOM     15  O   UNL A   1      32.595  22.120  22.620  1.00  0.00    -0.274 OA
BRANCH  13  16
ATOM     16  C   UNL A   1      31.024  25.377  23.888  1.00  0.00     0.190 A 
ATOM     17  C   UNL A   1      30.433  27.494  23.469  1.00  0.00     0.086 A 
ATOM     18  N   UNL A   1      30.776  26.226  22.879  1.00  0.00    -0.220 NA
ATOM     19  C   UNL A   1      30.922  27.533  24.769  1.00  0.00     0.031 A 
ATOM     20  S   UNL A   1      30.178  26.113  25.287  1.00  0.00    -0.101 S 
ATOM     21  C   UNL A   1      31.484  28.484  25.733  1.00  0.00     0.059 C 
BRANCH  17  22
ATOM     22  C   UNL A   1      29.675  28.649  22.960  1.00  0.00     0.001 A 
ATOM     23  C   UNL A   1      27.720  31.505  20.371  1.00  0.00     0.044 C 
ATOM     24  C   UNL A   1      28.379  30.635  21.403  1.00  0.00    -0.051 A 
ATOM     25  C   UNL A   1      29.764  30.593  21.447  1.00  0.00     0.004 A 
ATOM     26  C   UNL A   1      27.654  29.790  22.263  1.00  0.00     0.004 A 
ATOM     27  C   UNL A   1      30.395  29.632  22.233  1.00  0.00     0.010 A 
ATOM     28  C   UNL A   1      28.299  28.798  23.042  1.00  0.00     0.010 A 
ENDBRANCH  17  22
ENDBRANCH  13  16
ENDBRANCH   6  12
ENDBRANCH   3   5
ENDBRANCH   2   3
ENDBRANCH   1   2
BRANCH   1  29
ATOM     29  C   UNL A   1      37.617  21.595  24.709  1.00  0.00     0.275 C 
BRANCH  29  30
ATOM     30  O   UNL A   1      38.818  22.093  26.045  1.00  0.00    -0.458 OA
BRANCH  30  31
ATOM     31  C   UNL A   1      39.751  23.117  26.842  1.00  0.00     0.338 C 
ATOM     32  O   UNL A   1      40.492  22.595  27.689  1.00  0.00    -0.246 OA
BRANCH  31  33
ATOM     33  C   UNL A   1      39.777  24.831  26.869  1.00  0.00     0.060 A 
ATOM     34  C   UNL A   1      40.586  25.723  26.140  1.00  0.00     0.016 A 
ATOM     35  C   UNL A   1      38.988  25.609  27.680  1.00  0.00     0.016 A 
ATOM     36  C   UNL A   1      40.743  27.142  26.530  1.00  0.00     0.010 A 
ATOM     37  C   UNL A   1      39.295  26.785  28.294  1.00  0.00     0.010 A 
ATOM     38  C   UNL A   1      40.167  27.628  27.712  1.00  0.00    -0.014 A 
BRANCH  38  39
ATOM     39  C   UNL A   1      40.346  28.757  28.638  1.00  0.00     0.031 A 
ATOM     40  C   UNL A   1      39.342  29.884  28.705  1.00  0.00     0.074 A 
ATOM     41  C   UNL A   1      40.962  28.375  29.786  1.00  0.00     0.049 A 
ATOM     42  N   UNL A   1      39.445  30.893  29.495  1.00  0.00    -0.248 NA
ATOM     43  C   UNL A   1      38.073  29.937  27.969  1.00  0.00     0.031 C 
ATOM     44  C   UNL A   1      40.974  28.932  31.134  1.00  0.00     0.029 A 
ATOM     45  N   UNL A   1      41.812  27.271  29.929  1.00  0.00    -0.354 N 
ATOM     46  C   UNL A   1      38.199  31.484  29.654  1.00  0.00     0.074 A 
ATOM     47  C   UNL A   1      37.412  30.924  28.588  1.00  0.00     0.031 C 
ATOM     48  C   UNL A   1      42.071  28.467  31.778  1.00  0.00     0.029 A 
ATOM     49  C   UNL A   1      42.801  27.598  30.863  1.00  0.00     0.049 A 
ATOM     50  H   UNL A   1      41.727  26.413  29.454  1.00  0.00     0.167 HD
ATOM     51  C   UNL A   1      37.989  32.271  30.760  1.00  0.00     0.037 A 
ATOM     52  C   UNL A   1      44.040  27.817  30.339  1.00  0.00     0.037 A 
ATOM     53  C   UNL A   1      39.239  32.311  31.573  1.00  0.00     0.049 A 
ATOM     54  C   UNL A   1      44.203  29.317  30.140  1.00  0.00     0.074 A 
ATOM     55  C   UNL A   1      39.640  31.880  32.827  1.00  0.00     0.029 A 
ATOM     56  N   UNL A   1      40.431  32.588  30.909  1.00  0.00    -0.354 N 
ATOM     57  N   UNL A   1      43.231  30.155  30.411  1.00  0.00    -0.248 NA
ATOM     58  C   UNL A   1      45.397  30.035  29.736  1.00  0.00     0.031 C 
ATOM     59  C   UNL A   1      41.087  31.823  32.842  1.00  0.00     0.029 A 
ATOM     60  C   UNL A   1      41.569  32.221  31.600  1.00  0.00     0.049 A 
ATOM     61  H   UNL A   1      40.461  33.011  30.021  1.00  0.00     0.167 HD
ATOM     62  C   UNL A   1      43.641  31.436  30.428  1.00  0.00     0.074 A 
ATOM     63  C   UNL A   1      44.989  31.318  29.866  1.00  0.00     0.031 C 
ATOM     64  C   UNL A   1      42.875  32.453  30.952  1.00  0.00     0.037 A 
BRANCH  51  65
ATOM     65  C   UNL A   1      36.654  32.893  31.219  1.00  0.00     0.064 A 
ATOM     66  C   UNL A   1      35.944  33.783  30.375  1.00  0.00     0.173 A 
ATOM     67  C   UNL A   1      35.991  32.657  32.449  1.00  0.00     0.173 A 
ATOM     68  F   UNL A   1      36.388  34.079  29.147  1.00  0.00    -0.203 F 
ATOM     69  C   UNL A   1      34.731  34.397  30.739  1.00  0.00     0.198 A 
ATOM     70  C   UNL A   1      34.786  33.283  32.821  1.00  0.00     0.198 A 
ATOM     71  F   UNL A   1      36.437  31.774  33.342  1.00  0.00    -0.203 F 
ATOM     72  F   UNL A   1      34.120  35.226  29.880  1.00  0.00    -0.200 F 
ATOM     73  C   UNL A   1      34.155  34.154  31.966  1.00  0.00     0.200 A 
ATOM     74  F   UNL A   1      34.237  33.011  34.015  1.00  0.00    -0.200 F 
ATOM     75  F   UNL A   1      32.996  34.731  32.311  1.00  0.00    -0.200 F 
ENDBRANCH  51  65
BRANCH  52  76
ATOM     76  C   UNL A   1      44.506  26.583  29.603  1.00  0.00     0.064 A 
ATOM     77  C   UNL A   1      44.658  25.405  30.390  1.00  0.00     0.173 A 
ATOM     78  C   UNL A   1      44.386  26.367  28.219  1.00  0.00     0.173 A 
ATOM     79  F   UNL A   1      44.717  25.506  31.728  1.00  0.00    -0.203 F 
ATOM     80  C   UNL A   1      44.581  24.113  29.853  1.00  0.00     0.198 A 
ATOM     81  C   UNL A   1      44.313  25.062  27.680  1.00  0.00     0.198 A 
ATOM     82  F   UNL A   1      44.223  27.404  27.386  1.00  0.00    -0.203 F 
ATOM     83  F   UNL A   1      44.525  23.050  30.671  1.00  0.00    -0.200 F 
ATOM     84  C   UNL A   1      44.379  23.942  28.497  1.00  0.00     0.200 A 
ATOM     85  F   UNL A   1      44.066  24.891  26.371  1.00  0.00    -0.200 F 
ATOM     86  F   UNL A   1      44.133  22.718  28.005  1.00  0.00    -0.200 F 
ENDBRANCH  52  76
BRANCH  64  87
ATOM     87  C   UNL A   1      43.333  33.867  30.830  1.00  0.00     0.064 A 
ATOM     88  C   UNL A   1      43.323  34.539  29.608  1.00  0.00     0.173 A 
ATOM     89  C   UNL A   1      43.792  34.598  31.948  1.00  0.00     0.173 A 
ATOM     90  F   UNL A   1      43.076  33.884  28.464  1.00  0.00    -0.203 F 
ATOM     91  C   UNL A   1      43.552  35.907  29.544  1.00  0.00     0.198 A 
ATOM     92  C   UNL A   1      44.117  35.939  31.863  1.00  0.00     0.198 A 
ATOM     93  F   UNL A   1      43.899  34.067  33.173  1.00  0.00    -0.203 F 
ATOM     94  F   UNL A   1      43.368  36.551  28.385  1.00  0.00    -0.200 F 
ATOM     95  C   UNL A   1      43.939  36.608  30.674  1.00  0.00     0.200 A 
ATOM     96  F   UNL A   1      44.557  36.581  32.954  1.00  0.00    -0.200 F 
ATOM     97  F   UNL A   1      44.135  37.930  30.618  1.00  0.00    -0.200 F 
ENDBRANCH  64  87
ENDBRANCH  38  39
ENDBRANCH  31  33
ENDBRANCH  30  31
ENDBRANCH  29  30
ENDBRANCH   1  29
TORSDOF 14
ENDMDL
MODEL 2
REMARK VINA RESULT:     -15.4      2.816      9.619
REMARK SMILES Cc1ccc(-c2nc(NC(=O)[C@H]3[C@@H](C(=O)OCCOC(=O)c4ccc(-c5c6nc(c(-c7c(F)c(F)c(F)c(F)c7F)c7ccc([nH]7)c(-c7c(F)c(F)c(F)c(F)c7F)c7nc(c(-c8c(F)c(F)c(F)c(F)c8F)c8ccc5[nH]8)C=C7)C=C6)cc4)[C@@H]4CC[C@H]3O4)sc2C)cc1
REMARK SMILES IDX 17 1 16 2 14 3 15 4 13 5 12 6 88 7 85 8 87 9 89 10 86 11
REMARK SMILES IDX 10 12 9 13 11 15 8 16 6 17 7 18 91 19 90 20 92 21 5 22 1 23
REMARK SMILES IDX 2 24 3 25 94 26 4 27 93 28 18 29 19 30 20 31 21 32 22 33
REMARK SMILES IDX 23 34 84 35 24 36 83 37 25 38 26 39 27 40 77 41 28 42 82 43
REMARK SMILES IDX 76 44 78 45 29 46 81 47 75 48 74 49 30 51 62 52 42 53 61 54
REMARK SMILES IDX 43 55 46 56 60 57 79 58 44 59 45 60 59 62 80 63 47 64 31 65
REMARK SMILES IDX 32 66 40 67 33 68 34 69 38 70 41 71 35 72 36 73 39 74 37 75
REMARK SMILES IDX 63 76 64 77 72 78 65 79 66 80 70 81 73 82 67 83 68 84 71 85
REMARK SMILES IDX 69 86 48 87 49 88 57 89 50 90 51 91 55 92 58 93 52 94 53 95
REMARK SMILES IDX 56 96 54 97
REMARK H PARENT 9 14 78 50 46 61
REMARK Flexibility Score: inf
ROOT
ATOM      1  C   UNL A   1      31.834  28.921  27.525  1.00  0.00     0.274 C 
ENDROOT
BRANCH   1   2
ATOM      2  O   UNL A   1      32.225  27.456  26.919  1.00  0.00    -0.462 OA
BRANCH   2   3
ATOM      3  C   UNL A   1      32.533  27.068  25.549  1.00  0.00     0.312 C 
ATOM      4  O   UNL A   1      33.376  26.239  25.232  1.00  0.00    -0.252 OA
BRANCH   3   5
ATOM      5  C   UNL A   1      31.569  27.803  24.471  1.00  0.00     0.143 C 
ATOM      6  C   UNL A   1      30.242  27.281  24.881  1.00  0.00     0.124 C 
ATOM      7  C   UNL A   1      29.328  27.351  23.668  1.00  0.00     0.132 C 
ATOM      8  C   UNL A   1      31.345  27.610  22.885  1.00  0.00     0.133 C 
ATOM      9  C   UNL A   1      29.257  28.724  23.015  1.00  0.00     0.035 C 
ATOM     10  O   UNL A   1      30.222  26.661  22.776  1.00  0.00    -0.373 OA
ATOM     11  C   UNL A   1      30.534  28.704  22.178  1.00  0.00     0.036 C 
BRANCH   6  12
ATOM     12  C   UNL A   1      30.274  25.786  25.191  1.00  0.00     0.232 C 
ATOM     13  N   UNL A   1      31.097  24.745  24.362  1.00  0.00    -0.302 N 
ATOM     14  H   UNL A   1      31.462  25.325  23.656  1.00  0.00     0.172 HD
ATOM     15  O   UNL A   1      29.630  25.617  26.240  1.00  0.00    -0.274 OA
BRANCH  13  16
ATOM     16  C   UNL A   1      31.709  23.364  23.941  1.00  0.00     0.190 A 
ATOM     17  C   UNL A   1      32.866  21.451  24.045  1.00  0.00     0.086 A 
ATOM     18  N   UNL A   1      31.649  22.117  24.433  1.00  0.00    -0.220 NA
ATOM     19  C   UNL A   1      33.827  22.407  23.743  1.00  0.00     0.031 A 
ATOM     20  S   UNL A   1      32.904  23.243  22.608  1.00  0.00    -0.101 S 
ATOM     21  C   UNL A   1      35.275  22.620  23.840  1.00  0.00     0.059 C 
BRANCH  17  22
ATOM     22  C   UNL A   1      33.210  20.027  23.899  1.00  0.00     0.001 A 
ATOM     23  C   UNL A   1      33.837  15.818  24.654  1.00  0.00     0.044 C 
ATOM     24  C   UNL A   1      33.718  17.257  24.241  1.00  0.00    -0.051 A 
ATOM     25  C   UNL A   1      34.561  18.187  24.830  1.00  0.00     0.004 A 
ATOM     26  C   UNL A   1      32.727  17.716  23.355  1.00  0.00     0.004 A 
ATOM     27  C   UNL A   1      34.322  19.545  24.637  1.00  0.00     0.010 A 
ATOM     28  C   UNL A   1      32.472  19.098  23.181  1.00  0.00     0.010 A 
ENDBRANCH  17  22
ENDBRANCH  13  16
ENDBRANCH   6  12
ENDBRANCH   3   5
ENDBRANCH   2   3
ENDBRANCH   1   2
BRANCH   1  29
ATOM     29  C   UNL A   1      32.581  30.551  26.952  1.00  0.00     0.275 C 
BRANCH  29  30
ATOM     30  O   UNL A   1      34.236  31.284  27.398  1.00  0.00    -0.458 OA
BRANCH  30  31
ATOM     31  C   UNL A   1      35.694  31.273  28.052  1.00  0.00     0.338 C 
ATOM     32  O   UNL A   1      36.268  32.372  28.064  1.00  0.00    -0.246 OA
BRANCH  31  33
ATOM     33  C   UNL A   1      36.685  29.975  28.574  1.00  0.00     0.060 A 
ATOM     34  C   UNL A   1      36.841  29.434  29.864  1.00  0.00     0.016 A 
ATOM     35  C   UNL A   1      37.535  29.269  27.760  1.00  0.00     0.016 A 
ATOM     36  C   UNL A   1      37.985  28.565  30.220  1.00  0.00     0.010 A 
ATOM     37  C   UNL A   1      38.759  28.749  28.051  1.00  0.00     0.010 A 
ATOM     38  C   UNL A   1      39.020  28.333  29.304  1.00  0.00    -0.014 A 
BRANCH  38  39
ATOM     39  C   UNL A   1      40.426  27.899  29.321  1.00  0.00     0.031 A 
ATOM     40  C   UNL A   1      40.820  26.496  28.922  1.00  0.00     0.074 A 
ATOM     41  C   UNL A   1      41.272  28.916  29.015  1.00  0.00     0.049 A 
ATOM     42  N   UNL A   1      42.030  26.062  28.916  1.00  0.00    -0.248 NA
ATOM     43  C   UNL A   1      39.908  25.476  28.392  1.00  0.00     0.031 C 
ATOM     44  C   UNL A   1      42.625  28.947  28.472  1.00  0.00     0.029 A 
ATOM     45  N   UNL A   1      41.005  30.280  29.189  1.00  0.00    -0.354 N 
ATOM     46  C   UNL A   1      42.116  24.947  28.096  1.00  0.00     0.074 A 
ATOM     47  C   UNL A   1      40.746  24.556  27.897  1.00  0.00     0.031 C 
ATOM     48  C   UNL A   1      43.181  30.144  28.778  1.00  0.00     0.029 A 
ATOM     49  C   UNL A   1      42.203  30.920  29.532  1.00  0.00     0.049 A 
ATOM     50  H   UNL A   1      40.128  30.714  29.087  1.00  0.00     0.167 HD
ATOM     51  C   UNL A   1      43.349  24.598  27.600  1.00  0.00     0.037 A 
ATOM     52  C   UNL A   1      42.295  31.311  30.834  1.00  0.00     0.037 A 
ATOM     53  C   UNL A   1      44.368  25.563  28.105  1.00  0.00     0.049 A 
ATOM     54  C   UNL A   1      43.046  30.227  31.593  1.00  0.00     0.074 A 
ATOM     55  C   UNL A   1      45.203  26.526  27.561  1.00  0.00     0.029 A 
ATOM     56  N   UNL A   1      44.373  25.839  29.470  1.00  0.00    -0.354 N 
ATOM     57  N   UNL A   1      43.442  29.123  31.004  1.00  0.00    -0.248 NA
ATOM     58  C   UNL A   1      43.503  30.260  32.971  1.00  0.00     0.031 C 
ATOM     59  C   UNL A   1      45.613  27.419  28.624  1.00  0.00     0.029 A 
ATOM     60  C   UNL A   1      45.032  27.002  29.817  1.00  0.00     0.049 A 
ATOM     61  H   UNL A   1      43.942  25.254  30.134  1.00  0.00     0.167 HD
ATOM     62  C   UNL A   1      44.306  28.417  31.754  1.00  0.00     0.074 A 
ATOM     63  C   UNL A   1      44.211  29.110  33.041  1.00  0.00     0.031 C 
ATOM     64  C   UNL A   1      45.058  27.383  31.243  1.00  0.00     0.037 A 
BRANCH  51  65
ATOM     65  C   UNL A   1      43.656  23.504  26.556  1.00  0.00     0.064 A 
ATOM     66  C   UNL A   1      43.314  22.152  26.806  1.00  0.00     0.173 A 
ATOM     67  C   UNL A   1      44.258  23.692  25.287  1.00  0.00     0.173 A 
ATOM     68  F   UNL A   1      42.684  21.791  27.931  1.00  0.00    -0.203 F 
ATOM     69  C   UNL A   1      43.582  21.104  25.905  1.00  0.00     0.198 A 
ATOM     70  C   UNL A   1      44.541  22.644  24.392  1.00  0.00     0.198 A 
ATOM     71  F   UNL A   1      44.563  24.900  24.814  1.00  0.00    -0.203 F 
ATOM     72  F   UNL A   1      43.222  19.850  26.216  1.00  0.00    -0.200 F 
ATOM     73  C   UNL A   1      44.203  21.348  24.700  1.00  0.00     0.200 A 
ATOM     74  F   UNL A   1      45.128  22.914  23.216  1.00  0.00    -0.200 F 
ATOM     75  F   UNL A   1      44.450  20.353  23.837  1.00  0.00    -0.200 F 
ENDBRANCH  51  65
BRANCH  52  76
ATOM     76  C   UNL A   1      41.168  32.262  31.160  1.00  0.00     0.064 A 
ATOM     77  C   UNL A   1      41.194  33.517  30.488  1.00  0.00     0.173 A 
ATOM     78  C   UNL A   1      39.920  31.892  31.691  1.00  0.00     0.173 A 
ATOM     79  F   UNL A   1      42.326  33.927  29.893  1.00  0.00    -0.203 F 
ATOM     80  C   UNL A   1      40.044  34.286  30.263  1.00  0.00     0.198 A 
ATOM     81  C   UNL A   1      38.762  32.672  31.466  1.00  0.00     0.198 A 
ATOM     82  F   UNL A   1      39.778  30.723  32.330  1.00  0.00    -0.203 F 
ATOM     83  F   UNL A   1      40.100  35.352  29.447  1.00  0.00    -0.200 F 
ATOM     84  C   UNL A   1      38.820  33.847  30.729  1.00  0.00     0.200 A 
ATOM     85  F   UNL A   1      37.564  32.224  31.872  1.00  0.00    -0.200 F 
ATOM     86  F   UNL A   1      37.696  34.487  30.370  1.00  0.00    -0.200 F 
ENDBRANCH  52  76
BRANCH  64  87
ATOM     87  C   UNL A   1      45.907  26.560  32.152  1.00  0.00     0.064 A 
ATOM     88  C   UNL A   1      45.352  25.643  33.044  1.00  0.00     0.173 A 
ATOM     89  C   UNL A   1      47.315  26.664  32.149  1.00  0.00     0.173 A 
ATOM     90  F   UNL A   1      44.027  25.597  33.249  1.00  0.00    -0.203 F 
ATOM     91  C   UNL A   1      46.153  24.741  33.731  1.00  0.00     0.198 A 
ATOM     92  C   UNL A   1      48.112  25.830  32.911  1.00  0.00     0.198 A 
ATOM     93  F   UNL A   1      47.981  27.534  31.378  1.00  0.00    -0.203 F 
ATOM     94  F   UNL A   1      45.581  23.765  34.446  1.00  0.00    -0.200 F 
ATOM     95  C   UNL A   1      47.533  24.830  33.656  1.00  0.00     0.200 A 
ATOM     96  F   UNL A   1      49.444  25.979  32.878  1.00  0.00    -0.200 F 
ATOM     97  F   UNL A   1      48.305  23.945  34.298  1.00  0.00    -0.200 F 
ENDBRANCH  64  87
ENDBRANCH  38  39
ENDBRANCH  31  33
ENDBRANCH  30  31
ENDBRANCH  29  30
ENDBRANCH   1  29
TORSDOF 14
ENDMDL
MODEL 3
REMARK VINA RESULT:     -15.2      1.658      2.472
REMARK SMILES Cc1ccc(-c2nc(NC(=O)[C@H]3[C@@H](C(=O)OCCOC(=O)c4ccc(-c5c6nc(c(-c7c(F)c(F)c(F)c(F)c7F)c7ccc([nH]7)c(-c7c(F)c(F)c(F)c(F)c7F)c7nc(c(-c8c(F)c(F)c(F)c(F)c8F)c8ccc5[nH]8)C=C7)C=C6)cc4)[C@@H]4CC[C@H]3O4)sc2C)cc1
REMARK SMILES IDX 17 1 16 2 14 3 15 4 13 5 12 6 88 7 85 8 87 9 89 10 86 11
REMARK SMILES IDX 10 12 9 13 11 15 8 16 6 17 7 18 91 19 90 20 92 21 5 22 1 23
REMARK SMILES IDX 2 24 3 25 94 26 4 27 93 28 18 29 19 30 20 31 21 32 22 33
REMARK SMILES IDX 23 34 84 35 24 36 83 37 25 38 26 39 27 40 77 41 28 42 82 43
REMARK SMILES IDX 76 44 78 45 29 46 81 47 75 48 74 49 30 51 62 52 42 53 61 54
REMARK SMILES IDX 43 55 46 56 60 57 79 58 44 59 45 60 59 62 80 63 47 64 31 65
REMARK SMILES IDX 32 66 40 67 33 68 34 69 38 70 41 71 35 72 36 73 39 74 37 75
REMARK SMILES IDX 63 76 64 77 72 78 65 79 66 80 70 81 73 82 67 83 68 84 71 85
REMARK SMILES IDX 69 86 48 87 49 88 57 89 50 90 51 91 55 92 58 93 52 94 53 95
REMARK SMILES IDX 56 96 54 97
REMARK H PARENT 9 14 78 50 46 61
REMARK Flexibility Score: inf
ROOT
ATOM      1  C   UNL A   1      37.300  21.905  24.274  1.00  0.00     0.274 C 
ENDROOT
BRANCH   1   2
ATOM      2  O   UNL A   1      35.688  21.825  24.528  1.00  0.00    -0.462 OA
BRANCH   2   3
ATOM      3  C   UNL A   1      34.935  21.021  25.481  1.00  0.00     0.312 C 
ATOM      4  O   UNL A   1      34.777  21.306  26.661  1.00  0.00    -0.252 OA
BRANCH   3   5
ATOM      5  C   UNL A   1      34.247  19.728  24.784  1.00  0.00     0.143 C 
ATOM      6  C   UNL A   1      33.275  20.384  23.874  1.00  0.00     0.124 C 
ATOM      7  C   UNL A   1      32.155  19.391  23.609  1.00  0.00     0.132 C 
ATOM      8  C   UNL A   1      33.233  18.596  25.327  1.00  0.00     0.133 C 
ATOM      9  C   UNL A   1      32.625  18.034  23.106  1.00  0.00     0.035 C 
ATOM     10  O   UNL A   1      31.889  19.103  24.994  1.00  0.00    -0.373 OA
ATOM     11  C   UNL A   1      33.035  17.374  24.421  1.00  0.00     0.036 C 
BRANCH   6  12
ATOM     12  C   UNL A   1      32.543  21.547  24.542  1.00  0.00     0.232 C 
ATOM     13  N   UNL A   1      33.142  22.986  24.678  1.00  0.00    -0.302 N 
ATOM     14  H   UNL A   1      34.036  22.846  24.291  1.00  0.00     0.172 HD
ATOM     15  O   UNL A   1      31.406  21.143  24.833  1.00  0.00    -0.274 OA
BRANCH  13  16
ATOM     16  C   UNL A   1      33.224  24.510  25.039  1.00  0.00     0.190 A 
ATOM     17  C   UNL A   1      32.691  26.501  25.912  1.00  0.00     0.086 A 
ATOM     18  N   UNL A   1      33.258  25.205  26.186  1.00  0.00    -0.220 NA
ATOM     19  C   UNL A   1      31.909  26.417  24.767  1.00  0.00     0.031 A 
ATOM     20  S   UNL A   1      33.109  25.775  23.773  1.00  0.00    -0.101 S 
ATOM     21  C   UNL A   1      30.680  26.979  24.198  1.00  0.00     0.059 C 
BRANCH  17  22
ATOM     22  C   UNL A   1      32.828  27.802  26.585  1.00  0.00     0.001 A 
ATOM     23  C   UNL A   1      33.724  31.939  27.461  1.00  0.00     0.044 C 
ATOM     24  C   UNL A   1      33.387  30.481  27.335  1.00  0.00    -0.051 A 
ATOM     25  C   UNL A   1      34.425  29.568  27.225  1.00  0.00     0.004 A 
ATOM     26  C   UNL A   1      32.066  30.011  27.229  1.00  0.00     0.004 A 
ATOM     27  C   UNL A   1      34.142  28.249  26.882  1.00  0.00     0.010 A 
ATOM     28  C   UNL A   1      31.783  28.674  26.856  1.00  0.00     0.010 A 
ENDBRANCH  17  22
ENDBRANCH  13  16
ENDBRANCH   6  12
ENDBRANCH   3   5
ENDBRANCH   2   3
ENDBRANCH   1   2
BRANCH   1  29
ATOM     29  C   UNL A   1      38.596  21.069  25.353  1.00  0.00     0.275 C 
BRANCH  29  30
ATOM     30  O   UNL A   1      39.639  21.823  26.701  1.00  0.00    -0.458 OA
BRANCH  30  31
ATOM     31  C   UNL A   1      40.351  23.025  27.477  1.00  0.00     0.338 C 
ATOM     32  O   UNL A   1      41.133  22.675  28.374  1.00  0.00    -0.246 OA
BRANCH  31  33
ATOM     33  C   UNL A   1      40.086  24.717  27.419  1.00  0.00     0.060 A 
ATOM     34  C   UNL A   1      40.608  25.673  26.527  1.00  0.00     0.016 A 
ATOM     35  C   UNL A   1      39.308  25.415  28.311  1.00  0.00     0.016 A 
ATOM     36  C   UNL A   1      40.576  27.123  26.819  1.00  0.00     0.010 A 
ATOM     37  C   UNL A   1      39.498  26.667  28.810  1.00  0.00     0.010 A 
ATOM     38  C   UNL A   1      40.113  27.595  28.055  1.00  0.00    -0.014 A 
BRANCH  38  39
ATOM     39  C   UNL A   1      40.235  28.804  28.886  1.00  0.00     0.031 A 
ATOM     40  C   UNL A   1      39.213  29.914  28.810  1.00  0.00     0.074 A 
ATOM     41  C   UNL A   1      40.804  28.534  30.088  1.00  0.00     0.049 A 
ATOM     42  N   UNL A   1      39.267  30.991  29.511  1.00  0.00    -0.248 NA
ATOM     43  C   UNL A   1      37.978  29.881  28.017  1.00  0.00     0.031 C 
ATOM     44  C   UNL A   1      40.748  29.207  31.381  1.00  0.00     0.029 A 
ATOM     45  N   UNL A   1      41.661  27.461  30.364  1.00  0.00    -0.354 N 
ATOM     46  C   UNL A   1      38.008  31.571  29.563  1.00  0.00     0.074 A 
ATOM     47  C   UNL A   1      37.277  30.906  28.517  1.00  0.00     0.031 C 
ATOM     48  C   UNL A   1      41.821  28.818  32.111  1.00  0.00     0.029 A 
ATOM     49  C   UNL A   1      42.603  27.886  31.308  1.00  0.00     0.049 A 
ATOM     50  H   UNL A   1      41.609  26.564  29.963  1.00  0.00     0.167 HD
ATOM     51  C   UNL A   1      37.738  32.448  30.586  1.00  0.00     0.037 A 
ATOM     52  C   UNL A   1      43.861  28.080  30.821  1.00  0.00     0.037 A 
ATOM     53  C   UNL A   1      38.949  32.580  31.446  1.00  0.00     0.049 A 
ATOM     54  C   UNL A   1      44.012  29.560  30.499  1.00  0.00     0.074 A 
ATOM     55  C   UNL A   1      39.300  32.267  32.749  1.00  0.00     0.029 A 
ATOM     56  N   UNL A   1      40.166  32.819  30.813  1.00  0.00    -0.354 N 
ATOM     57  N   UNL A   1      43.018  30.402  30.653  1.00  0.00    -0.248 NA
ATOM     58  C   UNL A   1      45.214  30.261  30.086  1.00  0.00     0.031 C 
ATOM     59  C   UNL A   1      40.745  32.237  32.832  1.00  0.00     0.029 A 
ATOM     60  C   UNL A   1      41.277  32.533  31.581  1.00  0.00     0.049 A 
ATOM     61  H   UNL A   1      40.230  33.163  29.893  1.00  0.00     0.167 HD
ATOM     62  C   UNL A   1      43.409  31.685  30.575  1.00  0.00     0.074 A 
ATOM     63  C   UNL A   1      44.783  31.543  30.085  1.00  0.00     0.031 C 
ATOM     64  C   UNL A   1      42.607  32.730  30.973  1.00  0.00     0.037 A 
BRANCH  51  65
ATOM     65  C   UNL A   1      36.375  33.084  30.930  1.00  0.00     0.064 A 
ATOM     66  C   UNL A   1      35.728  33.946  30.010  1.00  0.00     0.173 A 
ATOM     67  C   UNL A   1      35.627  32.888  32.118  1.00  0.00     0.173 A 
ATOM     68  F   UNL A   1      36.257  34.202  28.807  1.00  0.00    -0.203 F 
ATOM     69  C   UNL A   1      34.493  34.571  30.268  1.00  0.00     0.198 A 
ATOM     70  C   UNL A   1      34.401  33.525  32.384  1.00  0.00     0.198 A 
ATOM     71  F   UNL A   1      36.007  32.035  33.068  1.00  0.00    -0.203 F 
ATOM     72  F   UNL A   1      33.945  35.371  29.342  1.00  0.00    -0.200 F 
ATOM     73  C   UNL A   1      33.833  34.368  31.459  1.00  0.00     0.200 A 
ATOM     74  F   UNL A   1      33.769  33.292  33.545  1.00  0.00    -0.200 F 
ATOM     75  F   UNL A   1      32.653  34.955  31.704  1.00  0.00    -0.200 F 
ENDBRANCH  51  65
BRANCH  52  76
ATOM     76  C   UNL A   1      44.376  26.795  30.217  1.00  0.00     0.064 A 
ATOM     77  C   UNL A   1      44.573  25.713  31.123  1.00  0.00     0.173 A 
ATOM     78  C   UNL A   1      44.268  26.431  28.864  1.00  0.00     0.173 A 
ATOM     79  F   UNL A   1      44.625  25.955  32.443  1.00  0.00    -0.203 F 
ATOM     80  C   UNL A   1      44.548  24.369  30.724  1.00  0.00     0.198 A 
ATOM     81  C   UNL A   1      44.247  25.075  28.464  1.00  0.00     0.198 A 
ATOM     82  F   UNL A   1      44.066  27.368  27.928  1.00  0.00    -0.203 F 
ATOM     83  F   UNL A   1      44.531  23.396  31.649  1.00  0.00    -0.200 F 
ATOM     84  C   UNL A   1      44.355  24.050  29.394  1.00  0.00     0.200 A 
ATOM     85  F   UNL A   1      44.009  24.759  27.181  1.00  0.00    -0.200 F 
ATOM     86  F   UNL A   1      44.158  22.772  29.033  1.00  0.00    -0.200 F 
ENDBRANCH  52  76
BRANCH  64  87
ATOM     87  C   UNL A   1      43.050  34.137  30.748  1.00  0.00     0.064 A 
ATOM     88  C   UNL A   1      42.998  34.730  29.487  1.00  0.00     0.173 A 
ATOM     89  C   UNL A   1      43.539  34.939  31.803  1.00  0.00     0.173 A 
ATOM     90  F   UNL A   1      42.720  34.002  28.394  1.00  0.00    -0.203 F 
ATOM     91  C   UNL A   1      43.215  36.092  29.329  1.00  0.00     0.198 A 
ATOM     92  C   UNL A   1      43.851  36.274  31.622  1.00  0.00     0.198 A 
ATOM     93  F   UNL A   1      43.688  34.488  33.054  1.00  0.00    -0.203 F 
ATOM     94  F   UNL A   1      42.990  36.660  28.138  1.00  0.00    -0.200 F 
ATOM     95  C   UNL A   1      43.632  36.865  30.399  1.00  0.00     0.200 A 
ATOM     96  F   UNL A   1      44.320  36.987  32.656  1.00  0.00    -0.200 F 
ATOM     97  F   UNL A   1      43.817  38.182  30.253  1.00  0.00    -0.200 F 
ENDBRANCH  64  87
ENDBRANCH  38  39
ENDBRANCH  31  33
ENDBRANCH  30  31
ENDBRANCH  29  30
ENDBRANCH   1  29
TORSDOF 14
ENDMDL
