MODEL 1
REMARK VINA RESULT:     -11.2      0.000      0.000
REMARK SMILES CCCCNC(=O)[C@@H](C)Oc1ccc(N)cc1C(=O)OCCOC(=O)c1ccc(-c2c3nc(c(-c4c(F)c(F)c(F)c(F)c4F)c4ccc([nH]4)c(-c4c(F)c(F)c(F)c(F)c4F)c4nc(c(-c5c(F)c(F)c(F)c(F)c5F)c5ccc2[nH]5)C=C4)C=C3)cc1
REMARK SMILES IDX 18 1 19 2 17 3 11 4 12 5 13 6 16 7 14 8 10 9 8 10 9 11 6 12
REMARK SMILES IDX 5 13 7 15 4 16 3 17 2 18 1 19 15 20 20 23 21 24 22 25 23 26
REMARK SMILES IDX 24 27 25 28 26 29 27 30 88 31 28 32 87 33 29 34 30 35 31 36
REMARK SMILES IDX 81 37 32 38 86 39 80 40 82 41 33 42 85 43 79 44 78 45 34 47
REMARK SMILES IDX 66 48 46 49 65 50 47 51 50 52 64 53 83 54 48 55 49 56 63 58
REMARK SMILES IDX 84 59 51 60 35 61 36 62 44 63 37 64 38 65 42 66 45 67 39 68
REMARK SMILES IDX 40 69 43 70 41 71 67 72 68 73 76 74 69 75 70 76 74 77 77 78
REMARK SMILES IDX 71 79 72 80 75 81 73 82 52 83 53 84 61 85 54 86 55 87 59 88
REMARK SMILES IDX 62 89 56 90 57 91 60 92 58 93
REMARK H PARENT 5 14 15 21 15 22 82 46 50 57
REMARK Flexibility Score: inf
ROOT
ATOM      1  C   UNL A   1      33.206  27.031  24.922  1.00  0.00     0.342 C 
ATOM      2  O   UNL A   1      33.839  27.016  25.970  1.00  0.00    -0.246 OA
ENDROOT
BRANCH   1   3
ATOM      3  C   UNL A   1      33.455  26.004  23.888  1.00  0.00     0.104 A 
ATOM      4  C   UNL A   1      33.714  24.678  24.212  1.00  0.00     0.135 A 
ATOM      5  C   UNL A   1      33.308  23.679  23.324  1.00  0.00     0.049 A 
ATOM      6  C   UNL A   1      32.864  24.015  22.037  1.00  0.00     0.029 A 
ATOM      7  C   UNL A   1      33.123  26.322  22.564  1.00  0.00     0.045 A 
ATOM      8  C   UNL A   1      32.892  25.337  21.609  1.00  0.00     0.032 A 
BRANCH   4   9
ATOM      9  O   UNL A   1      34.297  24.329  25.390  1.00  0.00    -0.480 OA
BRANCH   9  10
ATOM     10  C   UNL A   1      33.584  23.304  26.102  1.00  0.00     0.258 C 
ATOM     11  C   UNL A   1      32.281  23.785  26.747  1.00  0.00     0.064 C 
BRANCH  10  12
ATOM     12  C   UNL A   1      34.342  22.228  26.945  1.00  0.00     0.260 C 
ATOM     13  N   UNL A   1      35.404  21.501  26.489  1.00  0.00    -0.353 N 
ATOM     14  H   UNL A   1      35.927  21.053  27.193  1.00  0.00     0.163 HD
ATOM     15  O   UNL A   1      33.989  22.003  28.111  1.00  0.00    -0.271 OA
BRANCH  13  16
ATOM     16  C   UNL A   1      35.888  21.279  25.142  1.00  0.00     0.116 C 
BRANCH  16  17
ATOM     17  C   UNL A   1      37.278  21.845  24.873  1.00  0.00     0.021 C 
BRANCH  17  18
ATOM     18  C   UNL A   1      37.393  23.369  25.004  1.00  0.00    -0.002 C 
ATOM     19  C   UNL A   1      38.116  23.837  26.263  1.00  0.00     0.004 C 
ENDBRANCH  17  18
ENDBRANCH  16  17
ENDBRANCH  13  16
ENDBRANCH  10  12
ENDBRANCH   9  10
ENDBRANCH   4   9
BRANCH   8  20
ATOM     20  N   UNL A   1      32.550  25.691  20.316  1.00  0.00    -0.399 N 
ATOM     21  H   UNL A   1      33.111  25.396  19.561  1.00  0.00     0.156 HD
ATOM     22  H   UNL A   1      31.746  26.234  20.150  1.00  0.00     0.156 HD
ENDBRANCH   8  20
ENDBRANCH   1   3
BRANCH   1  23
ATOM     23  O   UNL A   1      32.240  27.920  24.603  1.00  0.00    -0.458 OA
BRANCH  23  24
ATOM     24  C   UNL A   1      32.643  29.306  24.662  1.00  0.00     0.275 C 
BRANCH  24  25
ATOM     25  C   UNL A   1      31.797  30.114  25.646  1.00  0.00     0.275 C 
BRANCH  25  26
ATOM     26  O   UNL A   1      32.416  30.184  26.945  1.00  0.00    -0.458 OA
BRANCH  26  27
ATOM     27  C   UNL A   1      33.072  31.338  27.195  1.00  0.00     0.338 C 
ATOM     28  O   UNL A   1      32.623  32.471  27.184  1.00  0.00    -0.246 OA
BRANCH  27  29
ATOM     29  C   UNL A   1      34.464  31.070  27.583  1.00  0.00     0.060 A 
ATOM     30  C   UNL A   1      34.820  29.758  27.862  1.00  0.00     0.016 A 
ATOM     31  C   UNL A   1      35.330  32.108  27.909  1.00  0.00     0.016 A 
ATOM     32  C   UNL A   1      35.944  29.484  28.631  1.00  0.00     0.010 A 
ATOM     33  C   UNL A   1      36.548  31.814  28.538  1.00  0.00     0.010 A 
ATOM     34  C   UNL A   1      36.845  30.504  28.959  1.00  0.00    -0.014 A 
BRANCH  34  35
ATOM     35  C   UNL A   1      38.072  30.193  29.749  1.00  0.00     0.031 A 
ATOM     36  C   UNL A   1      39.163  29.332  29.163  1.00  0.00     0.074 A 
ATOM     37  C   UNL A   1      38.229  30.699  30.990  1.00  0.00     0.049 A 
ATOM     38  N   UNL A   1      40.206  28.797  29.749  1.00  0.00    -0.248 NA
ATOM     39  C   UNL A   1      39.059  29.015  27.730  1.00  0.00     0.031 C 
ATOM     40  C   UNL A   1      37.290  31.596  31.667  1.00  0.00     0.029 A 
ATOM     41  N   UNL A   1      39.244  30.545  31.902  1.00  0.00    -0.354 N 
ATOM     42  C   UNL A   1      40.835  28.025  28.780  1.00  0.00     0.074 A 
ATOM     43  C   UNL A   1      40.061  28.162  27.565  1.00  0.00     0.031 C 
ATOM     44  C   UNL A   1      37.799  31.963  32.851  1.00  0.00     0.029 A 
ATOM     45  C   UNL A   1      39.039  31.233  33.074  1.00  0.00     0.049 A 
ATOM     46  H   UNL A   1      40.043  29.994  31.733  1.00  0.00     0.167 HD
ATOM     47  C   UNL A   1      41.954  27.267  28.899  1.00  0.00     0.037 A 
ATOM     48  C   UNL A   1      39.737  31.238  34.226  1.00  0.00     0.037 A 
ATOM     49  C   UNL A   1      42.754  27.188  30.095  1.00  0.00     0.049 A 
ATOM     50  C   UNL A   1      40.942  30.352  34.348  1.00  0.00     0.074 A 
ATOM     51  C   UNL A   1      43.921  26.475  30.308  1.00  0.00     0.029 A 
ATOM     52  N   UNL A   1      42.475  27.858  31.278  1.00  0.00    -0.354 N 
ATOM     53  N   UNL A   1      41.495  29.579  33.447  1.00  0.00    -0.248 NA
ATOM     54  C   UNL A   1      41.599  30.316  35.661  1.00  0.00     0.031 C 
ATOM     55  C   UNL A   1      44.322  26.675  31.633  1.00  0.00     0.029 A 
ATOM     56  C   UNL A   1      43.435  27.556  32.232  1.00  0.00     0.049 A 
ATOM     57  H   UNL A   1      41.708  28.458  31.420  1.00  0.00     0.167 HD
ATOM     58  C   UNL A   1      42.576  28.978  34.075  1.00  0.00     0.074 A 
ATOM     59  C   UNL A   1      42.609  29.490  35.429  1.00  0.00     0.031 C 
ATOM     60  C   UNL A   1      43.458  28.079  33.574  1.00  0.00     0.037 A 
BRANCH  47  61
ATOM     61  C   UNL A   1      42.351  26.422  27.721  1.00  0.00     0.064 A 
ATOM     62  C   UNL A   1      43.349  26.814  26.817  1.00  0.00     0.173 A 
ATOM     63  C   UNL A   1      41.728  25.181  27.507  1.00  0.00     0.173 A 
ATOM     64  F   UNL A   1      43.969  27.994  26.965  1.00  0.00    -0.203 F 
ATOM     65  C   UNL A   1      43.683  26.014  25.725  1.00  0.00     0.198 A 
ATOM     66  C   UNL A   1      42.088  24.369  26.434  1.00  0.00     0.198 A 
ATOM     67  F   UNL A   1      40.773  24.750  28.345  1.00  0.00    -0.203 F 
ATOM     68  F   UNL A   1      44.599  26.436  24.842  1.00  0.00    -0.200 F 
ATOM     69  C   UNL A   1      43.056  24.791  25.537  1.00  0.00     0.200 A 
ATOM     70  F   UNL A   1      41.490  23.181  26.264  1.00  0.00    -0.200 F 
ATOM     71  F   UNL A   1      43.380  24.023  24.488  1.00  0.00    -0.200 F 
ENDBRANCH  47  61
BRANCH  48  72
ATOM     72  C   UNL A   1      39.284  32.083  35.363  1.00  0.00     0.064 A 
ATOM     73  C   UNL A   1      38.464  31.552  36.367  1.00  0.00     0.173 A 
ATOM     74  C   UNL A   1      39.675  33.425  35.481  1.00  0.00     0.173 A 
ATOM     75  F   UNL A   1      38.041  30.281  36.284  1.00  0.00    -0.203 F 
ATOM     76  C   UNL A   1      38.047  32.333  37.443  1.00  0.00     0.198 A 
ATOM     77  C   UNL A   1      39.287  34.195  36.575  1.00  0.00     0.198 A 
ATOM     78  F   UNL A   1      40.459  33.983  34.547  1.00  0.00    -0.203 F 
ATOM     79  F   UNL A   1      37.231  31.812  38.370  1.00  0.00    -0.200 F 
ATOM     80  C   UNL A   1      38.468  33.650  37.552  1.00  0.00     0.200 A 
ATOM     81  F   UNL A   1      39.710  35.461  36.684  1.00  0.00    -0.200 F 
ATOM     82  F   UNL A   1      38.078  34.397  38.594  1.00  0.00    -0.200 F 
ENDBRANCH  48  72
BRANCH  60  83
ATOM     83  C   UNL A   1      44.559  27.627  34.487  1.00  0.00     0.064 A 
ATOM     84  C   UNL A   1      44.433  26.478  35.282  1.00  0.00     0.173 A 
ATOM     85  C   UNL A   1      45.764  28.344  34.552  1.00  0.00     0.173 A 
ATOM     86  F   UNL A   1      43.293  25.770  35.269  1.00  0.00    -0.203 F 
ATOM     87  C   UNL A   1      45.463  26.078  36.129  1.00  0.00     0.198 A 
ATOM     88  C   UNL A   1      46.802  27.925  35.379  1.00  0.00     0.198 A 
ATOM     89  F   UNL A   1      45.934  29.448  33.810  1.00  0.00    -0.203 F 
ATOM     90  F   UNL A   1      45.301  25.008  36.918  1.00  0.00    -0.200 F 
ATOM     91  C   UNL A   1      46.648  26.798  36.172  1.00  0.00     0.200 A 
ATOM     92  F   UNL A   1      47.951  28.614  35.410  1.00  0.00    -0.200 F 
ATOM     93  F   UNL A   1      47.640  26.410  36.985  1.00  0.00    -0.200 F 
ENDBRANCH  60  83
ENDBRANCH  34  35
ENDBRANCH  27  29
ENDBRANCH  26  27
ENDBRANCH  25  26
ENDBRANCH  24  25
ENDBRANCH  23  24
ENDBRANCH   1  23
TORSDOF 18
ENDMDL
MODEL 2
REMARK VINA RESULT:     -11.1      1.574      3.824
REMARK SMILES CCCCNC(=O)[C@@H](C)Oc1ccc(N)cc1C(=O)OCCOC(=O)c1ccc(-c2c3nc(c(-c4c(F)c(F)c(F)c(F)c4F)c4ccc([nH]4)c(-c4c(F)c(F)c(F)c(F)c4F)c4nc(c(-c5c(F)c(F)c(F)c(F)c5F)c5ccc2[nH]5)C=C4)C=C3)cc1
REMARK SMILES IDX 18 1 19 2 17 3 11 4 12 5 13 6 16 7 14 8 10 9 8 10 9 11 6 12
REMARK SMILES IDX 5 13 7 15 4 16 3 17 2 18 1 19 15 20 20 23 21 24 22 25 23 26
REMARK SMILES IDX 24 27 25 28 26 29 27 30 88 31 28 32 87 33 29 34 30 35 31 36
REMARK SMILES IDX 81 37 32 38 86 39 80 40 82 41 33 42 85 43 79 44 78 45 34 47
REMARK SMILES IDX 66 48 46 49 65 50 47 51 50 52 64 53 83 54 48 55 49 56 63 58
REMARK SMILES IDX 84 59 51 60 35 61 36 62 44 63 37 64 38 65 42 66 45 67 39 68
REMARK SMILES IDX 40 69 43 70 41 71 67 72 68 73 76 74 69 75 70 76 74 77 77 78
REMARK SMILES IDX 71 79 72 80 75 81 73 82 52 83 53 84 61 85 54 86 55 87 59 88
REMARK SMILES IDX 62 89 56 90 57 91 60 92 58 93
REMARK H PARENT 5 14 15 21 15 22 82 46 50 57
REMARK Flexibility Score: inf
ROOT
ATOM      1  C   UNL A   1      32.383  26.769  26.156  1.00  0.00     0.342 C 
ATOM      2  O   UNL A   1      33.565  26.976  26.403  1.00  0.00    -0.246 OA
ENDROOT
BRANCH   1   3
ATOM      3  C   UNL A   1      31.972  25.512  25.494  1.00  0.00     0.104 A 
ATOM      4  C   UNL A   1      32.681  24.973  24.429  1.00  0.00     0.135 A 
ATOM      5  C   UNL A   1      32.699  23.585  24.268  1.00  0.00     0.049 A 
ATOM      6  C   UNL A   1      31.834  22.776  25.019  1.00  0.00     0.029 A 
ATOM      7  C   UNL A   1      31.031  24.709  26.153  1.00  0.00     0.045 A 
ATOM      8  C   UNL A   1      30.904  23.352  25.877  1.00  0.00     0.032 A 
BRANCH   4   9
ATOM      9  O   UNL A   1      33.402  25.753  23.579  1.00  0.00    -0.480 OA
BRANCH   9  10
ATOM     10  C   UNL A   1      32.590  26.594  22.743  1.00  0.00     0.258 C 
ATOM     11  C   UNL A   1      32.194  25.949  21.411  1.00  0.00     0.064 C 
BRANCH  10  12
ATOM     12  C   UNL A   1      32.853  28.132  22.641  1.00  0.00     0.260 C 
ATOM     13  N   UNL A   1      31.872  29.080  22.617  1.00  0.00    -0.353 N 
ATOM     14  H   UNL A   1      32.181  29.996  22.800  1.00  0.00     0.163 HD
ATOM     15  O   UNL A   1      34.017  28.552  22.589  1.00  0.00    -0.271 OA
BRANCH  13  16
ATOM     16  C   UNL A   1      30.450  28.961  22.366  1.00  0.00     0.116 C 
BRANCH  16  17
ATOM     17  C   UNL A   1      29.569  29.628  23.416  1.00  0.00     0.021 C 
BRANCH  17  18
ATOM     18  C   UNL A   1      28.180  30.052  22.922  1.00  0.00    -0.002 C 
ATOM     19  C   UNL A   1      27.684  31.373  23.501  1.00  0.00     0.004 C 
ENDBRANCH  17  18
ENDBRANCH  16  17
ENDBRANCH  13  16
ENDBRANCH  10  12
ENDBRANCH   9  10
ENDBRANCH   4   9
BRANCH   8  20
ATOM     20  N   UNL A   1      29.975  22.588  26.561  1.00  0.00    -0.399 N 
ATOM     21  H   UNL A   1      29.474  22.980  27.313  1.00  0.00     0.156 HD
ATOM     22  H   UNL A   1      29.814  21.654  26.295  1.00  0.00     0.156 HD
ENDBRANCH   8  20
ENDBRANCH   1   3
BRANCH   1  23
ATOM     23  O   UNL A   1      31.362  27.599  26.458  1.00  0.00    -0.458 OA
BRANCH  23  24
ATOM     24  C   UNL A   1      31.711  28.708  27.314  1.00  0.00     0.275 C 
BRANCH  24  25
ATOM     25  C   UNL A   1      31.734  30.039  26.560  1.00  0.00     0.275 C 
BRANCH  25  26
ATOM     26  O   UNL A   1      33.081  30.492  26.326  1.00  0.00    -0.458 OA
BRANCH  26  27
ATOM     27  C   UNL A   1      33.527  31.414  27.207  1.00  0.00     0.338 C 
ATOM     28  O   UNL A   1      32.908  32.346  27.690  1.00  0.00    -0.246 OA
BRANCH  27  29
ATOM     29  C   UNL A   1      34.908  31.119  27.613  1.00  0.00     0.060 A 
ATOM     30  C   UNL A   1      35.243  29.796  27.864  1.00  0.00     0.016 A 
ATOM     31  C   UNL A   1      35.779  32.138  27.983  1.00  0.00     0.016 A 
ATOM     32  C   UNL A   1      36.349  29.489  28.646  1.00  0.00     0.010 A 
ATOM     33  C   UNL A   1      36.982  31.812  28.626  1.00  0.00     0.010 A 
ATOM     34  C   UNL A   1      37.255  30.488  29.018  1.00  0.00    -0.014 A 
BRANCH  34  35
ATOM     35  C   UNL A   1      38.463  30.142  29.822  1.00  0.00     0.031 A 
ATOM     36  C   UNL A   1      39.550  29.275  29.238  1.00  0.00     0.074 A 
ATOM     37  C   UNL A   1      38.607  30.621  31.076  1.00  0.00     0.049 A 
ATOM     38  N   UNL A   1      40.574  28.712  29.831  1.00  0.00    -0.248 NA
ATOM     39  C   UNL A   1      39.467  28.989  27.798  1.00  0.00     0.031 C 
ATOM     40  C   UNL A   1      37.671  31.519  31.755  1.00  0.00     0.029 A 
ATOM     41  N   UNL A   1      39.604  30.432  32.002  1.00  0.00    -0.354 N 
ATOM     42  C   UNL A   1      41.208  27.949  28.857  1.00  0.00     0.074 A 
ATOM     43  C   UNL A   1      40.457  28.123  27.632  1.00  0.00     0.031 C 
ATOM     44  C   UNL A   1      38.165  31.854  32.954  1.00  0.00     0.029 A 
ATOM     45  C   UNL A   1      39.389  31.100  33.184  1.00  0.00     0.049 A 
ATOM     46  H   UNL A   1      40.397  29.871  31.836  1.00  0.00     0.167 HD
ATOM     47  C   UNL A   1      42.312  27.171  28.980  1.00  0.00     0.037 A 
ATOM     48  C   UNL A   1      40.067  31.071  34.347  1.00  0.00     0.037 A 
ATOM     49  C   UNL A   1      43.090  27.055  30.187  1.00  0.00     0.049 A 
ATOM     50  C   UNL A   1      41.255  30.163  34.472  1.00  0.00     0.074 A 
ATOM     51  C   UNL A   1      44.242  26.319  30.406  1.00  0.00     0.029 A 
ATOM     52  N   UNL A   1      42.802  27.705  31.379  1.00  0.00    -0.354 N 
ATOM     53  N   UNL A   1      41.812  29.399  33.565  1.00  0.00    -0.248 NA
ATOM     54  C   UNL A   1      41.889  30.090  35.795  1.00  0.00     0.031 C 
ATOM     55  C   UNL A   1      44.623  26.486  31.742  1.00  0.00     0.029 A 
ATOM     56  C   UNL A   1      43.740  27.369  32.342  1.00  0.00     0.049 A 
ATOM     57  H   UNL A   1      42.042  28.315  31.519  1.00  0.00     0.167 HD
ATOM     58  C   UNL A   1      42.872  28.768  34.199  1.00  0.00     0.074 A 
ATOM     59  C   UNL A   1      42.890  29.253  35.564  1.00  0.00     0.031 C 
ATOM     60  C   UNL A   1      43.748  27.865  33.695  1.00  0.00     0.037 A 
BRANCH  47  61
ATOM     61  C   UNL A   1      42.717  26.343  27.792  1.00  0.00     0.064 A 
ATOM     62  C   UNL A   1      42.211  25.054  27.566  1.00  0.00     0.173 A 
ATOM     63  C   UNL A   1      43.619  26.864  26.849  1.00  0.00     0.173 A 
ATOM     64  F   UNL A   1      41.356  24.502  28.440  1.00  0.00    -0.203 F 
ATOM     65  C   UNL A   1      42.620  24.307  26.463  1.00  0.00     0.198 A 
ATOM     66  C   UNL A   1      43.999  26.128  25.730  1.00  0.00     0.198 A 
ATOM     67  F   UNL A   1      44.128  28.095  27.009  1.00  0.00    -0.203 F 
ATOM     68  F   UNL A   1      42.167  23.055  26.299  1.00  0.00    -0.200 F 
ATOM     69  C   UNL A   1      43.508  24.845  25.544  1.00  0.00     0.200 A 
ATOM     70  F   UNL A   1      44.846  26.656  24.837  1.00  0.00    -0.200 F 
ATOM     71  F   UNL A   1      43.898  24.124  24.483  1.00  0.00    -0.200 F 
ENDBRANCH  47  61
BRANCH  48  72
ATOM     72  C   UNL A   1      39.608  31.900  35.493  1.00  0.00     0.064 A 
ATOM     73  C   UNL A   1      40.143  33.176  35.713  1.00  0.00     0.173 A 
ATOM     74  C   UNL A   1      38.618  31.446  36.377  1.00  0.00     0.173 A 
ATOM     75  F   UNL A   1      41.111  33.644  34.911  1.00  0.00    -0.203 F 
ATOM     76  C   UNL A   1      39.708  33.964  36.777  1.00  0.00     0.198 A 
ATOM     77  C   UNL A   1      38.160  32.248  37.419  1.00  0.00     0.198 A 
ATOM     78  F   UNL A   1      38.074  30.231  36.212  1.00  0.00    -0.203 F 
ATOM     79  F   UNL A   1      40.263  35.165  36.988  1.00  0.00    -0.200 F 
ATOM     80  C   UNL A   1      38.709  33.504  37.622  1.00  0.00     0.200 A 
ATOM     81  F   UNL A   1      37.183  31.805  38.222  1.00  0.00    -0.200 F 
ATOM     82  F   UNL A   1      38.282  34.268  38.637  1.00  0.00    -0.200 F 
ENDBRANCH  48  72
BRANCH  60  83
ATOM     83  C   UNL A   1      44.826  27.377  34.617  1.00  0.00     0.064 A 
ATOM     84  C   UNL A   1      46.048  28.054  34.747  1.00  0.00     0.173 A 
ATOM     85  C   UNL A   1      44.625  26.225  35.394  1.00  0.00     0.173 A 
ATOM     86  F   UNL A   1      46.295  29.148  34.011  1.00  0.00    -0.203 F 
ATOM     87  C   UNL A   1      47.039  27.581  35.602  1.00  0.00     0.198 A 
ATOM     88  C   UNL A   1      45.607  25.772  36.269  1.00  0.00     0.198 A 
ATOM     89  F   UNL A   1      43.473  25.544  35.308  1.00  0.00    -0.203 F 
ATOM     90  F   UNL A   1      48.219  28.213  35.671  1.00  0.00    -0.200 F 
ATOM     91  C   UNL A   1      46.816  26.445  36.366  1.00  0.00     0.200 A 
ATOM     92  F   UNL A   1      45.385  24.682  37.016  1.00  0.00    -0.200 F 
ATOM     93  F   UNL A   1      47.771  25.992  37.191  1.00  0.00    -0.200 F 
ENDBRANCH  60  83
ENDBRANCH  34  35
ENDBRANCH  27  29
ENDBRANCH  26  27
ENDBRANCH  25  26
ENDBRANCH  24  25
ENDBRANCH  23  24
ENDBRANCH   1  23
TORSDOF 18
ENDMDL
MODEL 3
REMARK VINA RESULT:     -11.0      1.263      2.500
REMARK SMILES CCCCNC(=O)[C@@H](C)Oc1ccc(N)cc1C(=O)OCCOC(=O)c1ccc(-c2c3nc(c(-c4c(F)c(F)c(F)c(F)c4F)c4ccc([nH]4)c(-c4c(F)c(F)c(F)c(F)c4F)c4nc(c(-c5c(F)c(F)c(F)c(F)c5F)c5ccc2[nH]5)C=C4)C=C3)cc1
REMARK SMILES IDX 18 1 19 2 17 3 11 4 12 5 13 6 16 7 14 8 10 9 8 10 9 11 6 12
REMARK SMILES IDX 5 13 7 15 4 16 3 17 2 18 1 19 15 20 20 23 21 24 22 25 23 26
REMARK SMILES IDX 24 27 25 28 26 29 27 30 88 31 28 32 87 33 29 34 30 35 31 36
REMARK SMILES IDX 81 37 32 38 86 39 80 40 82 41 33 42 85 43 79 44 78 45 34 47
REMARK SMILES IDX 66 48 46 49 65 50 47 51 50 52 64 53 83 54 48 55 49 56 63 58
REMARK SMILES IDX 84 59 51 60 35 61 36 62 44 63 37 64 38 65 42 66 45 67 39 68
REMARK SMILES IDX 40 69 43 70 41 71 67 72 68 73 76 74 69 75 70 76 74 77 77 78
REMARK SMILES IDX 71 79 72 80 75 81 73 82 52 83 53 84 61 85 54 86 55 87 59 88
REMARK SMILES IDX 62 89 56 90 57 91 60 92 58 93
REMARK H PARENT 5 14 15 21 15 22 82 46 50 57
REMARK Flexibility Score: inf
ROOT
ATOM      1  C   UNL A   1      32.935  26.790  25.617  1.00  0.00     0.342 C 
ATOM      2  O   UNL A   1      34.073  27.026  26.003  1.00  0.00    -0.246 OA
ENDROOT
BRANCH   1   3
ATOM      3  C   UNL A   1      32.405  25.411  25.666  1.00  0.00     0.104 A 
ATOM      4  C   UNL A   1      33.230  24.299  25.570  1.00  0.00     0.135 A 
ATOM      5  C   UNL A   1      32.860  23.129  26.238  1.00  0.00     0.049 A 
ATOM      6  C   UNL A   1      31.578  23.007  26.793  1.00  0.00     0.029 A 
ATOM      7  C   UNL A   1      31.089  25.238  26.119  1.00  0.00     0.045 A 
ATOM      8  C   UNL A   1      30.641  24.020  26.622  1.00  0.00     0.032 A 
BRANCH   4   9
ATOM      9  O   UNL A   1      34.411  24.339  24.896  1.00  0.00    -0.480 OA
BRANCH   9  10
ATOM     10  C   UNL A   1      34.421  23.533  23.706  1.00  0.00     0.258 C 
ATOM     11  C   UNL A   1      35.823  23.131  23.239  1.00  0.00     0.064 C 
BRANCH  10  12
ATOM     12  C   UNL A   1      33.424  23.808  22.534  1.00  0.00     0.260 C 
ATOM     13  N   UNL A   1      32.220  23.181  22.385  1.00  0.00    -0.353 N 
ATOM     14  H   UNL A   1      31.602  23.622  21.758  1.00  0.00     0.163 HD
ATOM     15  O   UNL A   1      33.708  24.650  21.673  1.00  0.00    -0.271 OA
BRANCH  13  16
ATOM     16  C   UNL A   1      31.702  21.974  22.997  1.00  0.00     0.116 C 
BRANCH  16  17
ATOM     17  C   UNL A   1      32.081  20.689  22.269  1.00  0.00     0.021 C 
BRANCH  17  18
ATOM     18  C   UNL A   1      32.288  19.469  23.176  1.00  0.00    -0.002 C 
ATOM     19  C   UNL A   1      32.555  19.812  24.638  1.00  0.00     0.004 C 
ENDBRANCH  17  18
ENDBRANCH  16  17
ENDBRANCH  13  16
ENDBRANCH  10  12
ENDBRANCH   9  10
ENDBRANCH   4   9
BRANCH   8  20
ATOM     20  N   UNL A   1      29.340  23.893  27.075  1.00  0.00    -0.399 N 
ATOM     21  H   UNL A   1      29.112  23.184  27.720  1.00  0.00     0.156 HD
ATOM     22  H   UNL A   1      28.644  24.510  26.754  1.00  0.00     0.156 HD
ENDBRANCH   8  20
ENDBRANCH   1   3
BRANCH   1  23
ATOM     23  O   UNL A   1      32.061  27.707  25.147  1.00  0.00    -0.458 OA
BRANCH  23  24
ATOM     24  C   UNL A   1      32.627  29.009  24.882  1.00  0.00     0.275 C 
BRANCH  24  25
ATOM     25  C   UNL A   1      31.927  30.118  25.670  1.00  0.00     0.275 C 
BRANCH  25  26
ATOM     26  O   UNL A   1      32.457  30.235  27.004  1.00  0.00    -0.458 OA
BRANCH  26  27
ATOM     27  C   UNL A   1      33.134  31.379  27.243  1.00  0.00     0.338 C 
ATOM     28  O   UNL A   1      32.703  32.520  27.228  1.00  0.00    -0.246 OA
BRANCH  27  29
ATOM     29  C   UNL A   1      34.524  31.091  27.624  1.00  0.00     0.060 A 
ATOM     30  C   UNL A   1      34.853  29.779  27.934  1.00  0.00     0.016 A 
ATOM     31  C   UNL A   1      35.415  32.118  27.914  1.00  0.00     0.016 A 
ATOM     32  C   UNL A   1      35.979  29.501  28.699  1.00  0.00     0.010 A 
ATOM     33  C   UNL A   1      36.633  31.814  28.539  1.00  0.00     0.010 A 
ATOM     34  C   UNL A   1      36.905  30.509  28.991  1.00  0.00    -0.014 A 
BRANCH  34  35
ATOM     35  C   UNL A   1      38.133  30.192  29.777  1.00  0.00     0.031 A 
ATOM     36  C   UNL A   1      39.219  29.327  29.188  1.00  0.00     0.074 A 
ATOM     37  C   UNL A   1      38.296  30.696  31.019  1.00  0.00     0.049 A 
ATOM     38  N   UNL A   1      40.261  28.787  29.770  1.00  0.00    -0.248 NA
ATOM     39  C   UNL A   1      39.110  29.012  27.754  1.00  0.00     0.031 C 
ATOM     40  C   UNL A   1      37.364  31.596  31.700  1.00  0.00     0.029 A 
ATOM     41  N   UNL A   1      39.314  30.536  31.928  1.00  0.00    -0.354 N 
ATOM     42  C   UNL A   1      40.885  28.013  28.798  1.00  0.00     0.074 A 
ATOM     43  C   UNL A   1      40.107  28.155  27.585  1.00  0.00     0.031 C 
ATOM     44  C   UNL A   1      37.878  31.960  32.882  1.00  0.00     0.029 A 
ATOM     45  C   UNL A   1      39.115  31.224  33.101  1.00  0.00     0.049 A 
ATOM     46  H   UNL A   1      40.110  29.982  31.756  1.00  0.00     0.167 HD
ATOM     47  C   UNL A   1      42.000  27.251  28.912  1.00  0.00     0.037 A 
ATOM     48  C   UNL A   1      39.816  31.225  34.250  1.00  0.00     0.037 A 
ATOM     49  C   UNL A   1      42.803  27.167  30.105  1.00  0.00     0.049 A 
ATOM     50  C   UNL A   1      41.018  30.333  34.368  1.00  0.00     0.074 A 
ATOM     51  C   UNL A   1      43.969  26.449  30.315  1.00  0.00     0.029 A 
ATOM     52  N   UNL A   1      42.532  27.836  31.291  1.00  0.00    -0.354 N 
ATOM     53  N   UNL A   1      41.565  29.559  33.465  1.00  0.00    -0.248 NA
ATOM     54  C   UNL A   1      41.678  30.293  35.679  1.00  0.00     0.031 C 
ATOM     55  C   UNL A   1      44.374  26.645  31.639  1.00  0.00     0.029 A 
ATOM     56  C   UNL A   1      43.493  27.529  32.241  1.00  0.00     0.049 A 
ATOM     57  H   UNL A   1      41.767  28.439  31.435  1.00  0.00     0.167 HD
ATOM     58  C   UNL A   1      42.646  28.953  34.088  1.00  0.00     0.074 A 
ATOM     59  C   UNL A   1      42.685  29.463  35.443  1.00  0.00     0.031 C 
ATOM     60  C   UNL A   1      43.522  28.051  33.584  1.00  0.00     0.037 A 
BRANCH  47  61
ATOM     61  C   UNL A   1      42.391  26.405  27.732  1.00  0.00     0.064 A 
ATOM     62  C   UNL A   1      43.364  26.809  26.807  1.00  0.00     0.173 A 
ATOM     63  C   UNL A   1      41.786  25.152  27.538  1.00  0.00     0.173 A 
ATOM     64  F   UNL A   1      43.965  28.001  26.936  1.00  0.00    -0.203 F 
ATOM     65  C   UNL A   1      43.691  26.008  25.714  1.00  0.00     0.198 A 
ATOM     66  C   UNL A   1      42.140  24.339  26.463  1.00  0.00     0.198 A 
ATOM     67  F   UNL A   1      40.855  24.709  28.396  1.00  0.00    -0.203 F 
ATOM     68  F   UNL A   1      44.583  26.442  24.811  1.00  0.00    -0.200 F 
ATOM     69  C   UNL A   1      43.084  24.773  25.546  1.00  0.00     0.200 A 
ATOM     70  F   UNL A   1      41.561  23.140  26.312  1.00  0.00    -0.200 F 
ATOM     71  F   UNL A   1      43.402  24.004  24.495  1.00  0.00    -0.200 F 
ENDBRANCH  47  61
BRANCH  48  72
ATOM     72  C   UNL A   1      39.371  32.070  35.390  1.00  0.00     0.064 A 
ATOM     73  C   UNL A   1      39.768  33.410  35.486  1.00  0.00     0.173 A 
ATOM     74  C   UNL A   1      38.528  31.565  36.392  1.00  0.00     0.173 A 
ATOM     75  F   UNL A   1      40.595  33.930  34.568  1.00  0.00    -0.203 F 
ATOM     76  C   UNL A   1      39.343  34.211  36.544  1.00  0.00     0.198 A 
ATOM     77  C   UNL A   1      38.076  32.377  37.430  1.00  0.00     0.198 A 
ATOM     78  F   UNL A   1      38.119  30.288  36.348  1.00  0.00    -0.203 F 
ATOM     79  F   UNL A   1      39.769  35.479  36.633  1.00  0.00    -0.200 F 
ATOM     80  C   UNL A   1      38.489  33.697  37.508  1.00  0.00     0.200 A 
ATOM     81  F   UNL A   1      37.237  31.880  38.349  1.00  0.00    -0.200 F 
ATOM     82  F   UNL A   1      38.070  34.473  38.518  1.00  0.00    -0.200 F 
ENDBRANCH  48  72
BRANCH  60  83
ATOM     83  C   UNL A   1      44.624  27.592  34.493  1.00  0.00     0.064 A 
ATOM     84  C   UNL A   1      44.497  26.440  35.282  1.00  0.00     0.173 A 
ATOM     85  C   UNL A   1      45.829  28.308  34.560  1.00  0.00     0.173 A 
ATOM     86  F   UNL A   1      43.357  25.734  35.268  1.00  0.00    -0.203 F 
ATOM     87  C   UNL A   1      45.528  26.035  36.126  1.00  0.00     0.198 A 
ATOM     88  C   UNL A   1      46.868  27.884  35.383  1.00  0.00     0.198 A 
ATOM     89  F   UNL A   1      46.000  29.415  33.823  1.00  0.00    -0.203 F 
ATOM     90  F   UNL A   1      45.366  24.961  36.911  1.00  0.00    -0.200 F 
ATOM     91  C   UNL A   1      46.714  26.753  36.170  1.00  0.00     0.200 A 
ATOM     92  F   UNL A   1      48.018  28.571  35.415  1.00  0.00    -0.200 F 
ATOM     93  F   UNL A   1      47.707  26.360  36.981  1.00  0.00    -0.200 F 
ENDBRANCH  60  83
ENDBRANCH  34  35
ENDBRANCH  27  29
ENDBRANCH  26  27
ENDBRANCH  25  26
ENDBRANCH  24  25
ENDBRANCH  23  24
ENDBRANCH   1  23
TORSDOF 18
ENDMDL
