MODEL 1
REMARK VINA RESULT:     -11.2      0.000      0.000
REMARK SMILES Cc1cc(Br)c(C)c([C@@H]2[NH2+][C@H](C(=O)OCCOC(=O)c3ccc(-c4c5nc(c(-c6c(F)c(F)c(F)c(F)c6F)c6ccc([nH]6)c(-c6c(F)c(F)c(F)c(F)c6F)c6nc(c(-c7c(F)c(F)c(F)c(F)c7F)c7ccc4[nH]7)C=C6)C=C5)cc3)CS2)c1O
REMARK SMILES IDX 15 1 14 2 12 3 13 4 11 5 9 6 10 7 84 8 83 11 8 12 1 13 2 14
REMARK SMILES IDX 3 15 85 16 4 17 5 18 6 19 7 20 86 21 16 23 17 24 18 25 19 26
REMARK SMILES IDX 20 27 21 28 82 29 22 30 81 31 23 32 24 33 25 34 75 35 26 36
REMARK SMILES IDX 80 37 74 38 76 39 27 40 79 41 73 42 72 43 28 45 60 46 40 47
REMARK SMILES IDX 59 48 41 49 44 50 58 51 77 52 42 53 43 54 57 56 78 57 45 58
REMARK SMILES IDX 29 59 30 60 38 61 31 62 32 63 36 64 39 65 33 66 34 67 37 68
REMARK SMILES IDX 35 69 61 70 62 71 70 72 63 73 64 74 68 75 71 76 65 77 66 78
REMARK SMILES IDX 69 79 67 80 46 81 47 82 55 83 48 84 49 85 53 86 56 87 50 88
REMARK SMILES IDX 51 89 54 90 52 91
REMARK H PARENT 10 9 10 10 86 22 76 44 44 55
REMARK Flexibility Score: inf
ROOT
ATOM      1  C   UNL A   1      40.726  19.708  26.631  1.00  0.00     0.274 C 
ENDROOT
BRANCH   1   2
ATOM      2  O   UNL A   1      41.549  18.939  25.738  1.00  0.00    -0.458 OA
BRANCH   2   3
ATOM      3  C   UNL A   1      42.795  18.571  26.157  1.00  0.00     0.365 C 
ATOM      4  O   UNL A   1      43.029  18.030  27.233  1.00  0.00    -0.245 OA
BRANCH   3   5
ATOM      5  C   UNL A   1      43.888  18.877  25.118  1.00  0.00     0.304 C 
ATOM      6  C   UNL A   1      45.055  20.950  24.656  1.00  0.00     0.278 C 
ATOM      7  N   UNL A   1      43.779  20.260  24.625  1.00  0.00    -0.319 N 
ATOM      8  S   UNL A   1      46.380  19.774  24.991  1.00  0.00    -0.087 SA
ATOM      9  H   UNL A   1      43.437  20.242  23.664  1.00  0.00     0.348 HD
ATOM     10  H   UNL A   1      43.134  20.762  25.237  1.00  0.00     0.348 HD
ATOM     11  C   UNL A   1      45.265  18.532  25.670  1.00  0.00     0.153 C 
BRANCH   6  12
ATOM     12  C   UNL A   1      44.985  22.156  25.592  1.00  0.00     0.066 A 
ATOM     13  C   UNL A   1      42.830  23.295  28.578  1.00  0.00     0.048 C 
ATOM     14  C   UNL A   1      43.881  23.288  27.505  1.00  0.00    -0.008 A 
ATOM     15  C   UNL A   1      44.713  24.387  27.326  1.00  0.00     0.023 A 
ATOM     16  C   UNL A   1      44.043  22.190  26.652  1.00  0.00     0.128 A 
ATOM     17  C   UNL A   1      45.658  24.398  26.297  1.00  0.00     0.021 A 
ATOM     18  Br  UNL A   1      46.764  25.950  26.205  1.00  0.00    -0.051 Br
ATOM     19  C   UNL A   1      45.783  23.320  25.387  1.00  0.00    -0.023 A 
ATOM     20  C   UNL A   1      46.772  23.445  24.251  1.00  0.00     0.046 C 
BRANCH  16  21
ATOM     21  O   UNL A   1      43.218  21.120  26.875  1.00  0.00    -0.507 OA
ATOM     22  H   UNL A   1      42.597  20.862  26.223  1.00  0.00     0.293 HD
ENDBRANCH  16  21
ENDBRANCH   6  12
ENDBRANCH   3   5
ENDBRANCH   2   3
ENDBRANCH   1   2
BRANCH   1  23
ATOM     23  C   UNL A   1      39.963  20.787  25.859  1.00  0.00     0.275 C 
BRANCH  23  24
ATOM     24  O   UNL A   1      40.181  22.087  26.434  1.00  0.00    -0.458 OA
BRANCH  24  25
ATOM     25  C   UNL A   1      39.178  22.984  26.272  1.00  0.00     0.338 C 
ATOM     26  O   UNL A   1      38.063  22.793  25.828  1.00  0.00    -0.246 OA
BRANCH  25  27
ATOM     27  C   UNL A   1      39.598  24.260  26.872  1.00  0.00     0.060 A 
ATOM     28  C   UNL A   1      40.300  25.205  26.126  1.00  0.00     0.016 A 
ATOM     29  C   UNL A   1      39.263  24.512  28.205  1.00  0.00     0.016 A 
ATOM     30  C   UNL A   1      40.700  26.392  26.739  1.00  0.00     0.010 A 
ATOM     31  C   UNL A   1      39.652  25.700  28.814  1.00  0.00     0.010 A 
ATOM     32  C   UNL A   1      40.387  26.642  28.089  1.00  0.00    -0.014 A 
BRANCH  32  33
ATOM     33  C   UNL A   1      40.823  27.906  28.722  1.00  0.00     0.031 A 
ATOM     34  C   UNL A   1      42.275  28.151  29.012  1.00  0.00     0.074 A 
ATOM     35  C   UNL A   1      39.897  28.842  29.001  1.00  0.00     0.049 A 
ATOM     36  N   UNL A   1      42.854  29.245  29.438  1.00  0.00    -0.248 NA
ATOM     37  C   UNL A   1      43.202  27.025  28.807  1.00  0.00     0.031 C 
ATOM     38  C   UNL A   1      38.455  28.679  28.808  1.00  0.00     0.029 A 
ATOM     39  N   UNL A   1      40.028  30.121  29.478  1.00  0.00    -0.354 N 
ATOM     40  C   UNL A   1      44.207  28.948  29.522  1.00  0.00     0.074 A 
ATOM     41  C   UNL A   1      44.361  27.554  29.175  1.00  0.00     0.031 C 
ATOM     42  C   UNL A   1      37.839  29.833  29.107  1.00  0.00     0.029 A 
ATOM     43  C   UNL A   1      38.839  30.806  29.538  1.00  0.00     0.049 A 
ATOM     44  H   UNL A   1      40.889  30.510  29.751  1.00  0.00     0.167 HD
ATOM     45  C   UNL A   1      45.229  29.782  29.822  1.00  0.00     0.037 A 
ATOM     46  C   UNL A   1      38.590  32.084  29.886  1.00  0.00     0.037 A 
ATOM     47  C   UNL A   1      45.064  31.173  30.153  1.00  0.00     0.049 A 
ATOM     48  C   UNL A   1      39.748  32.972  30.260  1.00  0.00     0.074 A 
ATOM     49  C   UNL A   1      46.039  32.113  30.432  1.00  0.00     0.029 A 
ATOM     50  N   UNL A   1      43.841  31.820  30.252  1.00  0.00    -0.354 N 
ATOM     51  N   UNL A   1      41.032  32.708  30.238  1.00  0.00    -0.248 NA
ATOM     52  C   UNL A   1      39.423  34.333  30.706  1.00  0.00     0.031 C 
ATOM     53  C   UNL A   1      45.406  33.317  30.744  1.00  0.00     0.029 A 
ATOM     54  C   UNL A   1      44.038  33.142  30.617  1.00  0.00     0.049 A 
ATOM     55  H   UNL A   1      42.965  31.403  30.085  1.00  0.00     0.167 HD
ATOM     56  C   UNL A   1      41.667  33.873  30.650  1.00  0.00     0.074 A 
ATOM     57  C   UNL A   1      40.629  34.854  30.884  1.00  0.00     0.031 C 
ATOM     58  C   UNL A   1      42.989  34.105  30.832  1.00  0.00     0.037 A 
BRANCH  45  59
ATOM     59  C   UNL A   1      46.627  29.244  29.763  1.00  0.00     0.064 A 
ATOM     60  C   UNL A   1      47.232  28.682  30.898  1.00  0.00     0.173 A 
ATOM     61  C   UNL A   1      47.322  29.173  28.546  1.00  0.00     0.173 A 
ATOM     62  F   UNL A   1      46.611  28.729  32.086  1.00  0.00    -0.203 F 
ATOM     63  C   UNL A   1      48.479  28.069  30.815  1.00  0.00     0.198 A 
ATOM     64  C   UNL A   1      48.557  28.537  28.463  1.00  0.00     0.198 A 
ATOM     65  F   UNL A   1      46.784  29.687  27.430  1.00  0.00    -0.203 F 
ATOM     66  F   UNL A   1      49.041  27.549  31.916  1.00  0.00    -0.200 F 
ATOM     67  C   UNL A   1      49.133  27.984  29.596  1.00  0.00     0.200 A 
ATOM     68  F   UNL A   1      49.181  28.440  27.281  1.00  0.00    -0.200 F 
ATOM     69  F   UNL A   1      50.319  27.364  29.514  1.00  0.00    -0.200 F 
ENDBRANCH  45  59
BRANCH  46  70
ATOM     70  C   UNL A   1      37.201  32.611  29.864  1.00  0.00     0.064 A 
ATOM     71  C   UNL A   1      36.357  32.461  30.974  1.00  0.00     0.173 A 
ATOM     72  C   UNL A   1      36.678  33.254  28.733  1.00  0.00     0.173 A 
ATOM     73  F   UNL A   1      36.803  31.840  32.076  1.00  0.00    -0.203 F 
ATOM     74  C   UNL A   1      35.037  32.908  30.942  1.00  0.00     0.198 A 
ATOM     75  C   UNL A   1      35.369  33.730  28.713  1.00  0.00     0.198 A 
ATOM     76  F   UNL A   1      37.442  33.428  27.645  1.00  0.00    -0.203 F 
ATOM     77  F   UNL A   1      34.237  32.702  31.997  1.00  0.00    -0.200 F 
ATOM     78  C   UNL A   1      34.546  33.547  29.814  1.00  0.00     0.200 A 
ATOM     79  F   UNL A   1      34.903  34.361  27.627  1.00  0.00    -0.200 F 
ATOM     80  F   UNL A   1      33.276  33.976  29.784  1.00  0.00    -0.200 F 
ENDBRANCH  46  70
BRANCH  58  81
ATOM     81  C   UNL A   1      43.398  35.465  31.312  1.00  0.00     0.064 A 
ATOM     82  C   UNL A   1      43.732  36.482  30.408  1.00  0.00     0.173 A 
ATOM     83  C   UNL A   1      43.353  35.784  32.679  1.00  0.00     0.173 A 
ATOM     84  F   UNL A   1      43.799  36.221  29.094  1.00  0.00    -0.203 F 
ATOM     85  C   UNL A   1      44.012  37.770  30.852  1.00  0.00     0.198 A 
ATOM     86  C   UNL A   1      43.604  37.081  33.117  1.00  0.00     0.198 A 
ATOM     87  F   UNL A   1      43.030  34.848  33.583  1.00  0.00    -0.203 F 
ATOM     88  F   UNL A   1      44.354  38.720  29.973  1.00  0.00    -0.200 F 
ATOM     89  C   UNL A   1      43.935  38.072  32.204  1.00  0.00     0.200 A 
ATOM     90  F   UNL A   1      43.510  37.376  34.421  1.00  0.00    -0.200 F 
ATOM     91  F   UNL A   1      44.176  39.320  32.627  1.00  0.00    -0.200 F 
ENDBRANCH  58  81
ENDBRANCH  32  33
ENDBRANCH  25  27
ENDBRANCH  24  25
ENDBRANCH  23  24
ENDBRANCH   1  23
TORSDOF 13
ENDMDL
MODEL 2
REMARK VINA RESULT:     -11.1      5.304     10.147
REMARK SMILES Cc1cc(Br)c(C)c([C@@H]2[NH2+][C@H](C(=O)OCCOC(=O)c3ccc(-c4c5nc(c(-c6c(F)c(F)c(F)c(F)c6F)c6ccc([nH]6)c(-c6c(F)c(F)c(F)c(F)c6F)c6nc(c(-c7c(F)c(F)c(F)c(F)c7F)c7ccc4[nH]7)C=C6)C=C5)cc3)CS2)c1O
REMARK SMILES IDX 15 1 14 2 12 3 13 4 11 5 9 6 10 7 84 8 83 11 8 12 1 13 2 14
REMARK SMILES IDX 3 15 85 16 4 17 5 18 6 19 7 20 86 21 16 23 17 24 18 25 19 26
REMARK SMILES IDX 20 27 21 28 82 29 22 30 81 31 23 32 24 33 25 34 75 35 26 36
REMARK SMILES IDX 80 37 74 38 76 39 27 40 79 41 73 42 72 43 28 45 60 46 40 47
REMARK SMILES IDX 59 48 41 49 44 50 58 51 77 52 42 53 43 54 57 56 78 57 45 58
REMARK SMILES IDX 29 59 30 60 38 61 31 62 32 63 36 64 39 65 33 66 34 67 37 68
REMARK SMILES IDX 35 69 61 70 62 71 70 72 63 73 64 74 68 75 71 76 65 77 66 78
REMARK SMILES IDX 69 79 67 80 46 81 47 82 55 83 48 84 49 85 53 86 56 87 50 88
REMARK SMILES IDX 51 89 54 90 52 91
REMARK H PARENT 10 9 10 10 86 22 76 44 44 55
REMARK Flexibility Score: inf
ROOT
ATOM      1  C   UNL A   1      31.505  29.083  24.636  1.00  0.00     0.274 C 
ENDROOT
BRANCH   1   2
ATOM      2  O   UNL A   1      31.335  27.895  25.426  1.00  0.00    -0.458 OA
BRANCH   2   3
ATOM      3  C   UNL A   1      32.343  26.974  25.441  1.00  0.00     0.365 C 
ATOM      4  O   UNL A   1      32.899  26.576  26.460  1.00  0.00    -0.245 OA
BRANCH   3   5
ATOM      5  C   UNL A   1      32.697  26.455  24.036  1.00  0.00     0.304 C 
ATOM      6  C   UNL A   1      34.046  24.552  23.378  1.00  0.00     0.278 C 
ATOM      7  N   UNL A   1      34.042  25.856  24.016  1.00  0.00    -0.319 N 
ATOM      8  S   UNL A   1      32.465  24.264  22.560  1.00  0.00    -0.087 SA
ATOM      9  H   UNL A   1      34.670  26.475  23.504  1.00  0.00     0.348 HD
ATOM     10  H   UNL A   1      34.347  25.736  24.982  1.00  0.00     0.348 HD
ATOM     11  C   UNL A   1      31.606  25.526  23.517  1.00  0.00     0.153 C 
BRANCH   6  12
ATOM     12  C   UNL A   1      34.485  23.477  24.370  1.00  0.00     0.066 A 
ATOM     13  C   UNL A   1      33.324  22.149  27.797  1.00  0.00     0.048 C 
ATOM     14  C   UNL A   1      34.119  22.319  26.535  1.00  0.00    -0.008 A 
ATOM     15  C   UNL A   1      35.269  21.568  26.320  1.00  0.00     0.023 A 
ATOM     16  C   UNL A   1      33.739  23.243  25.554  1.00  0.00     0.128 A 
ATOM     17  C   UNL A   1      36.035  21.762  25.168  1.00  0.00     0.021 A 
ATOM     18  Br  UNL A   1      37.555  20.624  24.982  1.00  0.00    -0.051 Br
ATOM     19  C   UNL A   1      35.695  22.741  24.202  1.00  0.00    -0.023 A 
ATOM     20  C   UNL A   1      36.621  22.945  23.026  1.00  0.00     0.046 C 
BRANCH  16  21
ATOM     21  O   UNL A   1      32.590  23.947  25.795  1.00  0.00    -0.507 OA
ATOM     22  H   UNL A   1      32.275  24.044  26.672  1.00  0.00     0.293 HD
ENDBRANCH  16  21
ENDBRANCH   6  12
ENDBRANCH   3   5
ENDBRANCH   2   3
ENDBRANCH   1   2
BRANCH   1  23
ATOM     23  C   UNL A   1      31.614  30.313  25.540  1.00  0.00     0.275 C 
BRANCH  23  24
ATOM     24  O   UNL A   1      32.960  30.487  26.018  1.00  0.00    -0.458 OA
BRANCH  24  25
ATOM     25  C   UNL A   1      33.149  31.494  26.906  1.00  0.00     0.338 C 
ATOM     26  O   UNL A   1      32.394  32.406  27.181  1.00  0.00    -0.246 OA
BRANCH  25  27
ATOM     27  C   UNL A   1      34.401  31.237  27.635  1.00  0.00     0.060 A 
ATOM     28  C   UNL A   1      35.274  32.277  27.946  1.00  0.00     0.016 A 
ATOM     29  C   UNL A   1      34.689  29.926  28.024  1.00  0.00     0.016 A 
ATOM     30  C   UNL A   1      36.461  31.988  28.617  1.00  0.00     0.010 A 
ATOM     31  C   UNL A   1      35.868  29.638  28.703  1.00  0.00     0.010 A 
ATOM     32  C   UNL A   1      36.770  30.666  28.991  1.00  0.00    -0.014 A 
BRANCH  32  33
ATOM     33  C   UNL A   1      38.036  30.379  29.700  1.00  0.00     0.031 A 
ATOM     34  C   UNL A   1      38.259  30.886  31.096  1.00  0.00     0.074 A 
ATOM     35  C   UNL A   1      38.967  29.627  29.084  1.00  0.00     0.049 A 
ATOM     36  N   UNL A   1      39.243  30.624  31.917  1.00  0.00    -0.248 NA
ATOM     37  C   UNL A   1      37.255  31.814  31.643  1.00  0.00     0.031 C 
ATOM     38  C   UNL A   1      38.869  29.133  27.709  1.00  0.00     0.029 A 
ATOM     39  N   UNL A   1      40.160  29.126  29.536  1.00  0.00    -0.354 N 
ATOM     40  C   UNL A   1      38.962  31.326  33.080  1.00  0.00     0.074 A 
ATOM     41  C   UNL A   1      37.756  32.086  32.839  1.00  0.00     0.031 C 
ATOM     42  C   UNL A   1      39.928  28.350  27.449  1.00  0.00     0.029 A 
ATOM     43  C   UNL A   1      40.790  28.311  28.626  1.00  0.00     0.049 A 
ATOM     44  H   UNL A   1      40.530  29.330  30.424  1.00  0.00     0.167 HD
ATOM     45  C   UNL A   1      39.632  31.302  34.255  1.00  0.00     0.037 A 
ATOM     46  C   UNL A   1      41.928  27.600  28.742  1.00  0.00     0.037 A 
ATOM     47  C   UNL A   1      40.825  30.531  34.486  1.00  0.00     0.049 A 
ATOM     48  C   UNL A   1      42.675  27.633  30.049  1.00  0.00     0.074 A 
ATOM     49  C   UNL A   1      41.556  30.406  35.653  1.00  0.00     0.029 A 
ATOM     50  N   UNL A   1      41.461  29.756  33.527  1.00  0.00    -0.354 N 
ATOM     51  N   UNL A   1      42.346  28.220  31.174  1.00  0.00    -0.248 NA
ATOM     52  C   UNL A   1      43.950  26.905  30.104  1.00  0.00     0.031 C 
ATOM     53  C   UNL A   1      42.660  29.592  35.390  1.00  0.00     0.029 A 
ATOM     54  C   UNL A   1      42.595  29.174  34.071  1.00  0.00     0.049 A 
ATOM     55  H   UNL A   1      41.153  29.637  32.600  1.00  0.00     0.167 HD
ATOM     56  C   UNL A   1      43.361  27.920  32.072  1.00  0.00     0.074 A 
ATOM     57  C   UNL A   1      44.301  27.071  31.371  1.00  0.00     0.031 C 
ATOM     58  C   UNL A   1      43.509  28.321  33.357  1.00  0.00     0.037 A 
BRANCH  45  59
ATOM     59  C   UNL A   1      39.080  32.087  35.406  1.00  0.00     0.064 A 
ATOM     60  C   UNL A   1      38.330  31.459  36.413  1.00  0.00     0.173 A 
ATOM     61  C   UNL A   1      39.401  33.442  35.575  1.00  0.00     0.173 A 
ATOM     62  F   UNL A   1      37.992  30.166  36.296  1.00  0.00    -0.203 F 
ATOM     63  C   UNL A   1      37.925  32.160  37.546  1.00  0.00     0.198 A 
ATOM     64  C   UNL A   1      39.016  34.132  36.721  1.00  0.00     0.198 A 
ATOM     65  F   UNL A   1      40.124  34.086  34.647  1.00  0.00    -0.203 F 
ATOM     66  F   UNL A   1      37.199  31.541  38.489  1.00  0.00    -0.200 F 
ATOM     67  C   UNL A   1      38.279  33.490  37.706  1.00  0.00     0.200 A 
ATOM     68  F   UNL A   1      39.374  35.413  36.883  1.00  0.00    -0.200 F 
ATOM     69  F   UNL A   1      37.915  34.153  38.812  1.00  0.00    -0.200 F 
ENDBRANCH  45  59
BRANCH  46  70
ATOM     70  C   UNL A   1      42.414  26.771  27.607  1.00  0.00     0.064 A 
ATOM     71  C   UNL A   1      41.938  25.467  27.413  1.00  0.00     0.173 A 
ATOM     72  C   UNL A   1      43.376  27.252  26.708  1.00  0.00     0.173 A 
ATOM     73  F   UNL A   1      41.028  24.953  28.254  1.00  0.00    -0.203 F 
ATOM     74  C   UNL A   1      42.426  24.667  26.381  1.00  0.00     0.198 A 
ATOM     75  C   UNL A   1      43.840  26.464  25.656  1.00  0.00     0.198 A 
ATOM     76  F   UNL A   1      43.863  28.494  26.844  1.00  0.00    -0.203 F 
ATOM     77  F   UNL A   1      41.993  23.405  26.253  1.00  0.00    -0.200 F 
ATOM     78  C   UNL A   1      43.372  25.168  25.501  1.00  0.00     0.200 A 
ATOM     79  F   UNL A   1      44.743  26.958  24.798  1.00  0.00    -0.200 F 
ATOM     80  F   UNL A   1      43.842  24.398  24.509  1.00  0.00    -0.200 F 
ENDBRANCH  46  70
BRANCH  58  81
ATOM     81  C   UNL A   1      44.730  27.860  34.095  1.00  0.00     0.064 A 
ATOM     82  C   UNL A   1      45.891  28.643  34.135  1.00  0.00     0.173 A 
ATOM     83  C   UNL A   1      44.704  26.679  34.855  1.00  0.00     0.173 A 
ATOM     84  F   UNL A   1      45.968  29.773  33.416  1.00  0.00    -0.203 F 
ATOM     85  C   UNL A   1      46.986  28.261  34.904  1.00  0.00     0.198 A 
ATOM     86  C   UNL A   1      45.789  26.316  35.647  1.00  0.00     0.198 A 
ATOM     87  F   UNL A   1      43.613  25.899  34.858  1.00  0.00    -0.203 F 
ATOM     88  F   UNL A   1      48.095  29.012  34.907  1.00  0.00    -0.200 F 
ATOM     89  C   UNL A   1      46.929  27.106  35.669  1.00  0.00     0.200 A 
ATOM     90  F   UNL A   1      45.725  25.210  36.402  1.00  0.00    -0.200 F 
ATOM     91  F   UNL A   1      47.973  26.755  36.432  1.00  0.00    -0.200 F 
ENDBRANCH  58  81
ENDBRANCH  32  33
ENDBRANCH  25  27
ENDBRANCH  24  25
ENDBRANCH  23  24
ENDBRANCH   1  23
TORSDOF 13
ENDMDL
MODEL 3
REMARK VINA RESULT:     -11.1      5.150     11.311
REMARK SMILES Cc1cc(Br)c(C)c([C@@H]2[NH2+][C@H](C(=O)OCCOC(=O)c3ccc(-c4c5nc(c(-c6c(F)c(F)c(F)c(F)c6F)c6ccc([nH]6)c(-c6c(F)c(F)c(F)c(F)c6F)c6nc(c(-c7c(F)c(F)c(F)c(F)c7F)c7ccc4[nH]7)C=C6)C=C5)cc3)CS2)c1O
REMARK SMILES IDX 15 1 14 2 12 3 13 4 11 5 9 6 10 7 84 8 83 11 8 12 1 13 2 14
REMARK SMILES IDX 3 15 85 16 4 17 5 18 6 19 7 20 86 21 16 23 17 24 18 25 19 26
REMARK SMILES IDX 20 27 21 28 82 29 22 30 81 31 23 32 24 33 25 34 75 35 26 36
REMARK SMILES IDX 80 37 74 38 76 39 27 40 79 41 73 42 72 43 28 45 60 46 40 47
REMARK SMILES IDX 59 48 41 49 44 50 58 51 77 52 42 53 43 54 57 56 78 57 45 58
REMARK SMILES IDX 29 59 30 60 38 61 31 62 32 63 36 64 39 65 33 66 34 67 37 68
REMARK SMILES IDX 35 69 61 70 62 71 70 72 63 73 64 74 68 75 71 76 65 77 66 78
REMARK SMILES IDX 69 79 67 80 46 81 47 82 55 83 48 84 49 85 53 86 56 87 50 88
REMARK SMILES IDX 51 89 54 90 52 91
REMARK H PARENT 10 9 10 10 86 22 76 44 44 55
REMARK Flexibility Score: inf
ROOT
ATOM      1  C   UNL A   1      33.642  33.948  28.063  1.00  0.00     0.274 C 
ENDROOT
BRANCH   1   2
ATOM      2  O   UNL A   1      32.830  34.385  29.165  1.00  0.00    -0.458 OA
BRANCH   2   3
ATOM      3  C   UNL A   1      32.903  35.694  29.547  1.00  0.00     0.365 C 
ATOM      4  O   UNL A   1      33.074  36.631  28.773  1.00  0.00    -0.245 OA
BRANCH   3   5
ATOM      5  C   UNL A   1      32.717  35.884  31.063  1.00  0.00     0.304 C 
ATOM      6  C   UNL A   1      34.033  35.024  32.908  1.00  0.00     0.278 C 
ATOM      7  N   UNL A   1      33.153  34.688  31.804  1.00  0.00    -0.319 N 
ATOM      8  S   UNL A   1      34.030  36.809  33.173  1.00  0.00    -0.087 SA
ATOM      9  H   UNL A   1      32.330  34.210  32.172  1.00  0.00     0.348 HD
ATOM     10  H   UNL A   1      33.670  34.090  31.160  1.00  0.00     0.348 HD
ATOM     11  C   UNL A   1      33.387  37.170  31.529  1.00  0.00     0.153 C 
BRANCH   6  12
ATOM     12  C   UNL A   1      35.405  34.385  32.708  1.00  0.00     0.066 A 
ATOM     13  C   UNL A   1      37.681  33.447  29.743  1.00  0.00     0.048 C 
ATOM     14  C   UNL A   1      37.173  33.616  31.146  1.00  0.00    -0.008 A 
ATOM     15  C   UNL A   1      37.904  33.129  32.223  1.00  0.00     0.023 A 
ATOM     16  C   UNL A   1      35.952  34.248  31.407  1.00  0.00     0.128 A 
ATOM     17  C   UNL A   1      37.408  33.243  33.524  1.00  0.00     0.021 A 
ATOM     18  Br  UNL A   1      38.543  32.578  34.906  1.00  0.00    -0.051 Br
ATOM     19  C   UNL A   1      36.142  33.822  33.791  1.00  0.00    -0.023 A 
ATOM     20  C   UNL A   1      35.641  33.832  35.216  1.00  0.00     0.046 C 
BRANCH  16  21
ATOM     21  O   UNL A   1      35.273  34.732  30.320  1.00  0.00    -0.507 OA
ATOM     22  H   UNL A   1      35.512  35.558  29.949  1.00  0.00     0.293 HD
ENDBRANCH  16  21
ENDBRANCH   6  12
ENDBRANCH   3   5
ENDBRANCH   2   3
ENDBRANCH   1   2
BRANCH   1  23
ATOM     23  C   UNL A   1      33.491  32.439  27.856  1.00  0.00     0.275 C 
BRANCH  23  24
ATOM     24  O   UNL A   1      34.592  31.722  28.442  1.00  0.00    -0.458 OA
BRANCH  24  25
ATOM     25  C   UNL A   1      34.780  30.455  27.997  1.00  0.00     0.338 C 
ATOM     26  O   UNL A   1      34.052  29.792  27.285  1.00  0.00    -0.246 OA
BRANCH  25  27
ATOM     27  C   UNL A   1      36.128  30.021  28.398  1.00  0.00     0.060 A 
ATOM     28  C   UNL A   1      36.374  29.548  29.685  1.00  0.00     0.016 A 
ATOM     29  C   UNL A   1      37.155  30.079  27.452  1.00  0.00     0.016 A 
ATOM     30  C   UNL A   1      37.670  29.168  30.032  1.00  0.00     0.010 A 
ATOM     31  C   UNL A   1      38.446  29.690  27.794  1.00  0.00     0.010 A 
ATOM     32  C   UNL A   1      38.716  29.246  29.092  1.00  0.00    -0.014 A 
BRANCH  32  33
ATOM     33  C   UNL A   1      40.085  28.841  29.479  1.00  0.00     0.031 A 
ATOM     34  C   UNL A   1      40.659  27.541  28.996  1.00  0.00     0.074 A 
ATOM     35  C   UNL A   1      40.814  29.675  30.244  1.00  0.00     0.049 A 
ATOM     36  N   UNL A   1      41.879  27.085  29.123  1.00  0.00    -0.248 NA
ATOM     37  C   UNL A   1      39.750  26.627  28.284  1.00  0.00     0.031 C 
ATOM     38  C   UNL A   1      40.327  30.935  30.809  1.00  0.00     0.029 A 
ATOM     39  N   UNL A   1      42.120  29.606  30.654  1.00  0.00    -0.354 N 
ATOM     40  C   UNL A   1      41.891  25.853  28.485  1.00  0.00     0.074 A 
ATOM     41  C   UNL A   1      40.542  25.594  28.034  1.00  0.00     0.031 C 
ATOM     42  C   UNL A   1      41.338  31.549  31.444  1.00  0.00     0.029 A 
ATOM     43  C   UNL A   1      42.532  30.715  31.352  1.00  0.00     0.049 A 
ATOM     44  H   UNL A   1      42.705  28.838  30.467  1.00  0.00     0.167 HD
ATOM     45  C   UNL A   1      42.946  25.036  28.263  1.00  0.00     0.037 A 
ATOM     46  C   UNL A   1      43.746  31.027  31.847  1.00  0.00     0.037 A 
ATOM     47  C   UNL A   1      44.286  25.313  28.706  1.00  0.00     0.049 A 
ATOM     48  C   UNL A   1      44.888  30.071  31.622  1.00  0.00     0.074 A 
ATOM     49  C   UNL A   1      45.433  24.569  28.496  1.00  0.00     0.029 A 
ATOM     50  N   UNL A   1      44.657  26.421  29.453  1.00  0.00    -0.354 N 
ATOM     51  N   UNL A   1      44.910  28.958  30.930  1.00  0.00    -0.248 NA
ATOM     52  C   UNL A   1      46.174  30.415  32.244  1.00  0.00     0.031 C 
ATOM     53  C   UNL A   1      46.489  25.203  29.153  1.00  0.00     0.029 A 
ATOM     54  C   UNL A   1      46.012  26.364  29.736  1.00  0.00     0.049 A 
ATOM     55  H   UNL A   1      44.049  27.141  29.737  1.00  0.00     0.167 HD
ATOM     56  C   UNL A   1      46.210  28.479  31.020  1.00  0.00     0.074 A 
ATOM     57  C   UNL A   1      46.956  29.438  31.806  1.00  0.00     0.031 C 
ATOM     58  C   UNL A   1      46.736  27.339  30.510  1.00  0.00     0.037 A 
BRANCH  45  59
ATOM     59  C   UNL A   1      42.722  23.786  27.466  1.00  0.00     0.064 A 
ATOM     60  C   UNL A   1      43.064  23.728  26.106  1.00  0.00     0.173 A 
ATOM     61  C   UNL A   1      42.285  22.605  28.085  1.00  0.00     0.173 A 
ATOM     62  F   UNL A   1      43.482  24.830  25.467  1.00  0.00    -0.203 F 
ATOM     63  C   UNL A   1      42.976  22.533  25.396  1.00  0.00     0.198 A 
ATOM     64  C   UNL A   1      42.224  21.407  27.378  1.00  0.00     0.198 A 
ATOM     65  F   UNL A   1      41.956  22.606  29.385  1.00  0.00    -0.203 F 
ATOM     66  F   UNL A   1      43.297  22.505  24.095  1.00  0.00    -0.200 F 
ATOM     67  C   UNL A   1      42.570  21.372  26.036  1.00  0.00     0.200 A 
ATOM     68  F   UNL A   1      41.848  20.282  28.001  1.00  0.00    -0.200 F 
ATOM     69  F   UNL A   1      42.518  20.217  25.358  1.00  0.00    -0.200 F 
ENDBRANCH  45  59
BRANCH  46  70
ATOM     70  C   UNL A   1      43.955  32.309  32.570  1.00  0.00     0.064 A 
ATOM     71  C   UNL A   1      43.711  32.407  33.947  1.00  0.00     0.173 A 
ATOM     72  C   UNL A   1      44.381  33.466  31.901  1.00  0.00     0.173 A 
ATOM     73  F   UNL A   1      43.287  31.333  34.630  1.00  0.00    -0.203 F 
ATOM     74  C   UNL A   1      43.856  33.618  34.621  1.00  0.00     0.198 A 
ATOM     75  C   UNL A   1      44.559  34.669  32.582  1.00  0.00     0.198 A 
ATOM     76  F   UNL A   1      44.634  33.428  30.585  1.00  0.00    -0.203 F 
ATOM     77  F   UNL A   1      43.562  33.695  35.926  1.00  0.00    -0.200 F 
ATOM     78  C   UNL A   1      44.285  34.746  33.939  1.00  0.00     0.200 A 
ATOM     79  F   UNL A   1      44.989  35.753  31.923  1.00  0.00    -0.200 F 
ATOM     80  F   UNL A   1      44.425  35.911  34.588  1.00  0.00    -0.200 F 
ENDBRANCH  46  70
BRANCH  58  81
ATOM     81  C   UNL A   1      48.182  27.055  30.785  1.00  0.00     0.064 A 
ATOM     82  C   UNL A   1      48.573  26.305  31.903  1.00  0.00     0.173 A 
ATOM     83  C   UNL A   1      49.174  27.443  29.871  1.00  0.00     0.173 A 
ATOM     84  F   UNL A   1      47.662  25.922  32.811  1.00  0.00    -0.203 F 
ATOM     85  C   UNL A   1      49.905  25.956  32.100  1.00  0.00     0.198 A 
ATOM     86  C   UNL A   1      50.501  27.067  30.056  1.00  0.00     0.198 A 
ATOM     87  F   UNL A   1      48.851  28.154  28.781  1.00  0.00    -0.203 F 
ATOM     88  F   UNL A   1      50.259  25.261  33.189  1.00  0.00    -0.200 F 
ATOM     89  C   UNL A   1      50.866  26.326  31.170  1.00  0.00     0.200 A 
ATOM     90  F   UNL A   1      51.426  27.407  29.146  1.00  0.00    -0.200 F 
ATOM     91  F   UNL A   1      52.143  25.964  31.347  1.00  0.00    -0.200 F 
ENDBRANCH  58  81
ENDBRANCH  32  33
ENDBRANCH  25  27
ENDBRANCH  24  25
ENDBRANCH  23  24
ENDBRANCH   1  23
TORSDOF 13
ENDMDL
