MODEL 1
REMARK VINA RESULT:     -12.5      0.000      0.000
REMARK SMILES CCc1cc(OC(F)(F)F)cc2c1O[C@H](C(F)(F)F)C(C(=O)OCCOC(=O)c1ccc(-c3c4nc(c(-c5c(F)c(F)c(F)c(F)c5F)c5ccc([nH]5)c(-c5c(F)c(F)c(F)c(F)c5F)c5nc(c(-c6c(F)c(F)c(F)c(F)c6F)c6ccc3[nH]6)C=C5)C=C4)cc1)=C2
REMARK SMILES IDX 24 1 23 2 21 3 22 4 20 5 3 6 4 7 13 8 5 9 12 10 14 11 11 12
REMARK SMILES IDX 92 13 15 14 2 15 1 16 6 17 7 18 8 19 9 20 10 21 16 22 17 23
REMARK SMILES IDX 18 24 19 25 25 26 26 27 27 28 28 29 29 30 30 31 91 32 31 33
REMARK SMILES IDX 90 34 32 35 33 36 34 37 84 38 35 39 89 40 83 41 85 42 36 43
REMARK SMILES IDX 88 44 82 45 81 46 37 48 69 49 49 50 68 51 50 52 53 53 67 54
REMARK SMILES IDX 86 55 51 56 52 57 66 59 87 60 54 61 38 62 39 63 47 64 40 65
REMARK SMILES IDX 41 66 45 67 48 68 42 69 43 70 46 71 44 72 70 73 71 74 79 75
REMARK SMILES IDX 72 76 73 77 77 78 80 79 74 80 75 81 78 82 76 83 55 84 56 85
REMARK SMILES IDX 64 86 57 87 58 88 62 89 65 90 59 91 60 92 63 93 61 94
REMARK H PARENT 85 47 53 58
REMARK Flexibility Score: inf
ROOT
ATOM      1  C   UNL A   1      31.544  29.268  25.040  1.00  0.00     0.275 C 
ENDROOT
BRANCH   1   2
ATOM      2  O   UNL A   1      32.508  28.348  25.597  1.00  0.00    -0.459 OA
BRANCH   2   3
ATOM      3  C   UNL A   1      31.985  27.199  26.083  1.00  0.00     0.338 C 
ATOM      4  O   UNL A   1      31.097  27.102  26.912  1.00  0.00    -0.246 OA
BRANCH   3   5
ATOM      5  C   UNL A   1      32.593  26.007  25.469  1.00  0.00     0.087 C 
ATOM      6  C   UNL A   1      33.206  22.133  24.072  1.00  0.00    -0.002 A 
ATOM      7  C   UNL A   1      34.387  21.471  24.438  1.00  0.00     0.054 A 
ATOM      8  C   UNL A   1      32.979  23.404  24.618  1.00  0.00     0.131 A 
ATOM      9  C   UNL A   1      35.289  22.047  25.344  1.00  0.00     0.130 A 
ATOM     10  C   UNL A   1      33.875  24.002  25.522  1.00  0.00     0.021 A 
ATOM     11  O   UNL A   1      31.823  24.043  24.240  1.00  0.00    -0.475 OA
ATOM     12  C   UNL A   1      35.027  23.313  25.883  1.00  0.00     0.058 A 
ATOM     13  C   UNL A   1      33.548  25.308  26.098  1.00  0.00     0.027 C 
ATOM     14  C   UNL A   1      31.943  25.482  24.214  1.00  0.00     0.316 C 
BRANCH   6  15
ATOM     15  C   UNL A   1      32.223  21.584  23.058  1.00  0.00     0.036 C 
ATOM     16  C   UNL A   1      32.173  20.073  22.887  1.00  0.00     0.009 C 
ENDBRANCH   6  15
BRANCH   9  17
ATOM     17  O   UNL A   1      36.460  21.492  25.779  1.00  0.00    -0.406 OA
BRANCH  17  18
ATOM     18  C   UNL A   1      37.533  21.409  24.857  1.00  0.00     0.573 C 
ATOM     19  F   UNL A   1      38.661  21.942  25.372  1.00  0.00    -0.132 F 
ATOM     20  F   UNL A   1      37.762  20.128  24.494  1.00  0.00    -0.132 F 
ATOM     21  F   UNL A   1      37.205  22.107  23.749  1.00  0.00    -0.132 F 
ENDBRANCH  17  18
ENDBRANCH   9  17
BRANCH  14  22
ATOM     22  C   UNL A   1      32.645  25.945  22.923  1.00  0.00     0.430 C 
ATOM     23  F   UNL A   1      33.955  26.225  23.096  1.00  0.00    -0.167 F 
ATOM     24  F   UNL A   1      32.560  24.990  21.963  1.00  0.00    -0.167 F 
ATOM     25  F   UNL A   1      32.068  27.060  22.422  1.00  0.00    -0.167 F 
ENDBRANCH  14  22
ENDBRANCH   3   5
ENDBRANCH   2   3
ENDBRANCH   1   2
BRANCH   1  26
ATOM     26  C   UNL A   1      31.500  30.578  25.825  1.00  0.00     0.275 C 
BRANCH  26  27
ATOM     27  O   UNL A   1      32.381  30.498  26.960  1.00  0.00    -0.458 OA
BRANCH  27  28
ATOM     28  C   UNL A   1      33.090  31.614  27.237  1.00  0.00     0.338 C 
ATOM     29  O   UNL A   1      32.695  32.772  27.179  1.00  0.00    -0.246 OA
BRANCH  28  30
ATOM     30  C   UNL A   1      34.458  31.265  27.664  1.00  0.00     0.060 A 
ATOM     31  C   UNL A   1      34.792  29.939  27.927  1.00  0.00     0.016 A 
ATOM     32  C   UNL A   1      35.364  32.278  27.976  1.00  0.00     0.016 A 
ATOM     33  C   UNL A   1      35.947  29.636  28.645  1.00  0.00     0.010 A 
ATOM     34  C   UNL A   1      36.590  31.954  28.568  1.00  0.00     0.010 A 
ATOM     35  C   UNL A   1      36.876  30.635  28.966  1.00  0.00    -0.014 A 
BRANCH  35  36
ATOM     36  C   UNL A   1      38.105  30.314  29.756  1.00  0.00     0.031 A 
ATOM     37  C   UNL A   1      39.185  29.441  29.163  1.00  0.00     0.074 A 
ATOM     38  C   UNL A   1      38.279  30.809  30.999  1.00  0.00     0.049 A 
ATOM     39  N   UNL A   1      40.208  28.867  29.751  1.00  0.00    -0.248 NA
ATOM     40  C   UNL A   1      39.094  29.157  27.722  1.00  0.00     0.031 C 
ATOM     41  C   UNL A   1      37.357  31.705  31.696  1.00  0.00     0.029 A 
ATOM     42  N   UNL A   1      39.304  30.632  31.898  1.00  0.00    -0.354 N 
ATOM     43  C   UNL A   1      40.827  28.097  28.774  1.00  0.00     0.074 A 
ATOM     44  C   UNL A   1      40.072  28.279  27.554  1.00  0.00     0.031 C 
ATOM     45  C   UNL A   1      37.879  32.043  32.884  1.00  0.00     0.029 A 
ATOM     46  C   UNL A   1      39.118  31.302  33.084  1.00  0.00     0.049 A 
ATOM     47  H   UNL A   1      40.096  30.079  31.711  1.00  0.00     0.167 HD
ATOM     48  C   UNL A   1      41.926  27.309  28.888  1.00  0.00     0.037 A 
ATOM     49  C   UNL A   1      39.830  31.287  34.227  1.00  0.00     0.037 A 
ATOM     50  C   UNL A   1      42.729  27.196  30.079  1.00  0.00     0.049 A 
ATOM     51  C   UNL A   1      41.043  30.407  34.328  1.00  0.00     0.074 A 
ATOM     52  C   UNL A   1      43.868  26.437  30.284  1.00  0.00     0.029 A 
ATOM     53  N   UNL A   1      42.493  27.885  31.258  1.00  0.00    -0.354 N 
ATOM     54  N   UNL A   1      41.571  29.619  33.425  1.00  0.00    -0.248 NA
ATOM     55  C   UNL A   1      41.746  30.398  35.619  1.00  0.00     0.031 C 
ATOM     56  C   UNL A   1      44.305  26.643  31.598  1.00  0.00     0.029 A 
ATOM     57  C   UNL A   1      43.462  27.567  32.196  1.00  0.00     0.049 A 
ATOM     58  H   UNL A   1      41.745  28.509  31.409  1.00  0.00     0.167 HD
ATOM     59  C   UNL A   1      42.673  29.032  34.031  1.00  0.00     0.074 A 
ATOM     60  C   UNL A   1      42.752  29.573  35.372  1.00  0.00     0.031 C 
ATOM     61  C   UNL A   1      43.537  28.120  33.523  1.00  0.00     0.037 A 
BRANCH  48  62
ATOM     62  C   UNL A   1      42.313  26.474  27.700  1.00  0.00     0.064 A 
ATOM     63  C   UNL A   1      43.320  26.866  26.807  1.00  0.00     0.173 A 
ATOM     64  C   UNL A   1      41.693  25.232  27.485  1.00  0.00     0.173 A 
ATOM     65  F   UNL A   1      43.936  28.047  26.960  1.00  0.00    -0.203 F 
ATOM     66  C   UNL A   1      43.674  26.056  25.729  1.00  0.00     0.198 A 
ATOM     67  C   UNL A   1      42.071  24.413  26.425  1.00  0.00     0.198 A 
ATOM     68  F   UNL A   1      40.730  24.804  28.316  1.00  0.00    -0.203 F 
ATOM     69  F   UNL A   1      44.611  26.471  24.863  1.00  0.00    -0.200 F 
ATOM     70  C   UNL A   1      43.057  24.829  25.544  1.00  0.00     0.200 A 
ATOM     71  F   UNL A   1      41.483  23.220  26.258  1.00  0.00    -0.200 F 
ATOM     72  F   UNL A   1      43.408  24.048  24.513  1.00  0.00    -0.200 F 
ENDBRANCH  48  62
BRANCH  49  73
ATOM     73  C   UNL A   1      39.384  32.105  35.387  1.00  0.00     0.064 A 
ATOM     74  C   UNL A   1      39.794  33.436  35.530  1.00  0.00     0.173 A 
ATOM     75  C   UNL A   1      38.540  31.571  36.373  1.00  0.00     0.173 A 
ATOM     76  F   UNL A   1      40.624  33.983  34.629  1.00  0.00    -0.203 F 
ATOM     77  C   UNL A   1      39.386  34.201  36.622  1.00  0.00     0.198 A 
ATOM     78  C   UNL A   1      38.105  32.346  37.445  1.00  0.00     0.198 A 
ATOM     79  F   UNL A   1      38.120  30.301  36.282  1.00  0.00    -0.203 F 
ATOM     80  F   UNL A   1      39.828  35.458  36.759  1.00  0.00    -0.200 F 
ATOM     81  C   UNL A   1      38.534  33.659  37.572  1.00  0.00     0.200 A 
ATOM     82  F   UNL A   1      37.268  31.823  38.350  1.00  0.00    -0.200 F 
ATOM     83  F   UNL A   1      38.134  34.397  38.616  1.00  0.00    -0.200 F 
ENDBRANCH  49  73
BRANCH  61  84
ATOM     84  C   UNL A   1      44.667  27.684  34.408  1.00  0.00     0.064 A 
ATOM     85  C   UNL A   1      45.876  28.391  34.462  1.00  0.00     0.173 A 
ATOM     86  C   UNL A   1      44.530  26.549  35.223  1.00  0.00     0.173 A 
ATOM     87  F   UNL A   1      46.062  29.472  33.688  1.00  0.00    -0.203 F 
ATOM     88  C   UNL A   1      46.920  27.961  35.277  1.00  0.00     0.198 A 
ATOM     89  C   UNL A   1      45.565  26.139  36.058  1.00  0.00     0.198 A 
ATOM     90  F   UNL A   1      43.390  25.841  35.212  1.00  0.00    -0.203 F 
ATOM     91  F   UNL A   1      48.087  28.621  35.272  1.00  0.00    -0.200 F 
ATOM     92  C   UNL A   1      46.763  26.839  36.077  1.00  0.00     0.200 A 
ATOM     93  F   UNL A   1      45.409  25.060  36.837  1.00  0.00    -0.200 F 
ATOM     94  F   UNL A   1      47.769  26.426  36.860  1.00  0.00    -0.200 F 
ENDBRANCH  61  84
ENDBRANCH  35  36
ENDBRANCH  28  30
ENDBRANCH  27  28
ENDBRANCH  26  27
ENDBRANCH   1  26
TORSDOF 15
ENDMDL
MODEL 2
REMARK VINA RESULT:     -12.5      4.112      9.497
REMARK SMILES CCc1cc(OC(F)(F)F)cc2c1O[C@H](C(F)(F)F)C(C(=O)OCCOC(=O)c1ccc(-c3c4nc(c(-c5c(F)c(F)c(F)c(F)c5F)c5ccc([nH]5)c(-c5c(F)c(F)c(F)c(F)c5F)c5nc(c(-c6c(F)c(F)c(F)c(F)c6F)c6ccc3[nH]6)C=C5)C=C4)cc1)=C2
REMARK SMILES IDX 24 1 23 2 21 3 22 4 20 5 3 6 4 7 13 8 5 9 12 10 14 11 11 12
REMARK SMILES IDX 92 13 15 14 2 15 1 16 6 17 7 18 8 19 9 20 10 21 16 22 17 23
REMARK SMILES IDX 18 24 19 25 25 26 26 27 27 28 28 29 29 30 30 31 91 32 31 33
REMARK SMILES IDX 90 34 32 35 33 36 34 37 84 38 35 39 89 40 83 41 85 42 36 43
REMARK SMILES IDX 88 44 82 45 81 46 37 48 69 49 49 50 68 51 50 52 53 53 67 54
REMARK SMILES IDX 86 55 51 56 52 57 66 59 87 60 54 61 38 62 39 63 47 64 40 65
REMARK SMILES IDX 41 66 45 67 48 68 42 69 43 70 46 71 44 72 70 73 71 74 79 75
REMARK SMILES IDX 72 76 73 77 77 78 80 79 74 80 75 81 78 82 76 83 55 84 56 85
REMARK SMILES IDX 64 86 57 87 58 88 62 89 65 90 59 91 60 92 63 93 61 94
REMARK H PARENT 85 47 53 58
REMARK Flexibility Score: inf
ROOT
ATOM      1  C   UNL A   1      35.378  21.140  25.393  1.00  0.00     0.275 C 
ENDROOT
BRANCH   1   2
ATOM      2  O   UNL A   1      34.578  21.430  24.226  1.00  0.00    -0.459 OA
BRANCH   2   3
ATOM      3  C   UNL A   1      34.710  22.687  23.742  1.00  0.00     0.338 C 
ATOM      4  O   UNL A   1      35.431  23.036  22.822  1.00  0.00    -0.246 OA
BRANCH   3   5
ATOM      5  C   UNL A   1      33.840  23.647  24.440  1.00  0.00     0.087 C 
ATOM      6  C   UNL A   1      31.065  26.650  25.225  1.00  0.00    -0.002 A 
ATOM      7  C   UNL A   1      31.433  27.688  26.094  1.00  0.00     0.054 A 
ATOM      8  C   UNL A   1      32.039  25.694  24.909  1.00  0.00     0.131 A 
ATOM      9  C   UNL A   1      32.738  27.782  26.599  1.00  0.00     0.130 A 
ATOM     10  C   UNL A   1      33.351  25.765  25.411  1.00  0.00     0.021 A 
ATOM     11  O   UNL A   1      31.658  24.678  24.065  1.00  0.00    -0.475 OA
ATOM     12  C   UNL A   1      33.692  26.817  26.252  1.00  0.00     0.058 A 
ATOM     13  C   UNL A   1      34.334  24.763  24.993  1.00  0.00     0.027 C 
ATOM     14  C   UNL A   1      32.353  23.435  24.311  1.00  0.00     0.316 C 
BRANCH   6  15
ATOM     15  C   UNL A   1      29.658  26.468  24.693  1.00  0.00     0.036 C 
ATOM     16  C   UNL A   1      29.251  27.322  23.502  1.00  0.00     0.009 C 
ENDBRANCH   6  15
BRANCH   9  17
ATOM     17  O   UNL A   1      33.210  28.750  27.440  1.00  0.00    -0.406 OA
BRANCH  17  18
ATOM     18  C   UNL A   1      33.567  29.999  26.873  1.00  0.00     0.573 C 
ATOM     19  F   UNL A   1      34.854  30.305  27.139  1.00  0.00    -0.132 F 
ATOM     20  F   UNL A   1      33.369  29.999  25.537  1.00  0.00    -0.132 F 
ATOM     21  F   UNL A   1      32.785  30.958  27.414  1.00  0.00    -0.132 F 
ENDBRANCH  17  18
ENDBRANCH   9  17
BRANCH  14  22
ATOM     22  C   UNL A   1      31.734  22.696  25.512  1.00  0.00     0.430 C 
ATOM     23  F   UNL A   1      32.448  22.834  26.651  1.00  0.00    -0.167 F 
ATOM     24  F   UNL A   1      30.482  23.153  25.763  1.00  0.00    -0.167 F 
ATOM     25  F   UNL A   1      31.629  21.369  25.273  1.00  0.00    -0.167 F 
ENDBRANCH  14  22
ENDBRANCH   3   5
ENDBRANCH   2   3
ENDBRANCH   1   2
BRANCH   1  26
ATOM     26  C   UNL A   1      36.728  20.534  25.011  1.00  0.00     0.275 C 
BRANCH  26  27
ATOM     27  O   UNL A   1      37.749  21.547  25.058  1.00  0.00    -0.458 OA
BRANCH  27  28
ATOM     28  C   UNL A   1      38.836  21.255  25.807  1.00  0.00     0.338 C 
ATOM     29  O   UNL A   1      39.385  20.166  25.916  1.00  0.00    -0.246 OA
BRANCH  28  30
ATOM     30  C   UNL A   1      39.329  22.462  26.496  1.00  0.00     0.060 A 
ATOM     31  C   UNL A   1      38.809  23.713  26.174  1.00  0.00     0.016 A 
ATOM     32  C   UNL A   1      40.437  22.374  27.337  1.00  0.00     0.016 A 
ATOM     33  C   UNL A   1      39.484  24.872  26.552  1.00  0.00     0.010 A 
ATOM     34  C   UNL A   1      41.027  23.542  27.833  1.00  0.00     0.010 A 
ATOM     35  C   UNL A   1      40.597  24.810  27.401  1.00  0.00    -0.014 A 
BRANCH  35  36
ATOM     36  C   UNL A   1      41.335  26.051  27.789  1.00  0.00     0.031 A 
ATOM     37  C   UNL A   1      40.651  27.121  28.607  1.00  0.00     0.074 A 
ATOM     38  C   UNL A   1      42.625  26.231  27.433  1.00  0.00     0.049 A 
ATOM     39  N   UNL A   1      41.033  28.351  28.854  1.00  0.00    -0.248 NA
ATOM     40  C   UNL A   1      39.356  26.770  29.210  1.00  0.00     0.031 C 
ATOM     41  C   UNL A   1      43.444  25.275  26.688  1.00  0.00     0.029 A 
ATOM     42  N   UNL A   1      43.479  27.285  27.661  1.00  0.00    -0.354 N 
ATOM     43  C   UNL A   1      39.994  28.938  29.567  1.00  0.00     0.074 A 
ATOM     44  C   UNL A   1      38.967  27.930  29.719  1.00  0.00     0.031 C 
ATOM     45  C   UNL A   1      44.689  25.758  26.568  1.00  0.00     0.029 A 
ATOM     46  C   UNL A   1      44.731  27.103  27.127  1.00  0.00     0.049 A 
ATOM     47  H   UNL A   1      43.217  28.093  28.159  1.00  0.00     0.167 HD
ATOM     48  C   UNL A   1      39.906  30.203  30.049  1.00  0.00     0.037 A 
ATOM     49  C   UNL A   1      45.785  27.937  27.046  1.00  0.00     0.037 A 
ATOM     50  C   UNL A   1      40.963  31.179  29.974  1.00  0.00     0.049 A 
ATOM     51  C   UNL A   1      45.664  29.333  27.587  1.00  0.00     0.074 A 
ATOM     52  C   UNL A   1      40.973  32.480  30.448  1.00  0.00     0.029 A 
ATOM     53  N   UNL A   1      42.210  30.951  29.413  1.00  0.00    -0.354 N 
ATOM     54  N   UNL A   1      44.647  29.903  28.184  1.00  0.00    -0.248 NA
ATOM     55  C   UNL A   1      46.832  30.209  27.421  1.00  0.00     0.031 C 
ATOM     56  C   UNL A   1      42.215  33.049  30.147  1.00  0.00     0.029 A 
ATOM     57  C   UNL A   1      42.995  32.087  29.526  1.00  0.00     0.049 A 
ATOM     58  H   UNL A   1      42.496  30.107  28.994  1.00  0.00     0.167 HD
ATOM     59  C   UNL A   1      45.056  31.197  28.477  1.00  0.00     0.074 A 
ATOM     60  C   UNL A   1      46.421  31.321  28.014  1.00  0.00     0.031 C 
ATOM     61  C   UNL A   1      44.357  32.195  29.071  1.00  0.00     0.037 A 
BRANCH  48  62
ATOM     62  C   UNL A   1      38.607  30.623  30.676  1.00  0.00     0.064 A 
ATOM     63  C   UNL A   1      38.430  30.680  32.065  1.00  0.00     0.173 A 
ATOM     64  C   UNL A   1      37.534  31.025  29.862  1.00  0.00     0.173 A 
ATOM     65  F   UNL A   1      39.418  30.298  32.887  1.00  0.00    -0.203 F 
ATOM     66  C   UNL A   1      37.220  31.100  32.616  1.00  0.00     0.198 A 
ATOM     67  C   UNL A   1      36.338  31.471  30.416  1.00  0.00     0.198 A 
ATOM     68  F   UNL A   1      37.652  30.999  28.525  1.00  0.00    -0.203 F 
ATOM     69  F   UNL A   1      37.060  31.106  33.947  1.00  0.00    -0.200 F 
ATOM     70  C   UNL A   1      36.180  31.502  31.792  1.00  0.00     0.200 A 
ATOM     71  F   UNL A   1      35.340  31.875  29.618  1.00  0.00    -0.200 F 
ATOM     72  F   UNL A   1      35.022  31.916  32.325  1.00  0.00    -0.200 F 
ENDBRANCH  48  62
BRANCH  49  73
ATOM     73  C   UNL A   1      47.038  27.485  26.383  1.00  0.00     0.064 A 
ATOM     74  C   UNL A   1      47.206  27.611  24.998  1.00  0.00     0.173 A 
ATOM     75  C   UNL A   1      48.090  26.920  27.121  1.00  0.00     0.173 A 
ATOM     76  F   UNL A   1      46.219  28.118  24.246  1.00  0.00    -0.203 F 
ATOM     77  C   UNL A   1      48.375  27.178  24.373  1.00  0.00     0.198 A 
ATOM     78  C   UNL A   1      49.271  26.520  26.501  1.00  0.00     0.198 A 
ATOM     79  F   UNL A   1      47.978  26.777  28.449  1.00  0.00    -0.203 F 
ATOM     80  F   UNL A   1      48.494  27.268  23.042  1.00  0.00    -0.200 F 
ATOM     81  C   UNL A   1      49.410  26.643  25.126  1.00  0.00     0.200 A 
ATOM     82  F   UNL A   1      50.274  26.020  27.235  1.00  0.00    -0.200 F 
ATOM     83  F   UNL A   1      50.538  26.237  24.527  1.00  0.00    -0.200 F 
ENDBRANCH  49  73
BRANCH  61  84
ATOM     84  C   UNL A   1      45.075  33.493  29.290  1.00  0.00     0.064 A 
ATOM     85  C   UNL A   1      45.824  33.735  30.450  1.00  0.00     0.173 A 
ATOM     86  C   UNL A   1      45.023  34.504  28.317  1.00  0.00     0.173 A 
ATOM     87  F   UNL A   1      45.890  32.806  31.417  1.00  0.00    -0.203 F 
ATOM     88  C   UNL A   1      46.470  34.953  30.644  1.00  0.00     0.198 A 
ATOM     89  C   UNL A   1      45.693  35.710  28.502  1.00  0.00     0.198 A 
ATOM     90  F   UNL A   1      44.323  34.320  27.187  1.00  0.00    -0.203 F 
ATOM     91  F   UNL A   1      47.135  35.182  31.785  1.00  0.00    -0.200 F 
ATOM     92  C   UNL A   1      46.408  35.937  29.669  1.00  0.00     0.200 A 
ATOM     93  F   UNL A   1      45.640  36.656  27.555  1.00  0.00    -0.200 F 
ATOM     94  F   UNL A   1      47.029  37.110  29.858  1.00  0.00    -0.200 F 
ENDBRANCH  61  84
ENDBRANCH  35  36
ENDBRANCH  28  30
ENDBRANCH  27  28
ENDBRANCH  26  27
ENDBRANCH   1  26
TORSDOF 15
ENDMDL
MODEL 3
REMARK VINA RESULT:     -12.4      1.459      2.264
REMARK SMILES CCc1cc(OC(F)(F)F)cc2c1O[C@H](C(F)(F)F)C(C(=O)OCCOC(=O)c1ccc(-c3c4nc(c(-c5c(F)c(F)c(F)c(F)c5F)c5ccc([nH]5)c(-c5c(F)c(F)c(F)c(F)c5F)c5nc(c(-c6c(F)c(F)c(F)c(F)c6F)c6ccc3[nH]6)C=C5)C=C4)cc1)=C2
REMARK SMILES IDX 24 1 23 2 21 3 22 4 20 5 3 6 4 7 13 8 5 9 12 10 14 11 11 12
REMARK SMILES IDX 92 13 15 14 2 15 1 16 6 17 7 18 8 19 9 20 10 21 16 22 17 23
REMARK SMILES IDX 18 24 19 25 25 26 26 27 27 28 28 29 29 30 30 31 91 32 31 33
REMARK SMILES IDX 90 34 32 35 33 36 34 37 84 38 35 39 89 40 83 41 85 42 36 43
REMARK SMILES IDX 88 44 82 45 81 46 37 48 69 49 49 50 68 51 50 52 53 53 67 54
REMARK SMILES IDX 86 55 51 56 52 57 66 59 87 60 54 61 38 62 39 63 47 64 40 65
REMARK SMILES IDX 41 66 45 67 48 68 42 69 43 70 46 71 44 72 70 73 71 74 79 75
REMARK SMILES IDX 72 76 73 77 77 78 80 79 74 80 75 81 78 82 76 83 55 84 56 85
REMARK SMILES IDX 64 86 57 87 58 88 62 89 65 90 59 91 60 92 63 93 61 94
REMARK H PARENT 85 47 53 58
REMARK Flexibility Score: inf
ROOT
ATOM      1  C   UNL A   1      31.066  28.921  25.069  1.00  0.00     0.275 C 
ENDROOT
BRANCH   1   2
ATOM      2  O   UNL A   1      31.486  28.093  23.963  1.00  0.00    -0.459 OA
BRANCH   2   3
ATOM      3  C   UNL A   1      30.816  26.923  23.840  1.00  0.00     0.338 C 
ATOM      4  O   UNL A   1      29.654  26.788  23.501  1.00  0.00    -0.246 OA
BRANCH   3   5
ATOM      5  C   UNL A   1      31.668  25.760  24.138  1.00  0.00     0.087 C 
ATOM      6  C   UNL A   1      34.395  22.635  23.772  1.00  0.00    -0.002 A 
ATOM      7  C   UNL A   1      34.005  21.356  24.194  1.00  0.00     0.054 A 
ATOM      8  C   UNL A   1      33.437  23.656  23.827  1.00  0.00     0.131 A 
ATOM      9  C   UNL A   1      32.693  21.103  24.623  1.00  0.00     0.130 A 
ATOM     10  C   UNL A   1      32.119  23.426  24.260  1.00  0.00     0.021 A 
ATOM     11  O   UNL A   1      33.839  24.906  23.419  1.00  0.00    -0.475 OA
ATOM     12  C   UNL A   1      31.755  22.143  24.652  1.00  0.00     0.058 A 
ATOM     13  C   UNL A   1      31.153  24.526  24.238  1.00  0.00     0.027 C 
ATOM     14  C   UNL A   1      33.158  25.981  24.103  1.00  0.00     0.316 C 
BRANCH   6  15
ATOM     15  C   UNL A   1      35.809  22.979  23.352  1.00  0.00     0.036 C 
ATOM     16  C   UNL A   1      36.859  23.060  24.450  1.00  0.00     0.009 C 
ENDBRANCH   6  15
BRANCH   9  17
ATOM     17  O   UNL A   1      32.201  19.900  25.044  1.00  0.00    -0.406 OA
BRANCH  17  18
ATOM     18  C   UNL A   1      32.527  18.751  24.282  1.00  0.00     0.573 C 
ATOM     19  F   UNL A   1      32.227  18.930  22.978  1.00  0.00    -0.132 F 
ATOM     20  F   UNL A   1      33.835  18.441  24.407  1.00  0.00    -0.132 F 
ATOM     21  F   UNL A   1      31.802  17.708  24.741  1.00  0.00    -0.132 F 
ENDBRANCH  17  18
ENDBRANCH   9  17
BRANCH  14  22
ATOM     22  C   UNL A   1      33.775  26.214  25.496  1.00  0.00     0.430 C 
ATOM     23  F   UNL A   1      32.943  25.891  26.510  1.00  0.00    -0.167 F 
ATOM     24  F   UNL A   1      34.904  25.479  25.650  1.00  0.00    -0.167 F 
ATOM     25  F   UNL A   1      34.120  27.510  25.671  1.00  0.00    -0.167 F 
ENDBRANCH  14  22
ENDBRANCH   3   5
ENDBRANCH   2   3
ENDBRANCH   1   2
BRANCH   1  26
ATOM     26  C   UNL A   1      32.043  30.071  25.311  1.00  0.00     0.275 C 
BRANCH  26  27
ATOM     27  O   UNL A   1      32.387  30.134  26.707  1.00  0.00    -0.458 OA
BRANCH  27  28
ATOM     28  C   UNL A   1      33.001  31.267  27.113  1.00  0.00     0.338 C 
ATOM     29  O   UNL A   1      32.520  32.393  27.152  1.00  0.00    -0.246 OA
BRANCH  28  30
ATOM     30  C   UNL A   1      34.380  30.980  27.550  1.00  0.00     0.060 A 
ATOM     31  C   UNL A   1      34.771  29.670  27.820  1.00  0.00     0.016 A 
ATOM     32  C   UNL A   1      35.238  32.033  27.867  1.00  0.00     0.016 A 
ATOM     33  C   UNL A   1      35.932  29.421  28.547  1.00  0.00     0.010 A 
ATOM     34  C   UNL A   1      36.472  31.765  28.469  1.00  0.00     0.010 A 
ATOM     35  C   UNL A   1      36.814  30.460  28.872  1.00  0.00    -0.014 A 
BRANCH  35  36
ATOM     36  C   UNL A   1      38.050  30.197  29.671  1.00  0.00     0.031 A 
ATOM     37  C   UNL A   1      39.155  29.338  29.104  1.00  0.00     0.074 A 
ATOM     38  C   UNL A   1      38.208  30.730  30.901  1.00  0.00     0.049 A 
ATOM     39  N   UNL A   1      40.192  28.810  29.709  1.00  0.00    -0.248 NA
ATOM     40  C   UNL A   1      39.075  29.012  27.672  1.00  0.00     0.031 C 
ATOM     41  C   UNL A   1      37.260  31.619  31.572  1.00  0.00     0.029 A 
ATOM     42  N   UNL A   1      39.236  30.607  31.805  1.00  0.00    -0.354 N 
ATOM     43  C   UNL A   1      40.835  28.030  28.754  1.00  0.00     0.074 A 
ATOM     44  C   UNL A   1      40.077  28.157  27.528  1.00  0.00     0.031 C 
ATOM     45  C   UNL A   1      37.770  32.004  32.751  1.00  0.00     0.029 A 
ATOM     46  C   UNL A   1      39.029  31.303  32.972  1.00  0.00     0.049 A 
ATOM     47  H   UNL A   1      40.044  30.071  31.634  1.00  0.00     0.167 HD
ATOM     48  C   UNL A   1      41.955  27.277  28.890  1.00  0.00     0.037 A 
ATOM     49  C   UNL A   1      39.739  31.341  34.115  1.00  0.00     0.037 A 
ATOM     50  C   UNL A   1      42.759  27.220  30.085  1.00  0.00     0.049 A 
ATOM     51  C   UNL A   1      40.976  30.497  34.243  1.00  0.00     0.074 A 
ATOM     52  C   UNL A   1      43.918  26.498  30.312  1.00  0.00     0.029 A 
ATOM     53  N   UNL A   1      42.501  27.934  31.245  1.00  0.00    -0.354 N 
ATOM     54  N   UNL A   1      41.528  29.700  33.362  1.00  0.00    -0.248 NA
ATOM     55  C   UNL A   1      41.677  30.544  35.533  1.00  0.00     0.031 C 
ATOM     56  C   UNL A   1      44.347  26.753  31.620  1.00  0.00     0.029 A 
ATOM     57  C   UNL A   1      43.478  27.669  32.192  1.00  0.00     0.049 A 
ATOM     58  H   UNL A   1      41.737  28.540  31.378  1.00  0.00     0.167 HD
ATOM     59  C   UNL A   1      42.644  29.161  33.985  1.00  0.00     0.074 A 
ATOM     60  C   UNL A   1      42.706  29.741  35.310  1.00  0.00     0.031 C 
ATOM     61  C   UNL A   1      43.535  28.260  33.503  1.00  0.00     0.037 A 
BRANCH  48  62
ATOM     62  C   UNL A   1      42.368  26.421  27.726  1.00  0.00     0.064 A 
ATOM     63  C   UNL A   1      41.792  25.168  27.478  1.00  0.00     0.173 A 
ATOM     64  C   UNL A   1      43.327  26.894  26.814  1.00  0.00     0.173 A 
ATOM     65  F   UNL A   1      40.880  24.665  28.323  1.00  0.00    -0.203 F 
ATOM     66  C   UNL A   1      42.178  24.410  26.374  1.00  0.00     0.198 A 
ATOM     67  C   UNL A   1      43.688  26.147  25.698  1.00  0.00     0.198 A 
ATOM     68  F   UNL A   1      43.903  28.092  26.999  1.00  0.00    -0.203 F 
ATOM     69  F   UNL A   1      41.644  23.194  26.180  1.00  0.00    -0.200 F 
ATOM     70  C   UNL A   1      43.118  24.902  25.482  1.00  0.00     0.200 A 
ATOM     71  F   UNL A   1      44.584  26.633  24.828  1.00  0.00    -0.200 F 
ATOM     72  F   UNL A   1      43.479  24.175  24.415  1.00  0.00    -0.200 F 
ENDBRANCH  48  62
BRANCH  49  73
ATOM     73  C   UNL A   1      39.268  32.177  35.253  1.00  0.00     0.064 A 
ATOM     74  C   UNL A   1      39.583  33.540  35.323  1.00  0.00     0.173 A 
ATOM     75  C   UNL A   1      38.495  31.630  36.288  1.00  0.00     0.173 A 
ATOM     76  F   UNL A   1      40.343  34.102  34.372  1.00  0.00    -0.203 F 
ATOM     77  C   UNL A   1      39.152  34.323  36.392  1.00  0.00     0.198 A 
ATOM     78  C   UNL A   1      38.036  32.421  37.338  1.00  0.00     0.198 A 
ATOM     79  F   UNL A   1      38.168  30.330  36.268  1.00  0.00    -0.203 F 
ATOM     80  F   UNL A   1      39.504  35.614  36.459  1.00  0.00    -0.200 F 
ATOM     81  C   UNL A   1      38.371  33.765  37.393  1.00  0.00     0.200 A 
ATOM     82  F   UNL A   1      37.267  31.881  38.293  1.00  0.00    -0.200 F 
ATOM     83  F   UNL A   1      37.948  34.521  38.416  1.00  0.00    -0.200 F 
ENDBRANCH  49  73
BRANCH  61  84
ATOM     84  C   UNL A   1      44.675  27.881  34.401  1.00  0.00     0.064 A 
ATOM     85  C   UNL A   1      45.873  28.608  34.418  1.00  0.00     0.173 A 
ATOM     86  C   UNL A   1      44.559  26.781  35.266  1.00  0.00     0.173 A 
ATOM     87  F   UNL A   1      46.039  29.656  33.597  1.00  0.00    -0.203 F 
ATOM     88  C   UNL A   1      46.927  28.230  35.246  1.00  0.00     0.198 A 
ATOM     89  C   UNL A   1      45.604  26.423  36.113  1.00  0.00     0.198 A 
ATOM     90  F   UNL A   1      43.430  26.056  35.290  1.00  0.00    -0.203 F 
ATOM     91  F   UNL A   1      48.084  28.907  35.207  1.00  0.00    -0.200 F 
ATOM     92  C   UNL A   1      46.790  27.142  36.095  1.00  0.00     0.200 A 
ATOM     93  F   UNL A   1      45.467  25.378  36.939  1.00  0.00    -0.200 F 
ATOM     94  F   UNL A   1      47.807  26.779  36.890  1.00  0.00    -0.200 F 
ENDBRANCH  61  84
ENDBRANCH  35  36
ENDBRANCH  28  30
ENDBRANCH  27  28
ENDBRANCH  26  27
ENDBRANCH   1  26
TORSDOF 15
ENDMDL
