MODEL 1
REMARK VINA RESULT:     -12.1      0.000      0.000
REMARK SMILES C[C@H](c1ccncc1)N1C[C@H](C(=O)OCCOC(=O)c2ccc(-c3c4nc(c(-c5c(F)c(F)c(F)c(F)c5F)c5ccc([nH]5)c(-c5c(F)c(F)c(F)c(F)c5F)c5nc(c(-c6c(F)c(F)c(F)c(F)c6F)c6ccc3[nH]6)C=C5)C=C4)cc2)CC1=O
REMARK SMILES IDX 15 1 14 2 12 3 13 4 11 5 9 6 10 7 84 8 83 9 85 10 2 11 1 12
REMARK SMILES IDX 3 13 4 14 8 15 5 16 7 17 6 18 16 19 17 20 18 21 19 22 20 23
REMARK SMILES IDX 21 24 82 25 22 26 81 27 23 28 24 29 25 30 75 31 26 32 80 33
REMARK SMILES IDX 74 34 76 35 27 36 79 37 73 38 72 39 28 41 60 42 40 43 59 44
REMARK SMILES IDX 41 45 44 46 58 47 77 48 42 49 43 50 57 52 78 53 45 54 29 55
REMARK SMILES IDX 30 56 38 57 31 58 32 59 36 60 39 61 33 62 34 63 37 64 35 65
REMARK SMILES IDX 61 66 62 67 70 68 63 69 64 70 68 71 71 72 65 73 66 74 69 75
REMARK SMILES IDX 67 76 46 77 47 78 55 79 48 80 49 81 53 82 56 83 50 84 51 85
REMARK SMILES IDX 54 86 52 87
REMARK H PARENT 76 40 44 51
REMARK Flexibility Score: inf
ROOT
ATOM      1  C   UNL A   1      31.687  28.477  26.266  1.00  0.00     0.274 C 
ENDROOT
BRANCH   1   2
ATOM      2  O   UNL A   1      31.035  27.658  25.268  1.00  0.00    -0.462 OA
BRANCH   2   3
ATOM      3  C   UNL A   1      31.609  26.454  24.993  1.00  0.00     0.311 C 
ATOM      4  O   UNL A   1      31.017  25.382  24.988  1.00  0.00    -0.252 OA
BRANCH   3   5
ATOM      5  C   UNL A   1      33.105  26.609  24.762  1.00  0.00     0.128 C 
ATOM      6  N   UNL A   1      33.804  24.833  23.414  1.00  0.00    -0.335 N 
ATOM      7  C   UNL A   1      33.820  25.262  24.794  1.00  0.00     0.136 C 
ATOM      8  C   UNL A   1      33.623  25.898  22.546  1.00  0.00     0.224 C 
ATOM      9  C   UNL A   1      33.419  27.149  23.368  1.00  0.00     0.117 C 
ATOM     10  O   UNL A   1      33.611  25.853  21.327  1.00  0.00    -0.275 OA
BRANCH   6  11
ATOM     11  C   UNL A   1      33.919  23.447  22.965  1.00  0.00     0.112 C 
ATOM     12  C   UNL A   1      32.563  22.745  22.806  1.00  0.00     0.036 C 
BRANCH  11  13
ATOM     13  C   UNL A   1      34.905  22.607  23.750  1.00  0.00    -0.023 A 
ATOM     14  C   UNL A   1      34.505  21.545  24.564  1.00  0.00     0.026 A 
ATOM     15  C   UNL A   1      36.281  22.823  23.579  1.00  0.00     0.026 A 
ATOM     16  C   UNL A   1      35.480  20.731  25.123  1.00  0.00     0.111 A 
ATOM     17  C   UNL A   1      37.178  21.956  24.181  1.00  0.00     0.111 A 
ATOM     18  N   UNL A   1      36.805  20.908  24.944  1.00  0.00    -0.265 NA
ENDBRANCH  11  13
ENDBRANCH   6  11
ENDBRANCH   3   5
ENDBRANCH   2   3
ENDBRANCH   1   2
BRANCH   1  19
ATOM     19  C   UNL A   1      31.699  29.940  25.832  1.00  0.00     0.275 C 
BRANCH  19  20
ATOM     20  O   UNL A   1      33.041  30.439  25.951  1.00  0.00    -0.458 OA
BRANCH  20  21
ATOM     21  C   UNL A   1      33.265  31.338  26.935  1.00  0.00     0.338 C 
ATOM     22  O   UNL A   1      32.545  32.267  27.270  1.00  0.00    -0.246 OA
BRANCH  21  23
ATOM     23  C   UNL A   1      34.561  31.029  27.567  1.00  0.00     0.060 A 
ATOM     24  C   UNL A   1      34.874  29.708  27.871  1.00  0.00     0.016 A 
ATOM     25  C   UNL A   1      35.444  32.054  27.920  1.00  0.00     0.016 A 
ATOM     26  C   UNL A   1      36.039  29.426  28.574  1.00  0.00     0.010 A 
ATOM     27  C   UNL A   1      36.643  31.751  28.584  1.00  0.00     0.010 A 
ATOM     28  C   UNL A   1      36.937  30.429  28.948  1.00  0.00    -0.014 A 
BRANCH  28  29
ATOM     29  C   UNL A   1      38.096  30.056  29.810  1.00  0.00     0.031 A 
ATOM     30  C   UNL A   1      39.237  29.265  29.228  1.00  0.00     0.074 A 
ATOM     31  C   UNL A   1      38.224  30.552  31.059  1.00  0.00     0.049 A 
ATOM     32  N   UNL A   1      40.280  28.750  29.829  1.00  0.00    -0.248 NA
ATOM     33  C   UNL A   1      39.210  29.041  27.775  1.00  0.00     0.031 C 
ATOM     34  C   UNL A   1      37.279  31.460  31.711  1.00  0.00     0.029 A 
ATOM     35  N   UNL A   1      39.230  30.405  31.985  1.00  0.00    -0.354 N 
ATOM     36  C   UNL A   1      40.996  28.087  28.840  1.00  0.00     0.074 A 
ATOM     37  C   UNL A   1      40.286  28.289  27.596  1.00  0.00     0.031 C 
ATOM     38  C   UNL A   1      37.783  31.845  32.894  1.00  0.00     0.029 A 
ATOM     39  C   UNL A   1      39.030  31.126  33.137  1.00  0.00     0.049 A 
ATOM     40  H   UNL A   1      40.019  29.835  31.837  1.00  0.00     0.167 HD
ATOM     41  C   UNL A   1      42.134  27.363  28.966  1.00  0.00     0.037 A 
ATOM     42  C   UNL A   1      39.744  31.173  34.280  1.00  0.00     0.037 A 
ATOM     43  C   UNL A   1      42.872  27.206  30.191  1.00  0.00     0.049 A 
ATOM     44  C   UNL A   1      40.957  30.294  34.423  1.00  0.00     0.074 A 
ATOM     45  C   UNL A   1      43.994  26.432  30.435  1.00  0.00     0.029 A 
ATOM     46  N   UNL A   1      42.575  27.862  31.377  1.00  0.00    -0.354 N 
ATOM     47  N   UNL A   1      41.541  29.536  33.529  1.00  0.00    -0.248 NA
ATOM     48  C   UNL A   1      41.584  30.242  35.753  1.00  0.00     0.031 C 
ATOM     49  C   UNL A   1      44.357  26.595  31.776  1.00  0.00     0.029 A 
ATOM     50  C   UNL A   1      43.484  27.499  32.358  1.00  0.00     0.049 A 
ATOM     51  H   UNL A   1      41.829  28.490  31.503  1.00  0.00     0.167 HD
ATOM     52  C   UNL A   1      42.595  28.914  34.185  1.00  0.00     0.074 A 
ATOM     53  C   UNL A   1      42.595  29.410  35.544  1.00  0.00     0.031 C 
ATOM     54  C   UNL A   1      43.473  27.998  33.708  1.00  0.00     0.037 A 
BRANCH  41  55
ATOM     55  C   UNL A   1      42.607  26.616  27.758  1.00  0.00     0.064 A 
ATOM     56  C   UNL A   1      43.549  27.150  26.869  1.00  0.00     0.173 A 
ATOM     57  C   UNL A   1      42.118  25.324  27.506  1.00  0.00     0.173 A 
ATOM     58  F   UNL A   1      44.031  28.387  27.059  1.00  0.00    -0.203 F 
ATOM     59  C   UNL A   1      43.971  26.423  25.758  1.00  0.00     0.198 A 
ATOM     60  C   UNL A   1      42.558  24.593  26.408  1.00  0.00     0.198 A 
ATOM     61  F   UNL A   1      41.217  24.770  28.330  1.00  0.00    -0.203 F 
ATOM     62  F   UNL A   1      44.844  26.964  24.897  1.00  0.00    -0.200 F 
ATOM     63  C   UNL A   1      43.481  25.144  25.532  1.00  0.00     0.200 A 
ATOM     64  F   UNL A   1      42.089  23.355  26.197  1.00  0.00    -0.200 F 
ATOM     65  F   UNL A   1      43.891  24.445  24.464  1.00  0.00    -0.200 F 
ENDBRANCH  41  55
BRANCH  42  66
ATOM     66  C   UNL A   1      39.293  32.022  35.415  1.00  0.00     0.064 A 
ATOM     67  C   UNL A   1      39.726  33.349  35.544  1.00  0.00     0.173 A 
ATOM     68  C   UNL A   1      38.444  31.516  36.412  1.00  0.00     0.173 A 
ATOM     69  F   UNL A   1      40.568  33.870  34.638  1.00  0.00    -0.203 F 
ATOM     70  C   UNL A   1      39.336  34.132  36.630  1.00  0.00     0.198 A 
ATOM     71  C   UNL A   1      38.026  32.310  37.477  1.00  0.00     0.198 A 
ATOM     72  F   UNL A   1      38.012  30.249  36.347  1.00  0.00    -0.203 F 
ATOM     73  F   UNL A   1      39.804  35.382  36.755  1.00  0.00    -0.200 F 
ATOM     74  C   UNL A   1      38.480  33.615  37.590  1.00  0.00     0.200 A 
ATOM     75  F   UNL A   1      37.190  31.808  38.395  1.00  0.00    -0.200 F 
ATOM     76  F   UNL A   1      38.100  34.369  38.630  1.00  0.00    -0.200 F 
ENDBRANCH  42  66
BRANCH  54  77
ATOM     77  C   UNL A   1      44.503  27.471  34.660  1.00  0.00     0.064 A 
ATOM     78  C   UNL A   1      45.727  28.132  34.847  1.00  0.00     0.173 A 
ATOM     79  C   UNL A   1      44.253  26.320  35.421  1.00  0.00     0.173 A 
ATOM     80  F   UNL A   1      46.018  29.228  34.130  1.00  0.00    -0.203 F 
ATOM     81  C   UNL A   1      46.669  27.650  35.751  1.00  0.00     0.198 A 
ATOM     82  C   UNL A   1      45.188  25.854  36.341  1.00  0.00     0.198 A 
ATOM     83  F   UNL A   1      43.097  25.655  35.280  1.00  0.00    -0.203 F 
ATOM     84  F   UNL A   1      47.847  28.275  35.886  1.00  0.00    -0.200 F 
ATOM     85  C   UNL A   1      46.397  26.515  36.500  1.00  0.00     0.200 A 
ATOM     86  F   UNL A   1      44.922  24.762  37.071  1.00  0.00    -0.200 F 
ATOM     87  F   UNL A   1      47.304  26.055  37.374  1.00  0.00    -0.200 F 
ENDBRANCH  54  77
ENDBRANCH  28  29
ENDBRANCH  21  23
ENDBRANCH  20  21
ENDBRANCH  19  20
ENDBRANCH   1  19
TORSDOF 13
ENDMDL
MODEL 2
REMARK VINA RESULT:     -12.1      0.187      2.068
REMARK SMILES C[C@H](c1ccncc1)N1C[C@H](C(=O)OCCOC(=O)c2ccc(-c3c4nc(c(-c5c(F)c(F)c(F)c(F)c5F)c5ccc([nH]5)c(-c5c(F)c(F)c(F)c(F)c5F)c5nc(c(-c6c(F)c(F)c(F)c(F)c6F)c6ccc3[nH]6)C=C5)C=C4)cc2)CC1=O
REMARK SMILES IDX 15 1 14 2 12 3 13 4 11 5 9 6 10 7 84 8 83 9 85 10 2 11 1 12
REMARK SMILES IDX 3 13 4 14 8 15 5 16 7 17 6 18 16 19 17 20 18 21 19 22 20 23
REMARK SMILES IDX 21 24 82 25 22 26 81 27 23 28 24 29 25 30 75 31 26 32 80 33
REMARK SMILES IDX 74 34 76 35 27 36 79 37 73 38 72 39 28 41 60 42 40 43 59 44
REMARK SMILES IDX 41 45 44 46 58 47 77 48 42 49 43 50 57 52 78 53 45 54 29 55
REMARK SMILES IDX 30 56 38 57 31 58 32 59 36 60 39 61 33 62 34 63 37 64 35 65
REMARK SMILES IDX 61 66 62 67 70 68 63 69 64 70 68 71 71 72 65 73 66 74 69 75
REMARK SMILES IDX 67 76 46 77 47 78 55 79 48 80 49 81 53 82 56 83 50 84 51 85
REMARK SMILES IDX 54 86 52 87
REMARK H PARENT 76 40 44 51
REMARK Flexibility Score: inf
ROOT
ATOM      1  C   UNL A   1      31.644  28.381  26.462  1.00  0.00     0.274 C 
ENDROOT
BRANCH   1   2
ATOM      2  O   UNL A   1      31.139  27.475  25.454  1.00  0.00    -0.462 OA
BRANCH   2   3
ATOM      3  C   UNL A   1      31.772  26.274  25.337  1.00  0.00     0.311 C 
ATOM      4  O   UNL A   1      31.238  25.185  25.499  1.00  0.00    -0.252 OA
BRANCH   3   5
ATOM      5  C   UNL A   1      33.253  26.469  25.051  1.00  0.00     0.128 C 
ATOM      6  N   UNL A   1      33.907  24.821  23.530  1.00  0.00    -0.335 N 
ATOM      7  C   UNL A   1      33.984  25.136  24.938  1.00  0.00     0.136 C 
ATOM      8  C   UNL A   1      33.673  25.952  22.762  1.00  0.00     0.224 C 
ATOM      9  C   UNL A   1      33.496  27.127  23.694  1.00  0.00     0.117 C 
ATOM     10  O   UNL A   1      33.604  26.006  21.546  1.00  0.00    -0.275 OA
BRANCH   6  11
ATOM     11  C   UNL A   1      34.015  23.479  22.962  1.00  0.00     0.112 C 
ATOM     12  C   UNL A   1      32.657  22.788  22.770  1.00  0.00     0.036 C 
BRANCH  11  13
ATOM     13  C   UNL A   1      35.017  22.578  23.653  1.00  0.00    -0.023 A 
ATOM     14  C   UNL A   1      36.395  22.793  23.579  1.00  0.00     0.026 A 
ATOM     15  C   UNL A   1      34.556  21.548  24.488  1.00  0.00     0.026 A 
ATOM     16  C   UNL A   1      37.233  22.015  24.367  1.00  0.00     0.111 A 
ATOM     17  C   UNL A   1      35.471  20.825  25.234  1.00  0.00     0.111 A 
ATOM     18  N   UNL A   1      36.802  21.042  25.196  1.00  0.00    -0.265 NA
ENDBRANCH  11  13
ENDBRANCH   6  11
ENDBRANCH   3   5
ENDBRANCH   2   3
ENDBRANCH   1   2
BRANCH   1  19
ATOM     19  C   UNL A   1      31.728  29.801  25.909  1.00  0.00     0.275 C 
BRANCH  19  20
ATOM     20  O   UNL A   1      33.090  30.247  26.006  1.00  0.00    -0.458 OA
BRANCH  20  21
ATOM     21  C   UNL A   1      33.347  31.205  26.924  1.00  0.00     0.338 C 
ATOM     22  O   UNL A   1      32.651  32.169  27.207  1.00  0.00    -0.246 OA
BRANCH  21  23
ATOM     23  C   UNL A   1      34.647  30.913  27.557  1.00  0.00     0.060 A 
ATOM     24  C   UNL A   1      34.987  29.593  27.838  1.00  0.00     0.016 A 
ATOM     25  C   UNL A   1      35.506  31.949  27.933  1.00  0.00     0.016 A 
ATOM     26  C   UNL A   1      36.154  29.322  28.542  1.00  0.00     0.010 A 
ATOM     27  C   UNL A   1      36.708  31.659  28.598  1.00  0.00     0.010 A 
ATOM     28  C   UNL A   1      37.029  30.337  28.939  1.00  0.00    -0.014 A 
BRANCH  28  29
ATOM     29  C   UNL A   1      38.192  29.973  29.799  1.00  0.00     0.031 A 
ATOM     30  C   UNL A   1      39.323  29.165  29.223  1.00  0.00     0.074 A 
ATOM     31  C   UNL A   1      38.331  30.491  31.037  1.00  0.00     0.049 A 
ATOM     32  N   UNL A   1      40.368  28.654  29.826  1.00  0.00    -0.248 NA
ATOM     33  C   UNL A   1      39.284  28.913  27.775  1.00  0.00     0.031 C 
ATOM     34  C   UNL A   1      37.397  31.417  31.679  1.00  0.00     0.029 A 
ATOM     35  N   UNL A   1      39.343  30.355  31.959  1.00  0.00    -0.354 N 
ATOM     36  C   UNL A   1      41.073  27.969  28.845  1.00  0.00     0.074 A 
ATOM     37  C   UNL A   1      40.355  28.152  27.602  1.00  0.00     0.031 C 
ATOM     38  C   UNL A   1      37.912  31.821  32.851  1.00  0.00     0.029 A 
ATOM     39  C   UNL A   1      39.156  31.099  33.099  1.00  0.00     0.049 A 
ATOM     40  H   UNL A   1      40.127  29.778  31.816  1.00  0.00     0.167 HD
ATOM     41  C   UNL A   1      42.206  27.240  28.976  1.00  0.00     0.037 A 
ATOM     42  C   UNL A   1      39.878  31.162  34.236  1.00  0.00     0.037 A 
ATOM     43  C   UNL A   1      42.953  27.101  30.199  1.00  0.00     0.049 A 
ATOM     44  C   UNL A   1      41.087  30.278  34.387  1.00  0.00     0.074 A 
ATOM     45  C   UNL A   1      44.071  26.325  30.448  1.00  0.00     0.029 A 
ATOM     46  N   UNL A   1      42.668  27.780  31.374  1.00  0.00    -0.354 N 
ATOM     47  N   UNL A   1      41.660  29.500  33.502  1.00  0.00    -0.248 NA
ATOM     48  C   UNL A   1      41.723  30.247  35.712  1.00  0.00     0.031 C 
ATOM     49  C   UNL A   1      44.445  26.510  31.784  1.00  0.00     0.029 A 
ATOM     50  C   UNL A   1      43.582  27.430  32.355  1.00  0.00     0.049 A 
ATOM     51  H   UNL A   1      41.927  28.416  31.494  1.00  0.00     0.167 HD
ATOM     52  C   UNL A   1      42.715  28.884  34.162  1.00  0.00     0.074 A 
ATOM     53  C   UNL A   1      42.727  29.405  35.512  1.00  0.00     0.031 C 
ATOM     54  C   UNL A   1      43.583  27.954  33.696  1.00  0.00     0.037 A 
BRANCH  41  55
ATOM     55  C   UNL A   1      42.667  26.467  27.779  1.00  0.00     0.064 A 
ATOM     56  C   UNL A   1      42.179  25.188  27.480  1.00  0.00     0.173 A 
ATOM     57  C   UNL A   1      43.603  27.039  26.903  1.00  0.00     0.173 A 
ATOM     58  F   UNL A   1      41.297  24.594  28.297  1.00  0.00    -0.203 F 
ATOM     59  C   UNL A   1      42.626  24.501  26.354  1.00  0.00     0.198 A 
ATOM     60  C   UNL A   1      44.031  26.359  25.768  1.00  0.00     0.198 A 
ATOM     61  F   UNL A   1      44.097  28.262  27.146  1.00  0.00    -0.203 F 
ATOM     62  F   UNL A   1      42.177  23.264  26.103  1.00  0.00    -0.200 F 
ATOM     63  C   UNL A   1      43.546  25.088  25.496  1.00  0.00     0.200 A 
ATOM     64  F   UNL A   1      44.913  26.932  24.937  1.00  0.00    -0.200 F 
ATOM     65  F   UNL A   1      43.972  24.427  24.411  1.00  0.00    -0.200 F 
ENDBRANCH  41  55
BRANCH  42  66
ATOM     66  C   UNL A   1      39.440  32.035  35.358  1.00  0.00     0.064 A 
ATOM     67  C   UNL A   1      38.567  31.561  36.346  1.00  0.00     0.173 A 
ATOM     68  C   UNL A   1      39.860  33.372  35.448  1.00  0.00     0.173 A 
ATOM     69  F   UNL A   1      38.106  30.302  36.286  1.00  0.00    -0.203 F 
ATOM     70  C   UNL A   1      38.123  32.392  37.375  1.00  0.00     0.198 A 
ATOM     71  C   UNL A   1      39.445  34.190  36.496  1.00  0.00     0.198 A 
ATOM     72  F   UNL A   1      40.683  33.881  34.521  1.00  0.00    -0.203 F 
ATOM     73  F   UNL A   1      37.250  31.928  38.279  1.00  0.00    -0.200 F 
ATOM     74  C   UNL A   1      38.570  33.702  37.453  1.00  0.00     0.200 A 
ATOM     75  F   UNL A   1      39.889  35.451  36.572  1.00  0.00    -0.200 F 
ATOM     76  F   UNL A   1      38.149  34.498  38.445  1.00  0.00    -0.200 F 
ENDBRANCH  42  66
BRANCH  54  77
ATOM     77  C   UNL A   1      44.617  27.438  34.650  1.00  0.00     0.064 A 
ATOM     78  C   UNL A   1      44.391  26.284  35.415  1.00  0.00     0.173 A 
ATOM     79  C   UNL A   1      45.860  28.078  34.774  1.00  0.00     0.173 A 
ATOM     80  F   UNL A   1      43.212  25.648  35.343  1.00  0.00    -0.203 F 
ATOM     81  C   UNL A   1      45.366  25.799  36.283  1.00  0.00     0.198 A 
ATOM     82  C   UNL A   1      46.840  27.576  35.625  1.00  0.00     0.198 A 
ATOM     83  F   UNL A   1      46.125  29.183  34.061  1.00  0.00    -0.203 F 
ATOM     84  F   UNL A   1      45.114  24.717  37.032  1.00  0.00    -0.200 F 
ATOM     85  C   UNL A   1      46.591  26.441  36.382  1.00  0.00     0.200 A 
ATOM     86  F   UNL A   1      48.028  28.192  35.715  1.00  0.00    -0.200 F 
ATOM     87  F   UNL A   1      47.530  25.970  37.214  1.00  0.00    -0.200 F 
ENDBRANCH  54  77
ENDBRANCH  28  29
ENDBRANCH  21  23
ENDBRANCH  20  21
ENDBRANCH  19  20
ENDBRANCH   1  19
TORSDOF 13
ENDMDL
MODEL 3
REMARK VINA RESULT:     -11.9      4.423      9.907
REMARK SMILES C[C@H](c1ccncc1)N1C[C@H](C(=O)OCCOC(=O)c2ccc(-c3c4nc(c(-c5c(F)c(F)c(F)c(F)c5F)c5ccc([nH]5)c(-c5c(F)c(F)c(F)c(F)c5F)c5nc(c(-c6c(F)c(F)c(F)c(F)c6F)c6ccc3[nH]6)C=C5)C=C4)cc2)CC1=O
REMARK SMILES IDX 15 1 14 2 12 3 13 4 11 5 9 6 10 7 84 8 83 9 85 10 2 11 1 12
REMARK SMILES IDX 3 13 4 14 8 15 5 16 7 17 6 18 16 19 17 20 18 21 19 22 20 23
REMARK SMILES IDX 21 24 82 25 22 26 81 27 23 28 24 29 25 30 75 31 26 32 80 33
REMARK SMILES IDX 74 34 76 35 27 36 79 37 73 38 72 39 28 41 60 42 40 43 59 44
REMARK SMILES IDX 41 45 44 46 58 47 77 48 42 49 43 50 57 52 78 53 45 54 29 55
REMARK SMILES IDX 30 56 38 57 31 58 32 59 36 60 39 61 33 62 34 63 37 64 35 65
REMARK SMILES IDX 61 66 62 67 70 68 63 69 64 70 68 71 71 72 65 73 66 74 69 75
REMARK SMILES IDX 67 76 46 77 47 78 55 79 48 80 49 81 53 82 56 83 50 84 51 85
REMARK SMILES IDX 54 86 52 87
REMARK H PARENT 76 40 44 51
REMARK Flexibility Score: inf
ROOT
ATOM      1  C   UNL A   1      36.601  22.400  23.723  1.00  0.00     0.274 C 
ENDROOT
BRANCH   1   2
ATOM      2  O   UNL A   1      35.168  22.577  23.812  1.00  0.00    -0.462 OA
BRANCH   2   3
ATOM      3  C   UNL A   1      34.709  23.859  23.843  1.00  0.00     0.311 C 
ATOM      4  O   UNL A   1      34.288  24.473  22.871  1.00  0.00    -0.252 OA
BRANCH   3   5
ATOM      5  C   UNL A   1      34.859  24.454  25.235  1.00  0.00     0.128 C 
ATOM      6  N   UNL A   1      32.756  25.214  25.913  1.00  0.00    -0.335 N 
ATOM      7  C   UNL A   1      34.013  25.711  25.402  1.00  0.00     0.136 C 
ATOM      8  C   UNL A   1      32.898  23.965  26.500  1.00  0.00     0.224 C 
ATOM      9  C   UNL A   1      34.329  23.518  26.321  1.00  0.00     0.117 C 
ATOM     10  O   UNL A   1      32.027  23.316  27.054  1.00  0.00    -0.275 OA
BRANCH   6  11
ATOM     11  C   UNL A   1      31.472  25.902  25.801  1.00  0.00     0.112 C 
ATOM     12  C   UNL A   1      30.679  25.509  24.546  1.00  0.00     0.036 C 
BRANCH  11  13
ATOM     13  C   UNL A   1      31.541  27.404  25.982  1.00  0.00    -0.023 A 
ATOM     14  C   UNL A   1      31.848  27.999  27.208  1.00  0.00     0.026 A 
ATOM     15  C   UNL A   1      31.397  28.239  24.863  1.00  0.00     0.026 A 
ATOM     16  C   UNL A   1      32.043  29.372  27.250  1.00  0.00     0.111 A 
ATOM     17  C   UNL A   1      31.610  29.600  25.007  1.00  0.00     0.111 A 
ATOM     18  N   UNL A   1      31.938  30.184  26.178  1.00  0.00    -0.265 NA
ENDBRANCH  11  13
ENDBRANCH   6  11
ENDBRANCH   3   5
ENDBRANCH   2   3
ENDBRANCH   1   2
BRANCH   1  19
ATOM     19  C   UNL A   1      37.048  21.221  24.582  1.00  0.00     0.275 C 
BRANCH  19  20
ATOM     20  O   UNL A   1      37.535  21.728  25.834  1.00  0.00    -0.458 OA
BRANCH  20  21
ATOM     21  C   UNL A   1      38.831  21.475  26.126  1.00  0.00     0.338 C 
ATOM     22  O   UNL A   1      39.420  20.409  26.021  1.00  0.00    -0.246 OA
BRANCH  21  23
ATOM     23  C   UNL A   1      39.453  22.718  26.617  1.00  0.00     0.060 A 
ATOM     24  C   UNL A   1      38.992  23.944  26.148  1.00  0.00     0.016 A 
ATOM     25  C   UNL A   1      40.541  22.671  27.494  1.00  0.00     0.016 A 
ATOM     26  C   UNL A   1      39.653  25.109  26.514  1.00  0.00     0.010 A 
ATOM     27  C   UNL A   1      41.169  23.861  27.899  1.00  0.00     0.010 A 
ATOM     28  C   UNL A   1      40.748  25.095  27.383  1.00  0.00    -0.014 A 
BRANCH  28  29
ATOM     29  C   UNL A   1      41.478  26.374  27.623  1.00  0.00     0.031 A 
ATOM     30  C   UNL A   1      40.877  27.420  28.523  1.00  0.00     0.074 A 
ATOM     31  C   UNL A   1      42.742  26.548  27.183  1.00  0.00     0.049 A 
ATOM     32  N   UNL A   1      41.295  28.636  28.775  1.00  0.00    -0.248 NA
ATOM     33  C   UNL A   1      39.655  27.043  29.249  1.00  0.00     0.031 C 
ATOM     34  C   UNL A   1      43.521  25.563  26.431  1.00  0.00     0.029 A 
ATOM     35  N   UNL A   1      43.616  27.596  27.352  1.00  0.00    -0.354 N 
ATOM     36  C   UNL A   1      40.354  29.187  29.635  1.00  0.00     0.074 A 
ATOM     37  C   UNL A   1      39.359  28.167  29.886  1.00  0.00     0.031 C 
ATOM     38  C   UNL A   1      44.772  26.020  26.268  1.00  0.00     0.029 A 
ATOM     39  C   UNL A   1      44.856  27.376  26.804  1.00  0.00     0.049 A 
ATOM     40  H   UNL A   1      43.375  28.427  27.822  1.00  0.00     0.167 HD
ATOM     41  C   UNL A   1      40.317  30.438  30.153  1.00  0.00     0.037 A 
ATOM     42  C   UNL A   1      45.928  28.187  26.701  1.00  0.00     0.037 A 
ATOM     43  C   UNL A   1      41.333  31.437  29.950  1.00  0.00     0.049 A 
ATOM     44  C   UNL A   1      45.831  29.600  27.211  1.00  0.00     0.074 A 
ATOM     45  C   UNL A   1      41.349  32.755  30.372  1.00  0.00     0.029 A 
ATOM     46  N   UNL A   1      42.530  31.216  29.287  1.00  0.00    -0.354 N 
ATOM     47  N   UNL A   1      44.865  30.172  27.886  1.00  0.00    -0.248 NA
ATOM     48  C   UNL A   1      46.957  30.494  26.902  1.00  0.00     0.031 C 
ATOM     49  C   UNL A   1      42.542  33.342  29.937  1.00  0.00     0.029 A 
ATOM     50  C   UNL A   1      43.286  32.378  29.277  1.00  0.00     0.049 A 
ATOM     51  H   UNL A   1      42.803  30.362  28.883  1.00  0.00     0.167 HD
ATOM     52  C   UNL A   1      45.261  31.489  28.077  1.00  0.00     0.074 A 
ATOM     53  C   UNL A   1      46.572  31.624  27.479  1.00  0.00     0.031 C 
ATOM     54  C   UNL A   1      44.588  32.501  28.677  1.00  0.00     0.037 A 
BRANCH  41  55
ATOM     55  C   UNL A   1      39.095  30.823  30.928  1.00  0.00     0.064 A 
ATOM     56  C   UNL A   1      39.018  30.687  32.321  1.00  0.00     0.173 A 
ATOM     57  C   UNL A   1      37.988  31.361  30.254  1.00  0.00     0.173 A 
ATOM     58  F   UNL A   1      40.044  30.161  33.006  1.00  0.00    -0.203 F 
ATOM     59  C   UNL A   1      37.867  31.062  33.009  1.00  0.00     0.198 A 
ATOM     60  C   UNL A   1      36.848  31.755  30.948  1.00  0.00     0.198 A 
ATOM     61  F   UNL A   1      38.016  31.513  28.922  1.00  0.00    -0.203 F 
ATOM     62  F   UNL A   1      37.796  30.891  34.337  1.00  0.00    -0.200 F 
ATOM     63  C   UNL A   1      36.786  31.600  32.324  1.00  0.00     0.200 A 
ATOM     64  F   UNL A   1      35.810  32.282  30.284  1.00  0.00    -0.200 F 
ATOM     65  F   UNL A   1      35.681  31.964  32.990  1.00  0.00    -0.200 F 
ENDBRANCH  41  55
BRANCH  42  66
ATOM     66  C   UNL A   1      47.164  27.717  26.020  1.00  0.00     0.064 A 
ATOM     67  C   UNL A   1      47.280  27.749  24.624  1.00  0.00     0.173 A 
ATOM     68  C   UNL A   1      48.245  27.195  26.749  1.00  0.00     0.173 A 
ATOM     69  F   UNL A   1      46.261  28.204  23.878  1.00  0.00    -0.203 F 
ATOM     70  C   UNL A   1      48.422  27.270  23.983  1.00  0.00     0.198 A 
ATOM     71  C   UNL A   1      49.399  26.750  26.111  1.00  0.00     0.198 A 
ATOM     72  F   UNL A   1      48.182  27.126  28.086  1.00  0.00    -0.203 F 
ATOM     73  F   UNL A   1      48.487  27.267  22.644  1.00  0.00    -0.200 F 
ATOM     74  C   UNL A   1      49.483  26.780  24.728  1.00  0.00     0.200 A 
ATOM     75  F   UNL A   1      50.426  26.288  26.837  1.00  0.00    -0.200 F 
ATOM     76  F   UNL A   1      50.584  26.326  24.113  1.00  0.00    -0.200 F 
ENDBRANCH  42  66
BRANCH  54  77
ATOM     77  C   UNL A   1      45.256  33.842  28.716  1.00  0.00     0.064 A 
ATOM     78  C   UNL A   1      46.148  34.182  29.744  1.00  0.00     0.173 A 
ATOM     79  C   UNL A   1      45.035  34.783  27.699  1.00  0.00     0.173 A 
ATOM     80  F   UNL A   1      46.379  33.323  30.748  1.00  0.00    -0.203 F 
ATOM     81  C   UNL A   1      46.782  35.421  29.761  1.00  0.00     0.198 A 
ATOM     82  C   UNL A   1      45.688  36.011  27.706  1.00  0.00     0.198 A 
ATOM     83  F   UNL A   1      44.193  34.503  26.692  1.00  0.00    -0.203 F 
ATOM     84  F   UNL A   1      47.601  35.740  30.772  1.00  0.00    -0.200 F 
ATOM     85  C   UNL A   1      46.556  36.332  28.739  1.00  0.00     0.200 A 
ATOM     86  F   UNL A   1      45.477  36.888  26.714  1.00  0.00    -0.200 F 
ATOM     87  F   UNL A   1      47.171  37.523  28.754  1.00  0.00    -0.200 F 
ENDBRANCH  54  77
ENDBRANCH  28  29
ENDBRANCH  21  23
ENDBRANCH  20  21
ENDBRANCH  19  20
ENDBRANCH   1  19
TORSDOF 13
ENDMDL
