MODEL 1
REMARK VINA RESULT:     -12.8      0.000      0.000
REMARK SMILES CCOC(=O)c1nc(Nc2cccc(C(=O)OCCOC(=O)c3ccc(-c4c5nc(c(-c6c(F)c(F)c(F)c(F)c6F)c6ccc([nH]6)c(-c6c(F)c(F)c(F)c(F)c6F)c6nc(c(-c7c(F)c(F)c(F)c(F)c7F)c7ccc4[nH]7)C=C6)C=C5)cc3)c2)c2ccccc2n1
REMARK SMILES IDX 17 1 15 2 16 3 14 4 10 5 11 6 86 7 12 8 13 9 9 10 8 12 6 13
REMARK SMILES IDX 7 14 93 15 92 16 87 17 91 18 88 19 90 20 89 21 4 22 5 23
REMARK SMILES IDX 3 24 2 25 1 26 18 27 19 28 20 29 21 30 22 31 23 32 24 33
REMARK SMILES IDX 85 34 25 35 84 36 26 37 27 38 28 39 78 40 29 41 83 42 77 43
REMARK SMILES IDX 79 44 30 45 82 46 76 47 75 48 31 50 63 51 43 52 62 53 44 54
REMARK SMILES IDX 47 55 61 56 80 57 45 58 46 59 60 61 81 62 48 63 32 64 33 65
REMARK SMILES IDX 41 66 34 67 35 68 39 69 42 70 36 71 37 72 40 73 38 74 64 75
REMARK SMILES IDX 65 76 73 77 66 78 67 79 71 80 74 81 68 82 69 83 72 84 70 85
REMARK SMILES IDX 49 86 50 87 58 88 51 89 52 90 56 91 59 92 53 93 54 94 57 95
REMARK SMILES IDX 55 96
REMARK H PARENT 9 11 79 49 47 60
REMARK Flexibility Score: inf
ROOT
ATOM      1  O   UNL A   1      40.742  20.686  26.478  1.00  0.00    -0.458 OA
ENDROOT
BRANCH   1   2
ATOM      2  C   UNL A   1      39.638  20.313  25.785  1.00  0.00     0.338 C 
ATOM      3  O   UNL A   1      39.355  19.182  25.423  1.00  0.00    -0.246 OA
BRANCH   2   4
ATOM      4  C   UNL A   1      38.711  21.463  25.638  1.00  0.00     0.062 A 
ATOM      5  C   UNL A   1      36.774  22.528  24.631  1.00  0.00     0.040 A 
ATOM      6  C   UNL A   1      37.025  23.679  25.388  1.00  0.00     0.026 A 
ATOM      7  C   UNL A   1      37.651  21.438  24.731  1.00  0.00     0.041 A 
ATOM      8  C   UNL A   1      38.079  23.710  26.299  1.00  0.00     0.003 A 
ATOM      9  C   UNL A   1      38.891  22.588  26.454  1.00  0.00     0.016 A 
BRANCH   5  10
ATOM     10  N   UNL A   1      35.549  22.406  23.940  1.00  0.00    -0.340 N 
ATOM     11  H   UNL A   1      35.508  22.724  23.009  1.00  0.00     0.168 HD
BRANCH  10  12
ATOM     12  C   UNL A   1      34.375  21.851  24.504  1.00  0.00     0.142 A 
ATOM     13  C   UNL A   1      33.118  19.984  24.949  1.00  0.00     0.241 A 
ATOM     14  N   UNL A   1      34.231  20.518  24.434  1.00  0.00    -0.204 NA
ATOM     15  N   UNL A   1      32.125  20.669  25.539  1.00  0.00    -0.222 NA
ATOM     16  C   UNL A   1      32.288  21.993  25.624  1.00  0.00     0.077 A 
ATOM     17  C   UNL A   1      33.407  22.669  25.107  1.00  0.00     0.043 A 
ATOM     18  C   UNL A   1      31.310  22.736  26.272  1.00  0.00     0.029 A 
ATOM     19  C   UNL A   1      33.493  24.080  25.232  1.00  0.00     0.014 A 
ATOM     20  C   UNL A   1      31.408  24.122  26.419  1.00  0.00     0.002 A 
ATOM     21  C   UNL A   1      32.500  24.797  25.894  1.00  0.00     0.001 A 
BRANCH  13  22
ATOM     22  C   UNL A   1      33.043  18.490  24.921  1.00  0.00     0.376 C 
ATOM     23  O   UNL A   1      32.027  17.845  25.136  1.00  0.00    -0.242 OA
BRANCH  22  24
ATOM     24  O   UNL A   1      34.275  17.968  24.667  1.00  0.00    -0.460 OA
BRANCH  24  25
ATOM     25  C   UNL A   1      34.306  16.550  24.448  1.00  0.00     0.230 C 
ATOM     26  C   UNL A   1      35.291  15.854  25.373  1.00  0.00     0.049 C 
ENDBRANCH  24  25
ENDBRANCH  22  24
ENDBRANCH  13  22
ENDBRANCH  10  12
ENDBRANCH   5  10
ENDBRANCH   2   4
ENDBRANCH   1   2
BRANCH   1  27
ATOM     27  C   UNL A   1      41.974  20.027  26.119  1.00  0.00     0.275 C 
BRANCH  27  28
ATOM     28  C   UNL A   1      43.041  21.061  25.761  1.00  0.00     0.275 C 
BRANCH  28  29
ATOM     29  O   UNL A   1      42.400  22.245  25.254  1.00  0.00    -0.458 OA
BRANCH  29  30
ATOM     30  C   UNL A   1      43.159  23.357  25.182  1.00  0.00     0.338 C 
ATOM     31  O   UNL A   1      44.113  23.572  24.447  1.00  0.00    -0.246 OA
BRANCH  30  32
ATOM     32  C   UNL A   1      42.648  24.344  26.147  1.00  0.00     0.060 A 
ATOM     33  C   UNL A   1      43.062  25.670  26.041  1.00  0.00     0.016 A 
ATOM     34  C   UNL A   1      41.837  23.948  27.208  1.00  0.00     0.016 A 
ATOM     35  C   UNL A   1      42.715  26.601  27.017  1.00  0.00     0.010 A 
ATOM     36  C   UNL A   1      41.430  24.898  28.152  1.00  0.00     0.010 A 
ATOM     37  C   UNL A   1      41.886  26.229  28.082  1.00  0.00    -0.014 A 
BRANCH  37  38
ATOM     38  C   UNL A   1      41.556  27.206  29.157  1.00  0.00     0.031 A 
ATOM     39  C   UNL A   1      42.397  27.255  30.404  1.00  0.00     0.074 A 
ATOM     40  C   UNL A   1      40.531  28.071  29.015  1.00  0.00     0.049 A 
ATOM     41  N   UNL A   1      42.179  27.888  31.530  1.00  0.00    -0.248 NA
ATOM     42  C   UNL A   1      43.651  26.483  30.382  1.00  0.00     0.031 C 
ATOM     43  C   UNL A   1      39.674  28.188  27.837  1.00  0.00     0.029 A 
ATOM     44  N   UNL A   1      40.041  29.023  29.877  1.00  0.00    -0.354 N 
ATOM     45  C   UNL A   1      43.238  27.553  32.363  1.00  0.00     0.074 A 
ATOM     46  C   UNL A   1      44.100  26.660  31.617  1.00  0.00     0.031 C 
ATOM     47  C   UNL A   1      38.781  29.171  28.036  1.00  0.00     0.029 A 
ATOM     48  C   UNL A   1      38.952  29.702  29.386  1.00  0.00     0.049 A 
ATOM     49  H   UNL A   1      40.434  29.204  30.762  1.00  0.00     0.167 HD
ATOM     50  C   UNL A   1      43.472  27.955  33.635  1.00  0.00     0.037 A 
ATOM     51  C   UNL A   1      38.155  30.617  29.970  1.00  0.00     0.037 A 
ATOM     52  C   UNL A   1      42.641  28.878  34.362  1.00  0.00     0.049 A 
ATOM     53  C   UNL A   1      38.412  31.018  31.397  1.00  0.00     0.074 A 
ATOM     54  C   UNL A   1      42.771  29.315  35.670  1.00  0.00     0.029 A 
ATOM     55  N   UNL A   1      41.536  29.526  33.833  1.00  0.00    -0.354 N 
ATOM     56  N   UNL A   1      39.364  30.626  32.208  1.00  0.00    -0.248 NA
ATOM     57  C   UNL A   1      37.470  31.974  31.997  1.00  0.00     0.031 C 
ATOM     58  C   UNL A   1      41.736  30.218  35.936  1.00  0.00     0.029 A 
ATOM     59  C   UNL A   1      40.981  30.367  34.785  1.00  0.00     0.049 A 
ATOM     60  H   UNL A   1      41.196  29.408  32.917  1.00  0.00     0.167 HD
ATOM     61  C   UNL A   1      39.145  31.294  33.404  1.00  0.00     0.074 A 
ATOM     62  C   UNL A   1      37.982  32.135  33.209  1.00  0.00     0.031 C 
ATOM     63  C   UNL A   1      39.836  31.210  34.566  1.00  0.00     0.037 A 
BRANCH  50  64
ATOM     64  C   UNL A   1      44.665  27.384  34.337  1.00  0.00     0.064 A 
ATOM     65  C   UNL A   1      44.598  26.167  35.031  1.00  0.00     0.173 A 
ATOM     66  C   UNL A   1      45.907  28.034  34.268  1.00  0.00     0.173 A 
ATOM     67  F   UNL A   1      43.431  25.516  35.138  1.00  0.00    -0.203 F 
ATOM     68  C   UNL A   1      45.728  25.631  35.643  1.00  0.00     0.198 A 
ATOM     69  C   UNL A   1      47.039  27.484  34.861  1.00  0.00     0.198 A 
ATOM     70  F   UNL A   1      46.023  29.199  33.612  1.00  0.00    -0.203 F 
ATOM     71  F   UNL A   1      45.635  24.483  36.329  1.00  0.00    -0.200 F 
ATOM     72  C   UNL A   1      46.948  26.284  35.550  1.00  0.00     0.200 A 
ATOM     73  F   UNL A   1      48.220  28.110  34.761  1.00  0.00    -0.200 F 
ATOM     74  F   UNL A   1      48.037  25.759  36.130  1.00  0.00    -0.200 F 
ENDBRANCH  50  64
BRANCH  51  75
ATOM     75  C   UNL A   1      37.001  31.188  29.224  1.00  0.00     0.064 A 
ATOM     76  C   UNL A   1      37.004  32.526  28.805  1.00  0.00     0.173 A 
ATOM     77  C   UNL A   1      35.861  30.419  28.947  1.00  0.00     0.173 A 
ATOM     78  F   UNL A   1      38.058  33.310  29.076  1.00  0.00    -0.203 F 
ATOM     79  C   UNL A   1      35.902  33.077  28.152  1.00  0.00     0.198 A 
ATOM     80  C   UNL A   1      34.774  30.963  28.267  1.00  0.00     0.198 A 
ATOM     81  F   UNL A   1      35.806  29.137  29.334  1.00  0.00    -0.203 F 
ATOM     82  F   UNL A   1      35.909  34.373  27.810  1.00  0.00    -0.200 F 
ATOM     83  C   UNL A   1      34.791  32.294  27.879  1.00  0.00     0.200 A 
ATOM     84  F   UNL A   1      33.706  30.200  27.999  1.00  0.00    -0.200 F 
ATOM     85  F   UNL A   1      33.732  32.825  27.254  1.00  0.00    -0.200 F 
ENDBRANCH  51  75
BRANCH  63  86
ATOM     86  C   UNL A   1      39.377  32.075  35.701  1.00  0.00     0.064 A 
ATOM     87  C   UNL A   1      38.410  31.632  36.614  1.00  0.00     0.173 A 
ATOM     88  C   UNL A   1      39.933  33.348  35.892  1.00  0.00     0.173 A 
ATOM     89  F   UNL A   1      37.838  30.428  36.460  1.00  0.00    -0.203 F 
ATOM     90  C   UNL A   1      37.999  32.444  37.667  1.00  0.00     0.198 A 
ATOM     91  C   UNL A   1      39.536  34.148  36.960  1.00  0.00     0.198 A 
ATOM     92  F   UNL A   1      40.866  33.813  35.048  1.00  0.00    -0.203 F 
ATOM     93  F   UNL A   1      37.044  32.018  38.505  1.00  0.00    -0.200 F 
ATOM     94  C   UNL A   1      38.566  33.698  37.842  1.00  0.00     0.200 A 
ATOM     95  F   UNL A   1      40.090  35.356  37.133  1.00  0.00    -0.200 F 
ATOM     96  F   UNL A   1      38.170  34.477  38.859  1.00  0.00    -0.200 F 
ENDBRANCH  63  86
ENDBRANCH  37  38
ENDBRANCH  30  32
ENDBRANCH  29  30
ENDBRANCH  28  29
ENDBRANCH  27  28
ENDBRANCH   1  27
TORSDOF 16
ENDMDL
MODEL 2
REMARK VINA RESULT:     -12.4      5.244      9.942
REMARK SMILES CCOC(=O)c1nc(Nc2cccc(C(=O)OCCOC(=O)c3ccc(-c4c5nc(c(-c6c(F)c(F)c(F)c(F)c6F)c6ccc([nH]6)c(-c6c(F)c(F)c(F)c(F)c6F)c6nc(c(-c7c(F)c(F)c(F)c(F)c7F)c7ccc4[nH]7)C=C6)C=C5)cc3)c2)c2ccccc2n1
REMARK SMILES IDX 17 1 15 2 16 3 14 4 10 5 11 6 86 7 12 8 13 9 9 10 8 12 6 13
REMARK SMILES IDX 7 14 93 15 92 16 87 17 91 18 88 19 90 20 89 21 4 22 5 23
REMARK SMILES IDX 3 24 2 25 1 26 18 27 19 28 20 29 21 30 22 31 23 32 24 33
REMARK SMILES IDX 85 34 25 35 84 36 26 37 27 38 28 39 78 40 29 41 83 42 77 43
REMARK SMILES IDX 79 44 30 45 82 46 76 47 75 48 31 50 63 51 43 52 62 53 44 54
REMARK SMILES IDX 47 55 61 56 80 57 45 58 46 59 60 61 81 62 48 63 32 64 33 65
REMARK SMILES IDX 41 66 34 67 35 68 39 69 42 70 36 71 37 72 40 73 38 74 64 75
REMARK SMILES IDX 65 76 73 77 66 78 67 79 71 80 74 81 68 82 69 83 72 84 70 85
REMARK SMILES IDX 49 86 50 87 58 88 51 89 52 90 56 91 59 92 53 93 54 94 57 95
REMARK SMILES IDX 55 96
REMARK H PARENT 9 11 79 49 47 60
REMARK Flexibility Score: inf
ROOT
ATOM      1  O   UNL A   1      33.441  33.736  28.996  1.00  0.00    -0.458 OA
ENDROOT
BRANCH   1   2
ATOM      2  C   UNL A   1      32.869  33.069  27.963  1.00  0.00     0.338 C 
ATOM      3  O   UNL A   1      31.953  33.468  27.260  1.00  0.00    -0.246 OA
BRANCH   2   4
ATOM      4  C   UNL A   1      33.608  31.811  27.691  1.00  0.00     0.062 A 
ATOM      5  C   UNL A   1      33.930  29.753  26.442  1.00  0.00     0.040 A 
ATOM      6  C   UNL A   1      35.027  29.442  27.255  1.00  0.00     0.026 A 
ATOM      7  C   UNL A   1      33.198  30.922  26.697  1.00  0.00     0.041 A 
ATOM      8  C   UNL A   1      35.445  30.328  28.247  1.00  0.00     0.003 A 
ATOM      9  C   UNL A   1      34.763  31.529  28.433  1.00  0.00     0.016 A 
BRANCH   5  10
ATOM     10  N   UNL A   1      33.701  29.001  25.270  1.00  0.00    -0.340 N 
ATOM     11  H   UNL A   1      34.472  28.793  24.695  1.00  0.00     0.168 HD
BRANCH  10  12
ATOM     12  C   UNL A   1      32.428  28.525  24.872  1.00  0.00     0.142 A 
ATOM     13  C   UNL A   1      30.477  28.898  23.723  1.00  0.00     0.241 A 
ATOM     14  N   UNL A   1      31.689  29.329  24.091  1.00  0.00    -0.204 NA
ATOM     15  N   UNL A   1      29.932  27.719  24.065  1.00  0.00    -0.222 NA
ATOM     16  C   UNL A   1      30.685  26.916  24.823  1.00  0.00     0.077 A 
ATOM     17  C   UNL A   1      31.966  27.266  25.284  1.00  0.00     0.043 A 
ATOM     18  C   UNL A   1      30.181  25.666  25.158  1.00  0.00     0.029 A 
ATOM     19  C   UNL A   1      32.692  26.355  26.095  1.00  0.00     0.014 A 
ATOM     20  C   UNL A   1      30.907  24.758  25.934  1.00  0.00     0.002 A 
ATOM     21  C   UNL A   1      32.165  25.105  26.408  1.00  0.00     0.001 A 
BRANCH  13  22
ATOM     22  C   UNL A   1      29.728  29.793  22.788  1.00  0.00     0.376 C 
ATOM     23  O   UNL A   1      29.853  29.781  21.571  1.00  0.00    -0.242 OA
BRANCH  22  24
ATOM     24  O   UNL A   1      28.931  30.643  23.494  1.00  0.00    -0.460 OA
BRANCH  24  25
ATOM     25  C   UNL A   1      28.209  31.602  22.708  1.00  0.00     0.230 C 
ATOM     26  C   UNL A   1      28.826  32.989  22.798  1.00  0.00     0.049 C 
ENDBRANCH  24  25
ENDBRANCH  22  24
ENDBRANCH  13  22
ENDBRANCH  10  12
ENDBRANCH   5  10
ENDBRANCH   2   4
ENDBRANCH   1   2
BRANCH   1  27
ATOM     27  C   UNL A   1      33.812  35.107  28.745  1.00  0.00     0.275 C 
BRANCH  27  28
ATOM     28  C   UNL A   1      32.914  36.052  29.542  1.00  0.00     0.275 C 
BRANCH  28  29
ATOM     29  O   UNL A   1      32.323  35.330  30.637  1.00  0.00    -0.458 OA
BRANCH  29  30
ATOM     30  C   UNL A   1      32.569  35.805  31.875  1.00  0.00     0.338 C 
ATOM     31  O   UNL A   1      31.966  36.681  32.479  1.00  0.00    -0.246 OA
BRANCH  30  32
ATOM     32  C   UNL A   1      33.713  35.077  32.444  1.00  0.00     0.060 A 
ATOM     33  C   UNL A   1      34.969  35.681  32.441  1.00  0.00     0.016 A 
ATOM     34  C   UNL A   1      33.570  33.768  32.896  1.00  0.00     0.016 A 
ATOM     35  C   UNL A   1      36.099  34.970  32.838  1.00  0.00     0.010 A 
ATOM     36  C   UNL A   1      34.694  33.075  33.362  1.00  0.00     0.010 A 
ATOM     37  C   UNL A   1      35.975  33.658  33.313  1.00  0.00    -0.014 A 
BRANCH  37  38
ATOM     38  C   UNL A   1      37.185  32.876  33.689  1.00  0.00     0.031 A 
ATOM     39  C   UNL A   1      37.823  33.092  35.035  1.00  0.00     0.074 A 
ATOM     40  C   UNL A   1      37.699  31.951  32.853  1.00  0.00     0.049 A 
ATOM     41  N   UNL A   1      38.975  32.662  35.487  1.00  0.00    -0.248 NA
ATOM     42  C   UNL A   1      37.066  33.906  35.999  1.00  0.00     0.031 C 
ATOM     43  C   UNL A   1      37.148  31.584  31.549  1.00  0.00     0.029 A 
ATOM     44  N   UNL A   1      38.806  31.147  32.984  1.00  0.00    -0.354 N 
ATOM     45  C   UNL A   1      39.101  33.191  36.765  1.00  0.00     0.074 A 
ATOM     46  C   UNL A   1      37.911  33.975  37.020  1.00  0.00     0.031 C 
ATOM     47  C   UNL A   1      37.901  30.611  31.011  1.00  0.00     0.029 A 
ATOM     48  C   UNL A   1      39.032  30.340  31.894  1.00  0.00     0.049 A 
ATOM     49  H   UNL A   1      39.383  31.148  33.782  1.00  0.00     0.167 HD
ATOM     50  C   UNL A   1      40.116  33.035  37.647  1.00  0.00     0.037 A 
ATOM     51  C   UNL A   1      40.054  29.508  31.618  1.00  0.00     0.037 A 
ATOM     52  C   UNL A   1      41.279  32.220  37.414  1.00  0.00     0.049 A 
ATOM     53  C   UNL A   1      41.189  29.383  32.598  1.00  0.00     0.074 A 
ATOM     54  C   UNL A   1      42.382  32.031  38.230  1.00  0.00     0.029 A 
ATOM     55  N   UNL A   1      41.476  31.435  36.288  1.00  0.00    -0.354 N 
ATOM     56  N   UNL A   1      41.343  29.958  33.765  1.00  0.00    -0.248 NA
ATOM     57  C   UNL A   1      42.305  28.507  32.211  1.00  0.00     0.031 C 
ATOM     58  C   UNL A   1      43.254  31.142  37.591  1.00  0.00     0.029 A 
ATOM     59  C   UNL A   1      42.678  30.753  36.393  1.00  0.00     0.049 A 
ATOM     60  H   UNL A   1      40.854  31.370  35.529  1.00  0.00     0.167 HD
ATOM     61  C   UNL A   1      42.560  29.507  34.255  1.00  0.00     0.074 A 
ATOM     62  C   UNL A   1      43.096  28.590  33.271  1.00  0.00     0.031 C 
ATOM     63  C   UNL A   1      43.186  29.831  35.412  1.00  0.00     0.037 A 
BRANCH  50  64
ATOM     64  C   UNL A   1      40.031  33.780  38.944  1.00  0.00     0.064 A 
ATOM     65  C   UNL A   1      40.650  35.026  39.120  1.00  0.00     0.173 A 
ATOM     66  C   UNL A   1      39.274  33.265  40.008  1.00  0.00     0.173 A 
ATOM     67  F   UNL A   1      41.397  35.551  38.138  1.00  0.00    -0.203 F 
ATOM     68  C   UNL A   1      40.526  35.722  40.319  1.00  0.00     0.198 A 
ATOM     69  C   UNL A   1      39.133  33.975  41.197  1.00  0.00     0.198 A 
ATOM     70  F   UNL A   1      38.659  32.079  39.888  1.00  0.00    -0.203 F 
ATOM     71  F   UNL A   1      41.152  36.897  40.477  1.00  0.00    -0.200 F 
ATOM     72  C   UNL A   1      39.761  35.201  41.352  1.00  0.00     0.200 A 
ATOM     73  F   UNL A   1      38.384  33.476  42.190  1.00  0.00    -0.200 F 
ATOM     74  F   UNL A   1      39.632  35.880  42.501  1.00  0.00    -0.200 F 
ENDBRANCH  50  64
BRANCH  51  75
ATOM     75  C   UNL A   1      40.082  28.758  30.334  1.00  0.00     0.064 A 
ATOM     76  C   UNL A   1      40.669  29.313  29.188  1.00  0.00     0.173 A 
ATOM     77  C   UNL A   1      39.493  27.490  30.219  1.00  0.00     0.173 A 
ATOM     78  F   UNL A   1      41.215  30.535  29.240  1.00  0.00    -0.203 F 
ATOM     79  C   UNL A   1      40.649  28.633  27.970  1.00  0.00     0.198 A 
ATOM     80  C   UNL A   1      39.502  26.799  29.009  1.00  0.00     0.198 A 
ATOM     81  F   UNL A   1      38.911  26.920  31.284  1.00  0.00    -0.203 F 
ATOM     82  F   UNL A   1      41.169  29.209  26.878  1.00  0.00    -0.200 F 
ATOM     83  C   UNL A   1      40.071  27.376  27.883  1.00  0.00     0.200 A 
ATOM     84  F   UNL A   1      38.949  25.582  28.932  1.00  0.00    -0.200 F 
ATOM     85  F   UNL A   1      40.050  26.725  26.713  1.00  0.00    -0.200 F 
ENDBRANCH  51  75
BRANCH  63  86
ATOM     86  C   UNL A   1      44.497  29.163  35.693  1.00  0.00     0.064 A 
ATOM     87  C   UNL A   1      45.711  29.731  35.281  1.00  0.00     0.173 A 
ATOM     88  C   UNL A   1      44.541  27.956  36.407  1.00  0.00     0.173 A 
ATOM     89  F   UNL A   1      45.717  30.875  34.580  1.00  0.00    -0.203 F 
ATOM     90  C   UNL A   1      46.922  29.103  35.555  1.00  0.00     0.198 A 
ATOM     91  C   UNL A   1      45.756  27.343  36.699  1.00  0.00     0.198 A 
ATOM     92  F   UNL A   1      43.406  27.378  36.827  1.00  0.00    -0.203 F 
ATOM     93  F   UNL A   1      48.068  29.642  35.117  1.00  0.00    -0.200 F 
ATOM     94  C   UNL A   1      46.944  27.913  36.268  1.00  0.00     0.200 A 
ATOM     95  F   UNL A   1      45.776  26.197  37.394  1.00  0.00    -0.200 F 
ATOM     96  F   UNL A   1      48.112  27.311  36.533  1.00  0.00    -0.200 F 
ENDBRANCH  63  86
ENDBRANCH  37  38
ENDBRANCH  30  32
ENDBRANCH  29  30
ENDBRANCH  28  29
ENDBRANCH  27  28
ENDBRANCH   1  27
TORSDOF 16
ENDMDL
MODEL 3
REMARK VINA RESULT:     -12.4      5.210      9.357
REMARK SMILES CCOC(=O)c1nc(Nc2cccc(C(=O)OCCOC(=O)c3ccc(-c4c5nc(c(-c6c(F)c(F)c(F)c(F)c6F)c6ccc([nH]6)c(-c6c(F)c(F)c(F)c(F)c6F)c6nc(c(-c7c(F)c(F)c(F)c(F)c7F)c7ccc4[nH]7)C=C6)C=C5)cc3)c2)c2ccccc2n1
REMARK SMILES IDX 17 1 15 2 16 3 14 4 10 5 11 6 86 7 12 8 13 9 9 10 8 12 6 13
REMARK SMILES IDX 7 14 93 15 92 16 87 17 91 18 88 19 90 20 89 21 4 22 5 23
REMARK SMILES IDX 3 24 2 25 1 26 18 27 19 28 20 29 21 30 22 31 23 32 24 33
REMARK SMILES IDX 85 34 25 35 84 36 26 37 27 38 28 39 78 40 29 41 83 42 77 43
REMARK SMILES IDX 79 44 30 45 82 46 76 47 75 48 31 50 63 51 43 52 62 53 44 54
REMARK SMILES IDX 47 55 61 56 80 57 45 58 46 59 60 61 81 62 48 63 32 64 33 65
REMARK SMILES IDX 41 66 34 67 35 68 39 69 42 70 36 71 37 72 40 73 38 74 64 75
REMARK SMILES IDX 65 76 73 77 66 78 67 79 71 80 74 81 68 82 69 83 72 84 70 85
REMARK SMILES IDX 49 86 50 87 58 88 51 89 52 90 56 91 59 92 53 93 54 94 57 95
REMARK SMILES IDX 55 96
REMARK H PARENT 9 11 79 49 47 60
REMARK Flexibility Score: inf
ROOT
ATOM      1  O   UNL A   1      33.915  20.959  24.223  1.00  0.00    -0.458 OA
ENDROOT
BRANCH   1   2
ATOM      2  C   UNL A   1      32.602  21.265  24.363  1.00  0.00     0.338 C 
ATOM      3  O   UNL A   1      31.773  20.634  25.002  1.00  0.00    -0.246 OA
BRANCH   2   4
ATOM      4  C   UNL A   1      32.311  22.581  23.741  1.00  0.00     0.062 A 
ATOM      5  C   UNL A   1      30.996  24.616  23.569  1.00  0.00     0.040 A 
ATOM      6  C   UNL A   1      31.801  25.034  22.501  1.00  0.00     0.026 A 
ATOM      7  C   UNL A   1      31.232  23.363  24.154  1.00  0.00     0.041 A 
ATOM      8  C   UNL A   1      32.883  24.259  22.086  1.00  0.00     0.003 A 
ATOM      9  C   UNL A   1      33.162  23.058  22.735  1.00  0.00     0.016 A 
BRANCH   5  10
ATOM     10  N   UNL A   1      30.100  25.531  24.162  1.00  0.00    -0.340 N 
ATOM     11  H   UNL A   1      29.281  25.176  24.576  1.00  0.00     0.168 HD
BRANCH  10  12
ATOM     12  C   UNL A   1      30.310  26.931  24.198  1.00  0.00     0.142 A 
ATOM     13  C   UNL A   1      29.784  29.005  23.369  1.00  0.00     0.241 A 
ATOM     14  N   UNL A   1      29.582  27.682  23.356  1.00  0.00    -0.204 NA
ATOM     15  N   UNL A   1      30.654  29.653  24.161  1.00  0.00    -0.222 NA
ATOM     16  C   UNL A   1      31.355  28.899  25.011  1.00  0.00     0.077 A 
ATOM     17  C   UNL A   1      31.241  27.499  25.078  1.00  0.00     0.043 A 
ATOM     18  C   UNL A   1      32.230  29.533  25.884  1.00  0.00     0.029 A 
ATOM     19  C   UNL A   1      32.036  26.776  26.006  1.00  0.00     0.014 A 
ATOM     20  C   UNL A   1      32.992  28.822  26.816  1.00  0.00     0.002 A 
ATOM     21  C   UNL A   1      32.898  27.439  26.874  1.00  0.00     0.001 A 
BRANCH  13  22
ATOM     22  C   UNL A   1      28.892  29.804  22.473  1.00  0.00     0.376 C 
ATOM     23  O   UNL A   1      28.898  29.735  21.251  1.00  0.00    -0.242 OA
BRANCH  22  24
ATOM     24  O   UNL A   1      28.117  30.644  23.214  1.00  0.00    -0.460 OA
BRANCH  24  25
ATOM     25  C   UNL A   1      27.767  31.880  22.575  1.00  0.00     0.230 C 
ATOM     26  C   UNL A   1      28.779  32.976  22.866  1.00  0.00     0.049 C 
ENDBRANCH  24  25
ENDBRANCH  22  24
ENDBRANCH  13  22
ENDBRANCH  10  12
ENDBRANCH   5  10
ENDBRANCH   2   4
ENDBRANCH   1   2
BRANCH   1  27
ATOM     27  C   UNL A   1      34.749  21.174  25.380  1.00  0.00     0.275 C 
BRANCH  27  28
ATOM     28  C   UNL A   1      36.218  20.949  25.023  1.00  0.00     0.275 C 
BRANCH  28  29
ATOM     29  O   UNL A   1      37.047  21.531  26.045  1.00  0.00    -0.458 OA
BRANCH  29  30
ATOM     30  C   UNL A   1      38.377  21.358  25.912  1.00  0.00     0.338 C 
ATOM     31  O   UNL A   1      38.969  20.406  25.421  1.00  0.00    -0.246 OA
BRANCH  30  32
ATOM     32  C   UNL A   1      39.066  22.542  26.449  1.00  0.00     0.060 A 
ATOM     33  C   UNL A   1      38.586  23.809  26.126  1.00  0.00     0.016 A 
ATOM     34  C   UNL A   1      40.236  22.407  27.194  1.00  0.00     0.016 A 
ATOM     35  C   UNL A   1      39.292  24.950  26.496  1.00  0.00     0.010 A 
ATOM     36  C   UNL A   1      40.910  23.555  27.627  1.00  0.00     0.010 A 
ATOM     37  C   UNL A   1      40.460  24.839  27.260  1.00  0.00    -0.014 A 
BRANCH  37  38
ATOM     38  C   UNL A   1      41.248  26.053  27.614  1.00  0.00     0.031 A 
ATOM     39  C   UNL A   1      40.622  27.126  28.463  1.00  0.00     0.074 A 
ATOM     40  C   UNL A   1      42.527  26.191  27.210  1.00  0.00     0.049 A 
ATOM     41  N   UNL A   1      41.055  28.333  28.730  1.00  0.00    -0.248 NA
ATOM     42  C   UNL A   1      39.333  26.798  29.094  1.00  0.00     0.031 C 
ATOM     43  C   UNL A   1      43.287  25.204  26.443  1.00  0.00     0.029 A 
ATOM     44  N   UNL A   1      43.416  27.222  27.396  1.00  0.00    -0.354 N 
ATOM     45  C   UNL A   1      40.072  28.923  29.515  1.00  0.00     0.074 A 
ATOM     46  C   UNL A   1      39.019  27.944  29.684  1.00  0.00     0.031 C 
ATOM     47  C   UNL A   1      44.533  25.664  26.245  1.00  0.00     0.029 A 
ATOM     48  C   UNL A   1      44.638  27.009  26.803  1.00  0.00     0.049 A 
ATOM     49  H   UNL A   1      43.200  28.036  27.906  1.00  0.00     0.167 HD
ATOM     50  C   UNL A   1      40.052  30.167  30.049  1.00  0.00     0.037 A 
ATOM     51  C   UNL A   1      45.707  27.821  26.686  1.00  0.00     0.037 A 
ATOM     52  C   UNL A   1      41.117  31.125  29.920  1.00  0.00     0.049 A 
ATOM     53  C   UNL A   1      45.643  29.213  27.254  1.00  0.00     0.074 A 
ATOM     54  C   UNL A   1      41.172  32.427  30.390  1.00  0.00     0.029 A 
ATOM     55  N   UNL A   1      42.329  30.875  29.295  1.00  0.00    -0.354 N 
ATOM     56  N   UNL A   1      44.673  29.793  27.917  1.00  0.00    -0.248 NA
ATOM     57  C   UNL A   1      46.817  30.070  27.039  1.00  0.00     0.031 C 
ATOM     58  C   UNL A   1      42.413  32.969  30.037  1.00  0.00     0.029 A 
ATOM     59  C   UNL A   1      43.142  31.995  29.375  1.00  0.00     0.049 A 
ATOM     60  H   UNL A   1      42.576  30.028  28.860  1.00  0.00     0.167 HD
ATOM     61  C   UNL A   1      45.122  31.073  28.207  1.00  0.00     0.074 A 
ATOM     62  C   UNL A   1      46.463  31.180  27.670  1.00  0.00     0.031 C 
ATOM     63  C   UNL A   1      44.479  32.076  28.851  1.00  0.00     0.037 A 
BRANCH  50  64
ATOM     64  C   UNL A   1      38.826  30.578  30.806  1.00  0.00     0.064 A 
ATOM     65  C   UNL A   1      38.763  30.496  32.205  1.00  0.00     0.173 A 
ATOM     66  C   UNL A   1      37.720  31.112  30.127  1.00  0.00     0.173 A 
ATOM     67  F   UNL A   1      39.789  29.979  32.897  1.00  0.00    -0.203 F 
ATOM     68  C   UNL A   1      37.631  30.922  32.894  1.00  0.00     0.198 A 
ATOM     69  C   UNL A   1      36.599  31.558  30.822  1.00  0.00     0.198 A 
ATOM     70  F   UNL A   1      37.734  31.215  28.790  1.00  0.00    -0.203 F 
ATOM     71  F   UNL A   1      37.579  30.806  34.229  1.00  0.00    -0.200 F 
ATOM     72  C   UNL A   1      36.555  31.460  32.204  1.00  0.00     0.200 A 
ATOM     73  F   UNL A   1      35.565  32.088  30.154  1.00  0.00    -0.200 F 
ATOM     74  F   UNL A   1      35.471  31.881  32.872  1.00  0.00    -0.200 F 
ENDBRANCH  50  64
BRANCH  51  75
ATOM     75  C   UNL A   1      46.918  27.360  25.958  1.00  0.00     0.064 A 
ATOM     76  C   UNL A   1      47.966  26.717  26.634  1.00  0.00     0.173 A 
ATOM     77  C   UNL A   1      47.069  27.582  24.581  1.00  0.00     0.173 A 
ATOM     78  F   UNL A   1      47.882  26.511  27.955  1.00  0.00    -0.203 F 
ATOM     79  C   UNL A   1      49.125  26.331  25.962  1.00  0.00     0.198 A 
ATOM     80  C   UNL A   1      48.215  27.168  23.905  1.00  0.00     0.198 A 
ATOM     81  F   UNL A   1      46.100  28.200  23.890  1.00  0.00    -0.203 F 
ATOM     82  F   UNL A   1      50.133  25.768  26.642  1.00  0.00    -0.200 F 
ATOM     83  C   UNL A   1      49.246  26.551  24.598  1.00  0.00     0.200 A 
ATOM     84  F   UNL A   1      48.324  27.376  22.587  1.00  0.00    -0.200 F 
ATOM     85  F   UNL A   1      50.361  26.183  23.954  1.00  0.00    -0.200 F 
ENDBRANCH  51  75
BRANCH  63  86
ATOM     86  C   UNL A   1      45.228  33.360  29.043  1.00  0.00     0.064 A 
ATOM     87  C   UNL A   1      46.063  33.561  30.151  1.00  0.00     0.173 A 
ATOM     88  C   UNL A   1      45.133  34.386  28.092  1.00  0.00     0.173 A 
ATOM     89  F   UNL A   1      46.172  32.614  31.095  1.00  0.00    -0.203 F 
ATOM     90  C   UNL A   1      46.759  34.756  30.312  1.00  0.00     0.198 A 
ATOM     91  C   UNL A   1      45.848  35.570  28.245  1.00  0.00     0.198 A 
ATOM     92  F   UNL A   1      44.351  34.237  27.012  1.00  0.00    -0.203 F 
ATOM     93  F   UNL A   1      47.520  34.945  31.399  1.00  0.00    -0.200 F 
ATOM     94  C   UNL A   1      46.655  35.756  29.356  1.00  0.00     0.200 A 
ATOM     95  F   UNL A   1      45.753  36.533  27.317  1.00  0.00    -0.200 F 
ATOM     96  F   UNL A   1      47.328  36.906  29.513  1.00  0.00    -0.200 F 
ENDBRANCH  63  86
ENDBRANCH  37  38
ENDBRANCH  30  32
ENDBRANCH  29  30
ENDBRANCH  28  29
ENDBRANCH  27  28
ENDBRANCH   1  27
TORSDOF 16
ENDMDL
