MODEL 1
REMARK VINA RESULT:     -13.9      0.000      0.000
REMARK SMILES Cc1ccc(C(=O)OCCOC(=O)c2ccc(-c3c4nc(c(-c5c(F)c(F)c(F)c(F)c5F)c5ccc([nH]5)c(-c5c(F)c(F)c(F)c(F)c5F)c5nc(c(-c6c(F)c(F)c(F)c(F)c6F)c6ccc3[nH]6)C=C5)C=C4)cc2)c2c1N[C@H](c1ccccc1F)[C@H]1CC=C[C@@H]21
REMARK SMILES IDX 10 1 9 2 8 3 6 4 7 5 5 6 1 7 2 8 3 9 78 10 4 11 77 12 79 13
REMARK SMILES IDX 92 14 80 15 88 17 91 18 89 19 90 20 81 21 82 22 86 23 83 24
REMARK SMILES IDX 85 25 87 26 84 27 11 28 12 29 13 30 14 31 15 32 76 33 16 34
REMARK SMILES IDX 75 35 17 36 18 37 19 38 69 39 20 40 74 41 68 42 70 43 21 44
REMARK SMILES IDX 73 45 67 46 66 47 22 49 54 50 34 51 53 52 35 53 38 54 52 55
REMARK SMILES IDX 71 56 36 57 37 58 51 60 72 61 39 62 23 63 24 64 32 65 25 66
REMARK SMILES IDX 26 67 30 68 33 69 27 70 28 71 31 72 29 73 55 74 56 75 64 76
REMARK SMILES IDX 57 77 58 78 62 79 65 80 59 81 60 82 63 83 61 84 40 85 41 86
REMARK SMILES IDX 49 87 42 88 43 89 47 90 50 91 44 92 45 93 48 94 46 95
REMARK H PARENT 79 16 70 48 38 59
REMARK Flexibility Score: inf
ROOT
ATOM      1  C   UNL A   1      31.508  29.300  26.051  1.00  0.00     0.275 C 
ENDROOT
BRANCH   1   2
ATOM      2  C   UNL A   1      31.772  28.202  27.079  1.00  0.00     0.275 C 
BRANCH   2   3
ATOM      3  O   UNL A   1      32.297  27.019  26.439  1.00  0.00    -0.458 OA
BRANCH   3   4
ATOM      4  C   UNL A   1      31.379  26.116  25.989  1.00  0.00     0.338 C 
ATOM      5  O   UNL A   1      30.301  25.906  26.501  1.00  0.00    -0.246 OA
BRANCH   4   6
ATOM      6  C   UNL A   1      31.902  25.439  24.755  1.00  0.00     0.065 A 
ATOM      7  C   UNL A   1      33.274  23.723  21.040  1.00  0.00     0.046 C 
ATOM      8  C   UNL A   1      32.740  24.260  22.343  1.00  0.00    -0.028 A 
ATOM      9  C   UNL A   1      32.356  25.608  22.383  1.00  0.00     0.006 A 
ATOM     10  C   UNL A   1      32.713  23.480  23.522  1.00  0.00     0.042 A 
ATOM     11  C   UNL A   1      31.912  26.183  23.568  1.00  0.00     0.016 A 
ATOM     12  C   UNL A   1      32.370  24.095  24.753  1.00  0.00    -0.003 A 
ATOM     13  N   UNL A   1      32.991  22.118  23.462  1.00  0.00    -0.377 N 
ATOM     14  C   UNL A   1      32.439  23.287  26.028  1.00  0.00     0.050 C 
ATOM     15  C   UNL A   1      33.465  21.418  24.636  1.00  0.00     0.117 C 
ATOM     16  H   UNL A   1      32.863  21.628  22.618  1.00  0.00     0.161 HD
ATOM     17  C   UNL A   1      32.624  21.767  25.870  1.00  0.00     0.031 C 
ATOM     18  C   UNL A   1      33.559  23.628  26.976  1.00  0.00    -0.023 C 
ATOM     19  C   UNL A   1      33.366  21.302  27.142  1.00  0.00     0.034 C 
ATOM     20  C   UNL A   1      34.028  22.550  27.614  1.00  0.00    -0.030 C 
BRANCH  15  21
ATOM     21  C   UNL A   1      33.572  19.919  24.372  1.00  0.00     0.010 A 
ATOM     22  C   UNL A   1      32.497  19.259  23.749  1.00  0.00     0.009 A 
ATOM     23  C   UNL A   1      34.728  19.169  24.626  1.00  0.00     0.128 A 
ATOM     24  C   UNL A   1      32.616  17.930  23.327  1.00  0.00     0.001 A 
ATOM     25  C   UNL A   1      34.861  17.854  24.184  1.00  0.00     0.039 A 
ATOM     26  F   UNL A   1      35.762  19.700  25.288  1.00  0.00    -0.207 F 
ATOM     27  C   UNL A   1      33.807  17.235  23.522  1.00  0.00     0.003 A 
ENDBRANCH  15  21
ENDBRANCH   4   6
ENDBRANCH   3   4
ENDBRANCH   2   3
ENDBRANCH   1   2
BRANCH   1  28
ATOM     28  O   UNL A   1      32.713  30.059  25.851  1.00  0.00    -0.458 OA
BRANCH  28  29
ATOM     29  C   UNL A   1      33.030  30.971  26.800  1.00  0.00     0.338 C 
ATOM     30  O   UNL A   1      32.299  31.837  27.251  1.00  0.00    -0.246 OA
BRANCH  29  31
ATOM     31  C   UNL A   1      34.421  30.753  27.274  1.00  0.00     0.060 A 
ATOM     32  C   UNL A   1      35.000  29.490  27.245  1.00  0.00     0.016 A 
ATOM     33  C   UNL A   1      35.130  31.801  27.869  1.00  0.00     0.016 A 
ATOM     34  C   UNL A   1      36.192  29.250  27.935  1.00  0.00     0.010 A 
ATOM     35  C   UNL A   1      36.380  31.567  28.473  1.00  0.00     0.010 A 
ATOM     36  C   UNL A   1      36.902  30.267  28.597  1.00  0.00    -0.014 A 
BRANCH  36  37
ATOM     37  C   UNL A   1      38.089  29.968  29.489  1.00  0.00     0.031 A 
ATOM     38  C   UNL A   1      39.279  29.178  28.959  1.00  0.00     0.074 A 
ATOM     39  C   UNL A   1      38.198  30.450  30.748  1.00  0.00     0.049 A 
ATOM     40  N   UNL A   1      40.285  28.642  29.615  1.00  0.00    -0.248 NA
ATOM     41  C   UNL A   1      39.348  28.953  27.507  1.00  0.00     0.031 C 
ATOM     42  C   UNL A   1      37.224  31.298  31.430  1.00  0.00     0.029 A 
ATOM     43  N   UNL A   1      39.216  30.324  31.676  1.00  0.00    -0.354 N 
ATOM     44  C   UNL A   1      41.048  27.962  28.670  1.00  0.00     0.074 A 
ATOM     45  C   UNL A   1      40.400  28.154  27.392  1.00  0.00     0.031 C 
ATOM     46  C   UNL A   1      37.730  31.707  32.603  1.00  0.00     0.029 A 
ATOM     47  C   UNL A   1      38.998  31.026  32.839  1.00  0.00     0.049 A 
ATOM     48  H   UNL A   1      40.021  29.782  31.518  1.00  0.00     0.167 HD
ATOM     49  C   UNL A   1      42.192  27.255  28.837  1.00  0.00     0.037 A 
ATOM     50  C   UNL A   1      39.690  31.082  33.998  1.00  0.00     0.037 A 
ATOM     51  C   UNL A   1      42.922  27.136  30.072  1.00  0.00     0.049 A 
ATOM     52  C   UNL A   1      40.906  30.217  34.193  1.00  0.00     0.074 A 
ATOM     53  C   UNL A   1      44.088  26.428  30.317  1.00  0.00     0.029 A 
ATOM     54  N   UNL A   1      42.584  27.766  31.257  1.00  0.00    -0.354 N 
ATOM     55  N   UNL A   1      41.533  29.462  33.328  1.00  0.00    -0.248 NA
ATOM     56  C   UNL A   1      41.476  30.173  35.549  1.00  0.00     0.031 C 
ATOM     57  C   UNL A   1      44.441  26.606  31.658  1.00  0.00     0.029 A 
ATOM     58  C   UNL A   1      43.514  27.453  32.238  1.00  0.00     0.049 A 
ATOM     59  H   UNL A   1      41.801  28.349  31.383  1.00  0.00     0.167 HD
ATOM     60  C   UNL A   1      42.560  28.849  34.033  1.00  0.00     0.074 A 
ATOM     61  C   UNL A   1      42.500  29.345  35.389  1.00  0.00     0.031 C 
ATOM     62  C   UNL A   1      43.459  27.939  33.590  1.00  0.00     0.037 A 
BRANCH  49  63
ATOM     63  C   UNL A   1      42.748  26.519  27.653  1.00  0.00     0.064 A 
ATOM     64  C   UNL A   1      43.708  27.094  26.808  1.00  0.00     0.173 A 
ATOM     65  C   UNL A   1      42.396  25.178  27.433  1.00  0.00     0.173 A 
ATOM     66  F   UNL A   1      44.079  28.370  26.979  1.00  0.00    -0.203 F 
ATOM     67  C   UNL A   1      44.289  26.353  25.781  1.00  0.00     0.198 A 
ATOM     68  C   UNL A   1      42.997  24.434  26.422  1.00  0.00     0.198 A 
ATOM     69  F   UNL A   1      41.497  24.577  28.228  1.00  0.00    -0.203 F 
ATOM     70  F   UNL A   1      45.195  26.925  24.976  1.00  0.00    -0.200 F 
ATOM     71  C   UNL A   1      43.943  25.022  25.596  1.00  0.00     0.200 A 
ATOM     72  F   UNL A   1      42.677  23.143  26.261  1.00  0.00    -0.200 F 
ATOM     73  F   UNL A   1      44.525  24.306  24.626  1.00  0.00    -0.200 F 
ENDBRANCH  49  63
BRANCH  50  74
ATOM     74  C   UNL A   1      39.198  31.934  35.116  1.00  0.00     0.064 A 
ATOM     75  C   UNL A   1      38.455  31.384  36.169  1.00  0.00     0.173 A 
ATOM     76  C   UNL A   1      39.447  33.315  35.147  1.00  0.00     0.173 A 
ATOM     77  F   UNL A   1      38.150  30.078  36.164  1.00  0.00    -0.203 F 
ATOM     78  C   UNL A   1      37.987  32.181  37.213  1.00  0.00     0.198 A 
ATOM     79  C   UNL A   1      39.012  34.103  36.209  1.00  0.00     0.198 A 
ATOM     80  F   UNL A   1      40.133  33.897  34.153  1.00  0.00    -0.203 F 
ATOM     81  F   UNL A   1      37.243  31.638  38.187  1.00  0.00    -0.200 F 
ATOM     82  C   UNL A   1      38.278  33.537  37.239  1.00  0.00     0.200 A 
ATOM     83  F   UNL A   1      39.307  35.410  36.234  1.00  0.00    -0.200 F 
ATOM     84  F   UNL A   1      37.843  34.300  38.251  1.00  0.00    -0.200 F 
ENDBRANCH  50  74
BRANCH  62  85
ATOM     85  C   UNL A   1      44.463  27.409  34.572  1.00  0.00     0.064 A 
ATOM     86  C   UNL A   1      45.678  28.070  34.799  1.00  0.00     0.173 A 
ATOM     87  C   UNL A   1      44.182  26.268  35.339  1.00  0.00     0.173 A 
ATOM     88  F   UNL A   1      45.999  29.158  34.081  1.00  0.00    -0.203 F 
ATOM     89  C   UNL A   1      46.583  27.602  35.748  1.00  0.00     0.198 A 
ATOM     90  C   UNL A   1      45.079  25.815  36.304  1.00  0.00     0.198 A 
ATOM     91  F   UNL A   1      43.031  25.603  35.165  1.00  0.00    -0.203 F 
ATOM     92  F   UNL A   1      47.752  28.233  35.926  1.00  0.00    -0.200 F 
ATOM     93  C   UNL A   1      46.278  26.480  36.506  1.00  0.00     0.200 A 
ATOM     94  F   UNL A   1      44.778  24.739  37.044  1.00  0.00    -0.200 F 
ATOM     95  F   UNL A   1      47.145  26.038  37.428  1.00  0.00    -0.200 F 
ENDBRANCH  62  85
ENDBRANCH  36  37
ENDBRANCH  29  31
ENDBRANCH  28  29
ENDBRANCH   1  28
TORSDOF 12
ENDMDL
MODEL 2
REMARK VINA RESULT:     -13.6      4.480      9.901
REMARK SMILES Cc1ccc(C(=O)OCCOC(=O)c2ccc(-c3c4nc(c(-c5c(F)c(F)c(F)c(F)c5F)c5ccc([nH]5)c(-c5c(F)c(F)c(F)c(F)c5F)c5nc(c(-c6c(F)c(F)c(F)c(F)c6F)c6ccc3[nH]6)C=C5)C=C4)cc2)c2c1N[C@H](c1ccccc1F)[C@H]1CC=C[C@@H]21
REMARK SMILES IDX 10 1 9 2 8 3 6 4 7 5 5 6 1 7 2 8 3 9 78 10 4 11 77 12 79 13
REMARK SMILES IDX 92 14 80 15 88 17 91 18 89 19 90 20 81 21 82 22 86 23 83 24
REMARK SMILES IDX 85 25 87 26 84 27 11 28 12 29 13 30 14 31 15 32 76 33 16 34
REMARK SMILES IDX 75 35 17 36 18 37 19 38 69 39 20 40 74 41 68 42 70 43 21 44
REMARK SMILES IDX 73 45 67 46 66 47 22 49 54 50 34 51 53 52 35 53 38 54 52 55
REMARK SMILES IDX 71 56 36 57 37 58 51 60 72 61 39 62 23 63 24 64 32 65 25 66
REMARK SMILES IDX 26 67 30 68 33 69 27 70 28 71 31 72 29 73 55 74 56 75 64 76
REMARK SMILES IDX 57 77 58 78 62 79 65 80 59 81 60 82 63 83 61 84 40 85 41 86
REMARK SMILES IDX 49 87 42 88 43 89 47 90 50 91 44 92 45 93 48 94 46 95
REMARK H PARENT 79 16 70 48 38 59
REMARK Flexibility Score: inf
ROOT
ATOM      1  C   UNL A   1      36.388  21.597  24.249  1.00  0.00     0.275 C 
ENDROOT
BRANCH   1   2
ATOM      2  C   UNL A   1      36.293  22.961  23.569  1.00  0.00     0.275 C 
BRANCH   2   3
ATOM      3  O   UNL A   1      35.167  23.708  24.078  1.00  0.00    -0.458 OA
BRANCH   3   4
ATOM      4  C   UNL A   1      34.069  23.771  23.272  1.00  0.00     0.338 C 
ATOM      5  O   UNL A   1      34.062  23.530  22.084  1.00  0.00    -0.246 OA
BRANCH   4   6
ATOM      6  C   UNL A   1      32.870  24.165  24.085  1.00  0.00     0.065 A 
ATOM      7  C   UNL A   1      29.390  24.994  26.501  1.00  0.00     0.046 C 
ATOM      8  C   UNL A   1      30.559  24.719  25.590  1.00  0.00    -0.028 A 
ATOM      9  C   UNL A   1      31.260  23.519  25.774  1.00  0.00     0.006 A 
ATOM     10  C   UNL A   1      31.013  25.667  24.645  1.00  0.00     0.042 A 
ATOM     11  C   UNL A   1      32.384  23.231  25.010  1.00  0.00     0.016 A 
ATOM     12  C   UNL A   1      32.223  25.424  23.945  1.00  0.00    -0.003 A 
ATOM     13  N   UNL A   1      30.259  26.807  24.385  1.00  0.00    -0.377 N 
ATOM     14  C   UNL A   1      32.761  26.482  23.010  1.00  0.00     0.050 C 
ATOM     15  C   UNL A   1      30.892  27.994  23.850  1.00  0.00     0.117 C 
ATOM     16  H   UNL A   1      29.292  26.807  24.566  1.00  0.00     0.161 HD
ATOM     17  C   UNL A   1      31.816  27.650  22.676  1.00  0.00     0.031 C 
ATOM     18  C   UNL A   1      33.993  27.217  23.469  1.00  0.00    -0.023 C 
ATOM     19  C   UNL A   1      32.732  28.856  22.376  1.00  0.00     0.034 C 
ATOM     20  C   UNL A   1      33.994  28.496  23.081  1.00  0.00    -0.030 C 
BRANCH  15  21
ATOM     21  C   UNL A   1      29.856  29.064  23.522  1.00  0.00     0.010 A 
ATOM     22  C   UNL A   1      28.734  28.712  22.751  1.00  0.00     0.009 A 
ATOM     23  C   UNL A   1      29.904  30.369  24.029  1.00  0.00     0.128 A 
ATOM     24  C   UNL A   1      27.673  29.606  22.572  1.00  0.00     0.001 A 
ATOM     25  C   UNL A   1      28.839  31.255  23.878  1.00  0.00     0.039 A 
ATOM     26  F   UNL A   1      30.973  30.807  24.703  1.00  0.00    -0.207 F 
ATOM     27  C   UNL A   1      27.714  30.870  23.157  1.00  0.00     0.003 A 
ENDBRANCH  15  21
ENDBRANCH   4   6
ENDBRANCH   3   4
ENDBRANCH   2   3
ENDBRANCH   1   2
BRANCH   1  28
ATOM     28  O   UNL A   1      36.900  21.768  25.582  1.00  0.00    -0.458 OA
BRANCH  28  29
ATOM     29  C   UNL A   1      38.227  21.569  25.761  1.00  0.00     0.338 C 
ATOM     30  O   UNL A   1      38.879  20.613  25.376  1.00  0.00    -0.246 OA
BRANCH  29  31
ATOM     31  C   UNL A   1      38.825  22.726  26.476  1.00  0.00     0.060 A 
ATOM     32  C   UNL A   1      38.233  23.982  26.432  1.00  0.00     0.016 A 
ATOM     33  C   UNL A   1      40.064  22.592  27.111  1.00  0.00     0.016 A 
ATOM     34  C   UNL A   1      38.939  25.105  26.876  1.00  0.00     0.010 A 
ATOM     35  C   UNL A   1      40.719  23.717  27.646  1.00  0.00     0.010 A 
ATOM     36  C   UNL A   1      40.213  25.016  27.463  1.00  0.00    -0.014 A 
BRANCH  36  37
ATOM     37  C   UNL A   1      41.042  26.244  27.774  1.00  0.00     0.031 A 
ATOM     38  C   UNL A   1      40.499  27.338  28.687  1.00  0.00     0.074 A 
ATOM     39  C   UNL A   1      42.315  26.397  27.342  1.00  0.00     0.049 A 
ATOM     40  N   UNL A   1      40.961  28.550  28.904  1.00  0.00    -0.248 NA
ATOM     41  C   UNL A   1      39.279  27.035  29.450  1.00  0.00     0.031 C 
ATOM     42  C   UNL A   1      43.066  25.442  26.532  1.00  0.00     0.029 A 
ATOM     43  N   UNL A   1      43.226  27.412  27.566  1.00  0.00    -0.354 N 
ATOM     44  C   UNL A   1      40.049  29.166  29.758  1.00  0.00     0.074 A 
ATOM     45  C   UNL A   1      39.010  28.198  30.029  1.00  0.00     0.031 C 
ATOM     46  C   UNL A   1      44.339  25.851  26.422  1.00  0.00     0.029 A 
ATOM     47  C   UNL A   1      44.466  27.178  27.016  1.00  0.00     0.049 A 
ATOM     48  H   UNL A   1      43.009  28.227  28.072  1.00  0.00     0.167 HD
ATOM     49  C   UNL A   1      40.075  30.413  30.285  1.00  0.00     0.037 A 
ATOM     50  C   UNL A   1      45.572  27.949  26.930  1.00  0.00     0.037 A 
ATOM     51  C   UNL A   1      41.146  31.361  30.125  1.00  0.00     0.049 A 
ATOM     52  C   UNL A   1      45.546  29.364  27.441  1.00  0.00     0.074 A 
ATOM     53  C   UNL A   1      41.237  32.650  30.626  1.00  0.00     0.029 A 
ATOM     54  N   UNL A   1      42.327  31.116  29.446  1.00  0.00    -0.354 N 
ATOM     55  N   UNL A   1      44.614  29.982  28.121  1.00  0.00    -0.248 NA
ATOM     56  C   UNL A   1      46.710  30.205  27.121  1.00  0.00     0.031 C 
ATOM     57  C   UNL A   1      42.460  33.196  30.228  1.00  0.00     0.029 A 
ATOM     58  C   UNL A   1      43.147  32.234  29.508  1.00  0.00     0.049 A 
ATOM     59  H   UNL A   1      42.552  30.274  28.989  1.00  0.00     0.167 HD
ATOM     60  C   UNL A   1      45.073  31.281  28.300  1.00  0.00     0.074 A 
ATOM     61  C   UNL A   1      46.382  31.357  27.692  1.00  0.00     0.031 C 
ATOM     62  C   UNL A   1      44.448  32.319  28.902  1.00  0.00     0.037 A 
BRANCH  49  63
ATOM     63  C   UNL A   1      38.892  30.865  31.092  1.00  0.00     0.064 A 
ATOM     64  C   UNL A   1      38.849  30.724  32.485  1.00  0.00     0.173 A 
ATOM     65  C   UNL A   1      37.839  31.551  30.466  1.00  0.00     0.173 A 
ATOM     66  F   UNL A   1      39.832  30.079  33.128  1.00  0.00    -0.203 F 
ATOM     67  C   UNL A   1      37.791  31.248  33.223  1.00  0.00     0.198 A 
ATOM     68  C   UNL A   1      36.796  32.096  31.210  1.00  0.00     0.198 A 
ATOM     69  F   UNL A   1      37.845  31.730  29.136  1.00  0.00    -0.203 F 
ATOM     70  F   UNL A   1      37.762  31.091  34.554  1.00  0.00    -0.200 F 
ATOM     71  C   UNL A   1      36.772  31.943  32.587  1.00  0.00     0.200 A 
ATOM     72  F   UNL A   1      35.825  32.785  30.595  1.00  0.00    -0.200 F 
ATOM     73  F   UNL A   1      35.770  32.470  33.303  1.00  0.00    -0.200 F 
ENDBRANCH  49  63
BRANCH  50  74
ATOM     74  C   UNL A   1      46.790  27.428  26.250  1.00  0.00     0.064 A 
ATOM     75  C   UNL A   1      46.972  27.594  24.870  1.00  0.00     0.173 A 
ATOM     76  C   UNL A   1      47.787  26.741  26.960  1.00  0.00     0.173 A 
ATOM     77  F   UNL A   1      46.027  28.202  24.137  1.00  0.00    -0.203 F 
ATOM     78  C   UNL A   1      48.108  27.100  24.230  1.00  0.00     0.198 A 
ATOM     79  C   UNL A   1      48.939  26.283  26.326  1.00  0.00     0.198 A 
ATOM     80  F   UNL A   1      47.652  26.535  28.278  1.00  0.00    -0.203 F 
ATOM     81  F   UNL A   1      48.239  27.235  22.903  1.00  0.00    -0.200 F 
ATOM     82  C   UNL A   1      49.096  26.457  24.960  1.00  0.00     0.200 A 
ATOM     83  F   UNL A   1      49.895  25.674  27.040  1.00  0.00    -0.200 F 
ATOM     84  F   UNL A   1      50.195  25.998  24.348  1.00  0.00    -0.200 F 
ENDBRANCH  50  74
BRANCH  62  85
ATOM     85  C   UNL A   1      45.160  33.639  28.942  1.00  0.00     0.064 A 
ATOM     86  C   UNL A   1      46.069  33.945  29.964  1.00  0.00     0.173 A 
ATOM     87  C   UNL A   1      44.982  34.582  27.917  1.00  0.00     0.173 A 
ATOM     88  F   UNL A   1      46.265  33.082  30.974  1.00  0.00    -0.203 F 
ATOM     89  C   UNL A   1      46.766  35.151  29.968  1.00  0.00     0.198 A 
ATOM     90  C   UNL A   1      45.697  35.777  27.911  1.00  0.00     0.198 A 
ATOM     91  F   UNL A   1      44.128  34.336  26.913  1.00  0.00    -0.203 F 
ATOM     92  F   UNL A   1      47.607  35.434  30.972  1.00  0.00    -0.200 F 
ATOM     93  C   UNL A   1      46.586  36.062  28.937  1.00  0.00     0.200 A 
ATOM     94  F   UNL A   1      45.531  36.651  26.908  1.00  0.00    -0.200 F 
ATOM     95  F   UNL A   1      47.266  37.217  28.936  1.00  0.00    -0.200 F 
ENDBRANCH  62  85
ENDBRANCH  36  37
ENDBRANCH  29  31
ENDBRANCH  28  29
ENDBRANCH   1  28
TORSDOF 12
ENDMDL
MODEL 3
REMARK VINA RESULT:     -13.6      4.315      9.685
REMARK SMILES Cc1ccc(C(=O)OCCOC(=O)c2ccc(-c3c4nc(c(-c5c(F)c(F)c(F)c(F)c5F)c5ccc([nH]5)c(-c5c(F)c(F)c(F)c(F)c5F)c5nc(c(-c6c(F)c(F)c(F)c(F)c6F)c6ccc3[nH]6)C=C5)C=C4)cc2)c2c1N[C@H](c1ccccc1F)[C@H]1CC=C[C@@H]21
REMARK SMILES IDX 10 1 9 2 8 3 6 4 7 5 5 6 1 7 2 8 3 9 78 10 4 11 77 12 79 13
REMARK SMILES IDX 92 14 80 15 88 17 91 18 89 19 90 20 81 21 82 22 86 23 83 24
REMARK SMILES IDX 85 25 87 26 84 27 11 28 12 29 13 30 14 31 15 32 76 33 16 34
REMARK SMILES IDX 75 35 17 36 18 37 19 38 69 39 20 40 74 41 68 42 70 43 21 44
REMARK SMILES IDX 73 45 67 46 66 47 22 49 54 50 34 51 53 52 35 53 38 54 52 55
REMARK SMILES IDX 71 56 36 57 37 58 51 60 72 61 39 62 23 63 24 64 32 65 25 66
REMARK SMILES IDX 26 67 30 68 33 69 27 70 28 71 31 72 29 73 55 74 56 75 64 76
REMARK SMILES IDX 57 77 58 78 62 79 65 80 59 81 60 82 63 83 61 84 40 85 41 86
REMARK SMILES IDX 49 87 42 88 43 89 47 90 50 91 44 92 45 93 48 94 46 95
REMARK H PARENT 79 16 70 48 38 59
REMARK Flexibility Score: inf
ROOT
ATOM      1  C   UNL A   1      36.097  20.644  25.004  1.00  0.00     0.275 C 
ENDROOT
BRANCH   1   2
ATOM      2  C   UNL A   1      35.184  21.229  26.079  1.00  0.00     0.275 C 
BRANCH   2   3
ATOM      3  O   UNL A   1      34.114  21.992  25.480  1.00  0.00    -0.458 OA
BRANCH   3   4
ATOM      4  C   UNL A   1      34.311  23.338  25.386  1.00  0.00     0.338 C 
ATOM      5  O   UNL A   1      34.853  24.024  26.226  1.00  0.00    -0.246 OA
BRANCH   4   6
ATOM      6  C   UNL A   1      33.770  23.836  24.077  1.00  0.00     0.065 A 
ATOM      7  C   UNL A   1      32.480  25.164  20.178  1.00  0.00     0.046 C 
ATOM      8  C   UNL A   1      32.940  24.780  21.561  1.00  0.00    -0.028 A 
ATOM      9  C   UNL A   1      33.974  23.838  21.664  1.00  0.00     0.006 A 
ATOM     10  C   UNL A   1      32.301  25.262  22.725  1.00  0.00     0.042 A 
ATOM     11  C   UNL A   1      34.405  23.394  22.909  1.00  0.00     0.016 A 
ATOM     12  C   UNL A   1      32.662  24.725  23.988  1.00  0.00    -0.003 A 
ATOM     13  N   UNL A   1      31.351  26.274  22.631  1.00  0.00    -0.377 N 
ATOM     14  C   UNL A   1      31.910  25.164  25.222  1.00  0.00     0.050 C 
ATOM     15  C   UNL A   1      30.346  26.430  23.660  1.00  0.00     0.117 C 
ATOM     16  H   UNL A   1      31.363  26.886  21.860  1.00  0.00     0.161 HD
ATOM     17  C   UNL A   1      30.969  26.373  25.059  1.00  0.00     0.031 C 
ATOM     18  C   UNL A   1      30.986  24.148  25.839  1.00  0.00    -0.023 C 
ATOM     19  C   UNL A   1      29.854  26.179  26.108  1.00  0.00     0.034 C 
ATOM     20  C   UNL A   1      29.891  24.711  26.362  1.00  0.00    -0.030 C 
BRANCH  15  21
ATOM     21  C   UNL A   1      29.504  27.678  23.415  1.00  0.00     0.010 A 
ATOM     22  C   UNL A   1      30.142  28.860  22.999  1.00  0.00     0.009 A 
ATOM     23  C   UNL A   1      28.104  27.693  23.485  1.00  0.00     0.128 A 
ATOM     24  C   UNL A   1      29.400  29.974  22.593  1.00  0.00     0.001 A 
ATOM     25  C   UNL A   1      27.359  28.790  23.057  1.00  0.00     0.039 A 
ATOM     26  F   UNL A   1      27.426  26.637  23.949  1.00  0.00    -0.207 F 
ATOM     27  C   UNL A   1      28.008  29.931  22.598  1.00  0.00     0.003 A 
ENDBRANCH  15  21
ENDBRANCH   4   6
ENDBRANCH   3   4
ENDBRANCH   2   3
ENDBRANCH   1   2
BRANCH   1  28
ATOM     28  O   UNL A   1      37.239  21.502  24.836  1.00  0.00    -0.458 OA
BRANCH  28  29
ATOM     29  C   UNL A   1      38.372  21.154  25.492  1.00  0.00     0.338 C 
ATOM     30  O   UNL A   1      38.913  20.060  25.481  1.00  0.00    -0.246 OA
BRANCH  29  31
ATOM     31  C   UNL A   1      38.920  22.325  26.223  1.00  0.00     0.060 A 
ATOM     32  C   UNL A   1      38.329  23.579  26.116  1.00  0.00     0.016 A 
ATOM     33  C   UNL A   1      40.114  22.206  26.939  1.00  0.00     0.016 A 
ATOM     34  C   UNL A   1      39.004  24.712  26.583  1.00  0.00     0.010 A 
ATOM     35  C   UNL A   1      40.732  23.343  27.494  1.00  0.00     0.010 A 
ATOM     36  C   UNL A   1      40.236  24.637  27.254  1.00  0.00    -0.014 A 
BRANCH  36  37
ATOM     37  C   UNL A   1      41.041  25.874  27.595  1.00  0.00     0.031 A 
ATOM     38  C   UNL A   1      40.471  26.942  28.520  1.00  0.00     0.074 A 
ATOM     39  C   UNL A   1      42.316  26.054  27.180  1.00  0.00     0.049 A 
ATOM     40  N   UNL A   1      40.909  28.158  28.762  1.00  0.00    -0.248 NA
ATOM     41  C   UNL A   1      39.247  26.607  29.264  1.00  0.00     0.031 C 
ATOM     42  C   UNL A   1      43.092  25.125  26.363  1.00  0.00     0.029 A 
ATOM     43  N   UNL A   1      43.209  27.080  27.431  1.00  0.00    -0.354 N 
ATOM     44  C   UNL A   1      39.979  28.744  29.616  1.00  0.00     0.074 A 
ATOM     45  C   UNL A   1      38.953  27.755  29.859  1.00  0.00     0.031 C 
ATOM     46  C   UNL A   1      44.359  25.557  26.275  1.00  0.00     0.029 A 
ATOM     47  C   UNL A   1      44.458  26.875  26.891  1.00  0.00     0.049 A 
ATOM     48  H   UNL A   1      42.972  27.883  27.948  1.00  0.00     0.167 HD
ATOM     49  C   UNL A   1      39.978  29.983  30.164  1.00  0.00     0.037 A 
ATOM     50  C   UNL A   1      45.551  27.666  26.832  1.00  0.00     0.037 A 
ATOM     51  C   UNL A   1      41.035  30.951  30.032  1.00  0.00     0.049 A 
ATOM     52  C   UNL A   1      45.496  29.072  27.366  1.00  0.00     0.074 A 
ATOM     53  C   UNL A   1      41.099  32.233  30.555  1.00  0.00     0.029 A 
ATOM     54  N   UNL A   1      42.227  30.737  29.363  1.00  0.00    -0.354 N 
ATOM     55  N   UNL A   1      44.548  29.663  28.045  1.00  0.00    -0.248 NA
ATOM     56  C   UNL A   1      46.650  29.937  27.073  1.00  0.00     0.031 C 
ATOM     57  C   UNL A   1      42.317  32.805  30.180  1.00  0.00     0.029 A 
ATOM     58  C   UNL A   1      43.027  31.867  29.452  1.00  0.00     0.049 A 
ATOM     59  H   UNL A   1      42.471  29.906  28.894  1.00  0.00     0.167 HD
ATOM     60  C   UNL A   1      44.983  30.966  28.251  1.00  0.00     0.074 A 
ATOM     61  C   UNL A   1      46.297  31.073  27.659  1.00  0.00     0.031 C 
ATOM     62  C   UNL A   1      44.333  31.984  28.863  1.00  0.00     0.037 A 
BRANCH  49  63
ATOM     63  C   UNL A   1      38.779  30.402  30.965  1.00  0.00     0.064 A 
ATOM     64  C   UNL A   1      38.759  30.324  32.363  1.00  0.00     0.173 A 
ATOM     65  C   UNL A   1      37.681  30.995  30.322  1.00  0.00     0.173 A 
ATOM     66  F   UNL A   1      39.785  29.768  33.023  1.00  0.00    -0.203 F 
ATOM     67  C   UNL A   1      37.678  30.819  33.090  1.00  0.00     0.198 A 
ATOM     68  C   UNL A   1      36.614  31.512  31.053  1.00  0.00     0.198 A 
ATOM     69  F   UNL A   1      37.662  31.112  28.985  1.00  0.00    -0.203 F 
ATOM     70  F   UNL A   1      37.673  30.722  34.427  1.00  0.00    -0.200 F 
ATOM     71  C   UNL A   1      36.614  31.422  32.436  1.00  0.00     0.200 A 
ATOM     72  F   UNL A   1      35.599  32.114  30.420  1.00  0.00    -0.200 F 
ATOM     73  F   UNL A   1      35.590  31.923  33.140  1.00  0.00    -0.200 F 
ENDBRANCH  49  63
BRANCH  50  74
ATOM     74  C   UNL A   1      46.786  27.177  26.157  1.00  0.00     0.064 A 
ATOM     75  C   UNL A   1      47.020  27.443  24.801  1.00  0.00     0.173 A 
ATOM     76  C   UNL A   1      47.746  26.421  26.847  1.00  0.00     0.173 A 
ATOM     77  F   UNL A   1      46.112  28.120  24.084  1.00  0.00    -0.203 F 
ATOM     78  C   UNL A   1      48.171  26.979  24.165  1.00  0.00     0.198 A 
ATOM     79  C   UNL A   1      48.913  25.992  26.221  1.00  0.00     0.198 A 
ATOM     80  F   UNL A   1      47.560  26.119  28.140  1.00  0.00    -0.203 F 
ATOM     81  F   UNL A   1      48.352  27.211  22.857  1.00  0.00    -0.200 F 
ATOM     82  C   UNL A   1      49.122  26.266  24.879  1.00  0.00     0.200 A 
ATOM     83  F   UNL A   1      49.834  25.314  26.920  1.00  0.00    -0.200 F 
ATOM     84  F   UNL A   1      50.236  25.835  24.272  1.00  0.00    -0.200 F 
ENDBRANCH  50  74
BRANCH  62  85
ATOM     85  C   UNL A   1      45.023  33.314  28.933  1.00  0.00     0.064 A 
ATOM     86  C   UNL A   1      44.798  34.302  27.964  1.00  0.00     0.173 A 
ATOM     87  C   UNL A   1      45.866  33.631  30.010  1.00  0.00     0.173 A 
ATOM     88  F   UNL A   1      44.011  34.044  26.908  1.00  0.00    -0.203 F 
ATOM     89  C   UNL A   1      45.402  35.553  28.061  1.00  0.00     0.198 A 
ATOM     90  C   UNL A   1      46.449  34.891  30.117  1.00  0.00     0.198 A 
ATOM     91  F   UNL A   1      46.108  32.724  30.968  1.00  0.00    -0.203 F 
ATOM     92  F   UNL A   1      45.196  36.471  27.106  1.00  0.00    -0.200 F 
ATOM     93  C   UNL A   1      46.219  35.850  29.143  1.00  0.00     0.200 A 
ATOM     94  F   UNL A   1      47.229  35.180  31.169  1.00  0.00    -0.200 F 
ATOM     95  F   UNL A   1      46.789  37.059  29.241  1.00  0.00    -0.200 F 
ENDBRANCH  62  85
ENDBRANCH  36  37
ENDBRANCH  29  31
ENDBRANCH  28  29
ENDBRANCH   1  28
TORSDOF 12
ENDMDL
