MODEL 1
REMARK VINA RESULT:     -14.0      0.000      0.000
REMARK SMILES O=C(OCCOC(=O)[C@H](c1c[nH]c2cc(F)ccc12)[NH+]1CCN(c2ccccc2)CC1)c1ccc(-c2c3nc(c(-c4c(F)c(F)c(F)c(F)c4F)c4ccc([nH]4)c(-c4c(F)c(F)c(F)c(F)c4F)c4nc(c(-c5c(F)c(F)c(F)c(F)c5F)c5ccc2[nH]5)C=C4)C=C3)cc1
REMARK SMILES IDX 4 1 3 2 2 3 1 4 32 5 33 6 94 7 34 8 93 9 35 10 36 11 37 12
REMARK SMILES IDX 87 13 38 14 92 15 86 16 88 17 39 18 91 19 85 20 84 21 40 23
REMARK SMILES IDX 72 24 52 25 71 26 53 27 56 28 70 29 89 30 54 31 55 32 69 34
REMARK SMILES IDX 90 35 57 36 41 37 42 38 50 39 43 40 44 41 48 42 51 43 45 44
REMARK SMILES IDX 46 45 49 46 47 47 73 48 74 49 82 50 75 51 76 52 80 53 83 54
REMARK SMILES IDX 77 55 78 56 81 57 79 58 58 59 59 60 67 61 60 62 61 63 65 64
REMARK SMILES IDX 68 65 62 66 63 67 66 68 64 69 5 70 6 71 7 72 8 73 9 74 20 75
REMARK SMILES IDX 21 76 31 77 22 79 30 80 23 81 24 82 25 83 29 84 26 85 28 86
REMARK SMILES IDX 27 87 10 88 11 89 19 90 12 91 13 92 18 93 14 95 17 96 15 97
REMARK SMILES IDX 16 98
REMARK H PARENT 88 22 56 33 20 78 12 94
REMARK Flexibility Score: inf
ROOT
ATOM      1  C   UNL A   1      31.782  29.576  27.032  1.00  0.00     0.275 C 
ENDROOT
BRANCH   1   2
ATOM      2  O   UNL A   1      32.693  30.531  26.482  1.00  0.00    -0.458 OA
BRANCH   2   3
ATOM      3  C   UNL A   1      33.452  31.380  27.204  1.00  0.00     0.338 C 
ATOM      4  O   UNL A   1      32.953  32.457  27.549  1.00  0.00    -0.246 OA
BRANCH   3   5
ATOM      5  C   UNL A   1      34.857  31.061  27.649  1.00  0.00     0.060 A 
ATOM      6  C   UNL A   1      35.857  31.934  28.100  1.00  0.00     0.016 A 
ATOM      7  C   UNL A   1      35.138  29.702  27.730  1.00  0.00     0.016 A 
ATOM      8  C   UNL A   1      37.038  31.466  28.710  1.00  0.00     0.010 A 
ATOM      9  C   UNL A   1      36.257  29.248  28.427  1.00  0.00     0.010 A 
ATOM     10  C   UNL A   1      37.230  30.109  28.953  1.00  0.00    -0.014 A 
BRANCH  10  11
ATOM     11  C   UNL A   1      38.412  29.558  29.705  1.00  0.00     0.031 A 
ATOM     12  C   UNL A   1      38.591  29.936  31.161  1.00  0.00     0.074 A 
ATOM     13  C   UNL A   1      39.409  28.864  29.109  1.00  0.00     0.049 A 
ATOM     14  N   UNL A   1      39.671  29.944  31.899  1.00  0.00    -0.248 NA
ATOM     15  C   UNL A   1      37.423  30.531  31.829  1.00  0.00     0.031 C 
ATOM     16  C   UNL A   1      39.515  28.523  27.687  1.00  0.00     0.029 A 
ATOM     17  N   UNL A   1      40.570  28.349  29.643  1.00  0.00    -0.354 N 
ATOM     18  C   UNL A   1      39.345  30.714  33.010  1.00  0.00     0.074 A 
ATOM     19  C   UNL A   1      38.016  31.232  32.781  1.00  0.00     0.031 C 
ATOM     20  C   UNL A   1      40.646  27.827  27.473  1.00  0.00     0.029 A 
ATOM     21  C   UNL A   1      41.366  27.691  28.734  1.00  0.00     0.049 A 
ATOM     22  H   UNL A   1      40.810  28.444  30.593  1.00  0.00     0.167 HD
ATOM     23  C   UNL A   1      40.042  30.905  34.158  1.00  0.00     0.037 A 
ATOM     24  C   UNL A   1      42.536  27.047  28.907  1.00  0.00     0.037 A 
ATOM     25  C   UNL A   1      41.213  30.141  34.486  1.00  0.00     0.049 A 
ATOM     26  C   UNL A   1      43.146  26.998  30.284  1.00  0.00     0.074 A 
ATOM     27  C   UNL A   1      41.861  30.031  35.702  1.00  0.00     0.029 A 
ATOM     28  N   UNL A   1      41.861  29.289  33.604  1.00  0.00    -0.354 N 
ATOM     29  N   UNL A   1      42.799  27.655  31.362  1.00  0.00    -0.248 NA
ATOM     30  C   UNL A   1      44.288  26.093  30.477  1.00  0.00     0.031 C 
ATOM     31  C   UNL A   1      42.887  29.088  35.564  1.00  0.00     0.029 A 
ATOM     32  C   UNL A   1      42.860  28.600  34.266  1.00  0.00     0.049 A 
ATOM     33  H   UNL A   1      41.641  29.191  32.650  1.00  0.00     0.167 HD
ATOM     34  C   UNL A   1      43.640  27.206  32.371  1.00  0.00     0.074 A 
ATOM     35  C   UNL A   1      44.517  26.221  31.777  1.00  0.00     0.031 C 
ATOM     36  C   UNL A   1      43.679  27.576  33.674  1.00  0.00     0.037 A 
BRANCH  23  37
ATOM     37  C   UNL A   1      39.503  31.886  35.166  1.00  0.00     0.064 A 
ATOM     38  C   UNL A   1      39.852  33.247  35.158  1.00  0.00     0.173 A 
ATOM     39  C   UNL A   1      38.626  31.453  36.174  1.00  0.00     0.173 A 
ATOM     40  F   UNL A   1      40.663  33.733  34.205  1.00  0.00    -0.203 F 
ATOM     41  C   UNL A   1      39.438  34.106  36.170  1.00  0.00     0.198 A 
ATOM     42  C   UNL A   1      38.160  32.332  37.151  1.00  0.00     0.198 A 
ATOM     43  F   UNL A   1      38.220  30.175  36.220  1.00  0.00    -0.203 F 
ATOM     44  F   UNL A   1      39.892  35.367  36.202  1.00  0.00    -0.200 F 
ATOM     45  C   UNL A   1      38.588  33.650  37.165  1.00  0.00     0.200 A 
ATOM     46  F   UNL A   1      37.309  31.899  38.092  1.00  0.00    -0.200 F 
ATOM     47  F   UNL A   1      38.191  34.479  38.139  1.00  0.00    -0.200 F 
ENDBRANCH  23  37
BRANCH  24  48
ATOM     48  C   UNL A   1      43.161  26.294  27.788  1.00  0.00     0.064 A 
ATOM     49  C   UNL A   1      44.049  26.942  26.914  1.00  0.00     0.173 A 
ATOM     50  C   UNL A   1      42.865  24.950  27.536  1.00  0.00     0.173 A 
ATOM     51  F   UNL A   1      44.352  28.235  27.107  1.00  0.00    -0.203 F 
ATOM     52  C   UNL A   1      44.583  26.286  25.807  1.00  0.00     0.198 A 
ATOM     53  C   UNL A   1      43.418  24.287  26.438  1.00  0.00     0.198 A 
ATOM     54  F   UNL A   1      42.037  24.280  28.350  1.00  0.00    -0.203 F 
ATOM     55  F   UNL A   1      45.381  26.949  24.959  1.00  0.00    -0.200 F 
ATOM     56  C   UNL A   1      44.266  24.959  25.568  1.00  0.00     0.200 A 
ATOM     57  F   UNL A   1      43.120  22.999  26.215  1.00  0.00    -0.200 F 
ATOM     58  F   UNL A   1      44.768  24.332  24.497  1.00  0.00    -0.200 F 
ENDBRANCH  24  48
BRANCH  36  59
ATOM     59  C   UNL A   1      44.623  26.844  34.577  1.00  0.00     0.064 A 
ATOM     60  C   UNL A   1      45.900  27.336  34.873  1.00  0.00     0.173 A 
ATOM     61  C   UNL A   1      44.207  25.660  35.207  1.00  0.00     0.173 A 
ATOM     62  F   UNL A   1      46.345  28.456  34.282  1.00  0.00    -0.203 F 
ATOM     63  C   UNL A   1      46.735  26.663  35.758  1.00  0.00     0.198 A 
ATOM     64  C   UNL A   1      45.035  25.003  36.112  1.00  0.00     0.198 A 
ATOM     65  F   UNL A   1      42.991  25.151  34.957  1.00  0.00    -0.203 F 
ATOM     66  F   UNL A   1      47.967  27.131  36.003  1.00  0.00    -0.200 F 
ATOM     67  C   UNL A   1      46.299  25.503  36.384  1.00  0.00     0.200 A 
ATOM     68  F   UNL A   1      44.607  23.890  36.723  1.00  0.00    -0.200 F 
ATOM     69  F   UNL A   1      47.100  24.864  37.247  1.00  0.00    -0.200 F 
ENDBRANCH  36  59
ENDBRANCH  10  11
ENDBRANCH   3   5
ENDBRANCH   2   3
ENDBRANCH   1   2
BRANCH   1  70
ATOM     70  C   UNL A   1      32.191  28.111  26.830  1.00  0.00     0.274 C 
BRANCH  70  71
ATOM     71  O   UNL A   1      31.167  27.140  27.161  1.00  0.00    -0.457 OA
BRANCH  71  72
ATOM     72  C   UNL A   1      30.683  26.494  26.065  1.00  0.00     0.370 C 
ATOM     73  O   UNL A   1      29.619  25.868  26.122  1.00  0.00    -0.245 OA
BRANCH  72  74
ATOM     74  C   UNL A   1      31.570  26.458  24.791  1.00  0.00     0.328 C 
BRANCH  74  75
ATOM     75  N   UNL A   1      31.472  25.080  24.252  1.00  0.00    -0.316 N 
ATOM     76  C   UNL A   1      32.200  24.726  23.025  1.00  0.00     0.284 C 
ATOM     77  C   UNL A   1      31.563  24.012  25.256  1.00  0.00     0.284 C 
ATOM     78  H   UNL A   1      30.509  25.140  23.925  1.00  0.00     0.349 HD
ATOM     79  C   UNL A   1      33.640  24.203  23.238  1.00  0.00     0.178 C 
ATOM     80  C   UNL A   1      32.993  23.502  25.545  1.00  0.00     0.178 C 
ATOM     81  N   UNL A   1      33.657  23.181  24.285  1.00  0.00    -0.360 N 
BRANCH  81  82
ATOM     82  C   UNL A   1      34.775  22.367  24.289  1.00  0.00     0.037 A 
ATOM     83  C   UNL A   1      34.834  21.147  24.970  1.00  0.00     0.026 A 
ATOM     84  C   UNL A   1      35.935  22.868  23.692  1.00  0.00     0.026 A 
ATOM     85  C   UNL A   1      36.052  20.473  25.096  1.00  0.00     0.002 A 
ATOM     86  C   UNL A   1      37.150  22.203  23.819  1.00  0.00     0.002 A 
ATOM     87  C   UNL A   1      37.211  21.010  24.534  1.00  0.00     0.000 A 
ENDBRANCH  81  82
ENDBRANCH  74  75
BRANCH  74  88
ATOM     88  C   UNL A   1      31.507  27.500  23.688  1.00  0.00     0.046 A 
ATOM     89  C   UNL A   1      32.542  28.196  23.083  1.00  0.00     0.094 A 
ATOM     90  C   UNL A   1      30.288  28.124  23.198  1.00  0.00     0.009 A 
ATOM     91  N   UNL A   1      32.019  29.245  22.364  1.00  0.00    -0.361 N 
ATOM     92  C   UNL A   1      30.646  29.211  22.396  1.00  0.00     0.049 A 
ATOM     93  C   UNL A   1      28.908  27.899  23.414  1.00  0.00     0.014 A 
ATOM     94  H   UNL A   1      32.554  29.923  21.892  1.00  0.00     0.166 HD
ATOM     95  C   UNL A   1      29.707  30.056  21.785  1.00  0.00     0.065 A 
ATOM     96  C   UNL A   1      27.955  28.737  22.817  1.00  0.00     0.040 A 
ATOM     97  C   UNL A   1      28.360  29.790  22.014  1.00  0.00     0.125 A 
ATOM     98  F   UNL A   1      27.434  30.580  21.453  1.00  0.00    -0.207 F 
ENDBRANCH  74  88
ENDBRANCH  72  74
ENDBRANCH  71  72
ENDBRANCH  70  71
ENDBRANCH   1  70
TORSDOF 14
ENDMDL
MODEL 2
REMARK VINA RESULT:     -14.0      4.131      9.688
REMARK SMILES O=C(OCCOC(=O)[C@H](c1c[nH]c2cc(F)ccc12)[NH+]1CCN(c2ccccc2)CC1)c1ccc(-c2c3nc(c(-c4c(F)c(F)c(F)c(F)c4F)c4ccc([nH]4)c(-c4c(F)c(F)c(F)c(F)c4F)c4nc(c(-c5c(F)c(F)c(F)c(F)c5F)c5ccc2[nH]5)C=C4)C=C3)cc1
REMARK SMILES IDX 4 1 3 2 2 3 1 4 32 5 33 6 94 7 34 8 93 9 35 10 36 11 37 12
REMARK SMILES IDX 87 13 38 14 92 15 86 16 88 17 39 18 91 19 85 20 84 21 40 23
REMARK SMILES IDX 72 24 52 25 71 26 53 27 56 28 70 29 89 30 54 31 55 32 69 34
REMARK SMILES IDX 90 35 57 36 41 37 42 38 50 39 43 40 44 41 48 42 51 43 45 44
REMARK SMILES IDX 46 45 49 46 47 47 73 48 74 49 82 50 75 51 76 52 80 53 83 54
REMARK SMILES IDX 77 55 78 56 81 57 79 58 58 59 59 60 67 61 60 62 61 63 65 64
REMARK SMILES IDX 68 65 62 66 63 67 66 68 64 69 5 70 6 71 7 72 8 73 9 74 20 75
REMARK SMILES IDX 21 76 31 77 22 79 30 80 23 81 24 82 25 83 29 84 26 85 28 86
REMARK SMILES IDX 27 87 10 88 11 89 19 90 12 91 13 92 18 93 14 95 17 96 15 97
REMARK SMILES IDX 16 98
REMARK H PARENT 88 22 56 33 20 78 12 94
REMARK Flexibility Score: inf
ROOT
ATOM      1  C   UNL A   1      36.295  21.038  25.421  1.00  0.00     0.275 C 
ENDROOT
BRANCH   1   2
ATOM      2  O   UNL A   1      37.615  21.378  24.991  1.00  0.00    -0.458 OA
BRANCH   2   3
ATOM      3  C   UNL A   1      38.714  21.346  25.770  1.00  0.00     0.338 C 
ATOM      4  O   UNL A   1      39.348  20.286  25.840  1.00  0.00    -0.246 OA
BRANCH   3   5
ATOM      5  C   UNL A   1      39.233  22.546  26.522  1.00  0.00     0.060 A 
ATOM      6  C   UNL A   1      40.342  22.639  27.375  1.00  0.00     0.016 A 
ATOM      7  C   UNL A   1      38.582  23.737  26.219  1.00  0.00     0.016 A 
ATOM      8  C   UNL A   1      40.844  23.880  27.814  1.00  0.00     0.010 A 
ATOM      9  C   UNL A   1      39.145  24.964  26.570  1.00  0.00     0.010 A 
ATOM     10  C   UNL A   1      40.298  25.077  27.359  1.00  0.00    -0.014 A 
BRANCH  10  11
ATOM     11  C   UNL A   1      40.863  26.431  27.695  1.00  0.00     0.031 A 
ATOM     12  C   UNL A   1      42.241  26.794  27.180  1.00  0.00     0.074 A 
ATOM     13  C   UNL A   1      40.271  27.285  28.562  1.00  0.00     0.049 A 
ATOM     14  N   UNL A   1      43.099  27.674  27.629  1.00  0.00    -0.248 NA
ATOM     15  C   UNL A   1      42.783  25.943  26.109  1.00  0.00     0.031 C 
ATOM     16  C   UNL A   1      39.018  27.068  29.292  1.00  0.00     0.029 A 
ATOM     17  N   UNL A   1      40.687  28.519  29.010  1.00  0.00    -0.354 N 
ATOM     18  C   UNL A   1      44.309  27.336  27.034  1.00  0.00     0.074 A 
ATOM     19  C   UNL A   1      44.081  26.116  26.293  1.00  0.00     0.031 C 
ATOM     20  C   UNL A   1      38.752  28.141  30.058  1.00  0.00     0.029 A 
ATOM     21  C   UNL A   1      39.824  29.116  29.899  1.00  0.00     0.049 A 
ATOM     22  H   UNL A   1      41.529  28.938  28.720  1.00  0.00     0.167 HD
ATOM     23  C   UNL A   1      45.483  28.015  27.026  1.00  0.00     0.037 A 
ATOM     24  C   UNL A   1      39.891  30.317  30.506  1.00  0.00     0.037 A 
ATOM     25  C   UNL A   1      45.598  29.363  27.510  1.00  0.00     0.049 A 
ATOM     26  C   UNL A   1      41.073  31.209  30.228  1.00  0.00     0.074 A 
ATOM     27  C   UNL A   1      46.632  30.262  27.328  1.00  0.00     0.029 A 
ATOM     28  N   UNL A   1      44.600  30.029  28.206  1.00  0.00    -0.354 N 
ATOM     29  N   UNL A   1      42.186  30.930  29.597  1.00  0.00    -0.248 NA
ATOM     30  C   UNL A   1      40.994  32.595  30.716  1.00  0.00     0.031 C 
ATOM     31  C   UNL A   1      46.247  31.485  27.890  1.00  0.00     0.029 A 
ATOM     32  C   UNL A   1      44.966  31.347  28.403  1.00  0.00     0.049 A 
ATOM     33  H   UNL A   1      43.758  29.623  28.513  1.00  0.00     0.167 HD
ATOM     34  C   UNL A   1      42.915  32.111  29.565  1.00  0.00     0.074 A 
ATOM     35  C   UNL A   1      42.119  33.112  30.241  1.00  0.00     0.031 C 
ATOM     36  C   UNL A   1      44.133  32.345  29.020  1.00  0.00     0.037 A 
BRANCH  23  37
ATOM     37  C   UNL A   1      46.682  27.363  26.390  1.00  0.00     0.064 A 
ATOM     38  C   UNL A   1      47.573  26.552  27.112  1.00  0.00     0.173 A 
ATOM     39  C   UNL A   1      46.956  27.563  25.027  1.00  0.00     0.173 A 
ATOM     40  F   UNL A   1      47.355  26.295  28.412  1.00  0.00    -0.203 F 
ATOM     41  C   UNL A   1      48.738  26.061  26.532  1.00  0.00     0.198 A 
ATOM     42  C   UNL A   1      48.092  27.015  24.431  1.00  0.00     0.198 A 
ATOM     43  F   UNL A   1      46.127  28.295  24.267  1.00  0.00    -0.203 F 
ATOM     44  F   UNL A   1      49.628  25.397  27.283  1.00  0.00    -0.200 F 
ATOM     45  C   UNL A   1      48.995  26.288  25.189  1.00  0.00     0.200 A 
ATOM     46  F   UNL A   1      48.321  27.206  23.124  1.00  0.00    -0.200 F 
ATOM     47  F   UNL A   1      50.118  25.815  24.633  1.00  0.00    -0.200 F 
ENDBRANCH  23  37
BRANCH  24  48
ATOM     48  C   UNL A   1      38.766  30.810  31.343  1.00  0.00     0.064 A 
ATOM     49  C   UNL A   1      37.695  31.496  30.748  1.00  0.00     0.173 A 
ATOM     50  C   UNL A   1      38.746  30.652  32.734  1.00  0.00     0.173 A 
ATOM     51  F   UNL A   1      37.678  31.684  29.420  1.00  0.00    -0.203 F 
ATOM     52  C   UNL A   1      36.670  32.044  31.516  1.00  0.00     0.198 A 
ATOM     53  C   UNL A   1      37.706  31.183  33.500  1.00  0.00     0.198 A 
ATOM     54  F   UNL A   1      39.735  29.990  33.349  1.00  0.00    -0.203 F 
ATOM     55  F   UNL A   1      35.694  32.745  30.924  1.00  0.00    -0.200 F 
ATOM     56  C   UNL A   1      36.677  31.889  32.893  1.00  0.00     0.200 A 
ATOM     57  F   UNL A   1      37.707  31.021  34.831  1.00  0.00    -0.200 F 
ATOM     58  F   UNL A   1      35.698  32.426  33.633  1.00  0.00    -0.200 F 
ENDBRANCH  24  48
BRANCH  36  59
ATOM     59  C   UNL A   1      44.641  33.754  29.031  1.00  0.00     0.064 A 
ATOM     60  C   UNL A   1      44.362  34.651  27.993  1.00  0.00     0.173 A 
ATOM     61  C   UNL A   1      45.365  34.225  30.137  1.00  0.00     0.173 A 
ATOM     62  F   UNL A   1      43.687  34.239  26.908  1.00  0.00    -0.203 F 
ATOM     63  C   UNL A   1      44.801  35.969  28.053  1.00  0.00     0.198 A 
ATOM     64  C   UNL A   1      45.780  35.551  30.207  1.00  0.00     0.198 A 
ATOM     65  F   UNL A   1      45.655  33.403  31.157  1.00  0.00    -0.203 F 
ATOM     66  F   UNL A   1      44.553  36.804  27.035  1.00  0.00    -0.200 F 
ATOM     67  C   UNL A   1      45.501  36.421  29.164  1.00  0.00     0.200 A 
ATOM     68  F   UNL A   1      46.445  35.988  31.285  1.00  0.00    -0.200 F 
ATOM     69  F   UNL A   1      45.909  37.695  29.227  1.00  0.00    -0.200 F 
ENDBRANCH  36  59
ENDBRANCH  10  11
ENDBRANCH   3   5
ENDBRANCH   2   3
ENDBRANCH   1   2
BRANCH   1  70
ATOM     70  C   UNL A   1      35.169  21.711  24.626  1.00  0.00     0.274 C 
BRANCH  70  71
ATOM     71  O   UNL A   1      35.055  23.143  24.820  1.00  0.00    -0.457 OA
BRANCH  71  72
ATOM     72  C   UNL A   1      34.609  23.790  23.709  1.00  0.00     0.370 C 
ATOM     73  O   UNL A   1      34.850  23.344  22.581  1.00  0.00    -0.245 OA
BRANCH  72  74
ATOM     74  C   UNL A   1      33.911  25.163  23.899  1.00  0.00     0.328 C 
BRANCH  74  75
ATOM     75  N   UNL A   1      33.043  25.358  22.712  1.00  0.00    -0.316 N 
ATOM     76  C   UNL A   1      31.619  24.998  22.785  1.00  0.00     0.284 C 
ATOM     77  C   UNL A   1      33.238  26.628  22.001  1.00  0.00     0.284 C 
ATOM     78  H   UNL A   1      33.430  24.604  22.146  1.00  0.00     0.349 HD
ATOM     79  C   UNL A   1      30.675  26.124  23.268  1.00  0.00     0.178 C 
ATOM     80  C   UNL A   1      32.358  27.799  22.494  1.00  0.00     0.178 C 
ATOM     81  N   UNL A   1      30.964  27.368  22.551  1.00  0.00    -0.360 N 
BRANCH  81  82
ATOM     82  C   UNL A   1      29.956  28.313  22.593  1.00  0.00     0.037 A 
ATOM     83  C   UNL A   1      28.676  28.048  23.091  1.00  0.00     0.026 A 
ATOM     84  C   UNL A   1      30.204  29.542  21.978  1.00  0.00     0.026 A 
ATOM     85  C   UNL A   1      27.652  28.983  22.922  1.00  0.00     0.002 A 
ATOM     86  C   UNL A   1      29.186  30.474  21.804  1.00  0.00     0.002 A 
ATOM     87  C   UNL A   1      27.904  30.188  22.264  1.00  0.00     0.000 A 
ENDBRANCH  81  82
ENDBRANCH  74  75
BRANCH  74  88
ATOM     88  C   UNL A   1      33.215  25.588  25.180  1.00  0.00     0.046 A 
ATOM     89  C   UNL A   1      32.309  24.883  25.958  1.00  0.00     0.094 A 
ATOM     90  C   UNL A   1      33.221  26.936  25.726  1.00  0.00     0.009 A 
ATOM     91  N   UNL A   1      31.708  25.746  26.843  1.00  0.00    -0.361 N 
ATOM     92  C   UNL A   1      32.262  26.999  26.741  1.00  0.00     0.049 A 
ATOM     93  C   UNL A   1      33.913  28.128  25.406  1.00  0.00     0.014 A 
ATOM     94  H   UNL A   1      30.985  25.500  27.463  1.00  0.00     0.166 HD
ATOM     95  C   UNL A   1      31.984  28.171  27.462  1.00  0.00     0.065 A 
ATOM     96  C   UNL A   1      33.644  29.310  26.111  1.00  0.00     0.040 A 
ATOM     97  C   UNL A   1      32.698  29.318  27.122  1.00  0.00     0.125 A 
ATOM     98  F   UNL A   1      32.455  30.457  27.783  1.00  0.00    -0.207 F 
ENDBRANCH  74  88
ENDBRANCH  72  74
ENDBRANCH  71  72
ENDBRANCH  70  71
ENDBRANCH   1  70
TORSDOF 14
ENDMDL
MODEL 3
REMARK VINA RESULT:     -14.0      0.931      1.637
REMARK SMILES O=C(OCCOC(=O)[C@H](c1c[nH]c2cc(F)ccc12)[NH+]1CCN(c2ccccc2)CC1)c1ccc(-c2c3nc(c(-c4c(F)c(F)c(F)c(F)c4F)c4ccc([nH]4)c(-c4c(F)c(F)c(F)c(F)c4F)c4nc(c(-c5c(F)c(F)c(F)c(F)c5F)c5ccc2[nH]5)C=C4)C=C3)cc1
REMARK SMILES IDX 4 1 3 2 2 3 1 4 32 5 33 6 94 7 34 8 93 9 35 10 36 11 37 12
REMARK SMILES IDX 87 13 38 14 92 15 86 16 88 17 39 18 91 19 85 20 84 21 40 23
REMARK SMILES IDX 72 24 52 25 71 26 53 27 56 28 70 29 89 30 54 31 55 32 69 34
REMARK SMILES IDX 90 35 57 36 41 37 42 38 50 39 43 40 44 41 48 42 51 43 45 44
REMARK SMILES IDX 46 45 49 46 47 47 73 48 74 49 82 50 75 51 76 52 80 53 83 54
REMARK SMILES IDX 77 55 78 56 81 57 79 58 58 59 59 60 67 61 60 62 61 63 65 64
REMARK SMILES IDX 68 65 62 66 63 67 66 68 64 69 5 70 6 71 7 72 8 73 9 74 20 75
REMARK SMILES IDX 21 76 31 77 22 79 30 80 23 81 24 82 25 83 29 84 26 85 28 86
REMARK SMILES IDX 27 87 10 88 11 89 19 90 12 91 13 92 18 93 14 95 17 96 15 97
REMARK SMILES IDX 16 98
REMARK H PARENT 88 22 56 33 20 78 12 94
REMARK Flexibility Score: inf
ROOT
ATOM      1  C   UNL A   1      31.810  30.294  25.678  1.00  0.00     0.275 C 
ENDROOT
BRANCH   1   2
ATOM      2  O   UNL A   1      32.216  30.643  27.004  1.00  0.00    -0.458 OA
BRANCH   2   3
ATOM      3  C   UNL A   1      33.146  31.568  27.309  1.00  0.00     0.338 C 
ATOM      4  O   UNL A   1      32.807  32.757  27.310  1.00  0.00    -0.246 OA
BRANCH   3   5
ATOM      5  C   UNL A   1      34.563  31.223  27.694  1.00  0.00     0.060 A 
ATOM      6  C   UNL A   1      35.613  32.082  28.048  1.00  0.00     0.016 A 
ATOM      7  C   UNL A   1      34.806  29.861  27.825  1.00  0.00     0.016 A 
ATOM      8  C   UNL A   1      36.811  31.603  28.616  1.00  0.00     0.010 A 
ATOM      9  C   UNL A   1      35.947  29.402  28.482  1.00  0.00     0.010 A 
ATOM     10  C   UNL A   1      36.974  30.253  28.913  1.00  0.00    -0.014 A 
BRANCH  10  11
ATOM     11  C   UNL A   1      38.178  29.698  29.626  1.00  0.00     0.031 A 
ATOM     12  C   UNL A   1      38.384  30.044  31.086  1.00  0.00     0.074 A 
ATOM     13  C   UNL A   1      39.169  29.029  28.993  1.00  0.00     0.049 A 
ATOM     14  N   UNL A   1      39.480  30.047  31.802  1.00  0.00    -0.248 NA
ATOM     15  C   UNL A   1      37.225  30.610  31.793  1.00  0.00     0.031 C 
ATOM     16  C   UNL A   1      39.247  28.722  27.561  1.00  0.00     0.029 A 
ATOM     17  N   UNL A   1      40.346  28.514  29.490  1.00  0.00    -0.354 N 
ATOM     18  C   UNL A   1      39.171  30.787  32.937  1.00  0.00     0.074 A 
ATOM     19  C   UNL A   1      37.831  31.296  32.748  1.00  0.00     0.031 C 
ATOM     20  C   UNL A   1      40.381  28.043  27.307  1.00  0.00     0.029 A 
ATOM     21  C   UNL A   1      41.129  27.886  28.549  1.00  0.00     0.049 A 
ATOM     22  H   UNL A   1      40.606  28.590  30.436  1.00  0.00     0.167 HD
ATOM     23  C   UNL A   1      39.890  30.959  34.073  1.00  0.00     0.037 A 
ATOM     24  C   UNL A   1      42.309  27.251  28.681  1.00  0.00     0.037 A 
ATOM     25  C   UNL A   1      41.076  30.201  34.359  1.00  0.00     0.049 A 
ATOM     26  C   UNL A   1      42.949  27.178  30.043  1.00  0.00     0.074 A 
ATOM     27  C   UNL A   1      41.751  30.070  35.557  1.00  0.00     0.029 A 
ATOM     28  N   UNL A   1      41.713  29.377  33.443  1.00  0.00    -0.354 N 
ATOM     29  N   UNL A   1      42.619  27.805  31.144  1.00  0.00    -0.248 NA
ATOM     30  C   UNL A   1      44.105  26.280  30.191  1.00  0.00     0.031 C 
ATOM     31  C   UNL A   1      42.784  29.142  35.375  1.00  0.00     0.029 A 
ATOM     32  C   UNL A   1      42.734  28.684  34.067  1.00  0.00     0.049 A 
ATOM     33  H   UNL A   1      41.474  29.298  32.492  1.00  0.00     0.167 HD
ATOM     34  C   UNL A   1      43.487  27.343  32.124  1.00  0.00     0.074 A 
ATOM     35  C   UNL A   1      44.361  26.381  31.488  1.00  0.00     0.031 C 
ATOM     36  C   UNL A   1      43.550  27.683  33.434  1.00  0.00     0.037 A 
BRANCH  23  37
ATOM     37  C   UNL A   1      39.363  31.911  35.116  1.00  0.00     0.064 A 
ATOM     38  C   UNL A   1      39.653  33.285  35.099  1.00  0.00     0.173 A 
ATOM     39  C   UNL A   1      38.559  31.436  36.164  1.00  0.00     0.173 A 
ATOM     40  F   UNL A   1      40.392  33.812  34.110  1.00  0.00    -0.203 F 
ATOM     41  C   UNL A   1      39.256  34.121  36.138  1.00  0.00     0.198 A 
ATOM     42  C   UNL A   1      38.107  32.288  37.171  1.00  0.00     0.198 A 
ATOM     43  F   UNL A   1      38.211  30.141  36.221  1.00  0.00    -0.203 F 
ATOM     44  F   UNL A   1      39.657  35.400  36.156  1.00  0.00    -0.200 F 
ATOM     45  C   UNL A   1      38.479  33.623  37.172  1.00  0.00     0.200 A 
ATOM     46  F   UNL A   1      37.326  31.814  38.151  1.00  0.00    -0.200 F 
ATOM     47  F   UNL A   1      38.099  34.429  38.172  1.00  0.00    -0.200 F 
ENDBRANCH  23  37
BRANCH  24  48
ATOM     48  C   UNL A   1      42.918  26.531  27.531  1.00  0.00     0.064 A 
ATOM     49  C   UNL A   1      42.587  25.188  27.288  1.00  0.00     0.173 A 
ATOM     50  C   UNL A   1      43.857  27.133  26.687  1.00  0.00     0.173 A 
ATOM     51  F   UNL A   1      41.701  24.565  28.081  1.00  0.00    -0.203 F 
ATOM     52  C   UNL A   1      43.204  24.463  26.272  1.00  0.00     0.198 A 
ATOM     53  C   UNL A   1      44.460  26.411  25.655  1.00  0.00     0.198 A 
ATOM     54  F   UNL A   1      44.195  28.417  26.865  1.00  0.00    -0.203 F 
ATOM     55  F   UNL A   1      42.910  23.167  26.104  1.00  0.00    -0.200 F 
ATOM     56  C   UNL A   1      44.143  25.074  25.456  1.00  0.00     0.200 A 
ATOM     57  F   UNL A   1      45.358  27.007  24.858  1.00  0.00    -0.200 F 
ATOM     58  F   UNL A   1      44.746  24.374  24.488  1.00  0.00    -0.200 F 
ENDBRANCH  24  48
BRANCH  36  59
ATOM     59  C   UNL A   1      44.521  26.940  34.299  1.00  0.00     0.064 A 
ATOM     60  C   UNL A   1      45.812  27.422  34.549  1.00  0.00     0.173 A 
ATOM     61  C   UNL A   1      44.120  25.757  34.940  1.00  0.00     0.173 A 
ATOM     62  F   UNL A   1      46.243  28.540  33.946  1.00  0.00    -0.203 F 
ATOM     63  C   UNL A   1      46.674  26.739  35.401  1.00  0.00     0.198 A 
ATOM     64  C   UNL A   1      44.975  25.091  35.811  1.00  0.00     0.198 A 
ATOM     65  F   UNL A   1      42.892  25.258  34.733  1.00  0.00    -0.203 F 
ATOM     66  F   UNL A   1      47.917  27.197  35.601  1.00  0.00    -0.200 F 
ATOM     67  C   UNL A   1      46.252  25.580  36.038  1.00  0.00     0.200 A 
ATOM     68  F   UNL A   1      44.562  23.979  36.434  1.00  0.00    -0.200 F 
ATOM     69  F   UNL A   1      47.079  24.932  36.869  1.00  0.00    -0.200 F 
ENDBRANCH  36  59
ENDBRANCH  10  11
ENDBRANCH   3   5
ENDBRANCH   2   3
ENDBRANCH   1   2
BRANCH   1  70
ATOM     70  C   UNL A   1      32.744  29.312  24.960  1.00  0.00     0.274 C 
BRANCH  70  71
ATOM     71  O   UNL A   1      32.481  27.911  25.229  1.00  0.00    -0.457 OA
BRANCH  71  72
ATOM     72  C   UNL A   1      32.665  27.124  24.134  1.00  0.00     0.370 C 
ATOM     73  O   UNL A   1      33.766  27.068  23.575  1.00  0.00    -0.245 OA
BRANCH  72  74
ATOM     74  C   UNL A   1      31.423  26.408  23.538  1.00  0.00     0.328 C 
BRANCH  74  75
ATOM     75  N   UNL A   1      31.472  25.009  24.026  1.00  0.00    -0.316 N 
ATOM     76  C   UNL A   1      31.952  23.944  23.133  1.00  0.00     0.284 C 
ATOM     77  C   UNL A   1      31.998  24.843  25.387  1.00  0.00     0.284 C 
ATOM     78  H   UNL A   1      30.466  24.844  24.041  1.00  0.00     0.349 HD
ATOM     79  C   UNL A   1      33.476  23.680  23.177  1.00  0.00     0.178 C 
ATOM     80  C   UNL A   1      33.526  24.639  25.481  1.00  0.00     0.178 C 
ATOM     81  N   UNL A   1      33.932  23.578  24.564  1.00  0.00    -0.360 N 
BRANCH  81  82
ATOM     82  C   UNL A   1      35.156  22.958  24.731  1.00  0.00     0.037 A 
ATOM     83  C   UNL A   1      35.327  21.571  24.681  1.00  0.00     0.026 A 
ATOM     84  C   UNL A   1      36.236  23.761  25.104  1.00  0.00     0.026 A 
ATOM     85  C   UNL A   1      36.547  21.001  25.054  1.00  0.00     0.002 A 
ATOM     86  C   UNL A   1      37.451  23.199  25.480  1.00  0.00     0.002 A 
ATOM     87  C   UNL A   1      37.602  21.814  25.469  1.00  0.00     0.000 A 
ENDBRANCH  81  82
ENDBRANCH  74  75
BRANCH  74  88
ATOM     88  C   UNL A   1      30.015  26.974  23.592  1.00  0.00     0.046 A 
ATOM     89  C   UNL A   1      28.847  26.372  24.035  1.00  0.00     0.094 A 
ATOM     90  C   UNL A   1      29.591  28.220  22.973  1.00  0.00     0.009 A 
ATOM     91  N   UNL A   1      27.770  27.121  23.626  1.00  0.00    -0.361 N 
ATOM     92  C   UNL A   1      28.194  28.266  22.997  1.00  0.00     0.049 A 
ATOM     93  C   UNL A   1      30.269  29.287  22.337  1.00  0.00     0.014 A 
ATOM     94  H   UNL A   1      26.828  26.872  23.765  1.00  0.00     0.166 HD
ATOM     95  C   UNL A   1      27.452  29.325  22.450  1.00  0.00     0.065 A 
ATOM     96  C   UNL A   1      29.544  30.350  21.780  1.00  0.00     0.040 A 
ATOM     97  C   UNL A   1      28.161  30.361  21.846  1.00  0.00     0.125 A 
ATOM     98  F   UNL A   1      27.486  31.384  21.307  1.00  0.00    -0.207 F 
ENDBRANCH  74  88
ENDBRANCH  72  74
ENDBRANCH  71  72
ENDBRANCH  70  71
ENDBRANCH   1  70
TORSDOF 14
ENDMDL
