MODEL 1
REMARK VINA RESULT:     -12.1      0.000      0.000
REMARK SMILES Cn1cc(C[C@H](C(=O)OCCOC(=O)c2ccc(-c3c4nc(c(-c5c(F)c(F)c(F)c(F)c5F)c5ccc([nH]5)c(-c5c(F)c(F)c(F)c(F)c5F)c5nc(c(-c6c(F)c(F)c(F)c(F)c6F)c6ccc3[nH]6)C=C5)C=C4)cc2)c2ccc(F)cc2)cn1
REMARK SMILES IDX 10 1 9 2 7 3 8 4 6 5 5 6 4 7 1 8 2 9 3 10 86 11 85 12 78 13
REMARK SMILES IDX 79 14 84 15 80 16 83 17 81 18 82 19 11 20 12 21 13 22 14 23
REMARK SMILES IDX 15 24 16 25 77 26 17 27 76 28 18 29 19 30 20 31 70 32 21 33
REMARK SMILES IDX 75 34 69 35 71 36 22 37 74 38 68 39 67 40 23 42 55 43 35 44
REMARK SMILES IDX 54 45 36 46 39 47 53 48 72 49 37 50 38 51 52 53 73 54 40 55
REMARK SMILES IDX 24 56 25 57 33 58 26 59 27 60 31 61 34 62 28 63 29 64 32 65
REMARK SMILES IDX 30 66 56 67 57 68 65 69 58 70 59 71 63 72 66 73 60 74 61 75
REMARK SMILES IDX 64 76 62 77 41 78 42 79 50 80 43 81 44 82 48 83 51 84 45 85
REMARK SMILES IDX 46 86 49 87 47 88
REMARK H PARENT 71 41 39 52
REMARK Flexibility Score: inf
ROOT
ATOM      1  C   UNL A   1      36.315  22.687  23.895  1.00  0.00     0.274 C 
ENDROOT
BRANCH   1   2
ATOM      2  O   UNL A   1      35.048  22.761  24.582  1.00  0.00    -0.462 OA
BRANCH   2   3
ATOM      3  C   UNL A   1      33.955  22.303  23.917  1.00  0.00     0.313 C 
ATOM      4  O   UNL A   1      33.648  22.644  22.779  1.00  0.00    -0.252 OA
BRANCH   3   5
ATOM      5  C   UNL A   1      33.154  21.254  24.697  1.00  0.00     0.134 C 
BRANCH   5   6
ATOM      6  C   UNL A   1      31.700  21.764  24.713  1.00  0.00     0.059 C 
BRANCH   6   7
ATOM      7  C   UNL A   1      31.394  23.000  25.494  1.00  0.00    -0.009 A 
ATOM      8  C   UNL A   1      30.587  26.495  25.882  1.00  0.00     0.173 C 
ATOM      9  N   UNL A   1      30.897  25.089  25.981  1.00  0.00    -0.276 N 
ATOM     10  C   UNL A   1      30.899  24.179  24.967  1.00  0.00     0.112 A 
ATOM     11  N   UNL A   1      31.300  24.573  27.154  1.00  0.00    -0.182 NA
ATOM     12  C   UNL A   1      31.603  23.306  26.858  1.00  0.00     0.138 A 
ENDBRANCH   6   7
ENDBRANCH   5   6
BRANCH   5  13
ATOM     13  C   UNL A   1      33.390  19.816  24.234  1.00  0.00    -0.033 A 
ATOM     14  C   UNL A   1      34.521  19.130  24.726  1.00  0.00     0.007 A 
ATOM     15  C   UNL A   1      32.540  19.138  23.346  1.00  0.00     0.007 A 
ATOM     16  C   UNL A   1      34.810  17.829  24.315  1.00  0.00     0.039 A 
ATOM     17  C   UNL A   1      32.827  17.829  22.943  1.00  0.00     0.039 A 
ATOM     18  C   UNL A   1      33.960  17.190  23.425  1.00  0.00     0.123 A 
ATOM     19  F   UNL A   1      34.236  15.941  23.027  1.00  0.00    -0.207 F 
ENDBRANCH   5  13
ENDBRANCH   3   5
ENDBRANCH   2   3
ENDBRANCH   1   2
BRANCH   1  20
ATOM     20  C   UNL A   1      37.070  21.445  24.351  1.00  0.00     0.275 C 
BRANCH  20  21
ATOM     21  O   UNL A   1      37.435  21.621  25.731  1.00  0.00    -0.458 OA
BRANCH  21  22
ATOM     22  C   UNL A   1      38.727  21.378  26.038  1.00  0.00     0.338 C 
ATOM     23  O   UNL A   1      39.354  20.348  25.869  1.00  0.00    -0.246 OA
BRANCH  22  24
ATOM     24  C   UNL A   1      39.327  22.595  26.615  1.00  0.00     0.060 A 
ATOM     25  C   UNL A   1      38.851  23.853  26.248  1.00  0.00     0.016 A 
ATOM     26  C   UNL A   1      40.446  22.485  27.438  1.00  0.00     0.016 A 
ATOM     27  C   UNL A   1      39.562  25.000  26.606  1.00  0.00     0.010 A 
ATOM     28  C   UNL A   1      41.087  23.641  27.891  1.00  0.00     0.010 A 
ATOM     29  C   UNL A   1      40.684  24.914  27.444  1.00  0.00    -0.014 A 
BRANCH  29  30
ATOM     30  C   UNL A   1      41.467  26.127  27.825  1.00  0.00     0.031 A 
ATOM     31  C   UNL A   1      40.840  27.190  28.692  1.00  0.00     0.074 A 
ATOM     32  C   UNL A   1      42.734  26.301  27.397  1.00  0.00     0.049 A 
ATOM     33  N   UNL A   1      41.245  28.413  28.931  1.00  0.00    -0.248 NA
ATOM     34  C   UNL A   1      39.579  26.837  29.363  1.00  0.00     0.031 C 
ATOM     35  C   UNL A   1      43.497  25.353  26.587  1.00  0.00     0.029 A 
ATOM     36  N   UNL A   1      43.606  27.346  27.590  1.00  0.00    -0.354 N 
ATOM     37  C   UNL A   1      40.251  28.999  29.705  1.00  0.00     0.074 A 
ATOM     38  C   UNL A   1      39.231  27.992  29.914  1.00  0.00     0.031 C 
ATOM     39  C   UNL A   1      44.733  25.834  26.391  1.00  0.00     0.029 A 
ATOM     40  C   UNL A   1      44.822  27.167  26.979  1.00  0.00     0.049 A 
ATOM     41  H   UNL A   1      43.380  28.147  28.116  1.00  0.00     0.167 HD
ATOM     42  C   UNL A   1      40.189  30.263  30.189  1.00  0.00     0.037 A 
ATOM     43  C   UNL A   1      45.879  27.994  26.860  1.00  0.00     0.037 A 
ATOM     44  C   UNL A   1      41.238  31.239  30.055  1.00  0.00     0.049 A 
ATOM     45  C   UNL A   1      45.802  29.382  27.427  1.00  0.00     0.074 A 
ATOM     46  C   UNL A   1      41.275  32.541  30.530  1.00  0.00     0.029 A 
ATOM     47  N   UNL A   1      42.450  31.012  29.423  1.00  0.00    -0.354 N 
ATOM     48  N   UNL A   1      44.818  29.955  28.075  1.00  0.00    -0.248 NA
ATOM     49  C   UNL A   1      46.971  30.248  27.219  1.00  0.00     0.031 C 
ATOM     50  C   UNL A   1      42.504  33.105  30.170  1.00  0.00     0.029 A 
ATOM     51  C   UNL A   1      43.244  32.146  29.499  1.00  0.00     0.049 A 
ATOM     52  H   UNL A   1      42.710  30.169  28.985  1.00  0.00     0.167 HD
ATOM     53  C   UNL A   1      45.244  31.248  28.345  1.00  0.00     0.074 A 
ATOM     54  C   UNL A   1      46.587  31.367  27.817  1.00  0.00     0.031 C 
ATOM     55  C   UNL A   1      44.575  32.250  28.963  1.00  0.00     0.037 A 
BRANCH  42  56
ATOM     56  C   UNL A   1      38.928  30.680  30.885  1.00  0.00     0.064 A 
ATOM     57  C   UNL A   1      38.785  30.600  32.277  1.00  0.00     0.173 A 
ATOM     58  C   UNL A   1      37.858  31.207  30.143  1.00  0.00     0.173 A 
ATOM     59  F   UNL A   1      39.772  30.090  33.028  1.00  0.00    -0.203 F 
ATOM     60  C   UNL A   1      37.608  31.013  32.899  1.00  0.00     0.198 A 
ATOM     61  C   UNL A   1      36.694  31.642  30.770  1.00  0.00     0.198 A 
ATOM     62  F   UNL A   1      37.948  31.309  28.808  1.00  0.00    -0.203 F 
ATOM     63  F   UNL A   1      37.478  30.892  34.227  1.00  0.00    -0.200 F 
ATOM     64  C   UNL A   1      36.569  31.539  32.147  1.00  0.00     0.200 A 
ATOM     65  F   UNL A   1      35.695  32.158  30.042  1.00  0.00    -0.200 F 
ATOM     66  F   UNL A   1      35.441  31.942  32.749  1.00  0.00    -0.200 F 
ENDBRANCH  42  56
BRANCH  43  67
ATOM     67  C   UNL A   1      47.090  27.534  26.135  1.00  0.00     0.064 A 
ATOM     68  C   UNL A   1      47.204  27.706  24.750  1.00  0.00     0.173 A 
ATOM     69  C   UNL A   1      48.166  26.943  26.814  1.00  0.00     0.173 A 
ATOM     70  F   UNL A   1      46.188  28.242  24.056  1.00  0.00    -0.203 F 
ATOM     71  C   UNL A   1      48.352  27.306  24.069  1.00  0.00     0.198 A 
ATOM     72  C   UNL A   1      49.322  26.568  26.136  1.00  0.00     0.198 A 
ATOM     73  F   UNL A   1      48.101  26.756  28.140  1.00  0.00    -0.203 F 
ATOM     74  F   UNL A   1      48.427  27.457  22.740  1.00  0.00    -0.200 F 
ATOM     75  C   UNL A   1      49.414  26.746  24.764  1.00  0.00     0.200 A 
ATOM     76  F   UNL A   1      50.352  26.040  26.814  1.00  0.00    -0.200 F 
ATOM     77  F   UNL A   1      50.525  26.377  24.112  1.00  0.00    -0.200 F 
ENDBRANCH  43  67
BRANCH  55  78
ATOM     78  C   UNL A   1      45.290  33.559  29.108  1.00  0.00     0.064 A 
ATOM     79  C   UNL A   1      46.105  33.823  30.219  1.00  0.00     0.173 A 
ATOM     80  C   UNL A   1      45.180  34.546  28.118  1.00  0.00     0.173 A 
ATOM     81  F   UNL A   1      46.225  32.915  31.198  1.00  0.00    -0.203 F 
ATOM     82  C   UNL A   1      46.772  35.039  30.340  1.00  0.00     0.198 A 
ATOM     83  C   UNL A   1      45.863  35.753  28.234  1.00  0.00     0.198 A 
ATOM     84  F   UNL A   1      44.413  34.336  27.039  1.00  0.00    -0.203 F 
ATOM     85  F   UNL A   1      47.518  35.286  31.425  1.00  0.00    -0.200 F 
ATOM     86  C   UNL A   1      46.655  36.001  29.346  1.00  0.00     0.200 A 
ATOM     87  F   UNL A   1      45.753  36.679  27.272  1.00  0.00    -0.200 F 
ATOM     88  F   UNL A   1      47.297  37.170  29.465  1.00  0.00    -0.200 F 
ENDBRANCH  55  78
ENDBRANCH  29  30
ENDBRANCH  22  24
ENDBRANCH  21  22
ENDBRANCH  20  21
ENDBRANCH   1  20
TORSDOF 14
ENDMDL
MODEL 2
REMARK VINA RESULT:     -11.9      2.001      3.593
REMARK SMILES Cn1cc(C[C@H](C(=O)OCCOC(=O)c2ccc(-c3c4nc(c(-c5c(F)c(F)c(F)c(F)c5F)c5ccc([nH]5)c(-c5c(F)c(F)c(F)c(F)c5F)c5nc(c(-c6c(F)c(F)c(F)c(F)c6F)c6ccc3[nH]6)C=C5)C=C4)cc2)c2ccc(F)cc2)cn1
REMARK SMILES IDX 10 1 9 2 7 3 8 4 6 5 5 6 4 7 1 8 2 9 3 10 86 11 85 12 78 13
REMARK SMILES IDX 79 14 84 15 80 16 83 17 81 18 82 19 11 20 12 21 13 22 14 23
REMARK SMILES IDX 15 24 16 25 77 26 17 27 76 28 18 29 19 30 20 31 70 32 21 33
REMARK SMILES IDX 75 34 69 35 71 36 22 37 74 38 68 39 67 40 23 42 55 43 35 44
REMARK SMILES IDX 54 45 36 46 39 47 53 48 72 49 37 50 38 51 52 53 73 54 40 55
REMARK SMILES IDX 24 56 25 57 33 58 26 59 27 60 31 61 34 62 28 63 29 64 32 65
REMARK SMILES IDX 30 66 56 67 57 68 65 69 58 70 59 71 63 72 66 73 60 74 61 75
REMARK SMILES IDX 64 76 62 77 41 78 42 79 50 80 43 81 44 82 48 83 51 84 45 85
REMARK SMILES IDX 46 86 49 87 47 88
REMARK H PARENT 71 41 39 52
REMARK Flexibility Score: inf
ROOT
ATOM      1  C   UNL A   1      36.056  20.233  25.001  1.00  0.00     0.274 C 
ENDROOT
BRANCH   1   2
ATOM      2  O   UNL A   1      35.371  21.100  25.930  1.00  0.00    -0.462 OA
BRANCH   2   3
ATOM      3  C   UNL A   1      34.012  21.082  25.907  1.00  0.00     0.313 C 
ATOM      4  O   UNL A   1      33.305  21.178  26.905  1.00  0.00    -0.252 OA
BRANCH   3   5
ATOM      5  C   UNL A   1      33.421  20.994  24.495  1.00  0.00     0.134 C 
BRANCH   5   6
ATOM      6  C   UNL A   1      32.260  19.986  24.588  1.00  0.00     0.059 C 
BRANCH   6   7
ATOM      7  C   UNL A   1      32.560  18.541  24.356  1.00  0.00    -0.009 A 
ATOM      8  C   UNL A   1      33.270  15.155  25.376  1.00  0.00     0.173 C 
ATOM      9  N   UNL A   1      32.998  16.416  24.732  1.00  0.00    -0.276 N 
ATOM     10  C   UNL A   1      32.528  17.551  25.322  1.00  0.00     0.112 A 
ATOM     11  N   UNL A   1      33.278  16.576  23.427  1.00  0.00    -0.182 NA
ATOM     12  C   UNL A   1      33.015  17.866  23.200  1.00  0.00     0.138 A 
ENDBRANCH   6   7
ENDBRANCH   5   6
BRANCH   5  13
ATOM     13  C   UNL A   1      33.125  22.352  23.856  1.00  0.00    -0.033 A 
ATOM     14  C   UNL A   1      31.779  22.755  23.730  1.00  0.00     0.007 A 
ATOM     15  C   UNL A   1      34.123  23.224  23.390  1.00  0.00     0.007 A 
ATOM     16  C   UNL A   1      31.442  23.966  23.126  1.00  0.00     0.039 A 
ATOM     17  C   UNL A   1      33.783  24.443  22.794  1.00  0.00     0.039 A 
ATOM     18  C   UNL A   1      32.449  24.800  22.662  1.00  0.00     0.123 A 
ATOM     19  F   UNL A   1      32.129  25.963  22.081  1.00  0.00    -0.207 F 
ENDBRANCH   5  13
ENDBRANCH   3   5
ENDBRANCH   2   3
ENDBRANCH   1   2
BRANCH   1  20
ATOM     20  C   UNL A   1      37.398  20.849  24.626  1.00  0.00     0.275 C 
BRANCH  20  21
ATOM     21  O   UNL A   1      37.843  21.662  25.726  1.00  0.00    -0.458 OA
BRANCH  21  22
ATOM     22  C   UNL A   1      39.104  21.438  26.156  1.00  0.00     0.338 C 
ATOM     23  O   UNL A   1      39.730  20.394  26.124  1.00  0.00    -0.246 OA
BRANCH  22  24
ATOM     24  C   UNL A   1      39.669  22.695  26.678  1.00  0.00     0.060 A 
ATOM     25  C   UNL A   1      39.223  23.922  26.190  1.00  0.00     0.016 A 
ATOM     26  C   UNL A   1      40.734  22.647  27.577  1.00  0.00     0.016 A 
ATOM     27  C   UNL A   1      39.913  25.093  26.506  1.00  0.00     0.010 A 
ATOM     28  C   UNL A   1      41.349  23.835  27.983  1.00  0.00     0.010 A 
ATOM     29  C   UNL A   1      40.979  25.070  27.419  1.00  0.00    -0.014 A 
BRANCH  29  30
ATOM     30  C   UNL A   1      41.740  26.309  27.758  1.00  0.00     0.031 A 
ATOM     31  C   UNL A   1      41.104  27.378  28.612  1.00  0.00     0.074 A 
ATOM     32  C   UNL A   1      42.995  26.502  27.304  1.00  0.00     0.049 A 
ATOM     33  N   UNL A   1      41.485  28.615  28.816  1.00  0.00    -0.248 NA
ATOM     34  C   UNL A   1      39.864  27.012  29.313  1.00  0.00     0.031 C 
ATOM     35  C   UNL A   1      43.766  25.553  26.501  1.00  0.00     0.029 A 
ATOM     36  N   UNL A   1      43.847  27.571  27.457  1.00  0.00    -0.354 N 
ATOM     37  C   UNL A   1      40.491  29.196  29.594  1.00  0.00     0.074 A 
ATOM     38  C   UNL A   1      39.499  28.171  29.844  1.00  0.00     0.031 C 
ATOM     39  C   UNL A   1      44.987  26.058  26.273  1.00  0.00     0.029 A 
ATOM     40  C   UNL A   1      45.056  27.405  26.829  1.00  0.00     0.049 A 
ATOM     41  H   UNL A   1      43.611  28.379  27.969  1.00  0.00     0.167 HD
ATOM     42  C   UNL A   1      40.409  30.469  30.050  1.00  0.00     0.037 A 
ATOM     43  C   UNL A   1      46.091  28.253  26.672  1.00  0.00     0.037 A 
ATOM     44  C   UNL A   1      41.433  31.466  29.875  1.00  0.00     0.049 A 
ATOM     45  C   UNL A   1      45.992  29.652  27.209  1.00  0.00     0.074 A 
ATOM     46  C   UNL A   1      41.447  32.778  30.319  1.00  0.00     0.029 A 
ATOM     47  N   UNL A   1      42.639  31.251  29.227  1.00  0.00    -0.354 N 
ATOM     48  N   UNL A   1      45.007  30.217  27.861  1.00  0.00    -0.248 NA
ATOM     49  C   UNL A   1      47.137  30.539  26.960  1.00  0.00     0.031 C 
ATOM     50  C   UNL A   1      42.658  33.361  29.925  1.00  0.00     0.029 A 
ATOM     51  C   UNL A   1      43.407  32.404  29.262  1.00  0.00     0.049 A 
ATOM     52  H   UNL A   1      42.910  30.405  28.803  1.00  0.00     0.167 HD
ATOM     53  C   UNL A   1      45.408  31.525  28.093  1.00  0.00     0.074 A 
ATOM     54  C   UNL A   1      46.738  31.663  27.539  1.00  0.00     0.031 C 
ATOM     55  C   UNL A   1      44.726  32.526  28.701  1.00  0.00     0.037 A 
BRANCH  42  56
ATOM     56  C   UNL A   1      39.151  30.873  30.759  1.00  0.00     0.064 A 
ATOM     57  C   UNL A   1      38.045  31.394  30.073  1.00  0.00     0.173 A 
ATOM     58  C   UNL A   1      39.041  30.697  32.147  1.00  0.00     0.173 A 
ATOM     59  F   UNL A   1      38.106  31.596  28.749  1.00  0.00    -0.203 F 
ATOM     60  C   UNL A   1      36.881  31.744  30.756  1.00  0.00     0.198 A 
ATOM     61  C   UNL A   1      37.868  31.023  32.822  1.00  0.00     0.198 A 
ATOM     62  F   UNL A   1      40.070  30.196  32.849  1.00  0.00    -0.203 F 
ATOM     63  F   UNL A   1      35.850  32.276  30.086  1.00  0.00    -0.200 F 
ATOM     64  C   UNL A   1      36.792  31.552  32.127  1.00  0.00     0.200 A 
ATOM     65  F   UNL A   1      37.780  30.828  34.145  1.00  0.00    -0.200 F 
ATOM     66  F   UNL A   1      35.669  31.883  32.779  1.00  0.00    -0.200 F 
ENDBRANCH  42  56
BRANCH  43  67
ATOM     67  C   UNL A   1      47.299  27.803  25.936  1.00  0.00     0.064 A 
ATOM     68  C   UNL A   1      48.420  27.322  26.624  1.00  0.00     0.173 A 
ATOM     69  C   UNL A   1      47.346  27.817  24.534  1.00  0.00     0.173 A 
ATOM     70  F   UNL A   1      48.429  27.316  27.966  1.00  0.00    -0.203 F 
ATOM     71  C   UNL A   1      49.544  26.868  25.937  1.00  0.00     0.198 A 
ATOM     72  C   UNL A   1      48.459  27.339  23.849  1.00  0.00     0.198 A 
ATOM     73  F   UNL A   1      46.297  28.271  23.832  1.00  0.00    -0.203 F 
ATOM     74  F   UNL A   1      50.613  26.437  26.619  1.00  0.00    -0.200 F 
ATOM     75  C   UNL A   1      49.559  26.868  24.551  1.00  0.00     0.200 A 
ATOM     76  F   UNL A   1      48.464  27.327  22.508  1.00  0.00    -0.200 F 
ATOM     77  F   UNL A   1      50.633  26.416  23.889  1.00  0.00    -0.200 F 
ENDBRANCH  43  67
BRANCH  55  78
ATOM     78  C   UNL A   1      45.413  33.854  28.803  1.00  0.00     0.064 A 
ATOM     79  C   UNL A   1      45.239  34.841  27.822  1.00  0.00     0.173 A 
ATOM     80  C   UNL A   1      46.230  34.151  29.903  1.00  0.00     0.173 A 
ATOM     81  F   UNL A   1      44.479  34.594  26.744  1.00  0.00    -0.203 F 
ATOM     82  C   UNL A   1      45.874  36.075  27.931  1.00  0.00     0.198 A 
ATOM     83  C   UNL A   1      46.849  35.393  30.018  1.00  0.00     0.198 A 
ATOM     84  F   UNL A   1      46.424  33.239  30.866  1.00  0.00    -0.203 F 
ATOM     85  F   UNL A   1      45.724  36.991  26.966  1.00  0.00    -0.200 F 
ATOM     86  C   UNL A   1      46.675  36.351  29.030  1.00  0.00     0.200 A 
ATOM     87  F   UNL A   1      47.619  35.660  31.082  1.00  0.00    -0.200 F 
ATOM     88  F   UNL A   1      47.286  37.539  29.133  1.00  0.00    -0.200 F 
ENDBRANCH  55  78
ENDBRANCH  29  30
ENDBRANCH  22  24
ENDBRANCH  21  22
ENDBRANCH  20  21
ENDBRANCH   1  20
TORSDOF 14
ENDMDL
MODEL 3
REMARK VINA RESULT:     -11.9      4.987      9.966
REMARK SMILES Cn1cc(C[C@H](C(=O)OCCOC(=O)c2ccc(-c3c4nc(c(-c5c(F)c(F)c(F)c(F)c5F)c5ccc([nH]5)c(-c5c(F)c(F)c(F)c(F)c5F)c5nc(c(-c6c(F)c(F)c(F)c(F)c6F)c6ccc3[nH]6)C=C5)C=C4)cc2)c2ccc(F)cc2)cn1
REMARK SMILES IDX 10 1 9 2 7 3 8 4 6 5 5 6 4 7 1 8 2 9 3 10 86 11 85 12 78 13
REMARK SMILES IDX 79 14 84 15 80 16 83 17 81 18 82 19 11 20 12 21 13 22 14 23
REMARK SMILES IDX 15 24 16 25 77 26 17 27 76 28 18 29 19 30 20 31 70 32 21 33
REMARK SMILES IDX 75 34 69 35 71 36 22 37 74 38 68 39 67 40 23 42 55 43 35 44
REMARK SMILES IDX 54 45 36 46 39 47 53 48 72 49 37 50 38 51 52 53 73 54 40 55
REMARK SMILES IDX 24 56 25 57 33 58 26 59 27 60 31 61 34 62 28 63 29 64 32 65
REMARK SMILES IDX 30 66 56 67 57 68 65 69 58 70 59 71 63 72 66 73 60 74 61 75
REMARK SMILES IDX 64 76 62 77 41 78 42 79 50 80 43 81 44 82 48 83 51 84 45 85
REMARK SMILES IDX 46 86 49 87 47 88
REMARK H PARENT 71 41 39 52
REMARK Flexibility Score: inf
ROOT
ATOM      1  C   UNL A   1      31.092  30.532  25.233  1.00  0.00     0.274 C 
ENDROOT
BRANCH   1   2
ATOM      2  O   UNL A   1      31.442  29.149  25.450  1.00  0.00    -0.462 OA
BRANCH   2   3
ATOM      3  C   UNL A   1      31.498  28.345  24.356  1.00  0.00     0.313 C 
ATOM      4  O   UNL A   1      32.465  28.269  23.605  1.00  0.00    -0.252 OA
BRANCH   3   5
ATOM      5  C   UNL A   1      30.250  27.475  24.167  1.00  0.00     0.134 C 
BRANCH   5   6
ATOM      6  C   UNL A   1      29.700  27.826  22.772  1.00  0.00     0.059 C 
BRANCH   6   7
ATOM      7  C   UNL A   1      28.910  29.085  22.621  1.00  0.00    -0.009 A 
ATOM      8  C   UNL A   1      28.479  32.599  21.928  1.00  0.00     0.173 C 
ATOM      9  N   UNL A   1      28.399  31.193  22.238  1.00  0.00    -0.276 N 
ATOM     10  C   UNL A   1      29.373  30.258  22.050  1.00  0.00     0.112 A 
ATOM     11  N   UNL A   1      27.302  30.699  22.838  1.00  0.00    -0.182 NA
ATOM     12  C   UNL A   1      27.614  29.422  23.072  1.00  0.00     0.138 A 
ENDBRANCH   6   7
ENDBRANCH   5   6
BRANCH   5  13
ATOM     13  C   UNL A   1      30.467  25.994  24.486  1.00  0.00    -0.033 A 
ATOM     14  C   UNL A   1      30.500  25.597  25.840  1.00  0.00     0.007 A 
ATOM     15  C   UNL A   1      30.632  25.006  23.502  1.00  0.00     0.007 A 
ATOM     16  C   UNL A   1      30.729  24.268  26.195  1.00  0.00     0.039 A 
ATOM     17  C   UNL A   1      30.850  23.671  23.861  1.00  0.00     0.039 A 
ATOM     18  C   UNL A   1      30.903  23.316  25.202  1.00  0.00     0.123 A 
ATOM     19  F   UNL A   1      31.124  22.040  25.540  1.00  0.00    -0.207 F 
ENDBRANCH   5  13
ENDBRANCH   3   5
ENDBRANCH   2   3
ENDBRANCH   1   2
BRANCH   1  20
ATOM     20  C   UNL A   1      31.386  31.335  26.493  1.00  0.00     0.275 C 
BRANCH  20  21
ATOM     21  O   UNL A   1      32.755  31.102  26.868  1.00  0.00    -0.458 OA
BRANCH  21  22
ATOM     22  C   UNL A   1      33.415  32.159  27.387  1.00  0.00     0.338 C 
ATOM     23  O   UNL A   1      33.039  33.315  27.455  1.00  0.00    -0.246 OA
BRANCH  22  24
ATOM     24  C   UNL A   1      34.715  31.708  27.915  1.00  0.00     0.060 A 
ATOM     25  C   UNL A   1      34.896  30.379  28.296  1.00  0.00     0.016 A 
ATOM     26  C   UNL A   1      35.726  32.641  28.138  1.00  0.00     0.016 A 
ATOM     27  C   UNL A   1      36.036  30.005  29.007  1.00  0.00     0.010 A 
ATOM     28  C   UNL A   1      36.917  32.237  28.747  1.00  0.00     0.010 A 
ATOM     29  C   UNL A   1      37.072  30.925  29.233  1.00  0.00    -0.014 A 
BRANCH  29  30
ATOM     30  C   UNL A   1      38.293  30.549  30.006  1.00  0.00     0.031 A 
ATOM     31  C   UNL A   1      39.334  29.649  29.386  1.00  0.00     0.074 A 
ATOM     32  C   UNL A   1      38.485  30.991  31.265  1.00  0.00     0.049 A 
ATOM     33  N   UNL A   1      40.326  29.010  29.955  1.00  0.00    -0.248 NA
ATOM     34  C   UNL A   1      39.232  29.423  27.936  1.00  0.00     0.031 C 
ATOM     35  C   UNL A   1      37.597  31.896  31.995  1.00  0.00     0.029 A 
ATOM     36  N   UNL A   1      39.499  30.735  32.157  1.00  0.00    -0.354 N 
ATOM     37  C   UNL A   1      40.909  28.243  28.954  1.00  0.00     0.074 A 
ATOM     38  C   UNL A   1      40.173  28.511  27.735  1.00  0.00     0.031 C 
ATOM     39  C   UNL A   1      38.125  32.157  33.199  1.00  0.00     0.029 A 
ATOM     40  C   UNL A   1      39.339  31.365  33.367  1.00  0.00     0.049 A 
ATOM     41  H   UNL A   1      40.268  30.156  31.949  1.00  0.00     0.167 HD
ATOM     42  C   UNL A   1      41.955  27.387  29.043  1.00  0.00     0.037 A 
ATOM     43  C   UNL A   1      40.056  31.284  34.504  1.00  0.00     0.037 A 
ATOM     44  C   UNL A   1      42.741  27.182  30.233  1.00  0.00     0.049 A 
ATOM     45  C   UNL A   1      41.229  30.349  34.576  1.00  0.00     0.074 A 
ATOM     46  C   UNL A   1      43.833  26.349  30.414  1.00  0.00     0.029 A 
ATOM     47  N   UNL A   1      42.537  27.839  31.435  1.00  0.00    -0.354 N 
ATOM     48  N   UNL A   1      41.713  29.559  33.650  1.00  0.00    -0.248 NA
ATOM     49  C   UNL A   1      41.937  30.273  35.862  1.00  0.00     0.031 C 
ATOM     50  C   UNL A   1      44.279  26.492  31.734  1.00  0.00     0.029 A 
ATOM     51  C   UNL A   1      43.484  27.435  32.362  1.00  0.00     0.049 A 
ATOM     52  H   UNL A   1      41.823  28.496  31.606  1.00  0.00     0.167 HD
ATOM     53  C   UNL A   1      42.774  28.888  34.240  1.00  0.00     0.074 A 
ATOM     54  C   UNL A   1      42.883  29.384  35.596  1.00  0.00     0.031 C 
ATOM     55  C   UNL A   1      43.576  27.934  33.709  1.00  0.00     0.037 A 
BRANCH  42  56
ATOM     56  C   UNL A   1      42.296  26.576  27.829  1.00  0.00     0.064 A 
ATOM     57  C   UNL A   1      43.261  26.995  26.903  1.00  0.00     0.173 A 
ATOM     58  C   UNL A   1      41.671  25.338  27.614  1.00  0.00     0.173 A 
ATOM     59  F   UNL A   1      43.875  28.177  27.056  1.00  0.00    -0.203 F 
ATOM     60  C   UNL A   1      43.572  26.212  25.793  1.00  0.00     0.198 A 
ATOM     61  C   UNL A   1      42.003  24.546  26.518  1.00  0.00     0.198 A 
ATOM     62  F   UNL A   1      40.744  24.890  28.476  1.00  0.00    -0.203 F 
ATOM     63  F   UNL A   1      44.470  26.648  24.899  1.00  0.00    -0.200 F 
ATOM     64  C   UNL A   1      42.949  24.987  25.606  1.00  0.00     0.200 A 
ATOM     65  F   UNL A   1      41.405  23.359  26.344  1.00  0.00    -0.200 F 
ATOM     66  F   UNL A   1      43.256  24.233  24.541  1.00  0.00    -0.200 F 
ENDBRANCH  42  56
BRANCH  43  67
ATOM     67  C   UNL A   1      39.652  32.090  35.683  1.00  0.00     0.064 A 
ATOM     68  C   UNL A   1      38.643  31.643  36.546  1.00  0.00     0.173 A 
ATOM     69  C   UNL A   1      40.285  33.305  35.987  1.00  0.00     0.173 A 
ATOM     70  F   UNL A   1      37.992  30.500  36.278  1.00  0.00    -0.203 F 
ATOM     71  C   UNL A   1      38.282  32.380  37.672  1.00  0.00     0.198 A 
ATOM     72  C   UNL A   1      39.941  34.027  37.127  1.00  0.00     0.198 A 
ATOM     73  F   UNL A   1      41.255  33.774  35.190  1.00  0.00    -0.203 F 
ATOM     74  F   UNL A   1      37.296  31.944  38.467  1.00  0.00    -0.200 F 
ATOM     75  C   UNL A   1      38.938  33.565  37.966  1.00  0.00     0.200 A 
ATOM     76  F   UNL A   1      40.587  35.165  37.416  1.00  0.00    -0.200 F 
ATOM     77  F   UNL A   1      38.603  34.266  39.059  1.00  0.00    -0.200 F 
ENDBRANCH  43  67
BRANCH  55  78
ATOM     78  C   UNL A   1      44.647  27.373  34.594  1.00  0.00     0.064 A 
ATOM     79  C   UNL A   1      44.428  26.217  35.357  1.00  0.00     0.173 A 
ATOM     80  C   UNL A   1      45.909  27.981  34.660  1.00  0.00     0.173 A 
ATOM     81  F   UNL A   1      43.231  25.612  35.337  1.00  0.00    -0.203 F 
ATOM     82  C   UNL A   1      45.432  25.698  36.170  1.00  0.00     0.198 A 
ATOM     83  C   UNL A   1      46.916  27.449  35.460  1.00  0.00     0.198 A 
ATOM     84  F   UNL A   1      46.163  29.087  33.947  1.00  0.00    -0.203 F 
ATOM     85  F   UNL A   1      45.193  24.613  36.918  1.00  0.00    -0.200 F 
ATOM     86  C   UNL A   1      46.676  26.312  36.217  1.00  0.00     0.200 A 
ATOM     87  F   UNL A   1      48.118  28.039  35.501  1.00  0.00    -0.200 F 
ATOM     88  F   UNL A   1      47.641  25.811  37.000  1.00  0.00    -0.200 F 
ENDBRANCH  55  78
ENDBRANCH  29  30
ENDBRANCH  22  24
ENDBRANCH  21  22
ENDBRANCH  20  21
ENDBRANCH   1  20
TORSDOF 14
ENDMDL
