MODEL 1
REMARK VINA RESULT:     -11.8      0.000      0.000
REMARK SMILES CC1(C)[C@H](C(=O)OCCOC(=O)c2ccc(-c3c4nc(c(-c5c(F)c(F)c(F)c(F)c5F)c5ccc([nH]5)c(-c5c(F)c(F)c(F)c(F)c5F)c5nc(c(-c6c(F)c(F)c(F)c(F)c6F)c6ccc3[nH]6)C=C5)C=C4)cc2)[C@@H]1C(=O)Nc1ccon1
REMARK SMILES IDX 8 1 7 2 5 3 6 4 4 5 1 6 2 7 3 8 76 9 77 10 78 11 79 12 80 14
REMARK SMILES IDX 81 15 84 16 82 17 83 18 9 19 10 20 11 21 12 22 13 23 14 24
REMARK SMILES IDX 75 25 15 26 74 27 16 28 17 29 18 30 68 31 19 32 73 33 67 34
REMARK SMILES IDX 69 35 20 36 72 37 66 38 65 39 21 41 53 42 33 43 52 44 34 45
REMARK SMILES IDX 37 46 51 47 70 48 35 49 36 50 50 52 71 53 38 54 22 55 23 56
REMARK SMILES IDX 31 57 24 58 25 59 29 60 32 61 26 62 27 63 30 64 28 65 54 66
REMARK SMILES IDX 55 67 63 68 56 69 57 70 61 71 64 72 58 73 59 74 62 75 60 76
REMARK SMILES IDX 39 77 40 78 48 79 41 80 42 81 46 82 49 83 43 84 44 85 47 86
REMARK SMILES IDX 45 87
REMARK H PARENT 79 13 69 40 37 51
REMARK Flexibility Score: inf
ROOT
ATOM      1  C   UNL A   1      32.965  28.266  25.011  1.00  0.00     0.274 C 
ENDROOT
BRANCH   1   2
ATOM      2  O   UNL A   1      32.717  27.393  26.129  1.00  0.00    -0.462 OA
BRANCH   2   3
ATOM      3  C   UNL A   1      31.727  26.486  25.931  1.00  0.00     0.310 C 
ATOM      4  O   UNL A   1      30.653  26.485  26.503  1.00  0.00    -0.252 OA
BRANCH   3   5
ATOM      5  C   UNL A   1      31.983  25.465  24.883  1.00  0.00     0.118 C 
ATOM      6  C   UNL A   1      33.670  24.532  23.222  1.00  0.00     0.013 C 
ATOM      7  C   UNL A   1      33.230  24.645  24.666  1.00  0.00    -0.009 C 
ATOM      8  C   UNL A   1      34.400  24.725  25.617  1.00  0.00     0.013 C 
ATOM      9  C   UNL A   1      31.910  23.976  25.105  1.00  0.00     0.100 C 
BRANCH   9  10
ATOM     10  C   UNL A   1      31.805  23.319  26.430  1.00  0.00     0.230 C 
ATOM     11  O   UNL A   1      31.382  23.972  27.381  1.00  0.00    -0.274 OA
ATOM     12  N   UNL A   1      32.162  22.013  26.612  1.00  0.00    -0.308 N 
ATOM     13  H   UNL A   1      31.874  21.634  27.473  1.00  0.00     0.171 HD
BRANCH  12  14
ATOM     14  C   UNL A   1      32.850  21.133  25.814  1.00  0.00     0.175 A 
ATOM     15  C   UNL A   1      34.237  20.949  25.624  1.00  0.00     0.092 A 
ATOM     16  N   UNL A   1      32.155  20.265  25.069  1.00  0.00    -0.062 NA
ATOM     17  C   UNL A   1      34.324  20.017  24.622  1.00  0.00     0.233 A 
ATOM     18  O   UNL A   1      33.082  19.599  24.290  1.00  0.00    -0.363 OA
ENDBRANCH  12  14
ENDBRANCH   9  10
ENDBRANCH   3   5
ENDBRANCH   2   3
ENDBRANCH   1   2
BRANCH   1  19
ATOM     19  C   UNL A   1      32.713  29.744  25.345  1.00  0.00     0.275 C 
BRANCH  19  20
ATOM     20  O   UNL A   1      32.613  29.991  26.761  1.00  0.00    -0.458 OA
BRANCH  20  21
ATOM     21  C   UNL A   1      33.158  31.158  27.180  1.00  0.00     0.338 C 
ATOM     22  O   UNL A   1      32.609  32.246  27.250  1.00  0.00    -0.246 OA
BRANCH  21  23
ATOM     23  C   UNL A   1      34.511  30.929  27.718  1.00  0.00     0.060 A 
ATOM     24  C   UNL A   1      34.866  29.613  28.032  1.00  0.00     0.016 A 
ATOM     25  C   UNL A   1      35.376  31.980  28.017  1.00  0.00     0.016 A 
ATOM     26  C   UNL A   1      36.083  29.330  28.639  1.00  0.00     0.010 A 
ATOM     27  C   UNL A   1      36.591  31.701  28.655  1.00  0.00     0.010 A 
ATOM     28  C   UNL A   1      36.939  30.377  28.982  1.00  0.00    -0.014 A 
BRANCH  28  29
ATOM     29  C   UNL A   1      38.133  30.092  29.808  1.00  0.00     0.031 A 
ATOM     30  C   UNL A   1      39.200  29.198  29.249  1.00  0.00     0.074 A 
ATOM     31  C   UNL A   1      38.283  30.660  31.016  1.00  0.00     0.049 A 
ATOM     32  N   UNL A   1      40.248  28.685  29.838  1.00  0.00    -0.248 NA
ATOM     33  C   UNL A   1      39.068  28.836  27.829  1.00  0.00     0.031 C 
ATOM     34  C   UNL A   1      37.364  31.627  31.614  1.00  0.00     0.029 A 
ATOM     35  N   UNL A   1      39.263  30.495  31.962  1.00  0.00    -0.354 N 
ATOM     36  C   UNL A   1      40.879  27.912  28.874  1.00  0.00     0.074 A 
ATOM     37  C   UNL A   1      40.102  28.025  27.659  1.00  0.00     0.031 C 
ATOM     38  C   UNL A   1      37.814  31.957  32.837  1.00  0.00     0.029 A 
ATOM     39  C   UNL A   1      39.016  31.179  33.127  1.00  0.00     0.049 A 
ATOM     40  H   UNL A   1      40.064  29.941  31.819  1.00  0.00     0.167 HD
ATOM     41  C   UNL A   1      42.002  27.168  29.001  1.00  0.00     0.037 A 
ATOM     42  C   UNL A   1      39.664  31.138  34.307  1.00  0.00     0.037 A 
ATOM     43  C   UNL A   1      42.773  27.078  30.213  1.00  0.00     0.049 A 
ATOM     44  C   UNL A   1      40.864  30.240  34.450  1.00  0.00     0.074 A 
ATOM     45  C   UNL A   1      43.916  26.338  30.459  1.00  0.00     0.029 A 
ATOM     46  N   UNL A   1      42.475  27.760  31.384  1.00  0.00    -0.354 N 
ATOM     47  N   UNL A   1      41.430  29.466  33.555  1.00  0.00    -0.248 NA
ATOM     48  C   UNL A   1      41.509  30.198  35.771  1.00  0.00     0.031 C 
ATOM     49  C   UNL A   1      44.288  26.544  31.792  1.00  0.00     0.029 A 
ATOM     50  C   UNL A   1      43.405  27.448  32.362  1.00  0.00     0.049 A 
ATOM     51  H   UNL A   1      41.716  28.375  31.503  1.00  0.00     0.167 HD
ATOM     52  C   UNL A   1      42.510  28.869  34.192  1.00  0.00     0.074 A 
ATOM     53  C   UNL A   1      42.524  29.374  35.550  1.00  0.00     0.031 C 
ATOM     54  C   UNL A   1      43.409  27.984  33.699  1.00  0.00     0.037 A 
BRANCH  41  55
ATOM     55  C   UNL A   1      42.432  26.354  27.817  1.00  0.00     0.064 A 
ATOM     56  C   UNL A   1      41.896  25.085  27.557  1.00  0.00     0.173 A 
ATOM     57  C   UNL A   1      43.382  26.863  26.919  1.00  0.00     0.173 A 
ATOM     58  F   UNL A   1      40.999  24.545  28.395  1.00  0.00    -0.203 F 
ATOM     59  C   UNL A   1      42.314  24.345  26.452  1.00  0.00     0.198 A 
ATOM     60  C   UNL A   1      43.778  26.133  25.803  1.00  0.00     0.198 A 
ATOM     61  F   UNL A   1      43.926  28.072  27.124  1.00  0.00    -0.203 F 
ATOM     62  F   UNL A   1      41.823  23.115  26.247  1.00  0.00    -0.200 F 
ATOM     63  C   UNL A   1      43.250  24.872  25.574  1.00  0.00     0.200 A 
ATOM     64  F   UNL A   1      44.676  26.648  24.952  1.00  0.00    -0.200 F 
ATOM     65  F   UNL A   1      43.648  24.160  24.510  1.00  0.00    -0.200 F 
ENDBRANCH  41  55
BRANCH  42  66
ATOM     66  C   UNL A   1      39.164  31.937  35.456  1.00  0.00     0.064 A 
ATOM     67  C   UNL A   1      39.515  33.285  35.608  1.00  0.00     0.173 A 
ATOM     68  C   UNL A   1      38.327  31.368  36.427  1.00  0.00     0.173 A 
ATOM     69  F   UNL A   1      40.334  33.869  34.720  1.00  0.00    -0.203 F 
ATOM     70  C   UNL A   1      39.059  34.029  36.696  1.00  0.00     0.198 A 
ATOM     71  C   UNL A   1      37.849  32.119  37.498  1.00  0.00     0.198 A 
ATOM     72  F   UNL A   1      37.964  30.080  36.331  1.00  0.00    -0.203 F 
ATOM     73  F   UNL A   1      39.443  35.305  36.840  1.00  0.00    -0.200 F 
ATOM     74  C   UNL A   1      38.221  33.448  37.635  1.00  0.00     0.200 A 
ATOM     75  F   UNL A   1      37.029  31.557  38.397  1.00  0.00    -0.200 F 
ATOM     76  F   UNL A   1      37.777  34.165  38.675  1.00  0.00    -0.200 F 
ENDBRANCH  42  66
BRANCH  54  77
ATOM     77  C   UNL A   1      44.518  27.547  34.610  1.00  0.00     0.064 A 
ATOM     78  C   UNL A   1      44.410  26.394  35.400  1.00  0.00     0.173 A 
ATOM     79  C   UNL A   1      45.725  28.261  34.642  1.00  0.00     0.173 A 
ATOM     80  F   UNL A   1      43.270  25.688  35.413  1.00  0.00    -0.203 F 
ATOM     81  C   UNL A   1      45.470  25.980  36.204  1.00  0.00     0.198 A 
ATOM     82  C   UNL A   1      46.790  27.829  35.426  1.00  0.00     0.198 A 
ATOM     83  F   UNL A   1      45.877  29.367  33.898  1.00  0.00    -0.203 F 
ATOM     84  F   UNL A   1      45.336  24.895  36.978  1.00  0.00    -0.200 F 
ATOM     85  C   UNL A   1      46.661  26.692  36.209  1.00  0.00     0.200 A 
ATOM     86  F   UNL A   1      47.944  28.511  35.420  1.00  0.00    -0.200 F 
ATOM     87  F   UNL A   1      47.683  26.283  36.973  1.00  0.00    -0.200 F 
ENDBRANCH  54  77
ENDBRANCH  28  29
ENDBRANCH  21  23
ENDBRANCH  20  21
ENDBRANCH  19  20
ENDBRANCH   1  19
TORSDOF 13
ENDMDL
MODEL 2
REMARK VINA RESULT:     -11.8      1.237      2.020
REMARK SMILES CC1(C)[C@H](C(=O)OCCOC(=O)c2ccc(-c3c4nc(c(-c5c(F)c(F)c(F)c(F)c5F)c5ccc([nH]5)c(-c5c(F)c(F)c(F)c(F)c5F)c5nc(c(-c6c(F)c(F)c(F)c(F)c6F)c6ccc3[nH]6)C=C5)C=C4)cc2)[C@@H]1C(=O)Nc1ccon1
REMARK SMILES IDX 8 1 7 2 5 3 6 4 4 5 1 6 2 7 3 8 76 9 77 10 78 11 79 12 80 14
REMARK SMILES IDX 81 15 84 16 82 17 83 18 9 19 10 20 11 21 12 22 13 23 14 24
REMARK SMILES IDX 75 25 15 26 74 27 16 28 17 29 18 30 68 31 19 32 73 33 67 34
REMARK SMILES IDX 69 35 20 36 72 37 66 38 65 39 21 41 53 42 33 43 52 44 34 45
REMARK SMILES IDX 37 46 51 47 70 48 35 49 36 50 50 52 71 53 38 54 22 55 23 56
REMARK SMILES IDX 31 57 24 58 25 59 29 60 32 61 26 62 27 63 30 64 28 65 54 66
REMARK SMILES IDX 55 67 63 68 56 69 57 70 61 71 64 72 58 73 59 74 62 75 60 76
REMARK SMILES IDX 39 77 40 78 48 79 41 80 42 81 46 82 49 83 43 84 44 85 47 86
REMARK SMILES IDX 45 87
REMARK H PARENT 79 13 69 40 37 51
REMARK Flexibility Score: inf
ROOT
ATOM      1  C   UNL A   1      31.258  29.977  25.039  1.00  0.00     0.274 C 
ENDROOT
BRANCH   1   2
ATOM      2  O   UNL A   1      32.253  29.308  24.240  1.00  0.00    -0.462 OA
BRANCH   2   3
ATOM      3  C   UNL A   1      31.754  28.556  23.226  1.00  0.00     0.310 C 
ATOM      4  O   UNL A   1      31.005  28.961  22.358  1.00  0.00    -0.252 OA
BRANCH   3   5
ATOM      5  C   UNL A   1      32.228  27.150  23.167  1.00  0.00     0.118 C 
ATOM      6  C   UNL A   1      34.038  25.508  23.878  1.00  0.00     0.013 C 
ATOM      7  C   UNL A   1      32.824  26.320  24.277  1.00  0.00    -0.009 C 
ATOM      8  C   UNL A   1      32.927  26.849  25.687  1.00  0.00     0.013 C 
ATOM      9  C   UNL A   1      31.449  25.963  23.673  1.00  0.00     0.100 C 
BRANCH   9  10
ATOM     10  C   UNL A   1      30.221  26.044  24.502  1.00  0.00     0.230 C 
ATOM     11  O   UNL A   1      29.460  26.994  24.338  1.00  0.00    -0.274 OA
ATOM     12  N   UNL A   1      29.920  25.089  25.431  1.00  0.00    -0.308 N 
ATOM     13  H   UNL A   1      29.001  25.143  25.779  1.00  0.00     0.171 HD
BRANCH  12  14
ATOM     14  C   UNL A   1      30.665  24.069  25.968  1.00  0.00     0.175 A 
ATOM     15  C   UNL A   1      31.151  22.877  25.387  1.00  0.00     0.092 A 
ATOM     16  N   UNL A   1      31.043  24.155  27.249  1.00  0.00    -0.062 NA
ATOM     17  C   UNL A   1      31.720  22.195  26.432  1.00  0.00     0.233 A 
ATOM     18  O   UNL A   1      31.664  22.957  27.547  1.00  0.00    -0.363 OA
ENDBRANCH  12  14
ENDBRANCH   9  10
ENDBRANCH   3   5
ENDBRANCH   2   3
ENDBRANCH   1   2
BRANCH   1  19
ATOM     19  C   UNL A   1      31.768  30.336  26.442  1.00  0.00     0.275 C 
BRANCH  19  20
ATOM     20  O   UNL A   1      33.206  30.409  26.517  1.00  0.00    -0.458 OA
BRANCH  20  21
ATOM     21  C   UNL A   1      33.690  31.438  27.252  1.00  0.00     0.338 C 
ATOM     22  O   UNL A   1      33.102  32.460  27.568  1.00  0.00    -0.246 OA
BRANCH  21  23
ATOM     23  C   UNL A   1      35.021  31.104  27.790  1.00  0.00     0.060 A 
ATOM     24  C   UNL A   1      35.242  29.782  28.189  1.00  0.00     0.016 A 
ATOM     25  C   UNL A   1      35.997  32.075  28.005  1.00  0.00     0.016 A 
ATOM     26  C   UNL A   1      36.432  29.413  28.800  1.00  0.00     0.010 A 
ATOM     27  C   UNL A   1      37.187  31.712  28.647  1.00  0.00     0.010 A 
ATOM     28  C   UNL A   1      37.401  30.384  29.061  1.00  0.00    -0.014 A 
BRANCH  28  29
ATOM     29  C   UNL A   1      38.573  30.030  29.891  1.00  0.00     0.031 A 
ATOM     30  C   UNL A   1      39.601  29.095  29.326  1.00  0.00     0.074 A 
ATOM     31  C   UNL A   1      38.739  30.571  31.109  1.00  0.00     0.049 A 
ATOM     32  N   UNL A   1      40.619  28.524  29.915  1.00  0.00    -0.248 NA
ATOM     33  C   UNL A   1      39.464  28.762  27.899  1.00  0.00     0.031 C 
ATOM     34  C   UNL A   1      37.863  31.571  31.716  1.00  0.00     0.029 A 
ATOM     35  N   UNL A   1      39.703  30.346  32.060  1.00  0.00    -0.354 N 
ATOM     36  C   UNL A   1      41.221  27.737  28.943  1.00  0.00     0.074 A 
ATOM     37  C   UNL A   1      40.460  27.906  27.724  1.00  0.00     0.031 C 
ATOM     38  C   UNL A   1      38.317  31.861  32.946  1.00  0.00     0.029 A 
ATOM     39  C   UNL A   1      39.479  31.023  33.233  1.00  0.00     0.049 A 
ATOM     40  H   UNL A   1      40.478  29.757  31.914  1.00  0.00     0.167 HD
ATOM     41  C   UNL A   1      42.307  26.939  29.067  1.00  0.00     0.037 A 
ATOM     42  C   UNL A   1      40.115  30.933  34.418  1.00  0.00     0.037 A 
ATOM     43  C   UNL A   1      43.062  26.795  30.282  1.00  0.00     0.049 A 
ATOM     44  C   UNL A   1      41.270  29.977  34.555  1.00  0.00     0.074 A 
ATOM     45  C   UNL A   1      44.167  25.998  30.526  1.00  0.00     0.029 A 
ATOM     46  N   UNL A   1      42.787  27.472  31.463  1.00  0.00    -0.354 N 
ATOM     47  N   UNL A   1      41.806  29.191  33.653  1.00  0.00    -0.248 NA
ATOM     48  C   UNL A   1      41.901  29.885  35.880  1.00  0.00     0.031 C 
ATOM     49  C   UNL A   1      44.537  26.165  31.865  1.00  0.00     0.029 A 
ATOM     50  C   UNL A   1      43.693  27.101  32.442  1.00  0.00     0.049 A 
ATOM     51  H   UNL A   1      42.057  28.120  31.585  1.00  0.00     0.167 HD
ATOM     52  C   UNL A   1      42.851  28.534  34.288  1.00  0.00     0.074 A 
ATOM     53  C   UNL A   1      42.878  29.017  35.654  1.00  0.00     0.031 C 
ATOM     54  C   UNL A   1      43.712  27.615  33.787  1.00  0.00     0.037 A 
BRANCH  41  55
ATOM     55  C   UNL A   1      42.707  26.124  27.874  1.00  0.00     0.064 A 
ATOM     56  C   UNL A   1      42.129  24.876  27.601  1.00  0.00     0.173 A 
ATOM     57  C   UNL A   1      43.672  26.611  26.979  1.00  0.00     0.173 A 
ATOM     58  F   UNL A   1      41.216  24.357  28.435  1.00  0.00    -0.203 F 
ATOM     59  C   UNL A   1      42.521  24.135  26.487  1.00  0.00     0.198 A 
ATOM     60  C   UNL A   1      44.042  25.880  25.855  1.00  0.00     0.198 A 
ATOM     61  F   UNL A   1      44.256  27.800  27.196  1.00  0.00    -0.203 F 
ATOM     62  F   UNL A   1      41.988  22.924  26.270  1.00  0.00    -0.200 F 
ATOM     63  C   UNL A   1      43.471  24.640  25.612  1.00  0.00     0.200 A 
ATOM     64  F   UNL A   1      44.954  26.374  25.007  1.00  0.00    -0.200 F 
ATOM     65  F   UNL A   1      43.844  23.927  24.541  1.00  0.00    -0.200 F 
ENDBRANCH  41  55
BRANCH  42  66
ATOM     66  C   UNL A   1      39.643  31.737  35.575  1.00  0.00     0.064 A 
ATOM     67  C   UNL A   1      40.207  32.986  35.866  1.00  0.00     0.173 A 
ATOM     68  C   UNL A   1      38.622  31.270  36.416  1.00  0.00     0.173 A 
ATOM     69  F   UNL A   1      41.204  33.465  35.108  1.00  0.00    -0.203 F 
ATOM     70  C   UNL A   1      39.776  33.732  36.963  1.00  0.00     0.198 A 
ATOM     71  C   UNL A   1      38.172  32.028  37.494  1.00  0.00     0.198 A 
ATOM     72  F   UNL A   1      38.052  30.079  36.183  1.00  0.00    -0.203 F 
ATOM     73  F   UNL A   1      40.359  34.905  37.244  1.00  0.00    -0.200 F 
ATOM     74  C   UNL A   1      38.754  33.256  37.771  1.00  0.00     0.200 A 
ATOM     75  F   UNL A   1      37.176  31.570  38.265  1.00  0.00    -0.200 F 
ATOM     76  F   UNL A   1      38.335  33.976  38.819  1.00  0.00    -0.200 F 
ENDBRANCH  42  66
BRANCH  54  77
ATOM     77  C   UNL A   1      44.792  27.112  34.699  1.00  0.00     0.064 A 
ATOM     78  C   UNL A   1      46.016  27.782  34.830  1.00  0.00     0.173 A 
ATOM     79  C   UNL A   1      44.568  25.980  35.496  1.00  0.00     0.173 A 
ATOM     80  F   UNL A   1      46.280  28.860  34.078  1.00  0.00    -0.203 F 
ATOM     81  C   UNL A   1      46.986  27.325  35.718  1.00  0.00     0.198 A 
ATOM     82  C   UNL A   1      45.530  25.542  36.401  1.00  0.00     0.198 A 
ATOM     83  F   UNL A   1      43.409  25.310  35.410  1.00  0.00    -0.203 F 
ATOM     84  F   UNL A   1      48.164  27.958  35.804  1.00  0.00    -0.200 F 
ATOM     85  C   UNL A   1      46.739  26.211  36.508  1.00  0.00     0.200 A 
ATOM     86  F   UNL A   1      45.285  24.473  37.172  1.00  0.00    -0.200 F 
ATOM     87  F   UNL A   1      47.670  25.781  37.371  1.00  0.00    -0.200 F 
ENDBRANCH  54  77
ENDBRANCH  28  29
ENDBRANCH  21  23
ENDBRANCH  20  21
ENDBRANCH  19  20
ENDBRANCH   1  19
TORSDOF 13
ENDMDL
MODEL 3
REMARK VINA RESULT:     -11.8      0.170      2.014
REMARK SMILES CC1(C)[C@H](C(=O)OCCOC(=O)c2ccc(-c3c4nc(c(-c5c(F)c(F)c(F)c(F)c5F)c5ccc([nH]5)c(-c5c(F)c(F)c(F)c(F)c5F)c5nc(c(-c6c(F)c(F)c(F)c(F)c6F)c6ccc3[nH]6)C=C5)C=C4)cc2)[C@@H]1C(=O)Nc1ccon1
REMARK SMILES IDX 8 1 7 2 5 3 6 4 4 5 1 6 2 7 3 8 76 9 77 10 78 11 79 12 80 14
REMARK SMILES IDX 81 15 84 16 82 17 83 18 9 19 10 20 11 21 12 22 13 23 14 24
REMARK SMILES IDX 75 25 15 26 74 27 16 28 17 29 18 30 68 31 19 32 73 33 67 34
REMARK SMILES IDX 69 35 20 36 72 37 66 38 65 39 21 41 53 42 33 43 52 44 34 45
REMARK SMILES IDX 37 46 51 47 70 48 35 49 36 50 50 52 71 53 38 54 22 55 23 56
REMARK SMILES IDX 31 57 24 58 25 59 29 60 32 61 26 62 27 63 30 64 28 65 54 66
REMARK SMILES IDX 55 67 63 68 56 69 57 70 61 71 64 72 58 73 59 74 62 75 60 76
REMARK SMILES IDX 39 77 40 78 48 79 41 80 42 81 46 82 49 83 43 84 44 85 47 86
REMARK SMILES IDX 45 87
REMARK H PARENT 79 13 69 40 37 51
REMARK Flexibility Score: inf
ROOT
ATOM      1  C   UNL A   1      32.890  28.379  24.991  1.00  0.00     0.274 C 
ENDROOT
BRANCH   1   2
ATOM      2  O   UNL A   1      32.689  27.374  26.002  1.00  0.00    -0.462 OA
BRANCH   2   3
ATOM      3  C   UNL A   1      31.666  26.517  25.753  1.00  0.00     0.310 C 
ATOM      4  O   UNL A   1      30.562  26.578  26.262  1.00  0.00    -0.252 OA
BRANCH   3   5
ATOM      5  C   UNL A   1      31.928  25.473  24.731  1.00  0.00     0.118 C 
ATOM      6  C   UNL A   1      33.620  24.513  23.090  1.00  0.00     0.013 C 
ATOM      7  C   UNL A   1      33.182  24.658  24.532  1.00  0.00    -0.009 C 
ATOM      8  C   UNL A   1      34.353  24.771  25.478  1.00  0.00     0.013 C 
ATOM      9  C   UNL A   1      31.868  23.989  24.990  1.00  0.00     0.100 C 
BRANCH   9  10
ATOM     10  C   UNL A   1      31.771  23.364  26.332  1.00  0.00     0.230 C 
ATOM     11  O   UNL A   1      31.340  24.035  27.266  1.00  0.00    -0.274 OA
ATOM     12  N   UNL A   1      32.144  22.068  26.546  1.00  0.00    -0.308 N 
ATOM     13  H   UNL A   1      31.861  21.707  27.417  1.00  0.00     0.171 HD
BRANCH  12  14
ATOM     14  C   UNL A   1      32.842  21.177  25.770  1.00  0.00     0.175 A 
ATOM     15  C   UNL A   1      34.232  20.975  25.620  1.00  0.00     0.092 A 
ATOM     16  N   UNL A   1      32.158  20.314  25.009  1.00  0.00    -0.062 NA
ATOM     17  C   UNL A   1      34.335  20.038  24.624  1.00  0.00     0.233 A 
ATOM     18  O   UNL A   1      33.098  19.635  24.258  1.00  0.00    -0.363 OA
ENDBRANCH  12  14
ENDBRANCH   9  10
ENDBRANCH   3   5
ENDBRANCH   2   3
ENDBRANCH   1   2
BRANCH   1  19
ATOM     19  C   UNL A   1      32.470  29.781  25.456  1.00  0.00     0.275 C 
BRANCH  19  20
ATOM     20  O   UNL A   1      32.689  29.995  26.865  1.00  0.00    -0.458 OA
BRANCH  20  21
ATOM     21  C   UNL A   1      33.278  31.171  27.182  1.00  0.00     0.338 C 
ATOM     22  O   UNL A   1      32.765  32.278  27.181  1.00  0.00    -0.246 OA
BRANCH  21  23
ATOM     23  C   UNL A   1      34.636  30.941  27.707  1.00  0.00     0.060 A 
ATOM     24  C   UNL A   1      34.994  29.624  28.014  1.00  0.00     0.016 A 
ATOM     25  C   UNL A   1      35.504  31.991  28.001  1.00  0.00     0.016 A 
ATOM     26  C   UNL A   1      36.216  29.339  28.608  1.00  0.00     0.010 A 
ATOM     27  C   UNL A   1      36.725  31.710  28.626  1.00  0.00     0.010 A 
ATOM     28  C   UNL A   1      37.076  30.384  28.946  1.00  0.00    -0.014 A 
BRANCH  28  29
ATOM     29  C   UNL A   1      38.277  30.096  29.760  1.00  0.00     0.031 A 
ATOM     30  C   UNL A   1      39.336  29.198  29.191  1.00  0.00     0.074 A 
ATOM     31  C   UNL A   1      38.441  30.664  30.967  1.00  0.00     0.049 A 
ATOM     32  N   UNL A   1      40.388  28.683  29.770  1.00  0.00    -0.248 NA
ATOM     33  C   UNL A   1      39.189  28.836  27.773  1.00  0.00     0.031 C 
ATOM     34  C   UNL A   1      37.531  31.635  31.573  1.00  0.00     0.029 A 
ATOM     35  N   UNL A   1      39.430  30.498  31.903  1.00  0.00    -0.354 N 
ATOM     36  C   UNL A   1      41.007  27.907  28.800  1.00  0.00     0.074 A 
ATOM     37  C   UNL A   1      40.218  28.022  27.593  1.00  0.00     0.031 C 
ATOM     38  C   UNL A   1      37.994  31.964  32.791  1.00  0.00     0.029 A 
ATOM     39  C   UNL A   1      39.198  31.183  33.070  1.00  0.00     0.049 A 
ATOM     40  H   UNL A   1      40.228  29.941  31.752  1.00  0.00     0.167 HD
ATOM     41  C   UNL A   1      42.130  27.161  28.917  1.00  0.00     0.037 A 
ATOM     42  C   UNL A   1      39.857  31.142  34.243  1.00  0.00     0.037 A 
ATOM     43  C   UNL A   1      42.912  27.070  30.120  1.00  0.00     0.049 A 
ATOM     44  C   UNL A   1      41.056  30.240  34.375  1.00  0.00     0.074 A 
ATOM     45  C   UNL A   1      44.055  26.326  30.356  1.00  0.00     0.029 A 
ATOM     46  N   UNL A   1      42.628  27.753  31.294  1.00  0.00    -0.354 N 
ATOM     47  N   UNL A   1      41.610  29.464  33.475  1.00  0.00    -0.248 NA
ATOM     48  C   UNL A   1      41.714  30.197  35.689  1.00  0.00     0.031 C 
ATOM     49  C   UNL A   1      44.442  26.532  31.685  1.00  0.00     0.029 A 
ATOM     50  C   UNL A   1      43.567  27.440  32.262  1.00  0.00     0.049 A 
ATOM     51  H   UNL A   1      41.872  28.370  31.420  1.00  0.00     0.167 HD
ATOM     52  C   UNL A   1      42.695  28.865  34.101  1.00  0.00     0.074 A 
ATOM     53  C   UNL A   1      42.724  29.371  35.458  1.00  0.00     0.031 C 
ATOM     54  C   UNL A   1      43.587  27.976  33.599  1.00  0.00     0.037 A 
BRANCH  41  55
ATOM     55  C   UNL A   1      42.544  26.344  27.729  1.00  0.00     0.064 A 
ATOM     56  C   UNL A   1      43.507  26.798  26.816  1.00  0.00     0.173 A 
ATOM     57  C   UNL A   1      41.980  25.078  27.514  1.00  0.00     0.173 A 
ATOM     58  F   UNL A   1      44.062  28.010  26.967  1.00  0.00    -0.203 F 
ATOM     59  C   UNL A   1      43.872  26.023  25.717  1.00  0.00     0.198 A 
ATOM     60  C   UNL A   1      42.367  24.295  26.430  1.00  0.00     0.198 A 
ATOM     61  F   UNL A   1      41.054  24.598  28.358  1.00  0.00    -0.203 F 
ATOM     62  F   UNL A   1      44.762  26.495  24.832  1.00  0.00    -0.200 F 
ATOM     63  C   UNL A   1      43.307  24.770  25.529  1.00  0.00     0.200 A 
ATOM     64  F   UNL A   1      41.825  23.082  26.255  1.00  0.00    -0.200 F 
ATOM     65  F   UNL A   1      43.663  24.024  24.474  1.00  0.00    -0.200 F 
ENDBRANCH  41  55
BRANCH  42  66
ATOM     66  C   UNL A   1      39.371  31.943  35.396  1.00  0.00     0.064 A 
ATOM     67  C   UNL A   1      38.511  31.387  36.353  1.00  0.00     0.173 A 
ATOM     68  C   UNL A   1      39.751  33.283  35.561  1.00  0.00     0.173 A 
ATOM     69  F   UNL A   1      38.098  30.118  36.225  1.00  0.00    -0.203 F 
ATOM     70  C   UNL A   1      38.041  32.145  37.425  1.00  0.00     0.198 A 
ATOM     71  C   UNL A   1      39.303  34.031  36.648  1.00  0.00     0.198 A 
ATOM     72  F   UNL A   1      40.569  33.865  34.671  1.00  0.00    -0.203 F 
ATOM     73  F   UNL A   1      37.188  31.602  38.303  1.00  0.00    -0.200 F 
ATOM     74  C   UNL A   1      38.444  33.464  37.575  1.00  0.00     0.200 A 
ATOM     75  F   UNL A   1      39.706  35.302  36.796  1.00  0.00    -0.200 F 
ATOM     76  F   UNL A   1      37.998  34.189  38.609  1.00  0.00    -0.200 F 
ENDBRANCH  42  66
BRANCH  54  77
ATOM     77  C   UNL A   1      44.704  27.537  34.499  1.00  0.00     0.064 A 
ATOM     78  C   UNL A   1      45.899  28.261  34.596  1.00  0.00     0.173 A 
ATOM     79  C   UNL A   1      44.545  26.409  35.318  1.00  0.00     0.173 A 
ATOM     80  F   UNL A   1      46.102  29.337  33.821  1.00  0.00    -0.203 F 
ATOM     81  C   UNL A   1      46.905  27.862  35.473  1.00  0.00     0.198 A 
ATOM     82  C   UNL A   1      45.541  26.029  36.212  1.00  0.00     0.198 A 
ATOM     83  F   UNL A   1      43.415  25.688  35.265  1.00  0.00    -0.203 F 
ATOM     84  F   UNL A   1      48.054  28.548  35.527  1.00  0.00    -0.200 F 
ATOM     85  C   UNL A   1      46.721  26.753  36.286  1.00  0.00     0.200 A 
ATOM     86  F   UNL A   1      45.357  24.965  37.005  1.00  0.00    -0.200 F 
ATOM     87  F   UNL A   1      47.686  26.379  37.138  1.00  0.00    -0.200 F 
ENDBRANCH  54  77
ENDBRANCH  28  29
ENDBRANCH  21  23
ENDBRANCH  20  21
ENDBRANCH  19  20
ENDBRANCH   1  19
TORSDOF 13
ENDMDL
