MODEL 1
REMARK VINA RESULT:     -12.4      0.000      0.000
REMARK SMILES COc1ccccc1-n1nnc(C(=O)OCCOC(=O)c2ccc(-c3c4nc(c(-c5c(F)c(F)c(F)c(F)c5F)c5ccc([nH]5)c(-c5c(F)c(F)c(F)c(F)c5F)c5nc(c(-c6c(F)c(F)c(F)c(F)c6F)c6ccc3[nH]6)C=C5)C=C4)cc2)c1-c1ccc(Cl)cc1
REMARK SMILES IDX 16 1 15 2 13 3 14 4 12 5 9 6 10 7 84 8 11 9 8 10 3 11 4 12
REMARK SMILES IDX 5 13 7 14 6 15 2 16 1 17 85 18 86 19 91 20 87 21 90 22 88 23
REMARK SMILES IDX 89 24 17 25 18 26 19 27 20 28 21 29 22 30 83 31 23 32 82 33
REMARK SMILES IDX 24 34 25 35 26 36 76 37 27 38 81 39 75 40 77 41 28 42 80 43
REMARK SMILES IDX 74 44 73 45 29 47 61 48 41 49 60 50 42 51 45 52 59 53 78 54
REMARK SMILES IDX 43 55 44 56 58 58 79 59 46 60 30 61 31 62 39 63 32 64 33 65
REMARK SMILES IDX 37 66 40 67 34 68 35 69 38 70 36 71 62 72 63 73 71 74 64 75
REMARK SMILES IDX 65 76 69 77 72 78 66 79 67 80 70 81 68 82 47 83 48 84 56 85
REMARK SMILES IDX 49 86 50 87 54 88 57 89 51 90 52 91 55 92 53 93
REMARK H PARENT 77 46 45 57
REMARK Flexibility Score: inf
ROOT
ATOM      1  C   UNL A   1      37.807  19.956  25.001  1.00  0.00     0.275 C 
ENDROOT
BRANCH   1   2
ATOM      2  O   UNL A   1      36.841  20.880  25.506  1.00  0.00    -0.457 OA
BRANCH   2   3
ATOM      3  C   UNL A   1      35.605  20.968  24.925  1.00  0.00     0.361 C 
ATOM      4  O   UNL A   1      34.793  20.067  24.901  1.00  0.00    -0.244 OA
BRANCH   3   5
ATOM      5  C   UNL A   1      35.383  22.308  24.379  1.00  0.00     0.198 A 
ATOM      6  N   UNL A   1      34.634  24.294  23.909  1.00  0.00    -0.208 N 
ATOM      7  N   UNL A   1      35.716  24.074  23.126  1.00  0.00    -0.061 NA
ATOM      8  C   UNL A   1      34.294  23.140  24.595  1.00  0.00     0.109 A 
ATOM      9  N   UNL A   1      36.238  22.905  23.481  1.00  0.00    -0.122 NA
BRANCH   6  10
ATOM     10  C   UNL A   1      34.068  25.578  24.031  1.00  0.00     0.109 A 
ATOM     11  C   UNL A   1      33.693  26.314  22.897  1.00  0.00     0.144 A 
ATOM     12  C   UNL A   1      33.380  27.666  23.036  1.00  0.00     0.049 A 
ATOM     13  C   UNL A   1      33.376  28.263  24.297  1.00  0.00     0.004 A 
ATOM     14  C   UNL A   1      33.991  26.153  25.308  1.00  0.00     0.032 A 
ATOM     15  C   UNL A   1      33.660  27.504  25.432  1.00  0.00     0.003 A 
BRANCH  11  16
ATOM     16  O   UNL A   1      33.652  25.834  21.615  1.00  0.00    -0.494 OA
ATOM     17  C   UNL A   1      32.334  25.624  21.107  1.00  0.00     0.278 C 
ENDBRANCH  11  16
ENDBRANCH   6  10
BRANCH   8  18
ATOM     18  C   UNL A   1      33.058  22.934  25.352  1.00  0.00     0.003 A 
ATOM     19  C   UNL A   1      31.856  22.685  24.674  1.00  0.00     0.012 A 
ATOM     20  C   UNL A   1      33.043  23.041  26.748  1.00  0.00     0.012 A 
ATOM     21  C   UNL A   1      30.651  22.596  25.366  1.00  0.00     0.021 A 
ATOM     22  C   UNL A   1      31.837  22.927  27.447  1.00  0.00     0.021 A 
ATOM     23  C   UNL A   1      30.647  22.720  26.752  1.00  0.00     0.041 A 
ATOM     24  Cl  UNL A   1      29.157  22.630  27.604  1.00  0.00    -0.084 Cl
ENDBRANCH   8  18
ENDBRANCH   3   5
ENDBRANCH   2   3
ENDBRANCH   1   2
BRANCH   1  25
ATOM     25  C   UNL A   1      39.140  20.202  25.679  1.00  0.00     0.275 C 
BRANCH  25  26
ATOM     26  O   UNL A   1      39.290  21.597  25.911  1.00  0.00    -0.458 OA
BRANCH  26  27
ATOM     27  C   UNL A   1      40.543  22.030  26.168  1.00  0.00     0.338 C 
ATOM     28  O   UNL A   1      41.594  21.516  25.826  1.00  0.00    -0.246 OA
BRANCH  27  29
ATOM     29  C   UNL A   1      40.444  23.117  27.143  1.00  0.00     0.060 A 
ATOM     30  C   UNL A   1      39.453  24.078  26.937  1.00  0.00     0.016 A 
ATOM     31  C   UNL A   1      41.524  23.324  28.014  1.00  0.00     0.016 A 
ATOM     32  C   UNL A   1      39.664  25.337  27.452  1.00  0.00     0.010 A 
ATOM     33  C   UNL A   1      41.751  24.585  28.492  1.00  0.00     0.010 A 
ATOM     34  C   UNL A   1      40.857  25.590  28.141  1.00  0.00    -0.014 A 
BRANCH  34  35
ATOM     35  C   UNL A   1      41.086  26.914  28.670  1.00  0.00     0.031 A 
ATOM     36  C   UNL A   1      42.294  27.531  28.078  1.00  0.00     0.074 A 
ATOM     37  C   UNL A   1      40.200  27.527  29.478  1.00  0.00     0.049 A 
ATOM     38  N   UNL A   1      43.386  27.851  28.685  1.00  0.00    -0.248 NA
ATOM     39  C   UNL A   1      42.379  27.613  26.607  1.00  0.00     0.031 C 
ATOM     40  C   UNL A   1      38.858  27.080  29.864  1.00  0.00     0.029 A 
ATOM     41  N   UNL A   1      40.286  28.752  30.059  1.00  0.00    -0.354 N 
ATOM     42  C   UNL A   1      44.218  28.371  27.701  1.00  0.00     0.074 A 
ATOM     43  C   UNL A   1      43.640  28.009  26.438  1.00  0.00     0.031 C 
ATOM     44  C   UNL A   1      38.182  28.116  30.416  1.00  0.00     0.029 A 
ATOM     45  C   UNL A   1      39.080  29.252  30.540  1.00  0.00     0.049 A 
ATOM     46  H   UNL A   1      41.133  29.247  30.133  1.00  0.00     0.167 HD
ATOM     47  C   UNL A   1      45.143  29.314  28.022  1.00  0.00     0.037 A 
ATOM     48  C   UNL A   1      38.855  30.536  30.925  1.00  0.00     0.037 A 
ATOM     49  C   UNL A   1      45.445  29.267  29.432  1.00  0.00     0.049 A 
ATOM     50  C   UNL A   1      40.185  31.157  31.164  1.00  0.00     0.074 A 
ATOM     51  C   UNL A   1      45.953  28.302  30.281  1.00  0.00     0.029 A 
ATOM     52  N   UNL A   1      44.845  30.199  30.241  1.00  0.00    -0.354 N 
ATOM     53  N   UNL A   1      40.973  30.826  32.149  1.00  0.00    -0.248 NA
ATOM     54  C   UNL A   1      40.834  31.804  30.033  1.00  0.00     0.031 C 
ATOM     55  C   UNL A   1      45.228  28.460  31.500  1.00  0.00     0.029 A 
ATOM     56  C   UNL A   1      44.377  29.556  31.356  1.00  0.00     0.049 A 
ATOM     57  H   UNL A   1      44.765  31.163  30.053  1.00  0.00     0.167 HD
ATOM     58  C   UNL A   1      42.242  30.809  31.590  1.00  0.00     0.074 A 
ATOM     59  C   UNL A   1      42.103  31.488  30.302  1.00  0.00     0.031 C 
ATOM     60  C   UNL A   1      43.212  29.988  32.087  1.00  0.00     0.037 A 
BRANCH  47  61
ATOM     61  C   UNL A   1      45.407  30.538  27.174  1.00  0.00     0.064 A 
ATOM     62  C   UNL A   1      46.744  30.918  26.948  1.00  0.00     0.173 A 
ATOM     63  C   UNL A   1      44.439  31.519  26.855  1.00  0.00     0.173 A 
ATOM     64  F   UNL A   1      47.750  30.072  27.220  1.00  0.00    -0.203 F 
ATOM     65  C   UNL A   1      47.087  32.211  26.545  1.00  0.00     0.198 A 
ATOM     66  C   UNL A   1      44.783  32.790  26.403  1.00  0.00     0.198 A 
ATOM     67  F   UNL A   1      43.130  31.344  27.067  1.00  0.00    -0.203 F 
ATOM     68  F   UNL A   1      48.377  32.565  26.486  1.00  0.00    -0.200 F 
ATOM     69  C   UNL A   1      46.107  33.149  26.284  1.00  0.00     0.200 A 
ATOM     70  F   UNL A   1      43.816  33.689  26.172  1.00  0.00    -0.200 F 
ATOM     71  F   UNL A   1      46.433  34.408  25.968  1.00  0.00    -0.200 F 
ENDBRANCH  47  61
BRANCH  48  72
ATOM     72  C   UNL A   1      37.638  31.372  30.760  1.00  0.00     0.064 A 
ATOM     73  C   UNL A   1      37.053  32.009  31.870  1.00  0.00     0.173 A 
ATOM     74  C   UNL A   1      37.214  31.816  29.494  1.00  0.00     0.173 A 
ATOM     75  F   UNL A   1      37.426  31.673  33.114  1.00  0.00    -0.203 F 
ATOM     76  C   UNL A   1      36.140  33.059  31.722  1.00  0.00     0.198 A 
ATOM     77  C   UNL A   1      36.297  32.860  29.347  1.00  0.00     0.198 A 
ATOM     78  F   UNL A   1      37.755  31.320  28.372  1.00  0.00    -0.203 F 
ATOM     79  F   UNL A   1      35.667  33.691  32.805  1.00  0.00    -0.200 F 
ATOM     80  C   UNL A   1      35.776  33.493  30.460  1.00  0.00     0.200 A 
ATOM     81  F   UNL A   1      35.977  33.296  28.120  1.00  0.00    -0.200 F 
ATOM     82  F   UNL A   1      34.958  34.547  30.315  1.00  0.00    -0.200 F 
ENDBRANCH  48  72
BRANCH  60  83
ATOM     83  C   UNL A   1      42.955  29.325  33.411  1.00  0.00     0.064 A 
ATOM     84  C   UNL A   1      43.218  29.911  34.662  1.00  0.00     0.173 A 
ATOM     85  C   UNL A   1      42.291  28.092  33.404  1.00  0.00     0.173 A 
ATOM     86  F   UNL A   1      43.764  31.131  34.753  1.00  0.00    -0.203 F 
ATOM     87  C   UNL A   1      42.866  29.268  35.848  1.00  0.00     0.198 A 
ATOM     88  C   UNL A   1      41.905  27.471  34.586  1.00  0.00     0.198 A 
ATOM     89  F   UNL A   1      41.971  27.510  32.236  1.00  0.00    -0.203 F 
ATOM     90  F   UNL A   1      43.138  29.838  37.031  1.00  0.00    -0.200 F 
ATOM     91  C   UNL A   1      42.202  28.052  35.807  1.00  0.00     0.200 A 
ATOM     92  F   UNL A   1      41.221  26.320  34.539  1.00  0.00    -0.200 F 
ATOM     93  F   UNL A   1      41.826  27.451  36.945  1.00  0.00    -0.200 F 
ENDBRANCH  60  83
ENDBRANCH  34  35
ENDBRANCH  27  29
ENDBRANCH  26  27
ENDBRANCH  25  26
ENDBRANCH   1  25
TORSDOF 14
ENDMDL
MODEL 2
REMARK VINA RESULT:     -12.3      3.156      8.482
REMARK SMILES COc1ccccc1-n1nnc(C(=O)OCCOC(=O)c2ccc(-c3c4nc(c(-c5c(F)c(F)c(F)c(F)c5F)c5ccc([nH]5)c(-c5c(F)c(F)c(F)c(F)c5F)c5nc(c(-c6c(F)c(F)c(F)c(F)c6F)c6ccc3[nH]6)C=C5)C=C4)cc2)c1-c1ccc(Cl)cc1
REMARK SMILES IDX 16 1 15 2 13 3 14 4 12 5 9 6 10 7 84 8 11 9 8 10 3 11 4 12
REMARK SMILES IDX 5 13 7 14 6 15 2 16 1 17 85 18 86 19 91 20 87 21 90 22 88 23
REMARK SMILES IDX 89 24 17 25 18 26 19 27 20 28 21 29 22 30 83 31 23 32 82 33
REMARK SMILES IDX 24 34 25 35 26 36 76 37 27 38 81 39 75 40 77 41 28 42 80 43
REMARK SMILES IDX 74 44 73 45 29 47 61 48 41 49 60 50 42 51 45 52 59 53 78 54
REMARK SMILES IDX 43 55 44 56 58 58 79 59 46 60 30 61 31 62 39 63 32 64 33 65
REMARK SMILES IDX 37 66 40 67 34 68 35 69 38 70 36 71 62 72 63 73 71 74 64 75
REMARK SMILES IDX 65 76 69 77 72 78 66 79 67 80 70 81 68 82 47 83 48 84 56 85
REMARK SMILES IDX 49 86 50 87 54 88 57 89 51 90 52 91 55 92 53 93
REMARK H PARENT 77 46 45 57
REMARK Flexibility Score: inf
ROOT
ATOM      1  C   UNL A   1      34.028  28.220  26.511  1.00  0.00     0.275 C 
ENDROOT
BRANCH   1   2
ATOM      2  O   UNL A   1      33.068  27.754  25.560  1.00  0.00    -0.457 OA
BRANCH   2   3
ATOM      3  C   UNL A   1      33.471  27.361  24.313  1.00  0.00     0.361 C 
ATOM      4  O   UNL A   1      34.291  27.950  23.640  1.00  0.00    -0.244 OA
BRANCH   3   5
ATOM      5  C   UNL A   1      32.813  26.113  23.924  1.00  0.00     0.198 A 
ATOM      6  N   UNL A   1      32.270  24.036  23.580  1.00  0.00    -0.208 N 
ATOM      7  N   UNL A   1      31.294  24.804  23.041  1.00  0.00    -0.061 NA
ATOM      8  C   UNL A   1      33.326  24.826  24.001  1.00  0.00     0.109 A 
ATOM      9  N   UNL A   1      31.569  26.070  23.338  1.00  0.00    -0.122 NA
BRANCH   6  10
ATOM     10  C   UNL A   1      32.098  22.648  23.748  1.00  0.00     0.109 A 
ATOM     11  C   UNL A   1      32.017  22.079  25.028  1.00  0.00     0.144 A 
ATOM     12  C   UNL A   1      32.105  20.694  25.164  1.00  0.00     0.049 A 
ATOM     13  C   UNL A   1      32.206  19.880  24.036  1.00  0.00     0.004 A 
ATOM     14  C   UNL A   1      32.123  21.832  22.608  1.00  0.00     0.032 A 
ATOM     15  C   UNL A   1      32.194  20.446  22.760  1.00  0.00     0.003 A 
BRANCH  11  16
ATOM     16  O   UNL A   1      31.906  22.775  26.203  1.00  0.00    -0.494 OA
ATOM     17  C   UNL A   1      30.563  22.973  26.647  1.00  0.00     0.278 C 
ENDBRANCH  11  16
ENDBRANCH   6  10
BRANCH   8  18
ATOM     18  C   UNL A   1      34.640  24.335  24.420  1.00  0.00     0.003 A 
ATOM     19  C   UNL A   1      35.462  23.666  23.500  1.00  0.00     0.012 A 
ATOM     20  C   UNL A   1      35.069  24.469  25.746  1.00  0.00     0.012 A 
ATOM     21  C   UNL A   1      36.666  23.094  23.904  1.00  0.00     0.021 A 
ATOM     22  C   UNL A   1      36.290  23.917  26.146  1.00  0.00     0.021 A 
ATOM     23  C   UNL A   1      37.074  23.221  25.227  1.00  0.00     0.041 A 
ATOM     24  Cl  UNL A   1      38.551  22.498  25.729  1.00  0.00    -0.084 Cl
ENDBRANCH   8  18
ENDBRANCH   3   5
ENDBRANCH   2   3
ENDBRANCH   1   2
BRANCH   1  25
ATOM     25  C   UNL A   1      33.930  29.728  26.628  1.00  0.00     0.275 C 
BRANCH  25  26
ATOM     26  O   UNL A   1      34.226  30.108  27.966  1.00  0.00    -0.458 OA
BRANCH  26  27
ATOM     27  C   UNL A   1      35.058  31.160  28.119  1.00  0.00     0.338 C 
ATOM     28  O   UNL A   1      34.970  32.260  27.603  1.00  0.00    -0.246 OA
BRANCH  27  29
ATOM     29  C   UNL A   1      36.240  30.688  28.841  1.00  0.00     0.060 A 
ATOM     30  C   UNL A   1      37.378  31.495  28.811  1.00  0.00     0.016 A 
ATOM     31  C   UNL A   1      36.284  29.340  29.228  1.00  0.00     0.016 A 
ATOM     32  C   UNL A   1      38.602  30.885  28.971  1.00  0.00     0.010 A 
ATOM     33  C   UNL A   1      37.501  28.728  29.347  1.00  0.00     0.010 A 
ATOM     34  C   UNL A   1      38.642  29.494  29.143  1.00  0.00    -0.014 A 
BRANCH  34  35
ATOM     35  C   UNL A   1      39.926  28.851  29.297  1.00  0.00     0.031 A 
ATOM     36  C   UNL A   1      40.247  28.623  30.724  1.00  0.00     0.074 A 
ATOM     37  C   UNL A   1      40.632  28.397  28.245  1.00  0.00     0.049 A 
ATOM     38  N   UNL A   1      41.206  29.153  31.405  1.00  0.00    -0.248 NA
ATOM     39  C   UNL A   1      39.269  27.879  31.542  1.00  0.00     0.031 C 
ATOM     40  C   UNL A   1      40.231  28.338  26.836  1.00  0.00     0.029 A 
ATOM     41  N   UNL A   1      41.849  27.791  28.235  1.00  0.00    -0.354 N 
ATOM     42  C   UNL A   1      41.074  28.641  32.690  1.00  0.00     0.074 A 
ATOM     43  C   UNL A   1      39.770  28.046  32.766  1.00  0.00     0.031 C 
ATOM     44  C   UNL A   1      41.083  27.530  26.161  1.00  0.00     0.029 A 
ATOM     45  C   UNL A   1      42.154  27.123  27.054  1.00  0.00     0.049 A 
ATOM     46  H   UNL A   1      42.463  27.823  29.003  1.00  0.00     0.167 HD
ATOM     47  C   UNL A   1      42.172  28.489  33.476  1.00  0.00     0.037 A 
ATOM     48  C   UNL A   1      43.176  26.243  26.888  1.00  0.00     0.037 A 
ATOM     49  C   UNL A   1      43.241  29.344  33.023  1.00  0.00     0.049 A 
ATOM     50  C   UNL A   1      44.131  26.469  28.005  1.00  0.00     0.074 A 
ATOM     51  C   UNL A   1      43.389  30.709  32.870  1.00  0.00     0.029 A 
ATOM     52  N   UNL A   1      44.235  28.773  32.267  1.00  0.00    -0.354 N 
ATOM     53  N   UNL A   1      44.860  27.543  28.129  1.00  0.00    -0.248 NA
ATOM     54  C   UNL A   1      43.921  25.710  29.229  1.00  0.00     0.031 C 
ATOM     55  C   UNL A   1      44.150  30.870  31.673  1.00  0.00     0.029 A 
ATOM     56  C   UNL A   1      44.489  29.600  31.205  1.00  0.00     0.049 A 
ATOM     57  H   UNL A   1      44.686  27.918  32.456  1.00  0.00     0.167 HD
ATOM     58  C   UNL A   1      44.821  27.836  29.484  1.00  0.00     0.074 A 
ATOM     59  C   UNL A   1      44.287  26.634  30.121  1.00  0.00     0.031 C 
ATOM     60  C   UNL A   1      44.944  29.123  29.923  1.00  0.00     0.037 A 
BRANCH  47  61
ATOM     61  C   UNL A   1      42.416  27.263  34.329  1.00  0.00     0.064 A 
ATOM     62  C   UNL A   1      42.200  27.363  35.717  1.00  0.00     0.173 A 
ATOM     63  C   UNL A   1      43.146  26.126  33.912  1.00  0.00     0.173 A 
ATOM     64  F   UNL A   1      41.525  28.403  36.231  1.00  0.00    -0.203 F 
ATOM     65  C   UNL A   1      42.765  26.459  36.620  1.00  0.00     0.198 A 
ATOM     66  C   UNL A   1      43.664  25.198  34.812  1.00  0.00     0.198 A 
ATOM     67  F   UNL A   1      43.492  25.911  32.638  1.00  0.00    -0.203 F 
ATOM     68  F   UNL A   1      42.653  26.680  37.936  1.00  0.00    -0.200 F 
ATOM     69  C   UNL A   1      43.506  25.384  36.167  1.00  0.00     0.200 A 
ATOM     70  F   UNL A   1      44.393  24.173  34.351  1.00  0.00    -0.200 F 
ATOM     71  F   UNL A   1      44.109  24.558  37.031  1.00  0.00    -0.200 F 
ENDBRANCH  47  61
BRANCH  48  72
ATOM     72  C   UNL A   1      43.229  24.999  26.075  1.00  0.00     0.064 A 
ATOM     73  C   UNL A   1      44.294  24.773  25.184  1.00  0.00     0.173 A 
ATOM     74  C   UNL A   1      42.425  23.885  26.379  1.00  0.00     0.173 A 
ATOM     75  F   UNL A   1      45.132  25.772  24.868  1.00  0.00    -0.203 F 
ATOM     76  C   UNL A   1      44.568  23.502  24.670  1.00  0.00     0.198 A 
ATOM     77  C   UNL A   1      42.696  22.616  25.859  1.00  0.00     0.198 A 
ATOM     78  F   UNL A   1      41.425  23.978  27.266  1.00  0.00    -0.203 F 
ATOM     79  F   UNL A   1      45.639  23.314  23.886  1.00  0.00    -0.200 F 
ATOM     80  C   UNL A   1      43.777  22.421  25.021  1.00  0.00     0.200 A 
ATOM     81  F   UNL A   1      41.944  21.571  26.234  1.00  0.00    -0.200 F 
ATOM     82  F   UNL A   1      44.081  21.189  24.588  1.00  0.00    -0.200 F 
ENDBRANCH  48  72
BRANCH  60  83
ATOM     83  C   UNL A   1      45.398  30.159  28.934  1.00  0.00     0.064 A 
ATOM     84  C   UNL A   1      44.551  30.829  28.034  1.00  0.00     0.173 A 
ATOM     85  C   UNL A   1      46.732  30.581  28.999  1.00  0.00     0.173 A 
ATOM     86  F   UNL A   1      43.242  30.549  27.978  1.00  0.00    -0.203 F 
ATOM     87  C   UNL A   1      45.033  31.845  27.210  1.00  0.00     0.198 A 
ATOM     88  C   UNL A   1      47.201  31.622  28.206  1.00  0.00     0.198 A 
ATOM     89  F   UNL A   1      47.574  30.009  29.876  1.00  0.00    -0.203 F 
ATOM     90  F   UNL A   1      44.210  32.462  26.349  1.00  0.00    -0.200 F 
ATOM     91  C   UNL A   1      46.356  32.246  27.304  1.00  0.00     0.200 A 
ATOM     92  F   UNL A   1      48.469  32.036  28.335  1.00  0.00    -0.200 F 
ATOM     93  F   UNL A   1      46.812  33.250  26.542  1.00  0.00    -0.200 F 
ENDBRANCH  60  83
ENDBRANCH  34  35
ENDBRANCH  27  29
ENDBRANCH  26  27
ENDBRANCH  25  26
ENDBRANCH   1  25
TORSDOF 14
ENDMDL
MODEL 3
REMARK VINA RESULT:     -12.1      3.402      8.566
REMARK SMILES COc1ccccc1-n1nnc(C(=O)OCCOC(=O)c2ccc(-c3c4nc(c(-c5c(F)c(F)c(F)c(F)c5F)c5ccc([nH]5)c(-c5c(F)c(F)c(F)c(F)c5F)c5nc(c(-c6c(F)c(F)c(F)c(F)c6F)c6ccc3[nH]6)C=C5)C=C4)cc2)c1-c1ccc(Cl)cc1
REMARK SMILES IDX 16 1 15 2 13 3 14 4 12 5 9 6 10 7 84 8 11 9 8 10 3 11 4 12
REMARK SMILES IDX 5 13 7 14 6 15 2 16 1 17 85 18 86 19 91 20 87 21 90 22 88 23
REMARK SMILES IDX 89 24 17 25 18 26 19 27 20 28 21 29 22 30 83 31 23 32 82 33
REMARK SMILES IDX 24 34 25 35 26 36 76 37 27 38 81 39 75 40 77 41 28 42 80 43
REMARK SMILES IDX 74 44 73 45 29 47 61 48 41 49 60 50 42 51 45 52 59 53 78 54
REMARK SMILES IDX 43 55 44 56 58 58 79 59 46 60 30 61 31 62 39 63 32 64 33 65
REMARK SMILES IDX 37 66 40 67 34 68 35 69 38 70 36 71 62 72 63 73 71 74 64 75
REMARK SMILES IDX 65 76 69 77 72 78 66 79 67 80 70 81 68 82 47 83 48 84 56 85
REMARK SMILES IDX 49 86 50 87 54 88 57 89 51 90 52 91 55 92 53 93
REMARK H PARENT 77 46 45 57
REMARK Flexibility Score: inf
ROOT
ATOM      1  C   UNL A   1      33.403  30.428  26.880  1.00  0.00     0.275 C 
ENDROOT
BRANCH   1   2
ATOM      2  O   UNL A   1      32.083  30.582  26.353  1.00  0.00    -0.457 OA
BRANCH   2   3
ATOM      3  C   UNL A   1      31.565  29.637  25.510  1.00  0.00     0.361 C 
ATOM      4  O   UNL A   1      31.105  29.875  24.413  1.00  0.00    -0.244 OA
BRANCH   3   5
ATOM      5  C   UNL A   1      31.683  28.300  26.094  1.00  0.00     0.198 A 
ATOM      6  N   UNL A   1      32.017  26.183  26.460  1.00  0.00    -0.208 N 
ATOM      7  N   UNL A   1      31.581  26.731  27.619  1.00  0.00    -0.061 NA
ATOM      8  C   UNL A   1      31.938  27.107  25.432  1.00  0.00     0.109 A 
ATOM      9  N   UNL A   1      31.472  28.042  27.429  1.00  0.00    -0.122 NA
BRANCH   6  10
ATOM     10  C   UNL A   1      32.562  24.885  26.425  1.00  0.00     0.109 A 
ATOM     11  C   UNL A   1      31.826  23.779  26.875  1.00  0.00     0.144 A 
ATOM     12  C   UNL A   1      32.477  22.560  27.066  1.00  0.00     0.049 A 
ATOM     13  C   UNL A   1      33.829  22.426  26.750  1.00  0.00     0.004 A 
ATOM     14  C   UNL A   1      33.901  24.736  26.035  1.00  0.00     0.032 A 
ATOM     15  C   UNL A   1      34.534  23.505  26.216  1.00  0.00     0.003 A 
BRANCH  11  16
ATOM     16  O   UNL A   1      30.497  23.789  27.206  1.00  0.00    -0.494 OA
ATOM     17  C   UNL A   1      29.794  22.596  26.856  1.00  0.00     0.278 C 
ENDBRANCH  11  16
ENDBRANCH   6  10
BRANCH   8  18
ATOM     18  C   UNL A   1      32.106  26.811  24.009  1.00  0.00     0.003 A 
ATOM     19  C   UNL A   1      31.063  26.202  23.293  1.00  0.00     0.012 A 
ATOM     20  C   UNL A   1      33.318  27.070  23.357  1.00  0.00     0.012 A 
ATOM     21  C   UNL A   1      31.240  25.811  21.969  1.00  0.00     0.021 A 
ATOM     22  C   UNL A   1      33.487  26.701  22.019  1.00  0.00     0.021 A 
ATOM     23  C   UNL A   1      32.454  26.061  21.338  1.00  0.00     0.041 A 
ATOM     24  Cl  UNL A   1      32.678  25.559  19.709  1.00  0.00    -0.084 Cl
ENDBRANCH   8  18
ENDBRANCH   3   5
ENDBRANCH   2   3
ENDBRANCH   1   2
BRANCH   1  25
ATOM     25  C   UNL A   1      33.800  31.689  27.619  1.00  0.00     0.275 C 
BRANCH  25  26
ATOM     26  O   UNL A   1      35.047  31.472  28.267  1.00  0.00    -0.458 OA
BRANCH  26  27
ATOM     27  C   UNL A   1      35.117  31.832  29.567  1.00  0.00     0.338 C 
ATOM     28  O   UNL A   1      34.418  32.640  30.155  1.00  0.00    -0.246 OA
BRANCH  27  29
ATOM     29  C   UNL A   1      36.342  31.255  30.120  1.00  0.00     0.060 A 
ATOM     30  C   UNL A   1      37.483  32.059  30.135  1.00  0.00     0.016 A 
ATOM     31  C   UNL A   1      36.400  29.863  30.289  1.00  0.00     0.016 A 
ATOM     32  C   UNL A   1      38.709  31.433  30.111  1.00  0.00     0.010 A 
ATOM     33  C   UNL A   1      37.616  29.243  30.224  1.00  0.00     0.010 A 
ATOM     34  C   UNL A   1      38.748  30.033  30.061  1.00  0.00    -0.014 A 
BRANCH  34  35
ATOM     35  C   UNL A   1      40.033  29.376  30.021  1.00  0.00     0.031 A 
ATOM     36  C   UNL A   1      40.610  29.237  31.377  1.00  0.00     0.074 A 
ATOM     37  C   UNL A   1      40.529  28.837  28.891  1.00  0.00     0.049 A 
ATOM     38  N   UNL A   1      41.682  29.792  31.832  1.00  0.00    -0.248 NA
ATOM     39  C   UNL A   1      39.795  28.570  32.411  1.00  0.00     0.031 C 
ATOM     40  C   UNL A   1      39.875  28.692  27.588  1.00  0.00     0.029 A 
ATOM     41  N   UNL A   1      41.718  28.208  28.701  1.00  0.00    -0.354 N 
ATOM     42  C   UNL A   1      41.786  29.370  33.152  1.00  0.00     0.074 A 
ATOM     43  C   UNL A   1      40.514  28.808  33.507  1.00  0.00     0.031 C 
ATOM     44  C   UNL A   1      40.581  27.823  26.825  1.00  0.00     0.029 A 
ATOM     45  C   UNL A   1      41.796  27.456  27.533  1.00  0.00     0.049 A 
ATOM     46  H   UNL A   1      42.465  28.279  29.338  1.00  0.00     0.167 HD
ATOM     47  C   UNL A   1      43.009  29.249  33.732  1.00  0.00     0.037 A 
ATOM     48  C   UNL A   1      42.762  26.546  27.244  1.00  0.00     0.037 A 
ATOM     49  C   UNL A   1      43.983  30.050  33.031  1.00  0.00     0.049 A 
ATOM     50  C   UNL A   1      43.909  26.827  28.148  1.00  0.00     0.074 A 
ATOM     51  C   UNL A   1      44.111  31.398  32.758  1.00  0.00     0.029 A 
ATOM     52  N   UNL A   1      44.815  29.409  32.147  1.00  0.00    -0.354 N 
ATOM     53  N   UNL A   1      44.656  27.892  28.061  1.00  0.00    -0.248 NA
ATOM     54  C   UNL A   1      43.922  26.156  29.440  1.00  0.00     0.031 C 
ATOM     55  C   UNL A   1      44.638  31.463  31.434  1.00  0.00     0.029 A 
ATOM     56  C   UNL A   1      44.875  30.158  31.001  1.00  0.00     0.049 A 
ATOM     57  H   UNL A   1      45.287  28.560  32.309  1.00  0.00     0.167 HD
ATOM     58  C   UNL A   1      44.871  28.276  29.376  1.00  0.00     0.074 A 
ATOM     59  C   UNL A   1      44.454  27.130  30.182  1.00  0.00     0.031 C 
ATOM     60  C   UNL A   1      45.082  29.586  29.694  1.00  0.00     0.037 A 
BRANCH  47  61
ATOM     61  C   UNL A   1      43.398  28.079  34.608  1.00  0.00     0.064 A 
ATOM     62  C   UNL A   1      43.899  28.348  35.897  1.00  0.00     0.173 A 
ATOM     63  C   UNL A   1      43.607  26.760  34.143  1.00  0.00     0.173 A 
ATOM     64  F   UNL A   1      43.764  29.568  36.441  1.00  0.00    -0.203 F 
ATOM     65  C   UNL A   1      44.646  27.408  36.610  1.00  0.00     0.198 A 
ATOM     66  C   UNL A   1      44.308  25.809  34.880  1.00  0.00     0.198 A 
ATOM     67  F   UNL A   1      43.250  26.356  32.919  1.00  0.00    -0.203 F 
ATOM     68  F   UNL A   1      45.225  27.762  37.765  1.00  0.00    -0.200 F 
ATOM     69  C   UNL A   1      44.860  26.144  36.096  1.00  0.00     0.200 A 
ATOM     70  F   UNL A   1      44.518  24.594  34.354  1.00  0.00    -0.200 F 
ATOM     71  F   UNL A   1      45.636  25.266  36.743  1.00  0.00    -0.200 F 
ENDBRANCH  47  61
BRANCH  48  72
ATOM     72  C   UNL A   1      42.654  25.250  26.524  1.00  0.00     0.064 A 
ATOM     73  C   UNL A   1      43.487  24.972  25.424  1.00  0.00     0.173 A 
ATOM     74  C   UNL A   1      41.972  24.152  27.080  1.00  0.00     0.173 A 
ATOM     75  F   UNL A   1      44.203  25.954  24.856  1.00  0.00    -0.203 F 
ATOM     76  C   UNL A   1      43.664  23.671  24.944  1.00  0.00     0.198 A 
ATOM     77  C   UNL A   1      42.145  22.853  26.594  1.00  0.00     0.198 A 
ATOM     78  F   UNL A   1      41.205  24.297  28.169  1.00  0.00    -0.203 F 
ATOM     79  F   UNL A   1      44.527  23.439  23.944  1.00  0.00    -0.200 F 
ATOM     80  C   UNL A   1      43.005  22.610  25.540  1.00  0.00     0.200 A 
ATOM     81  F   UNL A   1      41.528  21.830  27.202  1.00  0.00    -0.200 F 
ATOM     82  F   UNL A   1      43.230  21.354  25.129  1.00  0.00    -0.200 F 
ENDBRANCH  48  72
BRANCH  60  83
ATOM     83  C   UNL A   1      45.354  30.545  28.568  1.00  0.00     0.064 A 
ATOM     84  C   UNL A   1      44.359  31.177  27.801  1.00  0.00     0.173 A 
ATOM     85  C   UNL A   1      46.681  30.935  28.352  1.00  0.00     0.173 A 
ATOM     86  F   UNL A   1      43.060  30.928  28.013  1.00  0.00    -0.203 F 
ATOM     87  C   UNL A   1      44.690  32.125  26.834  1.00  0.00     0.198 A 
ATOM     88  C   UNL A   1      47.005  31.910  27.415  1.00  0.00     0.198 A 
ATOM     89  F   UNL A   1      47.667  30.399  29.091  1.00  0.00    -0.203 F 
ATOM     90  F   UNL A   1      43.726  32.706  26.103  1.00  0.00    -0.200 F 
ATOM     91  C   UNL A   1      46.012  32.496  26.648  1.00  0.00     0.200 A 
ATOM     92  F   UNL A   1      48.279  32.298  27.274  1.00  0.00    -0.200 F 
ATOM     93  F   UNL A   1      46.328  33.437  25.748  1.00  0.00    -0.200 F 
ENDBRANCH  60  83
ENDBRANCH  34  35
ENDBRANCH  27  29
ENDBRANCH  26  27
ENDBRANCH  25  26
ENDBRANCH   1  25
TORSDOF 14
ENDMDL
