MODEL 1
REMARK VINA RESULT:     -10.4      0.000      0.000
REMARK SMILES CCCN(CCC)c1ccc(C(=O)OCCOC(=O)c2ccc(-c3c4nc(c(-c5c(F)c(F)c(F)c(F)c5F)c5ccc([nH]5)c(-c5c(F)c(F)c(F)c(F)c5F)c5nc(c(-c6c(F)c(F)c(F)c(F)c6F)c6ccc3[nH]6)C=C5)C=C4)cc2)cc1[N+](=O)[O-]
REMARK SMILES IDX 15 1 14 2 12 3 13 4 11 5 8 6 9 7 84 8 10 9 83 10 4 11 3 12
REMARK SMILES IDX 2 13 1 14 5 15 6 16 7 17 85 18 86 19 87 20 16 21 17 22 18 23
REMARK SMILES IDX 19 24 20 25 21 26 82 27 22 28 81 29 23 30 24 31 25 32 75 33
REMARK SMILES IDX 26 34 80 35 74 36 76 37 27 38 79 39 73 40 72 41 28 43 60 44
REMARK SMILES IDX 40 45 59 46 41 47 44 48 58 49 77 50 42 51 43 52 57 54 78 55
REMARK SMILES IDX 45 56 29 57 30 58 38 59 31 60 32 61 36 62 39 63 33 64 34 65
REMARK SMILES IDX 37 66 35 67 61 68 62 69 70 70 63 71 64 72 68 73 71 74 65 75
REMARK SMILES IDX 66 76 69 77 67 78 46 79 47 80 55 81 48 82 49 83 53 84 56 85
REMARK SMILES IDX 50 86 51 87 54 88 52 89
REMARK H PARENT 76 42 44 53
REMARK Flexibility Score: inf
ROOT
ATOM      1  C   UNL A   1      35.653  20.448  25.010  1.00  0.00     0.275 C 
ENDROOT
BRANCH   1   2
ATOM      2  O   UNL A   1      35.223  21.812  24.843  1.00  0.00    -0.458 OA
BRANCH   2   3
ATOM      3  C   UNL A   1      34.003  21.979  24.280  1.00  0.00     0.338 C 
ATOM      4  O   UNL A   1      33.269  21.093  23.876  1.00  0.00    -0.246 OA
BRANCH   3   5
ATOM      5  C   UNL A   1      33.599  23.412  24.278  1.00  0.00     0.067 A 
ATOM      6  C   UNL A   1      32.939  26.176  24.465  1.00  0.00     0.116 A 
ATOM      7  C   UNL A   1      33.001  25.360  25.605  1.00  0.00     0.034 A 
ATOM      8  C   UNL A   1      33.218  25.556  23.233  1.00  0.00     0.293 A 
ATOM      9  C   UNL A   1      33.322  24.004  25.518  1.00  0.00     0.018 A 
ATOM     10  C   UNL A   1      33.541  24.190  23.123  1.00  0.00     0.103 A 
BRANCH   6  11
ATOM     11  N   UNL A   1      32.567  27.505  24.600  1.00  0.00    -0.366 N 
BRANCH  11  12
ATOM     12  C   UNL A   1      31.190  27.825  25.004  1.00  0.00     0.116 C 
BRANCH  12  13
ATOM     13  C   UNL A   1      30.209  27.654  23.839  1.00  0.00     0.018 C 
ATOM     14  C   UNL A   1      29.434  26.343  23.878  1.00  0.00     0.006 C 
ENDBRANCH  12  13
ENDBRANCH  11  12
BRANCH  11  15
ATOM     15  C   UNL A   1      33.612  28.526  24.783  1.00  0.00     0.116 C 
BRANCH  15  16
ATOM     16  C   UNL A   1      34.035  28.686  26.249  1.00  0.00     0.018 C 
ATOM     17  C   UNL A   1      33.582  30.014  26.845  1.00  0.00     0.006 C 
ENDBRANCH  15  16
ENDBRANCH  11  15
ENDBRANCH   6  11
BRANCH   8  18
ATOM     18  N   UNL A   1      33.066  26.293  21.993  1.00  0.00     0.065 N 
ATOM     19  O   UNL A   1      32.023  26.093  21.353  1.00  0.00    -0.258 OA
ATOM     20  O   UNL A   1      34.009  27.008  21.626  1.00  0.00    -0.258 OA
ENDBRANCH   8  18
ENDBRANCH   3   5
ENDBRANCH   2   3
ENDBRANCH   1   2
BRANCH   1  21
ATOM     21  C   UNL A   1      37.182  20.344  24.997  1.00  0.00     0.275 C 
BRANCH  21  22
ATOM     22  O   UNL A   1      37.810  21.422  25.721  1.00  0.00    -0.458 OA
BRANCH  22  23
ATOM     23  C   UNL A   1      39.059  21.162  26.168  1.00  0.00     0.338 C 
ATOM     24  O   UNL A   1      39.656  20.097  26.128  1.00  0.00    -0.246 OA
BRANCH  23  25
ATOM     25  C   UNL A   1      39.701  22.407  26.618  1.00  0.00     0.060 A 
ATOM     26  C   UNL A   1      39.261  23.606  26.056  1.00  0.00     0.016 A 
ATOM     27  C   UNL A   1      40.779  22.399  27.507  1.00  0.00     0.016 A 
ATOM     28  C   UNL A   1      39.890  24.806  26.375  1.00  0.00     0.010 A 
ATOM     29  C   UNL A   1      41.413  23.606  27.828  1.00  0.00     0.010 A 
ATOM     30  C   UNL A   1      40.978  24.817  27.258  1.00  0.00    -0.014 A 
BRANCH  30  31
ATOM     31  C   UNL A   1      41.679  26.096  27.538  1.00  0.00     0.031 A 
ATOM     32  C   UNL A   1      41.007  27.161  28.356  1.00  0.00     0.074 A 
ATOM     33  C   UNL A   1      42.935  26.285  27.094  1.00  0.00     0.049 A 
ATOM     34  N   UNL A   1      41.426  28.365  28.652  1.00  0.00    -0.248 NA
ATOM     35  C   UNL A   1      39.688  26.828  28.914  1.00  0.00     0.031 C 
ATOM     36  C   UNL A   1      43.714  25.311  26.329  1.00  0.00     0.029 A 
ATOM     37  N   UNL A   1      43.779  27.359  27.228  1.00  0.00    -0.354 N 
ATOM     38  C   UNL A   1      40.414  28.944  29.406  1.00  0.00     0.074 A 
ATOM     39  C   UNL A   1      39.356  27.960  29.517  1.00  0.00     0.031 C 
ATOM     40  C   UNL A   1      44.927  25.826  26.074  1.00  0.00     0.029 A 
ATOM     41  C   UNL A   1      44.994  27.182  26.614  1.00  0.00     0.049 A 
ATOM     42  H   UNL A   1      43.536  28.178  27.718  1.00  0.00     0.167 HD
ATOM     43  C   UNL A   1      40.373  30.181  29.955  1.00  0.00     0.037 A 
ATOM     44  C   UNL A   1      46.035  28.026  26.481  1.00  0.00     0.037 A 
ATOM     45  C   UNL A   1      41.436  31.148  29.873  1.00  0.00     0.049 A 
ATOM     46  C   UNL A   1      45.947  29.409  27.066  1.00  0.00     0.074 A 
ATOM     47  C   UNL A   1      41.492  32.419  30.418  1.00  0.00     0.029 A 
ATOM     48  N   UNL A   1      42.636  30.946  29.207  1.00  0.00    -0.354 N 
ATOM     49  N   UNL A   1      44.978  29.953  27.760  1.00  0.00    -0.248 NA
ATOM     50  C   UNL A   1      47.095  30.299  26.837  1.00  0.00     0.031 C 
ATOM     51  C   UNL A   1      42.712  33.001  30.053  1.00  0.00     0.029 A 
ATOM     52  C   UNL A   1      43.430  32.078  29.311  1.00  0.00     0.049 A 
ATOM     53  H   UNL A   1      42.886  30.122  28.730  1.00  0.00     0.167 HD
ATOM     54  C   UNL A   1      45.398  31.242  28.057  1.00  0.00     0.074 A 
ATOM     55  C   UNL A   1      46.720  31.394  27.486  1.00  0.00     0.031 C 
ATOM     56  C   UNL A   1      44.742  32.214  28.734  1.00  0.00     0.037 A 
BRANCH  43  57
ATOM     57  C   UNL A   1      39.119  30.577  30.676  1.00  0.00     0.064 A 
ATOM     58  C   UNL A   1      38.005  31.085  29.993  1.00  0.00     0.173 A 
ATOM     59  C   UNL A   1      39.020  30.405  32.065  1.00  0.00     0.173 A 
ATOM     60  F   UNL A   1      38.057  31.279  28.667  1.00  0.00    -0.203 F 
ATOM     61  C   UNL A   1      36.842  31.425  30.679  1.00  0.00     0.198 A 
ATOM     62  C   UNL A   1      37.848  30.726  32.744  1.00  0.00     0.198 A 
ATOM     63  F   UNL A   1      40.059  29.918  32.761  1.00  0.00    -0.203 F 
ATOM     64  F   UNL A   1      35.800  31.942  30.014  1.00  0.00    -0.200 F 
ATOM     65  C   UNL A   1      36.762  31.239  32.052  1.00  0.00     0.200 A 
ATOM     66  F   UNL A   1      37.770  30.536  34.069  1.00  0.00    -0.200 F 
ATOM     67  F   UNL A   1      35.639  31.561  32.710  1.00  0.00    -0.200 F 
ENDBRANCH  43  57
BRANCH  44  68
ATOM     68  C   UNL A   1      47.244  27.594  25.736  1.00  0.00     0.064 A 
ATOM     69  C   UNL A   1      47.314  27.715  24.342  1.00  0.00     0.173 A 
ATOM     70  C   UNL A   1      48.352  27.050  26.403  1.00  0.00     0.173 A 
ATOM     71  F   UNL A   1      46.269  28.204  23.660  1.00  0.00    -0.203 F 
ATOM     72  C   UNL A   1      48.446  27.302  23.642  1.00  0.00     0.198 A 
ATOM     73  C   UNL A   1      49.492  26.661  25.704  1.00  0.00     0.198 A 
ATOM     74  F   UNL A   1      48.330  26.910  27.737  1.00  0.00    -0.203 F 
ATOM     75  F   UNL A   1      48.475  27.395  22.305  1.00  0.00    -0.200 F 
ATOM     76  C   UNL A   1      49.536  26.782  24.324  1.00  0.00     0.200 A 
ATOM     77  F   UNL A   1      50.546  26.168  26.369  1.00  0.00    -0.200 F 
ATOM     78  F   UNL A   1      50.627  26.391  23.650  1.00  0.00    -0.200 F 
ENDBRANCH  44  68
BRANCH  56  79
ATOM     79  C   UNL A   1      45.448  33.526  28.904  1.00  0.00     0.064 A 
ATOM     80  C   UNL A   1      45.268  34.574  27.990  1.00  0.00     0.173 A 
ATOM     81  C   UNL A   1      46.282  33.750  30.009  1.00  0.00     0.173 A 
ATOM     82  F   UNL A   1      44.493  34.402  26.909  1.00  0.00    -0.203 F 
ATOM     83  C   UNL A   1      45.912  35.796  28.168  1.00  0.00     0.198 A 
ATOM     84  C   UNL A   1      46.907  34.980  30.196  1.00  0.00     0.198 A 
ATOM     85  F   UNL A   1      46.483  32.779  30.912  1.00  0.00    -0.203 F 
ATOM     86  F   UNL A   1      45.756  36.772  27.263  1.00  0.00    -0.200 F 
ATOM     87  C   UNL A   1      46.726  36.000  29.273  1.00  0.00     0.200 A 
ATOM     88  F   UNL A   1      47.687  35.178  31.268  1.00  0.00    -0.200 F 
ATOM     89  F   UNL A   1      47.341  37.178  29.445  1.00  0.00    -0.200 F 
ENDBRANCH  56  79
ENDBRANCH  30  31
ENDBRANCH  23  25
ENDBRANCH  22  23
ENDBRANCH  21  22
ENDBRANCH   1  21
TORSDOF 17
ENDMDL
MODEL 2
REMARK VINA RESULT:     -10.3      0.752      7.579
REMARK SMILES CCCN(CCC)c1ccc(C(=O)OCCOC(=O)c2ccc(-c3c4nc(c(-c5c(F)c(F)c(F)c(F)c5F)c5ccc([nH]5)c(-c5c(F)c(F)c(F)c(F)c5F)c5nc(c(-c6c(F)c(F)c(F)c(F)c6F)c6ccc3[nH]6)C=C5)C=C4)cc2)cc1[N+](=O)[O-]
REMARK SMILES IDX 15 1 14 2 12 3 13 4 11 5 8 6 9 7 84 8 10 9 83 10 4 11 3 12
REMARK SMILES IDX 2 13 1 14 5 15 6 16 7 17 85 18 86 19 87 20 16 21 17 22 18 23
REMARK SMILES IDX 19 24 20 25 21 26 82 27 22 28 81 29 23 30 24 31 25 32 75 33
REMARK SMILES IDX 26 34 80 35 74 36 76 37 27 38 79 39 73 40 72 41 28 43 60 44
REMARK SMILES IDX 40 45 59 46 41 47 44 48 58 49 77 50 42 51 43 52 57 54 78 55
REMARK SMILES IDX 45 56 29 57 30 58 38 59 31 60 32 61 36 62 39 63 33 64 34 65
REMARK SMILES IDX 37 66 35 67 61 68 62 69 70 70 63 71 64 72 68 73 71 74 65 75
REMARK SMILES IDX 66 76 69 77 67 78 46 79 47 80 55 81 48 82 49 83 53 84 56 85
REMARK SMILES IDX 50 86 51 87 54 88 52 89
REMARK H PARENT 76 42 44 53
REMARK Flexibility Score: inf
ROOT
ATOM      1  C   UNL A   1      35.701  20.417  24.981  1.00  0.00     0.275 C 
ENDROOT
BRANCH   1   2
ATOM      2  O   UNL A   1      35.059  21.695  25.153  1.00  0.00    -0.458 OA
BRANCH   2   3
ATOM      3  C   UNL A   1      33.871  21.845  24.521  1.00  0.00     0.338 C 
ATOM      4  O   UNL A   1      33.144  20.949  24.132  1.00  0.00    -0.246 OA
BRANCH   3   5
ATOM      5  C   UNL A   1      33.492  23.281  24.418  1.00  0.00     0.067 A 
ATOM      6  C   UNL A   1      32.878  26.063  24.409  1.00  0.00     0.116 A 
ATOM      7  C   UNL A   1      32.919  25.327  25.603  1.00  0.00     0.034 A 
ATOM      8  C   UNL A   1      33.153  25.354  23.225  1.00  0.00     0.293 A 
ATOM      9  C   UNL A   1      33.218  23.962  25.612  1.00  0.00     0.018 A 
ATOM     10  C   UNL A   1      33.454  23.979  23.211  1.00  0.00     0.103 A 
BRANCH   6  11
ATOM     11  N   UNL A   1      32.528  27.403  24.449  1.00  0.00    -0.366 N 
BRANCH  11  12
ATOM     12  C   UNL A   1      31.142  27.771  24.773  1.00  0.00     0.116 C 
BRANCH  12  13
ATOM     13  C   UNL A   1      30.178  27.375  23.649  1.00  0.00     0.018 C 
ATOM     14  C   UNL A   1      29.055  26.451  24.103  1.00  0.00     0.006 C 
ENDBRANCH  12  13
ENDBRANCH  11  12
BRANCH  11  15
ATOM     15  C   UNL A   1      33.584  28.414  24.618  1.00  0.00     0.116 C 
BRANCH  15  16
ATOM     16  C   UNL A   1      33.933  28.669  26.090  1.00  0.00     0.018 C 
ATOM     17  C   UNL A   1      33.493  30.049  26.565  1.00  0.00     0.006 C 
ENDBRANCH  15  16
ENDBRANCH  11  15
ENDBRANCH   6  11
BRANCH   8  18
ATOM     18  N   UNL A   1      33.021  26.006  21.935  1.00  0.00     0.065 N 
ATOM     19  O   UNL A   1      32.003  25.738  21.280  1.00  0.00    -0.258 OA
ATOM     20  O   UNL A   1      33.956  26.721  21.550  1.00  0.00    -0.258 OA
ENDBRANCH   8  18
ENDBRANCH   3   5
ENDBRANCH   2   3
ENDBRANCH   1   2
BRANCH   1  21
ATOM     21  C   UNL A   1      37.221  20.572  24.869  1.00  0.00     0.275 C 
BRANCH  21  22
ATOM     22  O   UNL A   1      37.741  21.552  25.790  1.00  0.00    -0.458 OA
BRANCH  22  23
ATOM     23  C   UNL A   1      39.030  21.370  26.156  1.00  0.00     0.338 C 
ATOM     24  O   UNL A   1      39.710  20.367  26.004  1.00  0.00    -0.246 OA
BRANCH  23  25
ATOM     25  C   UNL A   1      39.589  22.629  26.673  1.00  0.00     0.060 A 
ATOM     26  C   UNL A   1      39.111  23.824  26.131  1.00  0.00     0.016 A 
ATOM     27  C   UNL A   1      40.628  22.644  27.607  1.00  0.00     0.016 A 
ATOM     28  C   UNL A   1      39.666  25.041  26.515  1.00  0.00     0.010 A 
ATOM     29  C   UNL A   1      41.186  23.869  27.993  1.00  0.00     0.010 A 
ATOM     30  C   UNL A   1      40.714  25.076  27.444  1.00  0.00    -0.014 A 
BRANCH  30  31
ATOM     31  C   UNL A   1      41.337  26.377  27.794  1.00  0.00     0.031 A 
ATOM     32  C   UNL A   1      42.759  26.661  27.405  1.00  0.00     0.074 A 
ATOM     33  C   UNL A   1      40.614  27.321  28.424  1.00  0.00     0.049 A 
ATOM     34  N   UNL A   1      43.499  27.707  27.676  1.00  0.00    -0.248 NA
ATOM     35  C   UNL A   1      43.440  25.633  26.605  1.00  0.00     0.031 C 
ATOM     36  C   UNL A   1      39.211  27.186  28.816  1.00  0.00     0.029 A 
ATOM     37  N   UNL A   1      40.959  28.583  28.841  1.00  0.00    -0.354 N 
ATOM     38  C   UNL A   1      44.739  27.452  27.106  1.00  0.00     0.074 A 
ATOM     39  C   UNL A   1      44.654  26.149  26.479  1.00  0.00     0.031 C 
ATOM     40  C   UNL A   1      38.809  28.325  29.402  1.00  0.00     0.029 A 
ATOM     41  C   UNL A   1      39.938  29.251  29.472  1.00  0.00     0.049 A 
ATOM     42  H   UNL A   1      41.852  28.971  28.700  1.00  0.00     0.167 HD
ATOM     43  C   UNL A   1      45.845  28.233  27.107  1.00  0.00     0.037 A 
ATOM     44  C   UNL A   1      39.922  30.461  30.061  1.00  0.00     0.037 A 
ATOM     45  C   UNL A   1      45.921  29.542  27.702  1.00  0.00     0.049 A 
ATOM     46  C   UNL A   1      41.175  31.293  30.082  1.00  0.00     0.074 A 
ATOM     47  C   UNL A   1      46.994  30.417  27.732  1.00  0.00     0.029 A 
ATOM     48  N   UNL A   1      44.877  30.167  28.368  1.00  0.00    -0.354 N 
ATOM     49  N   UNL A   1      42.347  31.034  29.557  1.00  0.00    -0.248 NA
ATOM     50  C   UNL A   1      41.105  32.580  30.789  1.00  0.00     0.031 C 
ATOM     51  C   UNL A   1      46.610  31.558  28.445  1.00  0.00     0.029 A 
ATOM     52  C   UNL A   1      45.288  31.409  28.829  1.00  0.00     0.049 A 
ATOM     53  H   UNL A   1      43.979  29.786  28.495  1.00  0.00     0.167 HD
ATOM     54  C   UNL A   1      43.151  32.123  29.863  1.00  0.00     0.074 A 
ATOM     55  C   UNL A   1      42.328  33.058  30.601  1.00  0.00     0.031 C 
ATOM     56  C   UNL A   1      44.457  32.325  29.565  1.00  0.00     0.037 A 
BRANCH  43  57
ATOM     57  C   UNL A   1      47.082  27.682  26.464  1.00  0.00     0.064 A 
ATOM     58  C   UNL A   1      48.033  26.958  27.195  1.00  0.00     0.173 A 
ATOM     59  C   UNL A   1      47.295  27.848  25.087  1.00  0.00     0.173 A 
ATOM     60  F   UNL A   1      47.880  26.784  28.516  1.00  0.00    -0.203 F 
ATOM     61  C   UNL A   1      49.164  26.434  26.573  1.00  0.00     0.198 A 
ATOM     62  C   UNL A   1      48.415  27.306  24.465  1.00  0.00     0.198 A 
ATOM     63  F   UNL A   1      46.410  28.531  24.344  1.00  0.00    -0.203 F 
ATOM     64  F   UNL A   1      50.080  25.775  27.296  1.00  0.00    -0.200 F 
ATOM     65  C   UNL A   1      49.351  26.603  25.209  1.00  0.00     0.200 A 
ATOM     66  F   UNL A   1      48.589  27.461  23.145  1.00  0.00    -0.200 F 
ATOM     67  F   UNL A   1      50.437  26.094  24.611  1.00  0.00    -0.200 F 
ENDBRANCH  43  57
BRANCH  44  68
ATOM     68  C   UNL A   1      38.677  30.950  30.706  1.00  0.00     0.064 A 
ATOM     69  C   UNL A   1      38.484  30.826  32.088  1.00  0.00     0.173 A 
ATOM     70  C   UNL A   1      37.657  31.550  29.952  1.00  0.00     0.173 A 
ATOM     71  F   UNL A   1      39.420  30.235  32.844  1.00  0.00    -0.203 F 
ATOM     72  C   UNL A   1      37.313  31.278  32.692  1.00  0.00     0.198 A 
ATOM     73  C   UNL A   1      36.497  32.024  30.562  1.00  0.00     0.198 A 
ATOM     74  F   UNL A   1      37.793  31.687  28.626  1.00  0.00    -0.203 F 
ATOM     75  F   UNL A   1      37.136  31.115  34.011  1.00  0.00    -0.200 F 
ATOM     76  C   UNL A   1      36.324  31.883  31.930  1.00  0.00     0.200 A 
ATOM     77  F   UNL A   1      35.549  32.615  29.823  1.00  0.00    -0.200 F 
ATOM     78  F   UNL A   1      35.200  32.323  32.513  1.00  0.00    -0.200 F 
ENDBRANCH  44  68
BRANCH  56  79
ATOM     79  C   UNL A   1      45.074  33.611  30.030  1.00  0.00     0.064 A 
ATOM     80  C   UNL A   1      45.713  33.705  31.273  1.00  0.00     0.173 A 
ATOM     81  C   UNL A   1      45.058  34.748  29.208  1.00  0.00     0.173 A 
ATOM     82  F   UNL A   1      45.739  32.649  32.101  1.00  0.00    -0.203 F 
ATOM     83  C   UNL A   1      46.302  34.898  31.687  1.00  0.00     0.198 A 
ATOM     84  C   UNL A   1      45.666  35.932  29.615  1.00  0.00     0.198 A 
ATOM     85  F   UNL A   1      44.462  34.706  28.007  1.00  0.00    -0.203 F 
ATOM     86  F   UNL A   1      46.876  34.976  32.895  1.00  0.00    -0.200 F 
ATOM     87  C   UNL A   1      46.282  36.008  30.855  1.00  0.00     0.200 A 
ATOM     88  F   UNL A   1      45.655  37.002  28.807  1.00  0.00    -0.200 F 
ATOM     89  F   UNL A   1      46.853  37.154  31.252  1.00  0.00    -0.200 F 
ENDBRANCH  56  79
ENDBRANCH  30  31
ENDBRANCH  23  25
ENDBRANCH  22  23
ENDBRANCH  21  22
ENDBRANCH   1  21
TORSDOF 17
ENDMDL
MODEL 3
REMARK VINA RESULT:     -10.3      1.522      7.635
REMARK SMILES CCCN(CCC)c1ccc(C(=O)OCCOC(=O)c2ccc(-c3c4nc(c(-c5c(F)c(F)c(F)c(F)c5F)c5ccc([nH]5)c(-c5c(F)c(F)c(F)c(F)c5F)c5nc(c(-c6c(F)c(F)c(F)c(F)c6F)c6ccc3[nH]6)C=C5)C=C4)cc2)cc1[N+](=O)[O-]
REMARK SMILES IDX 15 1 14 2 12 3 13 4 11 5 8 6 9 7 84 8 10 9 83 10 4 11 3 12
REMARK SMILES IDX 2 13 1 14 5 15 6 16 7 17 85 18 86 19 87 20 16 21 17 22 18 23
REMARK SMILES IDX 19 24 20 25 21 26 82 27 22 28 81 29 23 30 24 31 25 32 75 33
REMARK SMILES IDX 26 34 80 35 74 36 76 37 27 38 79 39 73 40 72 41 28 43 60 44
REMARK SMILES IDX 40 45 59 46 41 47 44 48 58 49 77 50 42 51 43 52 57 54 78 55
REMARK SMILES IDX 45 56 29 57 30 58 38 59 31 60 32 61 36 62 39 63 33 64 34 65
REMARK SMILES IDX 37 66 35 67 61 68 62 69 70 70 63 71 64 72 68 73 71 74 65 75
REMARK SMILES IDX 66 76 69 77 67 78 46 79 47 80 55 81 48 82 49 83 53 84 56 85
REMARK SMILES IDX 50 86 51 87 54 88 52 89
REMARK H PARENT 76 42 44 53
REMARK Flexibility Score: inf
ROOT
ATOM      1  C   UNL A   1      35.924  20.588  25.188  1.00  0.00     0.275 C 
ENDROOT
BRANCH   1   2
ATOM      2  O   UNL A   1      35.637  21.763  25.970  1.00  0.00    -0.458 OA
BRANCH   2   3
ATOM      3  C   UNL A   1      34.348  21.909  26.360  1.00  0.00     0.338 C 
ATOM      4  O   UNL A   1      33.668  21.072  26.926  1.00  0.00    -0.246 OA
BRANCH   3   5
ATOM      5  C   UNL A   1      33.853  23.285  26.082  1.00  0.00     0.067 A 
ATOM      6  C   UNL A   1      33.074  25.941  25.409  1.00  0.00     0.116 A 
ATOM      7  C   UNL A   1      34.426  25.582  25.522  1.00  0.00     0.034 A 
ATOM      8  C   UNL A   1      32.132  24.923  25.646  1.00  0.00     0.293 A 
ATOM      9  C   UNL A   1      34.812  24.281  25.854  1.00  0.00     0.018 A 
ATOM     10  C   UNL A   1      32.500  23.607  25.984  1.00  0.00     0.103 A 
BRANCH   6  11
ATOM     11  N   UNL A   1      32.742  27.257  25.126  1.00  0.00    -0.366 N 
BRANCH  11  12
ATOM     12  C   UNL A   1      32.162  27.582  23.815  1.00  0.00     0.116 C 
BRANCH  12  13
ATOM     13  C   UNL A   1      33.200  27.452  22.694  1.00  0.00     0.018 C 
ATOM     14  C   UNL A   1      34.151  28.639  22.600  1.00  0.00     0.006 C 
ENDBRANCH  12  13
ENDBRANCH  11  12
BRANCH  11  15
ATOM     15  C   UNL A   1      32.544  28.201  26.239  1.00  0.00     0.116 C 
BRANCH  15  16
ATOM     16  C   UNL A   1      33.591  29.322  26.259  1.00  0.00     0.018 C 
ATOM     17  C   UNL A   1      34.672  29.093  27.310  1.00  0.00     0.006 C 
ENDBRANCH  15  16
ENDBRANCH  11  15
ENDBRANCH   6  11
BRANCH   8  18
ATOM     18  N   UNL A   1      30.713  25.230  25.664  1.00  0.00     0.065 N 
ATOM     19  O   UNL A   1      30.109  25.121  24.587  1.00  0.00    -0.258 OA
ATOM     20  O   UNL A   1      30.224  25.643  26.724  1.00  0.00    -0.258 OA
ENDBRANCH   8  18
ENDBRANCH   3   5
ENDBRANCH   2   3
ENDBRANCH   1   2
BRANCH   1  21
ATOM     21  C   UNL A   1      37.427  20.445  24.934  1.00  0.00     0.275 C 
BRANCH  21  22
ATOM     22  O   UNL A   1      38.162  21.627  25.314  1.00  0.00    -0.458 OA
BRANCH  22  23
ATOM     23  C   UNL A   1      39.232  21.406  26.110  1.00  0.00     0.338 C 
ATOM     24  O   UNL A   1      39.815  20.349  26.296  1.00  0.00    -0.246 OA
BRANCH  23  25
ATOM     25  C   UNL A   1      39.721  22.681  26.660  1.00  0.00     0.060 A 
ATOM     26  C   UNL A   1      39.213  23.862  26.115  1.00  0.00     0.016 A 
ATOM     27  C   UNL A   1      40.728  22.727  27.627  1.00  0.00     0.016 A 
ATOM     28  C   UNL A   1      39.703  25.096  26.531  1.00  0.00     0.010 A 
ATOM     29  C   UNL A   1      41.221  23.969  28.046  1.00  0.00     0.010 A 
ATOM     30  C   UNL A   1      40.718  25.162  27.495  1.00  0.00    -0.014 A 
BRANCH  30  31
ATOM     31  C   UNL A   1      41.274  26.484  27.880  1.00  0.00     0.031 A 
ATOM     32  C   UNL A   1      42.716  26.804  27.606  1.00  0.00     0.074 A 
ATOM     33  C   UNL A   1      40.476  27.412  28.438  1.00  0.00     0.049 A 
ATOM     34  N   UNL A   1      43.402  27.872  27.926  1.00  0.00    -0.248 NA
ATOM     35  C   UNL A   1      43.488  25.787  26.877  1.00  0.00     0.031 C 
ATOM     36  C   UNL A   1      39.050  27.242  28.714  1.00  0.00     0.029 A 
ATOM     37  N   UNL A   1      40.751  28.688  28.867  1.00  0.00    -0.354 N 
ATOM     38  C   UNL A   1      44.692  27.646  27.463  1.00  0.00     0.074 A 
ATOM     39  C   UNL A   1      44.694  26.336  26.845  1.00  0.00     0.031 C 
ATOM     40  C   UNL A   1      38.571  28.375  29.252  1.00  0.00     0.029 A 
ATOM     41  C   UNL A   1      39.665  29.332  29.404  1.00  0.00     0.049 A 
ATOM     42  H   UNL A   1      41.643  29.100  28.796  1.00  0.00     0.167 HD
ATOM     43  C   UNL A   1      45.772  28.458  27.545  1.00  0.00     0.037 A 
ATOM     44  C   UNL A   1      39.567  30.548  29.975  1.00  0.00     0.037 A 
ATOM     45  C   UNL A   1      45.763  29.774  28.129  1.00  0.00     0.049 A 
ATOM     46  C   UNL A   1      40.791  31.414  30.089  1.00  0.00     0.074 A 
ATOM     47  C   UNL A   1      46.806  30.678  28.237  1.00  0.00     0.029 A 
ATOM     48  N   UNL A   1      44.652  30.376  28.700  1.00  0.00    -0.354 N 
ATOM     49  N   UNL A   1      42.009  31.183  29.666  1.00  0.00    -0.248 NA
ATOM     50  C   UNL A   1      40.628  32.705  30.774  1.00  0.00     0.031 C 
ATOM     51  C   UNL A   1      46.334  31.815  28.904  1.00  0.00     0.029 A 
ATOM     52  C   UNL A   1      44.989  31.633  29.179  1.00  0.00     0.049 A 
ATOM     53  H   UNL A   1      43.756  29.971  28.757  1.00  0.00     0.167 HD
ATOM     54  C   UNL A   1      42.756  32.296  30.025  1.00  0.00     0.074 A 
ATOM     55  C   UNL A   1      41.849  33.215  30.682  1.00  0.00     0.031 C 
ATOM     56  C   UNL A   1      44.076  32.533  29.834  1.00  0.00     0.037 A 
BRANCH  43  57
ATOM     57  C   UNL A   1      47.072  27.935  27.013  1.00  0.00     0.064 A 
ATOM     58  C   UNL A   1      47.990  27.266  27.834  1.00  0.00     0.173 A 
ATOM     59  C   UNL A   1      47.383  28.073  25.651  1.00  0.00     0.173 A 
ATOM     60  F   UNL A   1      47.743  27.121  29.144  1.00  0.00    -0.203 F 
ATOM     61  C   UNL A   1      49.182  26.768  27.314  1.00  0.00     0.198 A 
ATOM     62  C   UNL A   1      48.566  27.556  25.131  1.00  0.00     0.198 A 
ATOM     63  F   UNL A   1      46.534  28.703  24.825  1.00  0.00    -0.203 F 
ATOM     64  F   UNL A   1      50.063  26.162  28.122  1.00  0.00    -0.200 F 
ATOM     65  C   UNL A   1      49.466  26.907  25.963  1.00  0.00     0.200 A 
ATOM     66  F   UNL A   1      48.833  27.683  23.824  1.00  0.00    -0.200 F 
ATOM     67  F   UNL A   1      50.611  26.423  25.463  1.00  0.00    -0.200 F 
ENDBRANCH  43  57
BRANCH  44  68
ATOM     68  C   UNL A   1      38.260  31.008  30.509  1.00  0.00     0.064 A 
ATOM     69  C   UNL A   1      37.253  31.470  29.652  1.00  0.00     0.173 A 
ATOM     70  C   UNL A   1      37.993  30.995  31.887  1.00  0.00     0.173 A 
ATOM     71  F   UNL A   1      37.473  31.526  28.330  1.00  0.00    -0.203 F 
ATOM     72  C   UNL A   1      36.030  31.909  30.152  1.00  0.00     0.198 A 
ATOM     73  C   UNL A   1      36.761  31.411  32.384  1.00  0.00     0.198 A 
ATOM     74  F   UNL A   1      38.928  30.566  32.747  1.00  0.00    -0.203 F 
ATOM     75  F   UNL A   1      35.096  32.381  29.315  1.00  0.00    -0.200 F 
ATOM     76  C   UNL A   1      35.782  31.873  31.517  1.00  0.00     0.200 A 
ATOM     77  F   UNL A   1      36.523  31.366  33.701  1.00  0.00    -0.200 F 
ATOM     78  F   UNL A   1      34.603  32.290  31.998  1.00  0.00    -0.200 F 
ENDBRANCH  44  68
BRANCH  56  79
ATOM     79  C   UNL A   1      44.617  33.839  30.332  1.00  0.00     0.064 A 
ATOM     80  C   UNL A   1      45.161  33.959  31.618  1.00  0.00     0.173 A 
ATOM     81  C   UNL A   1      44.626  34.971  29.503  1.00  0.00     0.173 A 
ATOM     82  F   UNL A   1      45.159  32.909  32.453  1.00  0.00    -0.203 F 
ATOM     83  C   UNL A   1      45.681  35.172  32.065  1.00  0.00     0.198 A 
ATOM     84  C   UNL A   1      45.166  36.176  29.945  1.00  0.00     0.198 A 
ATOM     85  F   UNL A   1      44.120  34.904  28.263  1.00  0.00    -0.203 F 
ATOM     86  F   UNL A   1      46.162  35.274  33.311  1.00  0.00    -0.200 F 
ATOM     87  C   UNL A   1      45.688  36.277  31.226  1.00  0.00     0.200 A 
ATOM     88  F   UNL A   1      45.180  37.240  29.131  1.00  0.00    -0.200 F 
ATOM     89  F   UNL A   1      46.192  37.442  31.655  1.00  0.00    -0.200 F 
ENDBRANCH  56  79
ENDBRANCH  30  31
ENDBRANCH  23  25
ENDBRANCH  22  23
ENDBRANCH  21  22
ENDBRANCH   1  21
TORSDOF 17
ENDMDL
