MODEL 1
REMARK VINA RESULT:     -11.8      0.000      0.000
REMARK SMILES C[C@H]1[C@H](C(=O)OCCOC(=O)c2ccc(-c3c4nc(c(-c5c(F)c(F)c(F)c(F)c5F)c5ccc([nH]5)c(-c5c(F)c(F)c(F)c(F)c5F)c5nc(c(-c6c(F)c(F)c(F)c(F)c6F)c6ccc3[nH]6)C=C5)C=C4)cc2)CC[N@@H+]1Cc1cscn1
REMARK SMILES IDX 7 1 6 2 4 3 5 4 3 5 1 6 2 7 77 8 75 9 76 10 78 12 79 13
REMARK SMILES IDX 80 14 83 15 81 16 82 17 8 18 9 19 10 20 11 21 12 22 13 23
REMARK SMILES IDX 74 24 14 25 73 26 15 27 16 28 17 29 67 30 18 31 72 32 66 33
REMARK SMILES IDX 68 34 19 35 71 36 65 37 64 38 20 40 52 41 32 42 51 43 33 44
REMARK SMILES IDX 36 45 50 46 69 47 34 48 35 49 49 51 70 52 37 53 21 54 22 55
REMARK SMILES IDX 30 56 23 57 24 58 28 59 31 60 25 61 26 62 29 63 27 64 53 65
REMARK SMILES IDX 54 66 62 67 55 68 56 69 60 70 63 71 57 72 58 73 61 74 59 75
REMARK SMILES IDX 38 76 39 77 47 78 40 79 41 80 45 81 48 82 42 83 43 84 46 85
REMARK SMILES IDX 44 86
REMARK H PARENT 77 11 68 39 36 50
REMARK Flexibility Score: inf
ROOT
ATOM      1  C   UNL A   1      31.733  28.402  27.131  1.00  0.00     0.274 C 
ENDROOT
BRANCH   1   2
ATOM      2  O   UNL A   1      32.179  27.495  26.105  1.00  0.00    -0.462 OA
BRANCH   2   3
ATOM      3  C   UNL A   1      31.531  26.314  25.986  1.00  0.00     0.315 C 
ATOM      4  O   UNL A   1      31.412  25.494  26.891  1.00  0.00    -0.252 OA
BRANCH   3   5
ATOM      5  C   UNL A   1      30.933  26.072  24.612  1.00  0.00     0.162 C 
ATOM      6  C   UNL A   1      28.549  26.467  23.875  1.00  0.00     0.076 C 
ATOM      7  C   UNL A   1      29.929  27.109  24.085  1.00  0.00     0.195 C 
ATOM      8  N   UNL A   1      30.425  27.527  22.763  1.00  0.00    -0.327 N 
ATOM      9  C   UNL A   1      32.030  25.967  23.565  1.00  0.00     0.083 C 
ATOM     10  C   UNL A   1      31.420  26.562  22.315  1.00  0.00     0.263 C 
ATOM     11  H   UNL A   1      29.654  27.504  22.097  1.00  0.00     0.348 HD
BRANCH   8  12
ATOM     12  C   UNL A   1      30.804  28.942  22.664  1.00  0.00     0.320 C 
BRANCH  12  13
ATOM     13  C   UNL A   1      29.667  29.917  22.516  1.00  0.00     0.105 A 
ATOM     14  C   UNL A   1      29.148  30.754  23.489  1.00  0.00     0.096 A 
ATOM     15  N   UNL A   1      29.091  30.082  21.259  1.00  0.00    -0.244 NA
ATOM     16  S   UNL A   1      27.877  31.709  22.846  1.00  0.00    -0.130 S 
ATOM     17  C   UNL A   1      28.152  30.999  21.313  1.00  0.00     0.176 A 
ENDBRANCH  12  13
ENDBRANCH   8  12
ENDBRANCH   3   5
ENDBRANCH   2   3
ENDBRANCH   1   2
BRANCH   1  18
ATOM     18  C   UNL A   1      31.793  29.845  26.630  1.00  0.00     0.275 C 
BRANCH  18  19
ATOM     19  O   UNL A   1      33.156  30.260  26.436  1.00  0.00    -0.458 OA
BRANCH  19  20
ATOM     20  C   UNL A   1      33.529  31.343  27.155  1.00  0.00     0.338 C 
ATOM     21  O   UNL A   1      32.890  32.355  27.376  1.00  0.00    -0.246 OA
BRANCH  20  22
ATOM     22  C   UNL A   1      34.830  31.075  27.772  1.00  0.00     0.060 A 
ATOM     23  C   UNL A   1      35.108  29.775  28.198  1.00  0.00     0.016 A 
ATOM     24  C   UNL A   1      35.733  32.110  28.001  1.00  0.00     0.016 A 
ATOM     25  C   UNL A   1      36.286  29.497  28.879  1.00  0.00     0.010 A 
ATOM     26  C   UNL A   1      36.926  31.828  28.666  1.00  0.00     0.010 A 
ATOM     27  C   UNL A   1      37.201  30.524  29.118  1.00  0.00    -0.014 A 
BRANCH  27  28
ATOM     28  C   UNL A   1      38.437  30.262  29.884  1.00  0.00     0.031 A 
ATOM     29  C   UNL A   1      39.459  29.325  29.318  1.00  0.00     0.074 A 
ATOM     30  C   UNL A   1      38.616  30.835  31.087  1.00  0.00     0.049 A 
ATOM     31  N   UNL A   1      40.479  28.759  29.907  1.00  0.00    -0.248 NA
ATOM     32  C   UNL A   1      39.303  28.971  27.899  1.00  0.00     0.031 C 
ATOM     33  C   UNL A   1      37.722  31.820  31.696  1.00  0.00     0.029 A 
ATOM     34  N   UNL A   1      39.600  30.649  32.024  1.00  0.00    -0.354 N 
ATOM     35  C   UNL A   1      41.060  27.946  28.944  1.00  0.00     0.074 A 
ATOM     36  C   UNL A   1      40.284  28.094  27.732  1.00  0.00     0.031 C 
ATOM     37  C   UNL A   1      38.187  32.137  32.915  1.00  0.00     0.029 A 
ATOM     38  C   UNL A   1      39.366  31.325  33.195  1.00  0.00     0.049 A 
ATOM     39  H   UNL A   1      40.392  30.085  31.872  1.00  0.00     0.167 HD
ATOM     40  C   UNL A   1      42.139  27.141  29.076  1.00  0.00     0.037 A 
ATOM     41  C   UNL A   1      40.002  31.250  34.379  1.00  0.00     0.037 A 
ATOM     42  C   UNL A   1      42.910  27.028  30.285  1.00  0.00     0.049 A 
ATOM     43  C   UNL A   1      41.162  30.302  34.522  1.00  0.00     0.074 A 
ATOM     44  C   UNL A   1      44.023  26.246  30.533  1.00  0.00     0.029 A 
ATOM     45  N   UNL A   1      42.643  27.730  31.453  1.00  0.00    -0.354 N 
ATOM     46  N   UNL A   1      41.686  29.499  33.627  1.00  0.00    -0.248 NA
ATOM     47  C   UNL A   1      41.809  30.236  35.839  1.00  0.00     0.031 C 
ATOM     48  C   UNL A   1      44.410  26.447  31.863  1.00  0.00     0.029 A 
ATOM     49  C   UNL A   1      43.565  27.389  32.430  1.00  0.00     0.049 A 
ATOM     50  H   UNL A   1      41.909  28.374  31.571  1.00  0.00     0.167 HD
ATOM     51  C   UNL A   1      42.739  28.856  34.260  1.00  0.00     0.074 A 
ATOM     52  C   UNL A   1      42.780  29.362  35.618  1.00  0.00     0.031 C 
ATOM     53  C   UNL A   1      43.595  27.930  33.764  1.00  0.00     0.037 A 
BRANCH  40  54
ATOM     54  C   UNL A   1      42.521  26.291  27.901  1.00  0.00     0.064 A 
ATOM     55  C   UNL A   1      41.942  25.036  27.674  1.00  0.00     0.173 A 
ATOM     56  C   UNL A   1      43.466  26.757  26.972  1.00  0.00     0.173 A 
ATOM     57  F   UNL A   1      41.046  24.538  28.541  1.00  0.00    -0.203 F 
ATOM     58  C   UNL A   1      42.310  24.266  26.572  1.00  0.00     0.198 A 
ATOM     59  C   UNL A   1      43.812  25.997  25.859  1.00  0.00     0.198 A 
ATOM     60  F   UNL A   1      44.050  27.953  27.143  1.00  0.00    -0.203 F 
ATOM     61  F   UNL A   1      41.774  23.050  26.397  1.00  0.00    -0.200 F 
ATOM     62  C   UNL A   1      43.238  24.750  25.663  1.00  0.00     0.200 A 
ATOM     63  F   UNL A   1      44.703  26.470  24.976  1.00  0.00    -0.200 F 
ATOM     64  F   UNL A   1      43.586  24.011  24.601  1.00  0.00    -0.200 F 
ENDBRANCH  40  54
BRANCH  41  65
ATOM     65  C   UNL A   1      39.525  32.063  35.527  1.00  0.00     0.064 A 
ATOM     66  C   UNL A   1      39.978  33.374  35.718  1.00  0.00     0.173 A 
ATOM     67  C   UNL A   1      38.596  31.553  36.446  1.00  0.00     0.173 A 
ATOM     68  F   UNL A   1      40.885  33.897  34.879  1.00  0.00    -0.203 F 
ATOM     69  C   UNL A   1      39.527  34.142  36.789  1.00  0.00     0.198 A 
ATOM     70  C   UNL A   1      38.124  32.330  37.501  1.00  0.00     0.198 A 
ATOM     71  F   UNL A   1      38.130  30.303  36.307  1.00  0.00    -0.203 F 
ATOM     72  F   UNL A   1      40.003  35.381  36.970  1.00  0.00    -0.200 F 
ATOM     73  C   UNL A   1      38.594  33.623  37.675  1.00  0.00     0.200 A 
ATOM     74  F   UNL A   1      37.214  31.828  38.346  1.00  0.00    -0.200 F 
ATOM     75  F   UNL A   1      38.155  34.365  38.700  1.00  0.00    -0.200 F 
ENDBRANCH  41  65
BRANCH  53  76
ATOM     76  C   UNL A   1      44.685  27.445  34.671  1.00  0.00     0.064 A 
ATOM     77  C   UNL A   1      45.904  28.126  34.783  1.00  0.00     0.173 A 
ATOM     78  C   UNL A   1      44.471  26.327  35.491  1.00  0.00     0.173 A 
ATOM     79  F   UNL A   1      46.157  29.191  34.007  1.00  0.00    -0.203 F 
ATOM     80  C   UNL A   1      46.877  27.699  35.682  1.00  0.00     0.198 A 
ATOM     81  C   UNL A   1      45.436  25.918  36.406  1.00  0.00     0.198 A 
ATOM     82  F   UNL A   1      43.317  25.648  35.422  1.00  0.00    -0.203 F 
ATOM     83  F   UNL A   1      48.048  28.347  35.757  1.00  0.00    -0.200 F 
ATOM     84  C   UNL A   1      46.639  26.602  36.498  1.00  0.00     0.200 A 
ATOM     85  F   UNL A   1      45.201  24.866  37.201  1.00  0.00    -0.200 F 
ATOM     86  F   UNL A   1      47.571  26.203  37.374  1.00  0.00    -0.200 F 
ENDBRANCH  53  76
ENDBRANCH  27  28
ENDBRANCH  20  22
ENDBRANCH  19  20
ENDBRANCH  18  19
ENDBRANCH   1  18
TORSDOF 13
ENDMDL
MODEL 2
REMARK VINA RESULT:     -11.8      0.134      1.655
REMARK SMILES C[C@H]1[C@H](C(=O)OCCOC(=O)c2ccc(-c3c4nc(c(-c5c(F)c(F)c(F)c(F)c5F)c5ccc([nH]5)c(-c5c(F)c(F)c(F)c(F)c5F)c5nc(c(-c6c(F)c(F)c(F)c(F)c6F)c6ccc3[nH]6)C=C5)C=C4)cc2)CC[N@@H+]1Cc1cscn1
REMARK SMILES IDX 7 1 6 2 4 3 5 4 3 5 1 6 2 7 77 8 75 9 76 10 78 12 79 13
REMARK SMILES IDX 80 14 83 15 81 16 82 17 8 18 9 19 10 20 11 21 12 22 13 23
REMARK SMILES IDX 74 24 14 25 73 26 15 27 16 28 17 29 67 30 18 31 72 32 66 33
REMARK SMILES IDX 68 34 19 35 71 36 65 37 64 38 20 40 52 41 32 42 51 43 33 44
REMARK SMILES IDX 36 45 50 46 69 47 34 48 35 49 49 51 70 52 37 53 21 54 22 55
REMARK SMILES IDX 30 56 23 57 24 58 28 59 31 60 25 61 26 62 29 63 27 64 53 65
REMARK SMILES IDX 54 66 62 67 55 68 56 69 60 70 63 71 57 72 58 73 61 74 59 75
REMARK SMILES IDX 38 76 39 77 47 78 40 79 41 80 45 81 48 82 42 83 43 84 46 85
REMARK SMILES IDX 44 86
REMARK H PARENT 77 11 68 39 36 50
REMARK Flexibility Score: inf
ROOT
ATOM      1  C   UNL A   1      31.661  28.383  27.131  1.00  0.00     0.274 C 
ENDROOT
BRANCH   1   2
ATOM      2  O   UNL A   1      32.132  27.478  26.116  1.00  0.00    -0.462 OA
BRANCH   2   3
ATOM      3  C   UNL A   1      31.494  26.293  25.985  1.00  0.00     0.315 C 
ATOM      4  O   UNL A   1      31.385  25.462  26.882  1.00  0.00    -0.252 OA
BRANCH   3   5
ATOM      5  C   UNL A   1      30.893  26.061  24.611  1.00  0.00     0.162 C 
ATOM      6  C   UNL A   1      28.514  26.483  23.876  1.00  0.00     0.076 C 
ATOM      7  C   UNL A   1      29.900  27.111  24.088  1.00  0.00     0.195 C 
ATOM      8  N   UNL A   1      30.400  27.527  22.766  1.00  0.00    -0.327 N 
ATOM      9  C   UNL A   1      31.989  25.948  23.564  1.00  0.00     0.083 C 
ATOM     10  C   UNL A   1      31.385  26.553  22.315  1.00  0.00     0.263 C 
ATOM     11  H   UNL A   1      29.628  27.513  22.100  1.00  0.00     0.348 HD
BRANCH   8  12
ATOM     12  C   UNL A   1      30.794  28.938  22.671  1.00  0.00     0.320 C 
BRANCH  12  13
ATOM     13  C   UNL A   1      29.668  29.924  22.514  1.00  0.00     0.105 A 
ATOM     14  C   UNL A   1      29.148  30.767  23.482  1.00  0.00     0.096 A 
ATOM     15  N   UNL A   1      29.105  30.095  21.252  1.00  0.00    -0.244 NA
ATOM     16  S   UNL A   1      27.893  31.733  22.829  1.00  0.00    -0.130 S 
ATOM     17  C   UNL A   1      28.174  31.021  21.297  1.00  0.00     0.176 A 
ENDBRANCH  12  13
ENDBRANCH   8  12
ENDBRANCH   3   5
ENDBRANCH   2   3
ENDBRANCH   1   2
BRANCH   1  18
ATOM     18  C   UNL A   1      31.782  29.831  26.654  1.00  0.00     0.275 C 
BRANCH  18  19
ATOM     19  O   UNL A   1      33.163  30.193  26.475  1.00  0.00    -0.458 OA
BRANCH  19  20
ATOM     20  C   UNL A   1      33.555  31.295  27.154  1.00  0.00     0.338 C 
ATOM     21  O   UNL A   1      32.930  32.321  27.346  1.00  0.00    -0.246 OA
BRANCH  20  22
ATOM     22  C   UNL A   1      34.858  31.031  27.770  1.00  0.00     0.060 A 
ATOM     23  C   UNL A   1      35.141  29.731  28.193  1.00  0.00     0.016 A 
ATOM     24  C   UNL A   1      35.757  32.069  27.999  1.00  0.00     0.016 A 
ATOM     25  C   UNL A   1      36.320  29.457  28.873  1.00  0.00     0.010 A 
ATOM     26  C   UNL A   1      36.952  31.791  28.663  1.00  0.00     0.010 A 
ATOM     27  C   UNL A   1      37.232  30.487  29.113  1.00  0.00    -0.014 A 
BRANCH  27  28
ATOM     28  C   UNL A   1      38.469  30.229  29.878  1.00  0.00     0.031 A 
ATOM     29  C   UNL A   1      39.501  29.308  29.303  1.00  0.00     0.074 A 
ATOM     30  C   UNL A   1      38.641  30.790  31.087  1.00  0.00     0.049 A 
ATOM     31  N   UNL A   1      40.526  28.745  29.886  1.00  0.00    -0.248 NA
ATOM     32  C   UNL A   1      39.350  28.968  27.880  1.00  0.00     0.031 C 
ATOM     33  C   UNL A   1      37.738  31.760  31.705  1.00  0.00     0.029 A 
ATOM     34  N   UNL A   1      39.626  30.603  32.023  1.00  0.00    -0.354 N 
ATOM     35  C   UNL A   1      41.115  27.948  28.915  1.00  0.00     0.074 A 
ATOM     36  C   UNL A   1      40.339  28.102  27.704  1.00  0.00     0.031 C 
ATOM     37  C   UNL A   1      38.198  32.068  32.928  1.00  0.00     0.029 A 
ATOM     38  C   UNL A   1      39.385  31.265  33.201  1.00  0.00     0.049 A 
ATOM     39  H   UNL A   1      40.424  30.049  31.865  1.00  0.00     0.167 HD
ATOM     40  C   UNL A   1      42.202  27.152  29.040  1.00  0.00     0.037 A 
ATOM     41  C   UNL A   1      40.020  31.183  34.385  1.00  0.00     0.037 A 
ATOM     42  C   UNL A   1      42.973  27.034  30.249  1.00  0.00     0.049 A 
ATOM     43  C   UNL A   1      41.188  30.245  34.518  1.00  0.00     0.074 A 
ATOM     44  C   UNL A   1      44.093  26.260  30.490  1.00  0.00     0.029 A 
ATOM     45  N   UNL A   1      42.698  27.720  31.425  1.00  0.00    -0.354 N 
ATOM     46  N   UNL A   1      41.721  29.457  33.616  1.00  0.00    -0.248 NA
ATOM     47  C   UNL A   1      41.835  30.171  35.835  1.00  0.00     0.031 C 
ATOM     48  C   UNL A   1      44.476  26.450  31.822  1.00  0.00     0.029 A 
ATOM     49  C   UNL A   1      43.622  27.377  32.398  1.00  0.00     0.049 A 
ATOM     50  H   UNL A   1      41.957  28.356  31.548  1.00  0.00     0.167 HD
ATOM     51  C   UNL A   1      42.780  28.817  34.243  1.00  0.00     0.074 A 
ATOM     52  C   UNL A   1      42.815  29.308  35.606  1.00  0.00     0.031 C 
ATOM     53  C   UNL A   1      43.645  27.904  33.739  1.00  0.00     0.037 A 
BRANCH  40  54
ATOM     54  C   UNL A   1      42.594  26.319  27.857  1.00  0.00     0.064 A 
ATOM     55  C   UNL A   1      43.563  26.743  26.938  1.00  0.00     0.173 A 
ATOM     56  C   UNL A   1      42.004  25.060  27.656  1.00  0.00     0.173 A 
ATOM     57  F   UNL A   1      44.144  27.945  27.076  1.00  0.00    -0.203 F 
ATOM     58  C   UNL A   1      43.913  25.948  25.849  1.00  0.00     0.198 A 
ATOM     59  C   UNL A   1      42.375  24.257  26.582  1.00  0.00     0.198 A 
ATOM     60  F   UNL A   1      41.071  24.607  28.507  1.00  0.00    -0.203 F 
ATOM     61  F   UNL A   1      44.812  26.391  24.959  1.00  0.00    -0.200 F 
ATOM     62  C   UNL A   1      43.324  24.704  25.676  1.00  0.00     0.200 A 
ATOM     63  F   UNL A   1      41.812  23.052  26.421  1.00  0.00    -0.200 F 
ATOM     64  F   UNL A   1      43.667  23.939  24.630  1.00  0.00    -0.200 F 
ENDBRANCH  40  54
BRANCH  41  65
ATOM     65  C   UNL A   1      39.534  31.979  35.540  1.00  0.00     0.064 A 
ATOM     66  C   UNL A   1      39.996  33.282  35.763  1.00  0.00     0.173 A 
ATOM     67  C   UNL A   1      38.586  31.461  36.436  1.00  0.00     0.173 A 
ATOM     68  F   UNL A   1      40.920  33.812  34.947  1.00  0.00    -0.203 F 
ATOM     69  C   UNL A   1      39.537  34.034  36.842  1.00  0.00     0.198 A 
ATOM     70  C   UNL A   1      38.107  32.223  37.499  1.00  0.00     0.198 A 
ATOM     71  F   UNL A   1      38.111  30.218  36.267  1.00  0.00    -0.203 F 
ATOM     72  F   UNL A   1      40.022  35.265  37.053  1.00  0.00    -0.200 F 
ATOM     73  C   UNL A   1      38.587  33.508  37.704  1.00  0.00     0.200 A 
ATOM     74  F   UNL A   1      37.179  31.714  38.321  1.00  0.00    -0.200 F 
ATOM     75  F   UNL A   1      38.139  34.235  38.736  1.00  0.00    -0.200 F 
ENDBRANCH  41  65
BRANCH  53  76
ATOM     76  C   UNL A   1      44.738  27.421  34.641  1.00  0.00     0.064 A 
ATOM     77  C   UNL A   1      44.585  26.274  35.432  1.00  0.00     0.173 A 
ATOM     78  C   UNL A   1      45.980  28.074  34.654  1.00  0.00     0.173 A 
ATOM     79  F   UNL A   1      43.411  25.625  35.462  1.00  0.00    -0.203 F 
ATOM     80  C   UNL A   1      45.638  25.801  36.211  1.00  0.00     0.198 A 
ATOM     81  C   UNL A   1      47.036  27.586  35.417  1.00  0.00     0.198 A 
ATOM     82  F   UNL A   1      46.173  29.173  33.910  1.00  0.00    -0.203 F 
ATOM     83  F   UNL A   1      45.464  24.718  36.981  1.00  0.00    -0.200 F 
ATOM     84  C   UNL A   1      46.863  26.452  36.196  1.00  0.00     0.200 A 
ATOM     85  F   UNL A   1      48.222  28.208  35.392  1.00  0.00    -0.200 F 
ATOM     86  F   UNL A   1      47.879  25.986  36.935  1.00  0.00    -0.200 F 
ENDBRANCH  53  76
ENDBRANCH  27  28
ENDBRANCH  20  22
ENDBRANCH  19  20
ENDBRANCH  18  19
ENDBRANCH   1  18
TORSDOF 13
ENDMDL
MODEL 3
REMARK VINA RESULT:     -11.5      5.435     10.386
REMARK SMILES C[C@H]1[C@H](C(=O)OCCOC(=O)c2ccc(-c3c4nc(c(-c5c(F)c(F)c(F)c(F)c5F)c5ccc([nH]5)c(-c5c(F)c(F)c(F)c(F)c5F)c5nc(c(-c6c(F)c(F)c(F)c(F)c6F)c6ccc3[nH]6)C=C5)C=C4)cc2)CC[N@@H+]1Cc1cscn1
REMARK SMILES IDX 7 1 6 2 4 3 5 4 3 5 1 6 2 7 77 8 75 9 76 10 78 12 79 13
REMARK SMILES IDX 80 14 83 15 81 16 82 17 8 18 9 19 10 20 11 21 12 22 13 23
REMARK SMILES IDX 74 24 14 25 73 26 15 27 16 28 17 29 67 30 18 31 72 32 66 33
REMARK SMILES IDX 68 34 19 35 71 36 65 37 64 38 20 40 52 41 32 42 51 43 33 44
REMARK SMILES IDX 36 45 50 46 69 47 34 48 35 49 49 51 70 52 37 53 21 54 22 55
REMARK SMILES IDX 30 56 23 57 24 58 28 59 31 60 25 61 26 62 29 63 27 64 53 65
REMARK SMILES IDX 54 66 62 67 55 68 56 69 60 70 63 71 57 72 58 73 61 74 59 75
REMARK SMILES IDX 38 76 39 77 47 78 40 79 41 80 45 81 48 82 42 83 43 84 46 85
REMARK SMILES IDX 44 86
REMARK H PARENT 77 11 68 39 36 50
REMARK Flexibility Score: inf
ROOT
ATOM      1  C   UNL A   1      36.402  22.749  23.660  1.00  0.00     0.274 C 
ENDROOT
BRANCH   1   2
ATOM      2  O   UNL A   1      35.181  23.228  24.252  1.00  0.00    -0.462 OA
BRANCH   2   3
ATOM      3  C   UNL A   1      34.202  23.648  23.420  1.00  0.00     0.315 C 
ATOM      4  O   UNL A   1      34.355  24.483  22.533  1.00  0.00    -0.252 OA
BRANCH   3   5
ATOM      5  C   UNL A   1      32.858  22.983  23.659  1.00  0.00     0.162 C 
ATOM      6  C   UNL A   1      31.826  21.077  22.362  1.00  0.00     0.076 C 
ATOM      7  C   UNL A   1      32.787  21.456  23.500  1.00  0.00     0.195 C 
ATOM      8  N   UNL A   1      32.210  20.938  24.751  1.00  0.00    -0.327 N 
ATOM      9  C   UNL A   1      32.354  23.292  25.060  1.00  0.00     0.083 C 
ATOM     10  C   UNL A   1      31.601  22.046  25.475  1.00  0.00     0.263 C 
ATOM     11  H   UNL A   1      31.469  20.275  24.527  1.00  0.00     0.348 HD
BRANCH   8  12
ATOM     12  C   UNL A   1      33.102  20.069  25.530  1.00  0.00     0.320 C 
BRANCH  12  13
ATOM     13  C   UNL A   1      33.215  18.647  25.049  1.00  0.00     0.105 A 
ATOM     14  C   UNL A   1      34.230  18.098  24.284  1.00  0.00     0.096 A 
ATOM     15  N   UNL A   1      32.250  17.728  25.455  1.00  0.00    -0.244 NA
ATOM     16  S   UNL A   1      33.943  16.431  24.009  1.00  0.00    -0.130 S 
ATOM     17  C   UNL A   1      32.535  16.538  24.978  1.00  0.00     0.176 A 
ENDBRANCH  12  13
ENDBRANCH   8  12
ENDBRANCH   3   5
ENDBRANCH   2   3
ENDBRANCH   1   2
BRANCH   1  18
ATOM     18  C   UNL A   1      36.931  21.540  24.432  1.00  0.00     0.275 C 
BRANCH  18  19
ATOM     19  O   UNL A   1      37.394  21.932  25.737  1.00  0.00    -0.458 OA
BRANCH  19  20
ATOM     20  C   UNL A   1      38.672  21.592  26.014  1.00  0.00     0.338 C 
ATOM     21  O   UNL A   1      39.240  20.543  25.773  1.00  0.00    -0.246 OA
BRANCH  20  22
ATOM     22  C   UNL A   1      39.363  22.762  26.564  1.00  0.00     0.060 A 
ATOM     23  C   UNL A   1      38.883  24.031  26.235  1.00  0.00     0.016 A 
ATOM     24  C   UNL A   1      40.517  22.609  27.327  1.00  0.00     0.016 A 
ATOM     25  C   UNL A   1      39.566  25.167  26.649  1.00  0.00     0.010 A 
ATOM     26  C   UNL A   1      41.192  23.750  27.762  1.00  0.00     0.010 A 
ATOM     27  C   UNL A   1      40.726  25.032  27.415  1.00  0.00    -0.014 A 
BRANCH  27  28
ATOM     28  C   UNL A   1      41.496  26.224  27.824  1.00  0.00     0.031 A 
ATOM     29  C   UNL A   1      40.814  27.292  28.622  1.00  0.00     0.074 A 
ATOM     30  C   UNL A   1      42.780  26.356  27.450  1.00  0.00     0.049 A 
ATOM     31  N   UNL A   1      41.203  28.514  28.874  1.00  0.00    -0.248 NA
ATOM     32  C   UNL A   1      39.511  26.936  29.207  1.00  0.00     0.031 C 
ATOM     33  C   UNL A   1      43.562  25.343  26.740  1.00  0.00     0.029 A 
ATOM     34  N   UNL A   1      43.647  27.409  27.595  1.00  0.00    -0.354 N 
ATOM     35  C   UNL A   1      40.174  29.088  29.606  1.00  0.00     0.074 A 
ATOM     36  C   UNL A   1      39.145  28.083  29.763  1.00  0.00     0.031 C 
ATOM     37  C   UNL A   1      44.787  25.833  26.491  1.00  0.00     0.029 A 
ATOM     38  C   UNL A   1      44.848  27.212  26.962  1.00  0.00     0.049 A 
ATOM     39  H   UNL A   1      43.427  28.224  28.102  1.00  0.00     0.167 HD
ATOM     40  C   UNL A   1      40.100  30.350  30.089  1.00  0.00     0.037 A 
ATOM     41  C   UNL A   1      45.859  28.072  26.738  1.00  0.00     0.037 A 
ATOM     42  C   UNL A   1      41.147  31.326  29.940  1.00  0.00     0.049 A 
ATOM     43  C   UNL A   1      45.730  29.488  27.230  1.00  0.00     0.074 A 
ATOM     44  C   UNL A   1      41.183  32.634  30.389  1.00  0.00     0.029 A 
ATOM     45  N   UNL A   1      42.352  31.090  29.291  1.00  0.00    -0.354 N 
ATOM     46  N   UNL A   1      44.740  30.048  27.883  1.00  0.00    -0.248 NA
ATOM     47  C   UNL A   1      46.847  30.397  26.941  1.00  0.00     0.031 C 
ATOM     48  C   UNL A   1      42.395  33.201  29.981  1.00  0.00     0.029 A 
ATOM     49  C   UNL A   1      43.133  32.234  29.317  1.00  0.00     0.049 A 
ATOM     50  H   UNL A   1      42.613  30.238  28.875  1.00  0.00     0.167 HD
ATOM     51  C   UNL A   1      45.124  31.361  28.110  1.00  0.00     0.074 A 
ATOM     52  C   UNL A   1      46.440  31.517  27.523  1.00  0.00     0.031 C 
ATOM     53  C   UNL A   1      44.451  32.350  28.746  1.00  0.00     0.037 A 
BRANCH  40  54
ATOM     54  C   UNL A   1      38.834  30.758  30.781  1.00  0.00     0.064 A 
ATOM     55  C   UNL A   1      38.705  30.717  32.176  1.00  0.00     0.173 A 
ATOM     56  C   UNL A   1      37.741  31.223  30.033  1.00  0.00     0.173 A 
ATOM     57  F   UNL A   1      39.715  30.265  32.935  1.00  0.00    -0.203 F 
ATOM     58  C   UNL A   1      37.520  31.106  32.797  1.00  0.00     0.198 A 
ATOM     59  C   UNL A   1      36.568  31.635  30.657  1.00  0.00     0.198 A 
ATOM     60  F   UNL A   1      37.814  31.282  28.694  1.00  0.00    -0.203 F 
ATOM     61  F   UNL A   1      37.403  31.019  34.129  1.00  0.00    -0.200 F 
ATOM     62  C   UNL A   1      36.456  31.570  32.038  1.00  0.00     0.200 A 
ATOM     63  F   UNL A   1      35.544  32.092  29.924  1.00  0.00    -0.200 F 
ATOM     64  F   UNL A   1      35.318  31.949  32.637  1.00  0.00    -0.200 F 
ENDBRANCH  40  54
BRANCH  41  65
ATOM     65  C   UNL A   1      47.054  27.626  25.978  1.00  0.00     0.064 A 
ATOM     66  C   UNL A   1      48.183  27.128  26.639  1.00  0.00     0.173 A 
ATOM     67  C   UNL A   1      47.086  27.673  24.576  1.00  0.00     0.173 A 
ATOM     68  F   UNL A   1      48.209  27.086  27.980  1.00  0.00    -0.203 F 
ATOM     69  C   UNL A   1      49.303  26.701  25.929  1.00  0.00     0.198 A 
ATOM     70  C   UNL A   1      48.195  27.221  23.865  1.00  0.00     0.198 A 
ATOM     71  F   UNL A   1      46.030  28.141  23.895  1.00  0.00    -0.203 F 
ATOM     72  F   UNL A   1      50.385  26.263  26.586  1.00  0.00    -0.200 F 
ATOM     73  C   UNL A   1      49.306  26.740  24.542  1.00  0.00     0.200 A 
ATOM     74  F   UNL A   1      48.187  27.249  22.525  1.00  0.00    -0.200 F 
ATOM     75  F   UNL A   1      50.379  26.322  23.860  1.00  0.00    -0.200 F 
ENDBRANCH  41  65
BRANCH  53  76
ATOM     76  C   UNL A   1      45.143  33.669  28.894  1.00  0.00     0.064 A 
ATOM     77  C   UNL A   1      46.031  33.919  29.949  1.00  0.00     0.173 A 
ATOM     78  C   UNL A   1      44.970  34.667  27.922  1.00  0.00     0.173 A 
ATOM     79  F   UNL A   1      46.217  33.000  30.908  1.00  0.00    -0.203 F 
ATOM     80  C   UNL A   1      46.718  35.128  30.029  1.00  0.00     0.198 A 
ATOM     81  C   UNL A   1      45.676  35.864  27.993  1.00  0.00     0.198 A 
ATOM     82  F   UNL A   1      44.134  34.469  26.892  1.00  0.00    -0.203 F 
ATOM     83  F   UNL A   1      47.543  35.359  31.060  1.00  0.00    -0.200 F 
ATOM     84  C   UNL A   1      46.546  36.094  29.048  1.00  0.00     0.200 A 
ATOM     85  F   UNL A   1      45.518  36.790  27.040  1.00  0.00    -0.200 F 
ATOM     86  F   UNL A   1      47.220  37.249  29.120  1.00  0.00    -0.200 F 
ENDBRANCH  53  76
ENDBRANCH  27  28
ENDBRANCH  20  22
ENDBRANCH  19  20
ENDBRANCH  18  19
ENDBRANCH   1  18
TORSDOF 13
ENDMDL
