MODEL 1
REMARK VINA RESULT:     -11.8      0.000      0.000
REMARK SMILES O=C(N[C@@H](Cc1ccc(O)cc1)C(=O)N[C@@H](Cc1c[nH]c2ccccc12)C(=O)N[C@@H](CO)C(=O)OCCOC(=O)c1ccc(-c2c3nc(c(-c4c(F)c(F)c(F)c(F)c4F)c4ccc([nH]4)c(-c4c(F)c(F)c(F)c(F)c4F)c4nc(c(-c5c(F)c(F)c(F)c(F)c5F)c5ccc2[nH]5)C=C4)C=C3)cc1)c1ccc(F)cc1
REMARK SMILES IDX 33 1 34 2 30 3 29 4 27 5 28 6 16 8 15 9 13 10 14 11 4 13
REMARK SMILES IDX 3 14 1 15 2 16 104 18 105 19 110 20 106 21 109 22 107 23
REMARK SMILES IDX 108 24 5 25 6 26 7 27 12 28 8 29 11 30 9 31 10 32 17 34
REMARK SMILES IDX 18 35 19 36 26 37 20 38 21 39 25 40 22 42 24 43 23 44 31 45
REMARK SMILES IDX 32 46 35 48 36 49 37 50 38 51 39 52 40 53 41 54 42 55 103 56
REMARK SMILES IDX 43 57 102 58 44 59 45 60 46 61 96 62 47 63 101 64 95 65
REMARK SMILES IDX 97 66 48 67 100 68 94 69 93 70 49 72 81 73 61 74 80 75 62 76
REMARK SMILES IDX 65 77 79 78 98 79 63 80 64 81 78 83 99 84 66 85 50 86 51 87
REMARK SMILES IDX 59 88 52 89 53 90 57 91 60 92 54 93 55 94 58 95 56 96 82 97
REMARK SMILES IDX 83 98 91 99 84 100 85 101 89 102 92 103 86 104 87 105 90 106
REMARK SMILES IDX 88 107 67 108 68 109 76 110 69 111 70 112 74 113 77 114
REMARK SMILES IDX 71 115 72 116 75 117 73 118
REMARK H PARENT 29 7 15 12 3 17 10 33 20 41 32 47 97 71 65 82
REMARK Flexibility Score: inf
ROOT
ATOM      1  C   UNL A   1      41.070  25.715  25.954  1.00  0.00     0.331 C 
ATOM      2  O   UNL A   1      41.179  26.794  25.378  1.00  0.00    -0.250 OA
ENDROOT
BRANCH   1   3
ATOM      3  C   UNL A   1      39.612  25.096  26.439  1.00  0.00     0.218 C 
BRANCH   3   4
ATOM      4  N   UNL A   1      39.375  23.624  26.084  1.00  0.00    -0.339 N 
ATOM      5  C   UNL A   1      38.441  22.655  25.883  1.00  0.00     0.243 C 
ATOM      6  O   UNL A   1      38.957  21.547  26.174  1.00  0.00    -0.273 OA
ATOM      7  H   UNL A   1      40.258  23.212  25.945  1.00  0.00     0.164 HD
BRANCH   5   8
ATOM      8  C   UNL A   1      36.861  22.537  25.438  1.00  0.00     0.175 C 
BRANCH   8   9
ATOM      9  N   UNL A   1      36.484  22.947  24.089  1.00  0.00    -0.342 N 
ATOM     10  C   UNL A   1      35.273  23.500  23.739  1.00  0.00     0.243 C 
ATOM     11  O   UNL A   1      34.889  23.245  22.591  1.00  0.00    -0.273 OA
ATOM     12  H   UNL A   1      37.148  22.817  23.372  1.00  0.00     0.164 HD
BRANCH  10  13
ATOM     13  C   UNL A   1      34.301  24.273  24.737  1.00  0.00     0.176 C 
BRANCH  13  14
ATOM     14  N   UNL A   1      33.515  23.458  25.687  1.00  0.00    -0.340 N 
ATOM     15  O   UNL A   1      31.829  22.888  27.047  1.00  0.00    -0.269 OA
ATOM     16  C   UNL A   1      32.200  23.525  26.074  1.00  0.00     0.251 C 
ATOM     17  H   UNL A   1      34.028  22.737  26.119  1.00  0.00     0.164 HD
BRANCH  16  18
ATOM     18  C   UNL A   1      31.266  24.409  25.357  1.00  0.00     0.040 A 
ATOM     19  C   UNL A   1      30.914  24.141  24.031  1.00  0.00     0.017 A 
ATOM     20  C   UNL A   1      30.752  25.528  26.022  1.00  0.00     0.017 A 
ATOM     21  C   UNL A   1      30.134  25.057  23.330  1.00  0.00     0.040 A 
ATOM     22  C   UNL A   1      29.957  26.433  25.320  1.00  0.00     0.040 A 
ATOM     23  C   UNL A   1      29.675  26.200  23.975  1.00  0.00     0.123 A 
ATOM     24  F   UNL A   1      28.953  27.095  23.290  1.00  0.00    -0.207 F 
ENDBRANCH  16  18
ENDBRANCH  13  14
BRANCH  13  25
ATOM     25  C   UNL A   1      34.756  25.643  25.310  1.00  0.00     0.070 C 
BRANCH  25  26
ATOM     26  C   UNL A   1      33.997  26.934  25.072  1.00  0.00    -0.045 A 
ATOM     27  C   UNL A   1      33.515  27.340  23.820  1.00  0.00     0.007 A 
ATOM     28  C   UNL A   1      33.775  27.787  26.171  1.00  0.00     0.007 A 
ATOM     29  C   UNL A   1      32.706  28.477  23.707  1.00  0.00     0.046 A 
ATOM     30  C   UNL A   1      32.950  28.907  26.063  1.00  0.00     0.046 A 
ATOM     31  C   UNL A   1      32.368  29.200  24.841  1.00  0.00     0.115 A 
BRANCH  31  32
ATOM     32  O   UNL A   1      31.400  30.153  24.740  1.00  0.00    -0.508 OA
ATOM     33  H   UNL A   1      30.562  29.932  24.384  1.00  0.00     0.293 HD
ENDBRANCH  31  32
ENDBRANCH  25  26
ENDBRANCH  13  25
ENDBRANCH  10  13
ENDBRANCH   8   9
BRANCH   8  34
ATOM     34  C   UNL A   1      35.752  21.577  25.897  1.00  0.00     0.072 C 
BRANCH  34  35
ATOM     35  C   UNL A   1      35.794  20.346  25.191  1.00  0.00    -0.020 A 
ATOM     36  C   UNL A   1      36.809  19.423  25.102  1.00  0.00     0.087 A 
ATOM     37  C   UNL A   1      34.592  19.875  24.683  1.00  0.00     0.003 A 
ATOM     38  N   UNL A   1      36.211  18.296  24.640  1.00  0.00    -0.361 N 
ATOM     39  C   UNL A   1      34.867  18.562  24.511  1.00  0.00     0.046 A 
ATOM     40  C   UNL A   1      33.274  20.374  24.588  1.00  0.00     0.010 A 
ATOM     41  H   UNL A   1      36.657  17.443  24.434  1.00  0.00     0.166 HD
ATOM     42  C   UNL A   1      33.820  17.731  24.311  1.00  0.00     0.026 A 
ATOM     43  C   UNL A   1      32.206  19.503  24.506  1.00  0.00     0.001 A 
ATOM     44  C   UNL A   1      32.486  18.170  24.415  1.00  0.00     0.002 A 
ENDBRANCH  34  35
ENDBRANCH   8  34
ENDBRANCH   5   8
ENDBRANCH   3   4
BRANCH   3  45
ATOM     45  C   UNL A   1      39.418  25.254  27.955  1.00  0.00     0.193 C 
BRANCH  45  46
ATOM     46  O   UNL A   1      40.623  25.081  28.691  1.00  0.00    -0.394 OA
ATOM     47  H   UNL A   1      40.441  24.571  29.495  1.00  0.00     0.210 HD
ENDBRANCH  45  46
ENDBRANCH   3  45
ENDBRANCH   1   3
BRANCH   1  48
ATOM     48  O   UNL A   1      42.184  24.965  26.358  1.00  0.00    -0.460 OA
BRANCH  48  49
ATOM     49  C   UNL A   1      43.417  24.626  25.501  1.00  0.00     0.274 C 
BRANCH  49  50
ATOM     50  C   UNL A   1      44.922  25.506  25.457  1.00  0.00     0.275 C 
BRANCH  50  51
ATOM     51  O   UNL A   1      46.297  24.886  25.692  1.00  0.00    -0.458 OA
BRANCH  51  52
ATOM     52  C   UNL A   1      46.871  24.857  26.983  1.00  0.00     0.338 C 
ATOM     53  O   UNL A   1      47.921  24.271  27.220  1.00  0.00    -0.246 OA
BRANCH  52  54
ATOM     54  C   UNL A   1      46.199  25.735  28.095  1.00  0.00     0.060 A 
ATOM     55  C   UNL A   1      45.331  25.186  29.014  1.00  0.00     0.016 A 
ATOM     56  C   UNL A   1      46.261  27.151  28.158  1.00  0.00     0.016 A 
ATOM     57  C   UNL A   1      44.423  25.993  29.765  1.00  0.00     0.010 A 
ATOM     58  C   UNL A   1      45.486  27.946  29.111  1.00  0.00     0.010 A 
ATOM     59  C   UNL A   1      44.518  27.380  29.955  1.00  0.00    -0.014 A 
BRANCH  59  60
ATOM     60  C   UNL A   1      43.657  28.081  31.055  1.00  0.00     0.031 A 
ATOM     61  C   UNL A   1      42.241  28.650  30.844  1.00  0.00     0.074 A 
ATOM     62  C   UNL A   1      44.116  28.225  32.334  1.00  0.00     0.049 A 
ATOM     63  N   UNL A   1      41.552  29.493  31.598  1.00  0.00    -0.248 NA
ATOM     64  C   UNL A   1      41.505  28.216  29.654  1.00  0.00     0.031 C 
ATOM     65  C   UNL A   1      45.401  27.745  32.842  1.00  0.00     0.029 A 
ATOM     66  N   UNL A   1      43.555  28.805  33.468  1.00  0.00    -0.354 N 
ATOM     67  C   UNL A   1      40.340  29.735  30.944  1.00  0.00     0.074 A 
ATOM     68  C   UNL A   1      40.384  28.928  29.736  1.00  0.00     0.031 C 
ATOM     69  C   UNL A   1      45.476  27.915  34.162  1.00  0.00     0.029 A 
ATOM     70  C   UNL A   1      44.368  28.750  34.584  1.00  0.00     0.049 A 
ATOM     71  H   UNL A   1      42.661  29.219  33.474  1.00  0.00     0.167 HD
ATOM     72  C   UNL A   1      39.302  30.556  31.289  1.00  0.00     0.037 A 
ATOM     73  C   UNL A   1      44.351  29.366  35.786  1.00  0.00     0.037 A 
ATOM     74  C   UNL A   1      39.196  31.315  32.523  1.00  0.00     0.049 A 
ATOM     75  C   UNL A   1      43.270  30.346  36.115  1.00  0.00     0.074 A 
ATOM     76  C   UNL A   1      38.192  32.187  32.927  1.00  0.00     0.029 A 
ATOM     77  N   UNL A   1      40.110  31.278  33.565  1.00  0.00    -0.354 N 
ATOM     78  N   UNL A   1      42.228  30.689  35.404  1.00  0.00    -0.248 NA
ATOM     79  C   UNL A   1      43.384  31.055  37.398  1.00  0.00     0.031 C 
ATOM     80  C   UNL A   1      38.537  32.732  34.173  1.00  0.00     0.029 A 
ATOM     81  C   UNL A   1      39.719  32.142  34.585  1.00  0.00     0.049 A 
ATOM     82  H   UNL A   1      40.921  30.720  33.582  1.00  0.00     0.167 HD
ATOM     83  C   UNL A   1      41.563  31.652  36.147  1.00  0.00     0.074 A 
ATOM     84  C   UNL A   1      42.299  31.815  37.383  1.00  0.00     0.031 C 
ATOM     85  C   UNL A   1      40.444  32.341  35.816  1.00  0.00     0.037 A 
BRANCH  72  86
ATOM     86  C   UNL A   1      38.210  30.783  30.261  1.00  0.00     0.064 A 
ATOM     87  C   UNL A   1      37.207  29.844  29.979  1.00  0.00     0.173 A 
ATOM     88  C   UNL A   1      38.160  32.005  29.559  1.00  0.00     0.173 A 
ATOM     89  F   UNL A   1      37.172  28.673  30.630  1.00  0.00    -0.203 F 
ATOM     90  C   UNL A   1      36.246  30.088  28.993  1.00  0.00     0.198 A 
ATOM     91  C   UNL A   1      37.177  32.259  28.604  1.00  0.00     0.198 A 
ATOM     92  F   UNL A   1      39.061  32.966  29.811  1.00  0.00    -0.203 F 
ATOM     93  F   UNL A   1      35.341  29.144  28.694  1.00  0.00    -0.200 F 
ATOM     94  C   UNL A   1      36.233  31.292  28.305  1.00  0.00     0.200 A 
ATOM     95  F   UNL A   1      37.150  33.439  27.968  1.00  0.00    -0.200 F 
ATOM     96  F   UNL A   1      35.318  31.518  27.353  1.00  0.00    -0.200 F 
ENDBRANCH  72  86
BRANCH  73  97
ATOM     97  C   UNL A   1      45.497  29.164  36.727  1.00  0.00     0.064 A 
ATOM     98  C   UNL A   1      45.488  28.141  37.686  1.00  0.00     0.173 A 
ATOM     99  C   UNL A   1      46.649  29.967  36.650  1.00  0.00     0.173 A 
ATOM    100  F   UNL A   1      44.399  27.374  37.838  1.00  0.00    -0.203 F 
ATOM    101  C   UNL A   1      46.592  27.916  38.509  1.00  0.00     0.198 A 
ATOM    102  C   UNL A   1      47.769  29.709  37.436  1.00  0.00     0.198 A 
ATOM    103  F   UNL A   1      46.713  30.967  35.758  1.00  0.00    -0.203 F 
ATOM    104  F   UNL A   1      46.549  26.950  39.435  1.00  0.00    -0.200 F 
ATOM    105  C   UNL A   1      47.739  28.685  38.368  1.00  0.00     0.200 A 
ATOM    106  F   UNL A   1      48.883  30.434  37.270  1.00  0.00    -0.200 F 
ATOM    107  F   UNL A   1      48.815  28.437  39.128  1.00  0.00    -0.200 F 
ENDBRANCH  73  97
BRANCH  85 108
ATOM    108  C   UNL A   1      39.930  33.328  36.827  1.00  0.00     0.064 A 
ATOM    109  C   UNL A   1      40.452  34.629  36.925  1.00  0.00     0.173 A 
ATOM    110  C   UNL A   1      38.926  32.961  37.738  1.00  0.00     0.173 A 
ATOM    111  F   UNL A   1      41.431  35.027  36.097  1.00  0.00    -0.203 F 
ATOM    112  C   UNL A   1      40.020  35.506  37.917  1.00  0.00     0.198 A 
ATOM    113  C   UNL A   1      38.473  33.853  38.709  1.00  0.00     0.198 A 
ATOM    114  F   UNL A   1      38.392  31.732  37.697  1.00  0.00    -0.203 F 
ATOM    115  F   UNL A   1      40.587  36.716  38.033  1.00  0.00    -0.200 F 
ATOM    116  C   UNL A   1      39.029  35.120  38.806  1.00  0.00     0.200 A 
ATOM    117  F   UNL A   1      37.509  33.480  39.561  1.00  0.00    -0.200 F 
ATOM    118  F   UNL A   1      38.621  35.961  39.766  1.00  0.00    -0.200 F 
ENDBRANCH  85 108
ENDBRANCH  59  60
ENDBRANCH  52  54
ENDBRANCH  51  52
ENDBRANCH  50  51
ENDBRANCH  49  50
ENDBRANCH  48  49
ENDBRANCH   1  48
TORSDOF 24
ENDMDL
MODEL 2
REMARK VINA RESULT:     -11.3      6.853      9.956
REMARK SMILES O=C(N[C@@H](Cc1ccc(O)cc1)C(=O)N[C@@H](Cc1c[nH]c2ccccc12)C(=O)N[C@@H](CO)C(=O)OCCOC(=O)c1ccc(-c2c3nc(c(-c4c(F)c(F)c(F)c(F)c4F)c4ccc([nH]4)c(-c4c(F)c(F)c(F)c(F)c4F)c4nc(c(-c5c(F)c(F)c(F)c(F)c5F)c5ccc2[nH]5)C=C4)C=C3)cc1)c1ccc(F)cc1
REMARK SMILES IDX 33 1 34 2 30 3 29 4 27 5 28 6 16 8 15 9 13 10 14 11 4 13
REMARK SMILES IDX 3 14 1 15 2 16 104 18 105 19 110 20 106 21 109 22 107 23
REMARK SMILES IDX 108 24 5 25 6 26 7 27 12 28 8 29 11 30 9 31 10 32 17 34
REMARK SMILES IDX 18 35 19 36 26 37 20 38 21 39 25 40 22 42 24 43 23 44 31 45
REMARK SMILES IDX 32 46 35 48 36 49 37 50 38 51 39 52 40 53 41 54 42 55 103 56
REMARK SMILES IDX 43 57 102 58 44 59 45 60 46 61 96 62 47 63 101 64 95 65
REMARK SMILES IDX 97 66 48 67 100 68 94 69 93 70 49 72 81 73 61 74 80 75 62 76
REMARK SMILES IDX 65 77 79 78 98 79 63 80 64 81 78 83 99 84 66 85 50 86 51 87
REMARK SMILES IDX 59 88 52 89 53 90 57 91 60 92 54 93 55 94 58 95 56 96 82 97
REMARK SMILES IDX 83 98 91 99 84 100 85 101 89 102 92 103 86 104 87 105 90 106
REMARK SMILES IDX 88 107 67 108 68 109 76 110 69 111 70 112 74 113 77 114
REMARK SMILES IDX 71 115 72 116 75 117 73 118
REMARK H PARENT 29 7 15 12 3 17 10 33 20 41 32 47 97 71 65 82
REMARK Flexibility Score: inf
ROOT
ATOM      1  C   UNL A   1      40.114  24.375  27.011  1.00  0.00     0.331 C 
ATOM      2  O   UNL A   1      40.257  25.193  26.107  1.00  0.00    -0.250 OA
ENDROOT
BRANCH   1   3
ATOM      3  C   UNL A   1      38.903  23.245  27.019  1.00  0.00     0.218 C 
BRANCH   3   4
ATOM      4  N   UNL A   1      37.524  23.757  26.588  1.00  0.00    -0.339 N 
ATOM      5  C   UNL A   1      36.322  23.422  26.047  1.00  0.00     0.243 C 
ATOM      6  O   UNL A   1      35.862  24.432  25.458  1.00  0.00    -0.273 OA
ATOM      7  H   UNL A   1      37.499  24.722  26.782  1.00  0.00     0.164 HD
BRANCH   5   8
ATOM      8  C   UNL A   1      35.360  22.094  25.903  1.00  0.00     0.175 C 
BRANCH   8   9
ATOM      9  N   UNL A   1      34.397  21.812  26.963  1.00  0.00    -0.342 N 
ATOM     10  C   UNL A   1      33.255  22.539  27.207  1.00  0.00     0.243 C 
ATOM     11  O   UNL A   1      32.896  22.576  28.391  1.00  0.00    -0.273 OA
ATOM     12  H   UNL A   1      34.579  21.041  27.549  1.00  0.00     0.164 HD
BRANCH  10  13
ATOM     13  C   UNL A   1      32.497  23.436  26.131  1.00  0.00     0.176 C 
BRANCH  13  14
ATOM     14  N   UNL A   1      31.847  22.738  25.002  1.00  0.00    -0.340 N 
ATOM     15  O   UNL A   1      30.812  22.470  23.032  1.00  0.00    -0.269 OA
ATOM     16  C   UNL A   1      31.563  23.143  23.721  1.00  0.00     0.251 C 
ATOM     17  H   UNL A   1      31.567  21.816  25.206  1.00  0.00     0.164 HD
BRANCH  16  18
ATOM     18  C   UNL A   1      32.111  24.411  23.212  1.00  0.00     0.040 A 
ATOM     19  C   UNL A   1      31.256  25.445  22.820  1.00  0.00     0.017 A 
ATOM     20  C   UNL A   1      33.499  24.553  23.110  1.00  0.00     0.017 A 
ATOM     21  C   UNL A   1      31.786  26.584  22.220  1.00  0.00     0.040 A 
ATOM     22  C   UNL A   1      34.026  25.703  22.524  1.00  0.00     0.040 A 
ATOM     23  C   UNL A   1      33.164  26.697  22.064  1.00  0.00     0.123 A 
ATOM     24  F   UNL A   1      33.669  27.778  21.458  1.00  0.00    -0.207 F 
ENDBRANCH  16  18
ENDBRANCH  13  14
BRANCH  13  25
ATOM     25  C   UNL A   1      31.729  24.697  26.616  1.00  0.00     0.070 C 
BRANCH  25  26
ATOM     26  C   UNL A   1      32.134  26.108  26.240  1.00  0.00    -0.045 A 
ATOM     27  C   UNL A   1      33.463  26.540  26.126  1.00  0.00     0.007 A 
ATOM     28  C   UNL A   1      31.113  27.052  26.008  1.00  0.00     0.007 A 
ATOM     29  C   UNL A   1      33.753  27.821  25.641  1.00  0.00     0.046 A 
ATOM     30  C   UNL A   1      31.402  28.321  25.504  1.00  0.00     0.046 A 
ATOM     31  C   UNL A   1      32.721  28.666  25.261  1.00  0.00     0.115 A 
BRANCH  31  32
ATOM     32  O   UNL A   1      33.031  29.804  24.580  1.00  0.00    -0.508 OA
ATOM     33  H   UNL A   1      33.222  29.764  23.663  1.00  0.00     0.293 HD
ENDBRANCH  31  32
ENDBRANCH  25  26
ENDBRANCH  13  25
ENDBRANCH  10  13
ENDBRANCH   8   9
BRANCH   8  34
ATOM     34  C   UNL A   1      34.823  21.367  24.660  1.00  0.00     0.072 C 
BRANCH  34  35
ATOM     35  C   UNL A   1      35.305  20.033  24.580  1.00  0.00    -0.020 A 
ATOM     36  C   UNL A   1      36.541  19.528  24.906  1.00  0.00     0.087 A 
ATOM     37  C   UNL A   1      34.363  19.042  24.345  1.00  0.00     0.003 A 
ATOM     38  N   UNL A   1      36.352  18.187  25.001  1.00  0.00    -0.361 N 
ATOM     39  C   UNL A   1      35.017  17.940  24.776  1.00  0.00     0.046 A 
ATOM     40  C   UNL A   1      32.983  19.014  24.046  1.00  0.00     0.010 A 
ATOM     41  H   UNL A   1      37.043  17.514  25.196  1.00  0.00     0.166 HD
ATOM     42  C   UNL A   1      34.283  16.823  24.977  1.00  0.00     0.026 A 
ATOM     43  C   UNL A   1      32.225  17.907  24.370  1.00  0.00     0.001 A 
ATOM     44  C   UNL A   1      32.878  16.824  24.883  1.00  0.00     0.002 A 
ENDBRANCH  34  35
ENDBRANCH   8  34
ENDBRANCH   5   8
ENDBRANCH   3   4
BRANCH   3  45
ATOM     45  C   UNL A   1      39.260  22.043  26.130  1.00  0.00     0.193 C 
BRANCH  45  46
ATOM     46  O   UNL A   1      40.608  22.067  25.677  1.00  0.00    -0.394 OA
ATOM     47  H   UNL A   1      40.995  21.183  25.766  1.00  0.00     0.210 HD
ENDBRANCH  45  46
ENDBRANCH   3  45
ENDBRANCH   1   3
BRANCH   1  48
ATOM     48  O   UNL A   1      40.893  24.400  28.176  1.00  0.00    -0.460 OA
BRANCH  48  49
ATOM     49  C   UNL A   1      41.745  23.244  28.731  1.00  0.00     0.274 C 
BRANCH  49  50
ATOM     50  C   UNL A   1      43.027  22.408  27.897  1.00  0.00     0.275 C 
BRANCH  50  51
ATOM     51  O   UNL A   1      43.461  22.697  26.462  1.00  0.00    -0.458 OA
BRANCH  51  52
ATOM     52  C   UNL A   1      44.818  22.601  26.078  1.00  0.00     0.338 C 
ATOM     53  O   UNL A   1      45.322  21.548  25.709  1.00  0.00    -0.246 OA
BRANCH  52  54
ATOM     54  C   UNL A   1      45.642  23.933  25.989  1.00  0.00     0.060 A 
ATOM     55  C   UNL A   1      46.498  24.313  27.000  1.00  0.00     0.016 A 
ATOM     56  C   UNL A   1      45.462  24.934  25.000  1.00  0.00     0.016 A 
ATOM     57  C   UNL A   1      46.947  25.662  27.136  1.00  0.00     0.010 A 
ATOM     58  C   UNL A   1      46.130  26.235  25.044  1.00  0.00     0.010 A 
ATOM     59  C   UNL A   1      46.903  26.650  26.141  1.00  0.00    -0.014 A 
BRANCH  59  60
ATOM     60  C   UNL A   1      47.717  27.973  26.311  1.00  0.00     0.031 A 
ATOM     61  C   UNL A   1      47.108  29.356  26.610  1.00  0.00     0.074 A 
ATOM     62  C   UNL A   1      49.080  27.987  26.221  1.00  0.00     0.049 A 
ATOM     63  N   UNL A   1      47.652  30.558  26.495  1.00  0.00    -0.248 NA
ATOM     64  C   UNL A   1      45.730  29.399  27.108  1.00  0.00     0.031 C 
ATOM     65  C   UNL A   1      49.934  26.822  25.990  1.00  0.00     0.029 A 
ATOM     66  N   UNL A   1      50.012  29.014  26.325  1.00  0.00    -0.354 N 
ATOM     67  C   UNL A   1      46.670  31.491  26.841  1.00  0.00     0.074 A 
ATOM     68  C   UNL A   1      45.497  30.706  27.192  1.00  0.00     0.031 C 
ATOM     69  C   UNL A   1      51.220  27.155  26.104  1.00  0.00     0.029 A 
ATOM     70  C   UNL A   1      51.320  28.601  26.158  1.00  0.00     0.049 A 
ATOM     71  H   UNL A   1      49.763  29.951  26.502  1.00  0.00     0.167 HD
ATOM     72  C   UNL A   1      46.717  32.857  26.850  1.00  0.00     0.037 A 
ATOM     73  C   UNL A   1      52.487  29.248  25.943  1.00  0.00     0.037 A 
ATOM     74  C   UNL A   1      47.893  33.666  26.578  1.00  0.00     0.049 A 
ATOM     75  C   UNL A   1      52.513  30.741  25.845  1.00  0.00     0.074 A 
ATOM     76  C   UNL A   1      48.010  35.050  26.539  1.00  0.00     0.029 A 
ATOM     77  N   UNL A   1      49.163  33.170  26.322  1.00  0.00    -0.354 N 
ATOM     78  N   UNL A   1      51.533  31.592  26.003  1.00  0.00    -0.248 NA
ATOM     79  C   UNL A   1      53.800  31.361  25.501  1.00  0.00     0.031 C 
ATOM     80  C   UNL A   1      49.325  35.386  26.187  1.00  0.00     0.029 A 
ATOM     81  C   UNL A   1      50.052  34.214  26.081  1.00  0.00     0.049 A 
ATOM     82  H   UNL A   1      49.402  32.215  26.313  1.00  0.00     0.167 HD
ATOM     83  C   UNL A   1      52.080  32.845  25.776  1.00  0.00     0.074 A 
ATOM     84  C   UNL A   1      53.488  32.648  25.505  1.00  0.00     0.031 C 
ATOM     85  C   UNL A   1      51.454  34.046  25.786  1.00  0.00     0.037 A 
BRANCH  72  86
ATOM     86  C   UNL A   1      45.415  33.607  27.057  1.00  0.00     0.064 A 
ATOM     87  C   UNL A   1      44.972  34.054  28.310  1.00  0.00     0.173 A 
ATOM     88  C   UNL A   1      44.603  33.911  25.945  1.00  0.00     0.173 A 
ATOM     89  F   UNL A   1      45.708  33.830  29.409  1.00  0.00    -0.203 F 
ATOM     90  C   UNL A   1      43.745  34.708  28.452  1.00  0.00     0.198 A 
ATOM     91  C   UNL A   1      43.398  34.596  26.086  1.00  0.00     0.198 A 
ATOM     92  F   UNL A   1      44.988  33.554  24.710  1.00  0.00    -0.203 F 
ATOM     93  F   UNL A   1      43.312  35.062  29.672  1.00  0.00    -0.200 F 
ATOM     94  C   UNL A   1      42.958  34.975  27.342  1.00  0.00     0.200 A 
ATOM     95  F   UNL A   1      42.659  34.883  25.004  1.00  0.00    -0.200 F 
ATOM     96  F   UNL A   1      41.776  35.592  27.483  1.00  0.00    -0.200 F 
ENDBRANCH  72  86
BRANCH  73  97
ATOM     97  C   UNL A   1      53.724  28.452  25.666  1.00  0.00     0.064 A 
ATOM     98  C   UNL A   1      54.089  28.093  24.361  1.00  0.00     0.173 A 
ATOM     99  C   UNL A   1      54.592  28.077  26.707  1.00  0.00     0.173 A 
ATOM    100  F   UNL A   1      53.278  28.383  23.334  1.00  0.00    -0.203 F 
ATOM    101  C   UNL A   1      55.282  27.415  24.109  1.00  0.00     0.198 A 
ATOM    102  C   UNL A   1      55.806  27.445  26.449  1.00  0.00     0.198 A 
ATOM    103  F   UNL A   1      54.291  28.385  27.978  1.00  0.00    -0.203 F 
ATOM    104  F   UNL A   1      55.595  27.059  22.856  1.00  0.00    -0.200 F 
ATOM    105  C   UNL A   1      56.148  27.111  25.149  1.00  0.00     0.200 A 
ATOM    106  F   UNL A   1      56.651  27.185  27.454  1.00  0.00    -0.200 F 
ATOM    107  F   UNL A   1      57.315  26.500  24.899  1.00  0.00    -0.200 F 
ENDBRANCH  73  97
BRANCH  85 108
ATOM    108  C   UNL A   1      52.304  35.257  25.513  1.00  0.00     0.064 A 
ATOM    109  C   UNL A   1      52.741  35.579  24.217  1.00  0.00     0.173 A 
ATOM    110  C   UNL A   1      52.719  36.089  26.565  1.00  0.00     0.173 A 
ATOM    111  F   UNL A   1      52.396  34.805  23.177  1.00  0.00    -0.203 F 
ATOM    112  C   UNL A   1      53.590  36.660  23.992  1.00  0.00     0.198 A 
ATOM    113  C   UNL A   1      53.543  37.190  26.331  1.00  0.00     0.198 A 
ATOM    114  F   UNL A   1      52.338  35.831  27.824  1.00  0.00    -0.203 F 
ATOM    115  F   UNL A   1      54.052  36.902  22.756  1.00  0.00    -0.200 F 
ATOM    116  C   UNL A   1      53.989  37.466  25.047  1.00  0.00     0.200 A 
ATOM    117  F   UNL A   1      53.920  37.972  27.351  1.00  0.00    -0.200 F 
ATOM    118  F   UNL A   1      54.815  38.499  24.831  1.00  0.00    -0.200 F 
ENDBRANCH  85 108
ENDBRANCH  59  60
ENDBRANCH  52  54
ENDBRANCH  51  52
ENDBRANCH  50  51
ENDBRANCH  49  50
ENDBRANCH  48  49
ENDBRANCH   1  48
TORSDOF 24
ENDMDL
MODEL 3
REMARK VINA RESULT:     -11.2      6.286     10.564
REMARK SMILES O=C(N[C@@H](Cc1ccc(O)cc1)C(=O)N[C@@H](Cc1c[nH]c2ccccc12)C(=O)N[C@@H](CO)C(=O)OCCOC(=O)c1ccc(-c2c3nc(c(-c4c(F)c(F)c(F)c(F)c4F)c4ccc([nH]4)c(-c4c(F)c(F)c(F)c(F)c4F)c4nc(c(-c5c(F)c(F)c(F)c(F)c5F)c5ccc2[nH]5)C=C4)C=C3)cc1)c1ccc(F)cc1
REMARK SMILES IDX 33 1 34 2 30 3 29 4 27 5 28 6 16 8 15 9 13 10 14 11 4 13
REMARK SMILES IDX 3 14 1 15 2 16 104 18 105 19 110 20 106 21 109 22 107 23
REMARK SMILES IDX 108 24 5 25 6 26 7 27 12 28 8 29 11 30 9 31 10 32 17 34
REMARK SMILES IDX 18 35 19 36 26 37 20 38 21 39 25 40 22 42 24 43 23 44 31 45
REMARK SMILES IDX 32 46 35 48 36 49 37 50 38 51 39 52 40 53 41 54 42 55 103 56
REMARK SMILES IDX 43 57 102 58 44 59 45 60 46 61 96 62 47 63 101 64 95 65
REMARK SMILES IDX 97 66 48 67 100 68 94 69 93 70 49 72 81 73 61 74 80 75 62 76
REMARK SMILES IDX 65 77 79 78 98 79 63 80 64 81 78 83 99 84 66 85 50 86 51 87
REMARK SMILES IDX 59 88 52 89 53 90 57 91 60 92 54 93 55 94 58 95 56 96 82 97
REMARK SMILES IDX 83 98 91 99 84 100 85 101 89 102 92 103 86 104 87 105 90 106
REMARK SMILES IDX 88 107 67 108 68 109 76 110 69 111 70 112 74 113 77 114
REMARK SMILES IDX 71 115 72 116 75 117 73 118
REMARK H PARENT 29 7 15 12 3 17 10 33 20 41 32 47 97 71 65 82
REMARK Flexibility Score: inf
ROOT
ATOM      1  C   UNL A   1      38.011  22.236  25.994  1.00  0.00     0.331 C 
ATOM      2  O   UNL A   1      38.094  23.446  26.188  1.00  0.00    -0.250 OA
ENDROOT
BRANCH   1   3
ATOM      3  C   UNL A   1      36.725  21.534  25.221  1.00  0.00     0.218 C 
BRANCH   3   4
ATOM      4  N   UNL A   1      36.027  22.413  24.178  1.00  0.00    -0.339 N 
ATOM      5  C   UNL A   1      34.898  22.598  23.441  1.00  0.00     0.243 C 
ATOM      6  O   UNL A   1      35.216  23.188  22.378  1.00  0.00    -0.273 OA
ATOM      7  H   UNL A   1      36.649  23.141  23.947  1.00  0.00     0.164 HD
BRANCH   5   8
ATOM      8  C   UNL A   1      33.296  22.227  23.523  1.00  0.00     0.175 C 
BRANCH   8   9
ATOM      9  N   UNL A   1      32.333  23.164  22.953  1.00  0.00    -0.342 N 
ATOM     10  C   UNL A   1      31.323  23.782  23.652  1.00  0.00     0.243 C 
ATOM     11  O   UNL A   1      30.303  24.033  22.996  1.00  0.00    -0.273 OA
ATOM     12  H   UNL A   1      32.413  23.370  21.993  1.00  0.00     0.164 HD
BRANCH  10  13
ATOM     13  C   UNL A   1      31.321  24.030  25.226  1.00  0.00     0.176 C 
BRANCH  13  14
ATOM     14  N   UNL A   1      32.586  23.791  25.952  1.00  0.00    -0.340 N 
ATOM     15  O   UNL A   1      34.752  23.992  26.492  1.00  0.00    -0.269 OA
ATOM     16  C   UNL A   1      33.757  24.506  26.003  1.00  0.00     0.251 C 
ATOM     17  H   UNL A   1      32.589  22.970  26.496  1.00  0.00     0.164 HD
BRANCH  16  18
ATOM     18  C   UNL A   1      33.823  25.853  25.414  1.00  0.00     0.040 A 
ATOM     19  C   UNL A   1      33.718  26.986  26.226  1.00  0.00     0.017 A 
ATOM     20  C   UNL A   1      33.975  25.977  24.029  1.00  0.00     0.017 A 
ATOM     21  C   UNL A   1      33.652  28.248  25.640  1.00  0.00     0.040 A 
ATOM     22  C   UNL A   1      33.925  27.244  23.448  1.00  0.00     0.040 A 
ATOM     23  C   UNL A   1      33.741  28.364  24.256  1.00  0.00     0.123 A 
ATOM     24  F   UNL A   1      33.645  29.574  23.693  1.00  0.00    -0.207 F 
ENDBRANCH  16  18
ENDBRANCH  13  14
BRANCH  13  25
ATOM     25  C   UNL A   1      30.482  25.207  25.796  1.00  0.00     0.070 C 
BRANCH  25  26
ATOM     26  C   UNL A   1      29.903  26.307  24.930  1.00  0.00    -0.045 A 
ATOM     27  C   UNL A   1      30.631  27.418  24.480  1.00  0.00     0.007 A 
ATOM     28  C   UNL A   1      28.545  26.220  24.567  1.00  0.00     0.007 A 
ATOM     29  C   UNL A   1      30.062  28.318  23.571  1.00  0.00     0.046 A 
ATOM     30  C   UNL A   1      27.984  27.105  23.644  1.00  0.00     0.046 A 
ATOM     31  C   UNL A   1      28.774  28.105  23.104  1.00  0.00     0.115 A 
BRANCH  31  32
ATOM     32  O   UNL A   1      28.332  28.853  22.054  1.00  0.00    -0.508 OA
ATOM     33  H   UNL A   1      28.027  29.728  22.198  1.00  0.00     0.293 HD
ENDBRANCH  31  32
ENDBRANCH  25  26
ENDBRANCH  13  25
ENDBRANCH  10  13
ENDBRANCH   8   9
BRANCH   8  34
ATOM     34  C   UNL A   1      32.576  20.870  23.554  1.00  0.00     0.072 C 
BRANCH  34  35
ATOM     35  C   UNL A   1      32.966  20.091  24.675  1.00  0.00    -0.020 A 
ATOM     36  C   UNL A   1      32.839  20.364  26.017  1.00  0.00     0.087 A 
ATOM     37  C   UNL A   1      33.337  18.777  24.425  1.00  0.00     0.003 A 
ATOM     38  N   UNL A   1      33.013  19.165  26.630  1.00  0.00    -0.361 N 
ATOM     39  C   UNL A   1      33.192  18.218  25.647  1.00  0.00     0.046 A 
ATOM     40  C   UNL A   1      33.539  17.991  23.270  1.00  0.00     0.010 A 
ATOM     41  H   UNL A   1      33.011  19.003  27.601  1.00  0.00     0.166 HD
ATOM     42  C   UNL A   1      33.178  16.868  25.713  1.00  0.00     0.026 A 
ATOM     43  C   UNL A   1      33.401  16.619  23.332  1.00  0.00     0.001 A 
ATOM     44  C   UNL A   1      33.172  16.064  24.558  1.00  0.00     0.002 A 
ENDBRANCH  34  35
ENDBRANCH   8  34
ENDBRANCH   5   8
ENDBRANCH   3   4
BRANCH   3  45
ATOM     45  C   UNL A   1      37.138  20.223  24.534  1.00  0.00     0.193 C 
BRANCH  45  46
ATOM     46  O   UNL A   1      36.580  19.071  25.154  1.00  0.00    -0.394 OA
ATOM     47  H   UNL A   1      36.118  19.331  25.965  1.00  0.00     0.210 HD
ENDBRANCH  45  46
ENDBRANCH   3  45
ENDBRANCH   1   3
BRANCH   1  48
ATOM     48  O   UNL A   1      38.945  21.327  26.511  1.00  0.00    -0.460 OA
BRANCH  48  49
ATOM     49  C   UNL A   1      40.455  21.297  26.211  1.00  0.00     0.274 C 
BRANCH  49  50
ATOM     50  C   UNL A   1      41.739  21.706  27.316  1.00  0.00     0.275 C 
BRANCH  50  51
ATOM     51  O   UNL A   1      41.871  23.046  28.035  1.00  0.00    -0.458 OA
BRANCH  51  52
ATOM     52  C   UNL A   1      43.042  23.374  28.755  1.00  0.00     0.338 C 
ATOM     53  O   UNL A   1      43.415  22.730  29.728  1.00  0.00    -0.246 OA
BRANCH  52  54
ATOM     54  C   UNL A   1      43.954  24.512  28.177  1.00  0.00     0.060 A 
ATOM     55  C   UNL A   1      44.843  25.193  28.979  1.00  0.00     0.016 A 
ATOM     56  C   UNL A   1      43.835  25.065  26.876  1.00  0.00     0.016 A 
ATOM     57  C   UNL A   1      45.385  26.457  28.596  1.00  0.00     0.010 A 
ATOM     58  C   UNL A   1      44.590  26.236  26.430  1.00  0.00     0.010 A 
ATOM     59  C   UNL A   1      45.399  26.988  27.297  1.00  0.00    -0.014 A 
BRANCH  59  60
ATOM     60  C   UNL A   1      46.303  28.218  26.962  1.00  0.00     0.031 A 
ATOM     61  C   UNL A   1      47.770  28.140  26.501  1.00  0.00     0.074 A 
ATOM     62  C   UNL A   1      45.824  29.496  27.041  1.00  0.00     0.049 A 
ATOM     63  N   UNL A   1      48.693  29.090  26.466  1.00  0.00    -0.248 NA
ATOM     64  C   UNL A   1      48.260  26.849  26.010  1.00  0.00     0.031 C 
ATOM     65  C   UNL A   1      44.460  29.878  27.407  1.00  0.00     0.029 A 
ATOM     66  N   UNL A   1      46.419  30.732  26.806  1.00  0.00    -0.354 N 
ATOM     67  C   UNL A   1      49.877  28.498  26.014  1.00  0.00     0.074 A 
ATOM     68  C   UNL A   1      49.544  27.105  25.769  1.00  0.00     0.031 C 
ATOM     69  C   UNL A   1      44.283  31.190  27.245  1.00  0.00     0.029 A 
ATOM     70  C   UNL A   1      45.575  31.806  27.015  1.00  0.00     0.049 A 
ATOM     71  H   UNL A   1      47.356  30.832  26.519  1.00  0.00     0.167 HD
ATOM     72  C   UNL A   1      51.120  29.039  25.839  1.00  0.00     0.037 A 
ATOM     73  C   UNL A   1      45.768  33.138  27.142  1.00  0.00     0.037 A 
ATOM     74  C   UNL A   1      51.465  30.442  26.003  1.00  0.00     0.049 A 
ATOM     75  C   UNL A   1      47.147  33.710  27.057  1.00  0.00     0.074 A 
ATOM     76  C   UNL A   1      52.705  31.056  25.873  1.00  0.00     0.029 A 
ATOM     77  N   UNL A   1      50.568  31.455  26.310  1.00  0.00    -0.354 N 
ATOM     78  N   UNL A   1      48.275  33.101  26.803  1.00  0.00    -0.248 NA
ATOM     79  C   UNL A   1      47.285  35.151  27.315  1.00  0.00     0.031 C 
ATOM     80  C   UNL A   1      52.570  32.419  26.173  1.00  0.00     0.029 A 
ATOM     81  C   UNL A   1      51.232  32.674  26.416  1.00  0.00     0.049 A 
ATOM     82  H   UNL A   1      49.600  31.330  26.433  1.00  0.00     0.167 HD
ATOM     83  C   UNL A   1      49.257  34.077  26.872  1.00  0.00     0.074 A 
ATOM     84  C   UNL A   1      48.588  35.329  27.157  1.00  0.00     0.031 C 
ATOM     85  C   UNL A   1      50.595  33.932  26.721  1.00  0.00     0.037 A 
BRANCH  72  86
ATOM     86  C   UNL A   1      52.268  28.092  25.550  1.00  0.00     0.064 A 
ATOM     87  C   UNL A   1      52.723  27.800  24.256  1.00  0.00     0.173 A 
ATOM     88  C   UNL A   1      52.951  27.481  26.621  1.00  0.00     0.173 A 
ATOM     89  F   UNL A   1      52.142  28.369  23.190  1.00  0.00    -0.203 F 
ATOM     90  C   UNL A   1      53.760  26.888  24.042  1.00  0.00     0.198 A 
ATOM     91  C   UNL A   1      54.011  26.601  26.406  1.00  0.00     0.198 A 
ATOM     92  F   UNL A   1      52.600  27.749  27.888  1.00  0.00    -0.203 F 
ATOM     93  F   UNL A   1      54.128  26.574  22.791  1.00  0.00    -0.200 F 
ATOM     94  C   UNL A   1      54.401  26.288  25.115  1.00  0.00     0.200 A 
ATOM     95  F   UNL A   1      54.649  26.052  27.449  1.00  0.00    -0.200 F 
ATOM     96  F   UNL A   1      55.388  25.405  24.907  1.00  0.00    -0.200 F 
ENDBRANCH  72  86
BRANCH  73  97
ATOM     97  C   UNL A   1      44.609  34.012  27.506  1.00  0.00     0.064 A 
ATOM     98  C   UNL A   1      44.188  34.158  28.835  1.00  0.00     0.173 A 
ATOM     99  C   UNL A   1      43.929  34.760  26.527  1.00  0.00     0.173 A 
ATOM    100  F   UNL A   1      44.767  33.436  29.805  1.00  0.00    -0.203 F 
ATOM    101  C   UNL A   1      43.154  35.032  29.171  1.00  0.00     0.198 A 
ATOM    102  C   UNL A   1      42.932  35.669  26.869  1.00  0.00     0.198 A 
ATOM    103  F   UNL A   1      44.281  34.655  25.236  1.00  0.00    -0.203 F 
ATOM    104  F   UNL A   1      42.752  35.134  30.445  1.00  0.00    -0.200 F 
ATOM    105  C   UNL A   1      42.542  35.802  28.192  1.00  0.00     0.200 A 
ATOM    106  F   UNL A   1      42.371  36.433  25.923  1.00  0.00    -0.200 F 
ATOM    107  F   UNL A   1      41.581  36.675  28.523  1.00  0.00    -0.200 F 
ENDBRANCH  73  97
BRANCH  85 108
ATOM    108  C   UNL A   1      51.431  35.176  26.838  1.00  0.00     0.064 A 
ATOM    109  C   UNL A   1      51.654  36.025  25.741  1.00  0.00     0.173 A 
ATOM    110  C   UNL A   1      52.050  35.510  28.054  1.00  0.00     0.173 A 
ATOM    111  F   UNL A   1      51.109  35.743  24.547  1.00  0.00    -0.203 F 
ATOM    112  C   UNL A   1      52.494  37.132  25.846  1.00  0.00     0.198 A 
ATOM    113  C   UNL A   1      52.863  36.637  28.163  1.00  0.00     0.198 A 
ATOM    114  F   UNL A   1      51.877  34.736  29.135  1.00  0.00    -0.203 F 
ATOM    115  F   UNL A   1      52.748  37.884  24.764  1.00  0.00    -0.200 F 
ATOM    116  C   UNL A   1      53.095  37.439  27.056  1.00  0.00     0.200 A 
ATOM    117  F   UNL A   1      53.436  36.936  29.337  1.00  0.00    -0.200 F 
ATOM    118  F   UNL A   1      53.911  38.498  27.153  1.00  0.00    -0.200 F 
ENDBRANCH  85 108
ENDBRANCH  59  60
ENDBRANCH  52  54
ENDBRANCH  51  52
ENDBRANCH  50  51
ENDBRANCH  49  50
ENDBRANCH  48  49
ENDBRANCH   1  48
TORSDOF 24
ENDMDL
