MODEL 1
REMARK VINA RESULT:     -13.6      0.000      0.000
REMARK SMILES C[C@@H]1CCC[C@H](C)[N@H+]1Cc1cc2c(cc1Cl)C=C(C(=O)OCCOC(=O)c1ccc(-c3c4nc(c(-c5c(F)c(F)c(F)c(F)c5F)c5ccc([nH]5)c(-c5c(F)c(F)c(F)c(F)c5F)c5nc(c(-c6c(F)c(F)c(F)c(F)c6F)c6ccc3[nH]6)C=C5)C=C4)cc1)[C@@H](C(F)(F)F)O2
REMARK SMILES IDX 22 1 21 2 19 3 20 4 18 5 10 6 11 7 15 8 12 9 14 10 16 11
REMARK SMILES IDX 13 12 95 13 17 14 90 15 9 16 8 17 7 18 6 19 5 20 4 21 2 22
REMARK SMILES IDX 3 24 1 25 91 26 92 27 93 28 94 29 23 30 24 31 25 32 26 33
REMARK SMILES IDX 27 34 28 35 89 36 29 37 88 38 30 39 31 40 32 41 82 42 33 43
REMARK SMILES IDX 87 44 81 45 83 46 34 47 86 48 80 49 79 50 35 52 67 53 47 54
REMARK SMILES IDX 66 55 48 56 51 57 65 58 84 59 49 60 50 61 64 63 85 64 52 65
REMARK SMILES IDX 36 66 37 67 45 68 38 69 39 70 43 71 46 72 40 73 41 74 44 75
REMARK SMILES IDX 42 76 68 77 69 78 77 79 70 80 71 81 75 82 78 83 72 84 73 85
REMARK SMILES IDX 76 86 74 87 53 88 54 89 62 90 55 91 56 92 60 93 63 94 57 95
REMARK SMILES IDX 58 96 61 97 59 98
REMARK H PARENT 8 23 83 51 51 62
REMARK Flexibility Score: inf
ROOT
ATOM      1  C   UNL A   1      31.414  28.707  24.997  1.00  0.00     0.275 C 
ENDROOT
BRANCH   1   2
ATOM      2  O   UNL A   1      32.373  27.701  25.390  1.00  0.00    -0.459 OA
BRANCH   2   3
ATOM      3  C   UNL A   1      31.909  26.775  26.263  1.00  0.00     0.338 C 
ATOM      4  O   UNL A   1      31.230  27.000  27.251  1.00  0.00    -0.246 OA
BRANCH   3   5
ATOM      5  C   UNL A   1      32.265  25.405  25.836  1.00  0.00     0.087 C 
ATOM      6  C   UNL A   1      34.775  21.120  24.981  1.00  0.00     0.029 A 
ATOM      7  C   UNL A   1      33.405  21.460  25.067  1.00  0.00     0.058 A 
ATOM      8  C   UNL A   1      35.709  22.167  24.934  1.00  0.00     0.050 A 
ATOM      9  C   UNL A   1      33.000  22.786  25.249  1.00  0.00     0.128 A 
ATOM     10  C   UNL A   1      35.307  23.484  25.163  1.00  0.00     0.033 A 
ATOM     11  Cl  UNL A   1      37.386  21.928  24.602  1.00  0.00    -0.084 Cl
ATOM     12  C   UNL A   1      33.961  23.787  25.358  1.00  0.00     0.019 A 
ATOM     13  O   UNL A   1      31.659  23.028  25.393  1.00  0.00    -0.475 OA
ATOM     14  C   UNL A   1      33.571  25.127  25.748  1.00  0.00     0.027 C 
ATOM     15  C   UNL A   1      31.217  24.421  25.394  1.00  0.00     0.316 C 
BRANCH   6  16
ATOM     16  C   UNL A   1      35.184  19.658  25.006  1.00  0.00     0.301 C 
BRANCH  16  17
ATOM     17  N   UNL A   1      34.259  18.686  24.378  1.00  0.00    -0.327 N 
ATOM     18  C   UNL A   1      31.888  18.615  23.673  1.00  0.00     0.075 C 
ATOM     19  C   UNL A   1      32.868  18.749  24.849  1.00  0.00     0.181 C 
ATOM     20  C   UNL A   1      32.529  17.732  25.951  1.00  0.00     0.065 C 
ATOM     21  C   UNL A   1      33.014  16.322  25.641  1.00  0.00     0.012 C 
ATOM     22  C   UNL A   1      34.813  17.344  24.143  1.00  0.00     0.181 C 
ATOM     23  H   UNL A   1      34.169  19.036  23.424  1.00  0.00     0.348 HD
ATOM     24  C   UNL A   1      34.486  16.327  25.249  1.00  0.00     0.065 C 
ATOM     25  C   UNL A   1      34.410  16.797  22.766  1.00  0.00     0.075 C 
ENDBRANCH  16  17
ENDBRANCH   6  16
BRANCH  15  26
ATOM     26  C   UNL A   1      30.702  24.825  24.001  1.00  0.00     0.430 C 
ATOM     27  F   UNL A   1      30.275  23.755  23.292  1.00  0.00    -0.167 F 
ATOM     28  F   UNL A   1      29.652  25.677  24.099  1.00  0.00    -0.167 F 
ATOM     29  F   UNL A   1      31.652  25.448  23.266  1.00  0.00    -0.167 F 
ENDBRANCH  15  26
ENDBRANCH   3   5
ENDBRANCH   2   3
ENDBRANCH   1   2
BRANCH   1  30
ATOM     30  C   UNL A   1      31.686  30.062  25.656  1.00  0.00     0.275 C 
BRANCH  30  31
ATOM     31  O   UNL A   1      33.077  30.198  26.004  1.00  0.00    -0.458 OA
BRANCH  31  32
ATOM     32  C   UNL A   1      33.364  31.167  26.900  1.00  0.00     0.338 C 
ATOM     33  O   UNL A   1      32.651  32.096  27.253  1.00  0.00    -0.246 OA
BRANCH  32  34
ATOM     34  C   UNL A   1      34.675  30.903  27.506  1.00  0.00     0.060 A 
ATOM     35  C   UNL A   1      35.494  31.934  27.955  1.00  0.00     0.016 A 
ATOM     36  C   UNL A   1      35.025  29.576  27.743  1.00  0.00     0.016 A 
ATOM     37  C   UNL A   1      36.687  31.618  28.620  1.00  0.00     0.010 A 
ATOM     38  C   UNL A   1      36.176  29.263  28.460  1.00  0.00     0.010 A 
ATOM     39  C   UNL A   1      37.034  30.280  28.895  1.00  0.00    -0.014 A 
BRANCH  39  40
ATOM     40  C   UNL A   1      38.267  29.942  29.665  1.00  0.00     0.031 A 
ATOM     41  C   UNL A   1      38.473  30.447  31.070  1.00  0.00     0.074 A 
ATOM     42  C   UNL A   1      39.235  29.212  29.077  1.00  0.00     0.049 A 
ATOM     43  N   UNL A   1      39.468  30.215  31.894  1.00  0.00    -0.248 NA
ATOM     44  C   UNL A   1      37.457  31.360  31.611  1.00  0.00     0.031 C 
ATOM     45  C   UNL A   1      39.219  28.753  27.688  1.00  0.00     0.029 A 
ATOM     46  N   UNL A   1      40.414  28.713  29.576  1.00  0.00    -0.354 N 
ATOM     47  C   UNL A   1      39.202  30.965  33.033  1.00  0.00     0.074 A 
ATOM     48  C   UNL A   1      37.992  31.712  32.772  1.00  0.00     0.031 C 
ATOM     49  C   UNL A   1      40.292  27.980  27.467  1.00  0.00     0.029 A 
ATOM     50  C   UNL A   1      41.088  27.909  28.689  1.00  0.00     0.049 A 
ATOM     51  H   UNL A   1      40.744  28.914  30.482  1.00  0.00     0.167 HD
ATOM     52  C   UNL A   1      39.881  30.999  34.206  1.00  0.00     0.037 A 
ATOM     53  C   UNL A   1      42.204  27.172  28.851  1.00  0.00     0.037 A 
ATOM     54  C   UNL A   1      41.055  30.216  34.488  1.00  0.00     0.049 A 
ATOM     55  C   UNL A   1      42.902  27.167  30.181  1.00  0.00     0.074 A 
ATOM     56  C   UNL A   1      41.760  30.113  35.674  1.00  0.00     0.029 A 
ATOM     57  N   UNL A   1      41.693  29.395  33.570  1.00  0.00    -0.354 N 
ATOM     58  N   UNL A   1      42.588  27.808  31.280  1.00  0.00    -0.248 NA
ATOM     59  C   UNL A   1      44.108  26.333  30.296  1.00  0.00     0.031 C 
ATOM     60  C   UNL A   1      42.842  29.250  35.467  1.00  0.00     0.029 A 
ATOM     61  C   UNL A   1      42.789  28.787  34.163  1.00  0.00     0.049 A 
ATOM     62  H   UNL A   1      41.408  29.262  32.637  1.00  0.00     0.167 HD
ATOM     63  C   UNL A   1      43.546  27.448  32.218  1.00  0.00     0.074 A 
ATOM     64  C   UNL A   1      44.442  26.515  31.567  1.00  0.00     0.031 C 
ATOM     65  C   UNL A   1      43.673  27.862  33.502  1.00  0.00     0.037 A 
BRANCH  52  66
ATOM     66  C   UNL A   1      39.344  31.884  35.297  1.00  0.00     0.064 A 
ATOM     67  C   UNL A   1      39.643  33.255  35.335  1.00  0.00     0.173 A 
ATOM     68  C   UNL A   1      38.485  31.373  36.281  1.00  0.00     0.173 A 
ATOM     69  F   UNL A   1      40.463  33.793  34.419  1.00  0.00    -0.203 F 
ATOM     70  C   UNL A   1      39.130  34.074  36.338  1.00  0.00     0.198 A 
ATOM     71  C   UNL A   1      37.949  32.202  37.265  1.00  0.00     0.198 A 
ATOM     72  F   UNL A   1      38.154  30.073  36.284  1.00  0.00    -0.203 F 
ATOM     73  F   UNL A   1      39.470  35.369  36.381  1.00  0.00    -0.200 F 
ATOM     74  C   UNL A   1      38.278  33.549  37.297  1.00  0.00     0.200 A 
ATOM     75  F   UNL A   1      37.112  31.697  38.182  1.00  0.00    -0.200 F 
ATOM     76  F   UNL A   1      37.778  34.340  38.256  1.00  0.00    -0.200 F 
ENDBRANCH  52  66
BRANCH  53  77
ATOM     77  C   UNL A   1      42.669  26.305  27.737  1.00  0.00     0.064 A 
ATOM     78  C   UNL A   1      43.652  26.761  26.848  1.00  0.00     0.173 A 
ATOM     79  C   UNL A   1      42.189  25.000  27.568  1.00  0.00     0.173 A 
ATOM     80  F   UNL A   1      44.130  28.009  26.961  1.00  0.00    -0.203 F 
ATOM     81  C   UNL A   1      44.136  25.944  25.829  1.00  0.00     0.198 A 
ATOM     82  C   UNL A   1      42.689  24.175  26.564  1.00  0.00     0.198 A 
ATOM     83  F   UNL A   1      41.254  24.516  28.399  1.00  0.00    -0.203 F 
ATOM     84  F   UNL A   1      45.061  26.411  24.981  1.00  0.00    -0.200 F 
ATOM     85  C   UNL A   1      43.661  24.649  25.694  1.00  0.00     0.200 A 
ATOM     86  F   UNL A   1      42.239  22.919  26.443  1.00  0.00    -0.200 F 
ATOM     87  F   UNL A   1      44.140  23.856  24.725  1.00  0.00    -0.200 F 
ENDBRANCH  53  77
BRANCH  65  88
ATOM     88  C   UNL A   1      44.819  27.312  34.299  1.00  0.00     0.064 A 
ATOM     89  C   UNL A   1      46.041  27.995  34.381  1.00  0.00     0.173 A 
ATOM     90  C   UNL A   1      44.668  26.136  35.047  1.00  0.00     0.173 A 
ATOM     91  F   UNL A   1      46.236  29.117  33.674  1.00  0.00    -0.203 F 
ATOM     92  C   UNL A   1      47.075  27.513  35.178  1.00  0.00     0.198 A 
ATOM     93  C   UNL A   1      45.696  25.670  35.862  1.00  0.00     0.198 A 
ATOM     94  F   UNL A   1      43.515  25.451  35.007  1.00  0.00    -0.203 F 
ATOM     95  F   UNL A   1      48.244  28.166  35.221  1.00  0.00    -0.200 F 
ATOM     96  C   UNL A   1      46.899  26.357  35.924  1.00  0.00     0.200 A 
ATOM     97  F   UNL A   1      45.521  24.560  36.592  1.00  0.00    -0.200 F 
ATOM     98  F   UNL A   1      47.891  25.904  36.703  1.00  0.00    -0.200 F 
ENDBRANCH  65  88
ENDBRANCH  39  40
ENDBRANCH  32  34
ENDBRANCH  31  32
ENDBRANCH  30  31
ENDBRANCH   1  30
TORSDOF 14
ENDMDL
MODEL 2
REMARK VINA RESULT:     -13.2      5.558     12.162
REMARK SMILES C[C@@H]1CCC[C@H](C)[N@H+]1Cc1cc2c(cc1Cl)C=C(C(=O)OCCOC(=O)c1ccc(-c3c4nc(c(-c5c(F)c(F)c(F)c(F)c5F)c5ccc([nH]5)c(-c5c(F)c(F)c(F)c(F)c5F)c5nc(c(-c6c(F)c(F)c(F)c(F)c6F)c6ccc3[nH]6)C=C5)C=C4)cc1)[C@@H](C(F)(F)F)O2
REMARK SMILES IDX 22 1 21 2 19 3 20 4 18 5 10 6 11 7 15 8 12 9 14 10 16 11
REMARK SMILES IDX 13 12 95 13 17 14 90 15 9 16 8 17 7 18 6 19 5 20 4 21 2 22
REMARK SMILES IDX 3 24 1 25 91 26 92 27 93 28 94 29 23 30 24 31 25 32 26 33
REMARK SMILES IDX 27 34 28 35 89 36 29 37 88 38 30 39 31 40 32 41 82 42 33 43
REMARK SMILES IDX 87 44 81 45 83 46 34 47 86 48 80 49 79 50 35 52 67 53 47 54
REMARK SMILES IDX 66 55 48 56 51 57 65 58 84 59 49 60 50 61 64 63 85 64 52 65
REMARK SMILES IDX 36 66 37 67 45 68 38 69 39 70 43 71 46 72 40 73 41 74 44 75
REMARK SMILES IDX 42 76 68 77 69 78 77 79 70 80 71 81 75 82 78 83 72 84 73 85
REMARK SMILES IDX 76 86 74 87 53 88 54 89 62 90 55 91 56 92 60 93 63 94 57 95
REMARK SMILES IDX 58 96 61 97 59 98
REMARK H PARENT 8 23 83 51 51 62
REMARK Flexibility Score: inf
ROOT
ATOM      1  C   UNL A   1      41.863  19.804  26.169  1.00  0.00     0.275 C 
ENDROOT
BRANCH   1   2
ATOM      2  O   UNL A   1      42.595  20.917  25.609  1.00  0.00    -0.459 OA
BRANCH   2   3
ATOM      3  C   UNL A   1      43.937  20.745  25.540  1.00  0.00     0.338 C 
ATOM      4  O   UNL A   1      44.514  19.834  24.971  1.00  0.00    -0.246 OA
BRANCH   3   5
ATOM      5  C   UNL A   1      44.657  21.861  26.192  1.00  0.00     0.087 C 
ATOM      6  C   UNL A   1      46.349  25.180  29.585  1.00  0.00     0.029 A 
ATOM      7  C   UNL A   1      46.835  24.703  28.346  1.00  0.00     0.058 A 
ATOM      8  C   UNL A   1      45.034  24.848  29.946  1.00  0.00     0.050 A 
ATOM      9  C   UNL A   1      46.087  23.808  27.574  1.00  0.00     0.128 A 
ATOM     10  C   UNL A   1      44.308  23.919  29.199  1.00  0.00     0.033 A 
ATOM     11  Cl  UNL A   1      44.221  25.534  31.306  1.00  0.00    -0.084 Cl
ATOM     12  C   UNL A   1      44.848  23.372  28.037  1.00  0.00     0.019 A 
ATOM     13  O   UNL A   1      46.653  23.336  26.419  1.00  0.00    -0.475 OA
ATOM     14  C   UNL A   1      44.156  22.298  27.354  1.00  0.00     0.027 C 
ATOM     15  C   UNL A   1      45.808  22.555  25.518  1.00  0.00     0.316 C 
BRANCH   6  16
ATOM     16  C   UNL A   1      47.274  25.968  30.496  1.00  0.00     0.301 C 
BRANCH  16  17
ATOM     17  N   UNL A   1      46.696  27.138  31.196  1.00  0.00    -0.327 N 
ATOM     18  C   UNL A   1      45.016  28.896  30.736  1.00  0.00     0.075 C 
ATOM     19  C   UNL A   1      46.369  28.286  30.338  1.00  0.00     0.181 C 
ATOM     20  C   UNL A   1      47.458  29.370  30.294  1.00  0.00     0.065 C 
ATOM     21  C   UNL A   1      47.980  29.758  31.672  1.00  0.00     0.012 C 
ATOM     22  C   UNL A   1      47.285  27.446  32.508  1.00  0.00     0.181 C 
ATOM     23  H   UNL A   1      45.768  26.812  31.465  1.00  0.00     0.348 HD
ATOM     24  C   UNL A   1      48.383  28.522  32.467  1.00  0.00     0.065 C 
ATOM     25  C   UNL A   1      46.209  27.807  33.543  1.00  0.00     0.075 C 
ENDBRANCH  16  17
ENDBRANCH   6  16
BRANCH  15  26
ATOM     26  C   UNL A   1      45.268  23.440  24.382  1.00  0.00     0.430 C 
ATOM     27  F   UNL A   1      43.997  23.841  24.615  1.00  0.00    -0.167 F 
ATOM     28  F   UNL A   1      46.016  24.563  24.241  1.00  0.00    -0.167 F 
ATOM     29  F   UNL A   1      45.280  22.803  23.187  1.00  0.00    -0.167 F 
ENDBRANCH  15  26
ENDBRANCH   3   5
ENDBRANCH   2   3
ENDBRANCH   1   2
BRANCH   1  30
ATOM     30  C   UNL A   1      40.355  19.921  25.933  1.00  0.00     0.275 C 
BRANCH  30  31
ATOM     31  O   UNL A   1      39.754  20.837  26.867  1.00  0.00    -0.458 OA
BRANCH  31  32
ATOM     32  C   UNL A   1      39.100  21.885  26.321  1.00  0.00     0.338 C 
ATOM     33  O   UNL A   1      38.119  21.858  25.591  1.00  0.00    -0.246 OA
BRANCH  32  34
ATOM     34  C   UNL A   1      39.685  23.139  26.813  1.00  0.00     0.060 A 
ATOM     35  C   UNL A   1      40.597  23.156  27.864  1.00  0.00     0.016 A 
ATOM     36  C   UNL A   1      39.405  24.307  26.108  1.00  0.00     0.016 A 
ATOM     37  C   UNL A   1      41.202  24.369  28.222  1.00  0.00     0.010 A 
ATOM     38  C   UNL A   1      40.054  25.498  26.421  1.00  0.00     0.010 A 
ATOM     39  C   UNL A   1      40.951  25.551  27.495  1.00  0.00    -0.014 A 
BRANCH  39  40
ATOM     40  C   UNL A   1      41.647  26.828  27.827  1.00  0.00     0.031 A 
ATOM     41  C   UNL A   1      43.022  27.132  27.288  1.00  0.00     0.074 A 
ATOM     42  C   UNL A   1      41.057  27.705  28.662  1.00  0.00     0.049 A 
ATOM     43  N   UNL A   1      43.753  28.210  27.447  1.00  0.00    -0.248 NA
ATOM     44  C   UNL A   1      43.683  26.079  26.503  1.00  0.00     0.031 C 
ATOM     45  C   UNL A   1      39.782  27.492  29.345  1.00  0.00     0.029 A 
ATOM     46  N   UNL A   1      41.444  28.960  29.069  1.00  0.00    -0.354 N 
ATOM     47  C   UNL A   1      44.955  27.954  26.799  1.00  0.00     0.074 A 
ATOM     48  C   UNL A   1      44.886  26.597  26.305  1.00  0.00     0.031 C 
ATOM     49  C   UNL A   1      39.454  28.602  30.023  1.00  0.00     0.029 A 
ATOM     50  C   UNL A   1      40.507  29.597  29.845  1.00  0.00     0.049 A 
ATOM     51  H   UNL A   1      42.309  29.362  28.826  1.00  0.00     0.167 HD
ATOM     52  C   UNL A   1      46.007  28.786  26.599  1.00  0.00     0.037 A 
ATOM     53  C   UNL A   1      40.484  30.853  30.334  1.00  0.00     0.037 A 
ATOM     54  C   UNL A   1      46.056  30.154  27.043  1.00  0.00     0.049 A 
ATOM     55  C   UNL A   1      41.627  31.782  30.041  1.00  0.00     0.074 A 
ATOM     56  C   UNL A   1      47.036  31.103  26.811  1.00  0.00     0.029 A 
ATOM     57  N   UNL A   1      45.075  30.770  27.808  1.00  0.00    -0.354 N 
ATOM     58  N   UNL A   1      42.716  31.559  29.349  1.00  0.00    -0.248 NA
ATOM     59  C   UNL A   1      41.535  33.143  30.594  1.00  0.00     0.031 C 
ATOM     60  C   UNL A   1      46.662  32.286  27.458  1.00  0.00     0.029 A 
ATOM     61  C   UNL A   1      45.432  32.085  28.062  1.00  0.00     0.049 A 
ATOM     62  H   UNL A   1      44.248  30.337  28.121  1.00  0.00     0.167 HD
ATOM     63  C   UNL A   1      43.433  32.747  29.371  1.00  0.00     0.074 A 
ATOM     64  C   UNL A   1      42.646  33.698  30.128  1.00  0.00     0.031 C 
ATOM     65  C   UNL A   1      44.640  33.020  28.818  1.00  0.00     0.037 A 
BRANCH  52  66
ATOM     66  C   UNL A   1      47.180  28.254  25.825  1.00  0.00     0.064 A 
ATOM     67  C   UNL A   1      47.117  28.082  24.433  1.00  0.00     0.173 A 
ATOM     68  C   UNL A   1      48.392  27.959  26.467  1.00  0.00     0.173 A 
ATOM     69  F   UNL A   1      45.980  28.346  23.771  1.00  0.00    -0.203 F 
ATOM     70  C   UNL A   1      48.212  27.604  23.718  1.00  0.00     0.198 A 
ATOM     71  C   UNL A   1      49.496  27.510  25.744  1.00  0.00     0.198 A 
ATOM     72  F   UNL A   1      48.512  28.119  27.793  1.00  0.00    -0.203 F 
ATOM     73  F   UNL A   1      48.111  27.402  22.397  1.00  0.00    -0.200 F 
ATOM     74  C   UNL A   1      49.402  27.326  24.372  1.00  0.00     0.200 A 
ATOM     75  F   UNL A   1      50.650  27.258  26.374  1.00  0.00    -0.200 F 
ATOM     76  F   UNL A   1      50.458  26.874  23.682  1.00  0.00    -0.200 F 
ENDBRANCH  52  66
BRANCH  53  77
ATOM     77  C   UNL A   1      39.284  31.321  31.076  1.00  0.00     0.064 A 
ATOM     78  C   UNL A   1      38.208  31.899  30.388  1.00  0.00     0.173 A 
ATOM     79  C   UNL A   1      39.163  31.157  32.462  1.00  0.00     0.173 A 
ATOM     80  F   UNL A   1      38.285  32.092  29.063  1.00  0.00    -0.203 F 
ATOM     81  C   UNL A   1      37.056  32.298  31.061  1.00  0.00     0.198 A 
ATOM     82  C   UNL A   1      38.001  31.535  33.130  1.00  0.00     0.198 A 
ATOM     83  F   UNL A   1      40.163  30.601  33.162  1.00  0.00    -0.203 F 
ATOM     84  F   UNL A   1      36.049  32.867  30.383  1.00  0.00    -0.200 F 
ATOM     85  C   UNL A   1      36.950  32.107  32.430  1.00  0.00     0.200 A 
ATOM     86  F   UNL A   1      37.895  31.336  34.452  1.00  0.00    -0.200 F 
ATOM     87  F   UNL A   1      35.833  32.473  33.074  1.00  0.00    -0.200 F 
ENDBRANCH  53  77
BRANCH  65  88
ATOM     88  C   UNL A   1      45.192  34.402  29.004  1.00  0.00     0.064 A 
ATOM     89  C   UNL A   1      44.879  35.437  28.111  1.00  0.00     0.173 A 
ATOM     90  C   UNL A   1      45.977  34.711  30.125  1.00  0.00     0.173 A 
ATOM     91  F   UNL A   1      44.144  35.185  27.018  1.00  0.00    -0.203 F 
ATOM     92  C   UNL A   1      45.340  36.731  28.329  1.00  0.00     0.198 A 
ATOM     93  C   UNL A   1      46.415  36.013  30.353  1.00  0.00     0.198 A 
ATOM     94  F   UNL A   1      46.297  33.757  31.012  1.00  0.00    -0.203 F 
ATOM     95  F   UNL A   1      45.053  37.700  27.449  1.00  0.00    -0.200 F 
ATOM     96  C   UNL A   1      46.100  37.021  29.454  1.00  0.00     0.200 A 
ATOM     97  F   UNL A   1      47.138  36.294  31.446  1.00  0.00    -0.200 F 
ATOM     98  F   UNL A   1      46.528  38.272  29.670  1.00  0.00    -0.200 F 
ENDBRANCH  65  88
ENDBRANCH  39  40
ENDBRANCH  32  34
ENDBRANCH  31  32
ENDBRANCH  30  31
ENDBRANCH   1  30
TORSDOF 14
ENDMDL
MODEL 3
REMARK VINA RESULT:     -13.1      4.772     10.061
REMARK SMILES C[C@@H]1CCC[C@H](C)[N@H+]1Cc1cc2c(cc1Cl)C=C(C(=O)OCCOC(=O)c1ccc(-c3c4nc(c(-c5c(F)c(F)c(F)c(F)c5F)c5ccc([nH]5)c(-c5c(F)c(F)c(F)c(F)c5F)c5nc(c(-c6c(F)c(F)c(F)c(F)c6F)c6ccc3[nH]6)C=C5)C=C4)cc1)[C@@H](C(F)(F)F)O2
REMARK SMILES IDX 22 1 21 2 19 3 20 4 18 5 10 6 11 7 15 8 12 9 14 10 16 11
REMARK SMILES IDX 13 12 95 13 17 14 90 15 9 16 8 17 7 18 6 19 5 20 4 21 2 22
REMARK SMILES IDX 3 24 1 25 91 26 92 27 93 28 94 29 23 30 24 31 25 32 26 33
REMARK SMILES IDX 27 34 28 35 89 36 29 37 88 38 30 39 31 40 32 41 82 42 33 43
REMARK SMILES IDX 87 44 81 45 83 46 34 47 86 48 80 49 79 50 35 52 67 53 47 54
REMARK SMILES IDX 66 55 48 56 51 57 65 58 84 59 49 60 50 61 64 63 85 64 52 65
REMARK SMILES IDX 36 66 37 67 45 68 38 69 39 70 43 71 46 72 40 73 41 74 44 75
REMARK SMILES IDX 42 76 68 77 69 78 77 79 70 80 71 81 75 82 78 83 72 84 73 85
REMARK SMILES IDX 76 86 74 87 53 88 54 89 62 90 55 91 56 92 60 93 63 94 57 95
REMARK SMILES IDX 58 96 61 97 59 98
REMARK H PARENT 8 23 83 51 51 62
REMARK Flexibility Score: inf
ROOT
ATOM      1  C   UNL A   1      38.567  19.110  25.337  1.00  0.00     0.275 C 
ENDROOT
BRANCH   1   2
ATOM      2  O   UNL A   1      37.785  20.242  24.895  1.00  0.00    -0.459 OA
BRANCH   2   3
ATOM      3  C   UNL A   1      36.445  20.040  24.869  1.00  0.00     0.338 C 
ATOM      4  O   UNL A   1      35.886  18.970  24.696  1.00  0.00    -0.246 OA
BRANCH   3   5
ATOM      5  C   UNL A   1      35.707  21.288  25.156  1.00  0.00     0.087 C 
ATOM      6  C   UNL A   1      32.094  24.786  25.490  1.00  0.00     0.029 A 
ATOM      7  C   UNL A   1      33.306  24.550  26.181  1.00  0.00     0.058 A 
ATOM      8  C   UNL A   1      31.847  24.040  24.327  1.00  0.00     0.050 A 
ATOM      9  C   UNL A   1      34.160  23.509  25.805  1.00  0.00     0.128 A 
ATOM     10  C   UNL A   1      32.676  22.972  23.982  1.00  0.00     0.033 A 
ATOM     11  Cl  UNL A   1      30.534  24.364  23.253  1.00  0.00    -0.084 Cl
ATOM     12  C   UNL A   1      33.808  22.684  24.741  1.00  0.00     0.019 A 
ATOM     13  O   UNL A   1      35.281  23.300  26.565  1.00  0.00    -0.475 OA
ATOM     14  C   UNL A   1      34.575  21.484  24.469  1.00  0.00     0.027 C 
ATOM     15  C   UNL A   1      36.268  22.342  26.070  1.00  0.00     0.316 C 
BRANCH   6  16
ATOM     16  C   UNL A   1      31.091  25.774  26.058  1.00  0.00     0.301 C 
BRANCH  16  17
ATOM     17  N   UNL A   1      31.368  27.214  25.847  1.00  0.00    -0.327 N 
ATOM     18  C   UNL A   1      30.837  28.949  24.164  1.00  0.00     0.075 C 
ATOM     19  C   UNL A   1      31.554  27.619  24.446  1.00  0.00     0.181 C 
ATOM     20  C   UNL A   1      33.023  27.693  24.001  1.00  0.00     0.065 C 
ATOM     21  C   UNL A   1      33.915  28.441  24.984  1.00  0.00     0.012 C 
ATOM     22  C   UNL A   1      32.261  27.839  26.835  1.00  0.00     0.181 C 
ATOM     23  H   UNL A   1      30.478  27.657  26.073  1.00  0.00     0.348 HD
ATOM     24  C   UNL A   1      33.734  27.905  26.398  1.00  0.00     0.065 C 
ATOM     25  C   UNL A   1      31.757  29.227  27.257  1.00  0.00     0.075 C 
ENDBRANCH  16  17
ENDBRANCH   6  16
BRANCH  15  26
ATOM     26  C   UNL A   1      37.416  23.073  25.351  1.00  0.00     0.430 C 
ATOM     27  F   UNL A   1      37.476  24.380  25.696  1.00  0.00    -0.167 F 
ATOM     28  F   UNL A   1      38.616  22.526  25.669  1.00  0.00    -0.167 F 
ATOM     29  F   UNL A   1      37.296  23.013  24.004  1.00  0.00    -0.167 F 
ENDBRANCH  15  26
ENDBRANCH   3   5
ENDBRANCH   2   3
ENDBRANCH   1   2
BRANCH   1  30
ATOM     30  C   UNL A   1      39.854  19.534  26.049  1.00  0.00     0.275 C 
BRANCH  30  31
ATOM     31  O   UNL A   1      41.016  19.054  25.348  1.00  0.00    -0.458 OA
BRANCH  31  32
ATOM     32  C   UNL A   1      42.185  19.149  26.019  1.00  0.00     0.338 C 
ATOM     33  O   UNL A   1      43.032  18.282  26.176  1.00  0.00    -0.246 OA
BRANCH  32  34
ATOM     34  C   UNL A   1      42.372  20.530  26.483  1.00  0.00     0.060 A 
ATOM     35  C   UNL A   1      42.376  20.851  27.837  1.00  0.00     0.016 A 
ATOM     36  C   UNL A   1      42.680  21.499  25.532  1.00  0.00     0.016 A 
ATOM     37  C   UNL A   1      42.663  22.167  28.226  1.00  0.00     0.010 A 
ATOM     38  C   UNL A   1      43.029  22.790  25.921  1.00  0.00     0.010 A 
ATOM     39  C   UNL A   1      43.009  23.148  27.274  1.00  0.00    -0.014 A 
BRANCH  39  40
ATOM     40  C   UNL A   1      43.386  24.531  27.689  1.00  0.00     0.031 A 
ATOM     41  C   UNL A   1      44.825  24.978  27.702  1.00  0.00     0.074 A 
ATOM     42  C   UNL A   1      42.426  25.381  28.105  1.00  0.00     0.049 A 
ATOM     43  N   UNL A   1      45.322  26.156  27.998  1.00  0.00    -0.248 NA
ATOM     44  C   UNL A   1      45.845  23.968  27.383  1.00  0.00     0.031 C 
ATOM     45  C   UNL A   1      41.010  25.047  28.250  1.00  0.00     0.029 A 
ATOM     46  N   UNL A   1      42.493  26.705  28.467  1.00  0.00    -0.354 N 
ATOM     47  C   UNL A   1      46.702  26.019  27.916  1.00  0.00     0.074 A 
ATOM     48  C   UNL A   1      46.970  24.631  27.611  1.00  0.00     0.031 C 
ATOM     49  C   UNL A   1      40.331  26.151  28.595  1.00  0.00     0.029 A 
ATOM     50  C   UNL A   1      41.266  27.265  28.723  1.00  0.00     0.049 A 
ATOM     51  H   UNL A   1      43.340  27.203  28.536  1.00  0.00     0.167 HD
ATOM     52  C   UNL A   1      47.660  26.970  28.042  1.00  0.00     0.037 A 
ATOM     53  C   UNL A   1      40.926  28.540  28.999  1.00  0.00     0.037 A 
ATOM     54  C   UNL A   1      47.394  28.361  28.292  1.00  0.00     0.049 A 
ATOM     55  C   UNL A   1      41.996  29.593  29.065  1.00  0.00     0.074 A 
ATOM     56  C   UNL A   1      48.289  29.416  28.347  1.00  0.00     0.029 A 
ATOM     57  N   UNL A   1      46.134  28.894  28.523  1.00  0.00    -0.354 N 
ATOM     58  N   UNL A   1      43.289  29.468  28.893  1.00  0.00    -0.248 NA
ATOM     59  C   UNL A   1      41.558  30.966  29.359  1.00  0.00     0.031 C 
ATOM     60  C   UNL A   1      47.574  30.583  28.638  1.00  0.00     0.029 A 
ATOM     61  C   UNL A   1      46.230  30.262  28.728  1.00  0.00     0.049 A 
ATOM     62  H   UNL A   1      45.296  28.377  28.536  1.00  0.00     0.167 HD
ATOM     63  C   UNL A   1      43.819  30.742  29.045  1.00  0.00     0.074 A 
ATOM     64  C   UNL A   1      42.705  31.632  29.303  1.00  0.00     0.031 C 
ATOM     65  C   UNL A   1      45.114  31.135  28.984  1.00  0.00     0.037 A 
BRANCH  52  66
ATOM     66  C   UNL A   1      49.092  26.545  27.869  1.00  0.00     0.064 A 
ATOM     67  C   UNL A   1      49.653  26.380  26.593  1.00  0.00     0.173 A 
ATOM     68  C   UNL A   1      49.925  26.351  28.981  1.00  0.00     0.173 A 
ATOM     69  F   UNL A   1      48.899  26.550  25.496  1.00  0.00    -0.203 F 
ATOM     70  C   UNL A   1      50.984  26.002  26.437  1.00  0.00     0.198 A 
ATOM     71  C   UNL A   1      51.265  26.003  28.820  1.00  0.00     0.198 A 
ATOM     72  F   UNL A   1      49.445  26.510  30.223  1.00  0.00    -0.203 F 
ATOM     73  F   UNL A   1      51.482  25.803  25.209  1.00  0.00    -0.200 F 
ATOM     74  C   UNL A   1      51.791  25.822  27.550  1.00  0.00     0.200 A 
ATOM     75  F   UNL A   1      52.048  25.845  29.896  1.00  0.00    -0.200 F 
ATOM     76  F   UNL A   1      53.074  25.467  27.398  1.00  0.00    -0.200 F 
ENDBRANCH  52  66
BRANCH  53  77
ATOM     77  C   UNL A   1      39.490  28.895  29.141  1.00  0.00     0.064 A 
ATOM     78  C   UNL A   1      38.870  28.847  30.397  1.00  0.00     0.173 A 
ATOM     79  C   UNL A   1      38.728  29.334  28.051  1.00  0.00     0.173 A 
ATOM     80  F   UNL A   1      39.555  28.417  31.466  1.00  0.00    -0.203 F 
ATOM     81  C   UNL A   1      37.539  29.223  30.557  1.00  0.00     0.198 A 
ATOM     82  C   UNL A   1      37.404  29.733  28.215  1.00  0.00     0.198 A 
ATOM     83  F   UNL A   1      39.280  29.405  26.830  1.00  0.00    -0.203 F 
ATOM     84  F   UNL A   1      36.964  29.149  31.765  1.00  0.00    -0.200 F 
ATOM     85  C   UNL A   1      36.809  29.675  29.467  1.00  0.00     0.200 A 
ATOM     86  F   UNL A   1      36.705  30.182  27.164  1.00  0.00    -0.200 F 
ATOM     87  F   UNL A   1      35.534  30.056  29.625  1.00  0.00    -0.200 F 
ENDBRANCH  53  77
BRANCH  65  88
ATOM     88  C   UNL A   1      45.409  32.590  29.195  1.00  0.00     0.064 A 
ATOM     89  C   UNL A   1      45.371  33.502  28.131  1.00  0.00     0.173 A 
ATOM     90  C   UNL A   1      45.656  33.088  30.483  1.00  0.00     0.173 A 
ATOM     91  F   UNL A   1      45.153  33.070  26.880  1.00  0.00    -0.203 F 
ATOM     92  C   UNL A   1      45.579  34.861  28.348  1.00  0.00     0.198 A 
ATOM     93  C   UNL A   1      45.838  34.451  30.700  1.00  0.00     0.198 A 
ATOM     94  F   UNL A   1      45.694  32.256  31.535  1.00  0.00    -0.203 F 
ATOM     95  F   UNL A   1      45.565  35.712  27.313  1.00  0.00    -0.200 F 
ATOM     96  C   UNL A   1      45.803  35.335  29.632  1.00  0.00     0.200 A 
ATOM     97  F   UNL A   1      46.042  34.910  31.942  1.00  0.00    -0.200 F 
ATOM     98  F   UNL A   1      45.986  36.647  29.840  1.00  0.00    -0.200 F 
ENDBRANCH  65  88
ENDBRANCH  39  40
ENDBRANCH  32  34
ENDBRANCH  31  32
ENDBRANCH  30  31
ENDBRANCH   1  30
TORSDOF 14
ENDMDL
