MODEL 1
REMARK VINA RESULT:     -12.1      0.000      0.000
REMARK SMILES O=C(OCCOC(=O)[C@@H]1CCCN(C(=O)/C=C/c2c(F)cccc2Cl)C1)c1ccc(-c2c3nc(c(-c4c(F)c(F)c(F)c(F)c4F)c4ccc([nH]4)c(-c4c(F)c(F)c(F)c(F)c4F)c4nc(c(-c5c(F)c(F)c(F)c(F)c5F)c5ccc2[nH]5)C=C4)C=C3)cc1
REMARK SMILES IDX 5 1 4 2 3 3 2 4 1 5 27 6 28 7 89 8 29 9 88 10 30 11 31 12
REMARK SMILES IDX 32 13 82 14 33 15 87 16 81 17 83 18 34 19 86 20 80 21 79 22
REMARK SMILES IDX 35 24 67 25 47 26 66 27 48 28 51 29 65 30 84 31 49 32 50 33
REMARK SMILES IDX 64 35 85 36 52 37 36 38 37 39 45 40 38 41 39 42 43 43 46 44
REMARK SMILES IDX 40 45 41 46 44 47 42 48 68 49 69 50 77 51 70 52 71 53 75 54
REMARK SMILES IDX 78 55 72 56 73 57 76 58 74 59 53 60 54 61 62 62 55 63 56 64
REMARK SMILES IDX 60 65 63 66 57 67 58 68 61 69 59 70 6 71 7 72 8 73 9 74
REMARK SMILES IDX 10 75 26 76 11 77 13 78 12 79 14 80 15 81 16 82 17 83 18 84
REMARK SMILES IDX 19 85 24 86 20 87 21 88 23 89 25 90 22 91
REMARK H PARENT 83 23 51 34
REMARK Flexibility Score: inf
ROOT
ATOM      1  C   UNL A   1      31.872  29.120  25.605  1.00  0.00     0.274 C 
ENDROOT
BRANCH   1   2
ATOM      2  C   UNL A   1      31.734  30.354  26.494  1.00  0.00     0.275 C 
BRANCH   2   3
ATOM      3  O   UNL A   1      32.831  31.285  26.372  1.00  0.00    -0.458 OA
BRANCH   3   4
ATOM      4  C   UNL A   1      33.475  32.043  27.291  1.00  0.00     0.338 C 
ATOM      5  O   UNL A   1      33.011  33.160  27.535  1.00  0.00    -0.246 OA
BRANCH   4   6
ATOM      6  C   UNL A   1      34.749  31.677  28.000  1.00  0.00     0.060 A 
ATOM      7  C   UNL A   1      35.887  32.474  28.132  1.00  0.00     0.016 A 
ATOM      8  C   UNL A   1      34.794  30.386  28.576  1.00  0.00     0.016 A 
ATOM      9  C   UNL A   1      37.006  32.028  28.857  1.00  0.00     0.010 A 
ATOM     10  C   UNL A   1      35.914  29.930  29.290  1.00  0.00     0.010 A 
ATOM     11  C   UNL A   1      37.029  30.758  29.440  1.00  0.00    -0.014 A 
BRANCH  11  12
ATOM     12  C   UNL A   1      38.255  30.286  30.132  1.00  0.00     0.031 A 
ATOM     13  C   UNL A   1      38.522  30.758  31.522  1.00  0.00     0.074 A 
ATOM     14  C   UNL A   1      39.095  29.414  29.544  1.00  0.00     0.049 A 
ATOM     15  N   UNL A   1      39.468  30.394  32.345  1.00  0.00    -0.248 NA
ATOM     16  C   UNL A   1      37.597  31.766  32.063  1.00  0.00     0.031 C 
ATOM     17  C   UNL A   1      38.908  28.891  28.204  1.00  0.00     0.029 A 
ATOM     18  N   UNL A   1      40.248  28.805  29.967  1.00  0.00    -0.354 N 
ATOM     19  C   UNL A   1      39.244  31.112  33.508  1.00  0.00     0.074 A 
ATOM     20  C   UNL A   1      38.092  31.957  33.276  1.00  0.00     0.031 C 
ATOM     21  C   UNL A   1      39.891  28.034  27.898  1.00  0.00     0.029 A 
ATOM     22  C   UNL A   1      40.797  27.953  29.034  1.00  0.00     0.049 A 
ATOM     23  H   UNL A   1      40.646  28.962  30.854  1.00  0.00     0.167 HD
ATOM     24  C   UNL A   1      39.943  31.059  34.664  1.00  0.00     0.037 A 
ATOM     25  C   UNL A   1      41.902  27.184  29.092  1.00  0.00     0.037 A 
ATOM     26  C   UNL A   1      41.113  30.246  34.858  1.00  0.00     0.049 A 
ATOM     27  C   UNL A   1      42.683  27.185  30.375  1.00  0.00     0.074 A 
ATOM     28  C   UNL A   1      41.914  30.138  35.979  1.00  0.00     0.029 A 
ATOM     29  N   UNL A   1      41.662  29.414  33.889  1.00  0.00    -0.354 N 
ATOM     30  N   UNL A   1      42.426  27.822  31.492  1.00  0.00    -0.248 NA
ATOM     31  C   UNL A   1      43.897  26.362  30.416  1.00  0.00     0.031 C 
ATOM     32  C   UNL A   1      42.974  29.277  35.673  1.00  0.00     0.029 A 
ATOM     33  C   UNL A   1      42.810  28.814  34.377  1.00  0.00     0.049 A 
ATOM     34  H   UNL A   1      41.288  29.273  32.989  1.00  0.00     0.167 HD
ATOM     35  C   UNL A   1      43.435  27.471  32.373  1.00  0.00     0.074 A 
ATOM     36  C   UNL A   1      44.293  26.537  31.669  1.00  0.00     0.031 C 
ATOM     37  C   UNL A   1      43.642  27.892  33.644  1.00  0.00     0.037 A 
BRANCH  24  38
ATOM     38  C   UNL A   1      39.470  31.944  35.775  1.00  0.00     0.064 A 
ATOM     39  C   UNL A   1      40.052  33.198  36.011  1.00  0.00     0.173 A 
ATOM     40  C   UNL A   1      38.444  31.521  36.631  1.00  0.00     0.173 A 
ATOM     41  F   UNL A   1      41.057  33.634  35.236  1.00  0.00    -0.203 F 
ATOM     42  C   UNL A   1      39.639  33.988  37.081  1.00  0.00     0.198 A 
ATOM     43  C   UNL A   1      38.019  32.321  37.686  1.00  0.00     0.198 A 
ATOM     44  F   UNL A   1      37.865  30.324  36.451  1.00  0.00    -0.203 F 
ATOM     45  F   UNL A   1      40.241  35.161  37.320  1.00  0.00    -0.200 F 
ATOM     46  C   UNL A   1      38.620  33.550  37.915  1.00  0.00     0.200 A 
ATOM     47  F   UNL A   1      37.035  31.897  38.492  1.00  0.00    -0.200 F 
ATOM     48  F   UNL A   1      38.227  34.307  38.948  1.00  0.00    -0.200 F 
ENDBRANCH  24  38
BRANCH  25  49
ATOM     49  C   UNL A   1      42.314  26.353  27.926  1.00  0.00     0.064 A 
ATOM     50  C   UNL A   1      43.266  26.812  27.004  1.00  0.00     0.173 A 
ATOM     51  C   UNL A   1      41.756  25.085  27.699  1.00  0.00     0.173 A 
ATOM     52  F   UNL A   1      43.821  28.022  27.161  1.00  0.00    -0.203 F 
ATOM     53  C   UNL A   1      43.624  26.049  25.892  1.00  0.00     0.198 A 
ATOM     54  C   UNL A   1      42.137  24.310  26.603  1.00  0.00     0.198 A 
ATOM     55  F   UNL A   1      40.844  24.589  28.547  1.00  0.00    -0.203 F 
ATOM     56  F   UNL A   1      44.498  26.536  25.001  1.00  0.00    -0.200 F 
ATOM     57  C   UNL A   1      43.063  24.797  25.695  1.00  0.00     0.200 A 
ATOM     58  F   UNL A   1      41.601  23.094  26.425  1.00  0.00    -0.200 F 
ATOM     59  F   UNL A   1      43.407  24.067  24.625  1.00  0.00    -0.200 F 
ENDBRANCH  25  49
BRANCH  37  60
ATOM     60  C   UNL A   1      44.847  27.341  34.344  1.00  0.00     0.064 A 
ATOM     61  C   UNL A   1      46.082  28.005  34.296  1.00  0.00     0.173 A 
ATOM     62  C   UNL A   1      44.758  26.158  35.091  1.00  0.00     0.173 A 
ATOM     63  F   UNL A   1      46.217  29.129  33.577  1.00  0.00    -0.203 F 
ATOM     64  C   UNL A   1      47.193  27.491  34.957  1.00  0.00     0.198 A 
ATOM     65  C   UNL A   1      45.864  25.662  35.774  1.00  0.00     0.198 A 
ATOM     66  F   UNL A   1      43.597  25.490  35.166  1.00  0.00    -0.203 F 
ATOM     67  F   UNL A   1      48.374  28.115  34.862  1.00  0.00    -0.200 F 
ATOM     68  C   UNL A   1      47.080  26.325  35.702  1.00  0.00     0.200 A 
ATOM     69  F   UNL A   1      45.753  24.543  36.501  1.00  0.00    -0.200 F 
ATOM     70  F   UNL A   1      48.150  25.835  36.343  1.00  0.00    -0.200 F 
ENDBRANCH  37  60
ENDBRANCH  11  12
ENDBRANCH   4   6
ENDBRANCH   3   4
ENDBRANCH   2   3
ENDBRANCH   1   2
BRANCH   1  71
ATOM     71  O   UNL A   1      30.941  29.192  24.524  1.00  0.00    -0.462 OA
BRANCH  71  72
ATOM     72  C   UNL A   1      31.337  28.730  23.307  1.00  0.00     0.310 C 
ATOM     73  O   UNL A   1      32.406  28.982  22.773  1.00  0.00    -0.252 OA
BRANCH  72  74
ATOM     74  C   UNL A   1      30.314  27.741  22.766  1.00  0.00     0.119 C 
ATOM     75  C   UNL A   1      29.524  27.011  23.862  1.00  0.00     0.019 C 
ATOM     76  C   UNL A   1      30.958  26.732  21.827  1.00  0.00     0.135 C 
ATOM     77  C   UNL A   1      30.303  25.854  24.505  1.00  0.00     0.022 C 
ATOM     78  N   UNL A   1      31.724  25.717  22.544  1.00  0.00    -0.338 N 
ATOM     79  C   UNL A   1      30.908  24.925  23.454  1.00  0.00     0.120 C 
BRANCH  78  80
ATOM     80  C   UNL A   1      33.087  25.625  22.313  1.00  0.00     0.246 C 
ATOM     81  O   UNL A   1      33.653  26.195  21.381  1.00  0.00    -0.270 OA
BRANCH  80  82
ATOM     82  C   UNL A   1      33.914  24.721  23.143  1.00  0.00     0.072 C 
ATOM     83  C   UNL A   1      34.246  23.486  22.748  1.00  0.00     0.018 C 
BRANCH  83  84
ATOM     84  C   UNL A   1      34.957  22.552  23.627  1.00  0.00     0.029 A 
ATOM     85  C   UNL A   1      36.358  22.539  23.609  1.00  0.00     0.131 A 
ATOM     86  C   UNL A   1      34.300  21.691  24.519  1.00  0.00     0.051 A 
ATOM     87  F   UNL A   1      37.028  23.327  22.755  1.00  0.00    -0.206 F 
ATOM     88  C   UNL A   1      37.090  21.727  24.470  1.00  0.00     0.040 A 
ATOM     89  C   UNL A   1      35.031  20.879  25.393  1.00  0.00     0.021 A 
ATOM     90  Cl  UNL A   1      32.574  21.582  24.577  1.00  0.00    -0.084 Cl
ATOM     91  C   UNL A   1      36.427  20.904  25.376  1.00  0.00     0.005 A 
ENDBRANCH  83  84
ENDBRANCH  80  82
ENDBRANCH  78  80
ENDBRANCH  72  74
ENDBRANCH  71  72
ENDBRANCH   1  71
TORSDOF 14
ENDMDL
MODEL 2
REMARK VINA RESULT:     -12.0      2.178      3.476
REMARK SMILES O=C(OCCOC(=O)[C@@H]1CCCN(C(=O)/C=C/c2c(F)cccc2Cl)C1)c1ccc(-c2c3nc(c(-c4c(F)c(F)c(F)c(F)c4F)c4ccc([nH]4)c(-c4c(F)c(F)c(F)c(F)c4F)c4nc(c(-c5c(F)c(F)c(F)c(F)c5F)c5ccc2[nH]5)C=C4)C=C3)cc1
REMARK SMILES IDX 5 1 4 2 3 3 2 4 1 5 27 6 28 7 89 8 29 9 88 10 30 11 31 12
REMARK SMILES IDX 32 13 82 14 33 15 87 16 81 17 83 18 34 19 86 20 80 21 79 22
REMARK SMILES IDX 35 24 67 25 47 26 66 27 48 28 51 29 65 30 84 31 49 32 50 33
REMARK SMILES IDX 64 35 85 36 52 37 36 38 37 39 45 40 38 41 39 42 43 43 46 44
REMARK SMILES IDX 40 45 41 46 44 47 42 48 68 49 69 50 77 51 70 52 71 53 75 54
REMARK SMILES IDX 78 55 72 56 73 57 76 58 74 59 53 60 54 61 62 62 55 63 56 64
REMARK SMILES IDX 60 65 63 66 57 67 58 68 61 69 59 70 6 71 7 72 8 73 9 74
REMARK SMILES IDX 10 75 26 76 11 77 13 78 12 79 14 80 15 81 16 82 17 83 18 84
REMARK SMILES IDX 19 85 24 86 20 87 21 88 23 89 25 90 22 91
REMARK H PARENT 83 23 51 34
REMARK Flexibility Score: inf
ROOT
ATOM      1  C   UNL A   1      31.549  30.157  25.682  1.00  0.00     0.274 C 
ENDROOT
BRANCH   1   2
ATOM      2  C   UNL A   1      32.074  29.833  27.079  1.00  0.00     0.275 C 
BRANCH   2   3
ATOM      3  O   UNL A   1      33.507  29.664  27.137  1.00  0.00    -0.458 OA
BRANCH   3   4
ATOM      4  C   UNL A   1      34.487  30.451  27.639  1.00  0.00     0.338 C 
ATOM      5  O   UNL A   1      34.302  31.670  27.625  1.00  0.00    -0.246 OA
BRANCH   4   6
ATOM      6  C   UNL A   1      35.818  29.981  28.156  1.00  0.00     0.060 A 
ATOM      7  C   UNL A   1      36.076  29.429  29.412  1.00  0.00     0.016 A 
ATOM      8  C   UNL A   1      36.917  30.128  27.278  1.00  0.00     0.016 A 
ATOM      9  C   UNL A   1      37.365  28.990  29.762  1.00  0.00     0.010 A 
ATOM     10  C   UNL A   1      38.208  29.703  27.626  1.00  0.00     0.010 A 
ATOM     11  C   UNL A   1      38.438  29.122  28.876  1.00  0.00    -0.014 A 
BRANCH  11  12
ATOM     12  C   UNL A   1      39.802  28.720  29.303  1.00  0.00     0.031 A 
ATOM     13  C   UNL A   1      40.511  29.552  30.318  1.00  0.00     0.074 A 
ATOM     14  C   UNL A   1      40.381  27.604  28.822  1.00  0.00     0.049 A 
ATOM     15  N   UNL A   1      41.655  29.330  30.907  1.00  0.00    -0.248 NA
ATOM     16  C   UNL A   1      39.840  30.793  30.735  1.00  0.00     0.031 C 
ATOM     17  C   UNL A   1      39.763  26.729  27.845  1.00  0.00     0.029 A 
ATOM     18  N   UNL A   1      41.587  27.001  29.074  1.00  0.00    -0.354 N 
ATOM     19  C   UNL A   1      41.835  30.391  31.778  1.00  0.00     0.074 A 
ATOM     20  C   UNL A   1      40.699  31.275  31.620  1.00  0.00     0.031 C 
ATOM     21  C   UNL A   1      40.568  25.693  27.573  1.00  0.00     0.029 A 
ATOM     22  C   UNL A   1      41.783  25.839  28.361  1.00  0.00     0.049 A 
ATOM     23  H   UNL A   1      42.250  27.365  29.704  1.00  0.00     0.167 HD
ATOM     24  C   UNL A   1      42.861  30.598  32.634  1.00  0.00     0.037 A 
ATOM     25  C   UNL A   1      42.821  24.981  28.351  1.00  0.00     0.037 A 
ATOM     26  C   UNL A   1      44.003  29.731  32.742  1.00  0.00     0.049 A 
ATOM     27  C   UNL A   1      43.967  25.265  29.280  1.00  0.00     0.074 A 
ATOM     28  C   UNL A   1      45.113  29.860  33.556  1.00  0.00     0.029 A 
ATOM     29  N   UNL A   1      44.188  28.577  31.990  1.00  0.00    -0.354 N 
ATOM     30  N   UNL A   1      44.098  26.241  30.145  1.00  0.00    -0.248 NA
ATOM     31  C   UNL A   1      45.102  24.336  29.241  1.00  0.00     0.031 C 
ATOM     32  C   UNL A   1      45.991  28.811  33.263  1.00  0.00     0.029 A 
ATOM     33  C   UNL A   1      45.409  28.002  32.299  1.00  0.00     0.049 A 
ATOM     34  H   UNL A   1      43.545  28.220  31.336  1.00  0.00     0.167 HD
ATOM     35  C   UNL A   1      45.321  26.040  30.764  1.00  0.00     0.074 A 
ATOM     36  C   UNL A   1      45.879  24.829  30.196  1.00  0.00     0.031 C 
ATOM     37  C   UNL A   1      45.934  26.796  31.707  1.00  0.00     0.037 A 
BRANCH  24  38
ATOM     38  C   UNL A   1      42.796  31.835  33.474  1.00  0.00     0.064 A 
ATOM     39  C   UNL A   1      42.212  31.824  34.750  1.00  0.00     0.173 A 
ATOM     40  C   UNL A   1      43.296  33.050  32.988  1.00  0.00     0.173 A 
ATOM     41  F   UNL A   1      41.694  30.690  35.247  1.00  0.00    -0.203 F 
ATOM     42  C   UNL A   1      42.110  32.993  35.499  1.00  0.00     0.198 A 
ATOM     43  C   UNL A   1      43.213  34.212  33.748  1.00  0.00     0.198 A 
ATOM     44  F   UNL A   1      43.854  33.112  31.769  1.00  0.00    -0.203 F 
ATOM     45  F   UNL A   1      41.505  32.972  36.694  1.00  0.00    -0.200 F 
ATOM     46  C   UNL A   1      42.614  34.185  34.999  1.00  0.00     0.200 A 
ATOM     47  F   UNL A   1      43.698  35.364  33.263  1.00  0.00    -0.200 F 
ATOM     48  F   UNL A   1      42.510  35.311  35.718  1.00  0.00    -0.200 F 
ENDBRANCH  24  38
BRANCH  25  49
ATOM     49  C   UNL A   1      42.814  23.786  27.460  1.00  0.00     0.064 A 
ATOM     50  C   UNL A   1      42.348  22.543  27.913  1.00  0.00     0.173 A 
ATOM     51  C   UNL A   1      43.284  23.856  26.139  1.00  0.00     0.173 A 
ATOM     52  F   UNL A   1      41.902  22.412  29.171  1.00  0.00    -0.203 F 
ATOM     53  C   UNL A   1      42.377  21.415  27.092  1.00  0.00     0.198 A 
ATOM     54  C   UNL A   1      43.283  22.735  25.309  1.00  0.00     0.198 A 
ATOM     55  F   UNL A   1      43.737  25.018  25.647  1.00  0.00    -0.203 F 
ATOM     56  F   UNL A   1      41.973  20.230  27.569  1.00  0.00    -0.200 F 
ATOM     57  C   UNL A   1      42.839  21.513  25.788  1.00  0.00     0.200 A 
ATOM     58  F   UNL A   1      43.720  22.839  24.046  1.00  0.00    -0.200 F 
ATOM     59  F   UNL A   1      42.868  20.429  25.001  1.00  0.00    -0.200 F 
ENDBRANCH  25  49
BRANCH  37  60
ATOM     60  C   UNL A   1      47.278  26.325  32.173  1.00  0.00     0.064 A 
ATOM     61  C   UNL A   1      47.401  25.406  33.227  1.00  0.00     0.173 A 
ATOM     62  C   UNL A   1      48.447  26.771  31.541  1.00  0.00     0.173 A 
ATOM     63  F   UNL A   1      46.309  24.968  33.872  1.00  0.00    -0.203 F 
ATOM     64  C   UNL A   1      48.652  24.967  33.645  1.00  0.00     0.198 A 
ATOM     65  C   UNL A   1      49.695  26.307  31.945  1.00  0.00     0.198 A 
ATOM     66  F   UNL A   1      48.378  27.648  30.529  1.00  0.00    -0.203 F 
ATOM     67  F   UNL A   1      48.751  24.124  34.682  1.00  0.00    -0.200 F 
ATOM     68  C   UNL A   1      49.797  25.411  32.998  1.00  0.00     0.200 A 
ATOM     69  F   UNL A   1      50.800  26.728  31.315  1.00  0.00    -0.200 F 
ATOM     70  F   UNL A   1      51.001  24.981  33.400  1.00  0.00    -0.200 F 
ENDBRANCH  37  60
ENDBRANCH  11  12
ENDBRANCH   4   6
ENDBRANCH   3   4
ENDBRANCH   2   3
ENDBRANCH   1   2
BRANCH   1  71
ATOM     71  O   UNL A   1      31.034  28.975  25.068  1.00  0.00    -0.462 OA
BRANCH  71  72
ATOM     72  C   UNL A   1      31.446  28.677  23.806  1.00  0.00     0.310 C 
ATOM     73  O   UNL A   1      32.544  28.945  23.343  1.00  0.00    -0.252 OA
BRANCH  72  74
ATOM     74  C   UNL A   1      30.391  27.840  23.097  1.00  0.00     0.119 C 
ATOM     75  C   UNL A   1      29.558  26.966  24.045  1.00  0.00     0.019 C 
ATOM     76  C   UNL A   1      31.006  26.982  22.001  1.00  0.00     0.135 C 
ATOM     77  C   UNL A   1      30.282  25.684  24.483  1.00  0.00     0.022 C 
ATOM     78  N   UNL A   1      31.721  25.828  22.536  1.00  0.00    -0.338 N 
ATOM     79  C   UNL A   1      30.862  24.925  23.291  1.00  0.00     0.120 C 
BRANCH  78  80
ATOM     80  C   UNL A   1      33.083  25.720  22.301  1.00  0.00     0.246 C 
ATOM     81  O   UNL A   1      33.653  26.287  21.369  1.00  0.00    -0.270 OA
BRANCH  80  82
ATOM     82  C   UNL A   1      33.901  24.803  23.125  1.00  0.00     0.072 C 
ATOM     83  C   UNL A   1      34.168  23.546  22.751  1.00  0.00     0.018 C 
BRANCH  83  84
ATOM     84  C   UNL A   1      34.871  22.605  23.630  1.00  0.00     0.029 A 
ATOM     85  C   UNL A   1      36.271  22.576  23.607  1.00  0.00     0.131 A 
ATOM     86  C   UNL A   1      34.207  21.752  24.524  1.00  0.00     0.051 A 
ATOM     87  F   UNL A   1      36.948  23.356  22.751  1.00  0.00    -0.206 F 
ATOM     88  C   UNL A   1      36.997  21.757  24.468  1.00  0.00     0.040 A 
ATOM     89  C   UNL A   1      34.932  20.933  25.397  1.00  0.00     0.021 A 
ATOM     90  Cl  UNL A   1      32.480  21.662  24.587  1.00  0.00    -0.084 Cl
ATOM     91  C   UNL A   1      36.327  20.942  25.376  1.00  0.00     0.005 A 
ENDBRANCH  83  84
ENDBRANCH  80  82
ENDBRANCH  78  80
ENDBRANCH  72  74
ENDBRANCH  71  72
ENDBRANCH   1  71
TORSDOF 14
ENDMDL
MODEL 3
REMARK VINA RESULT:     -11.9      0.683      1.373
REMARK SMILES O=C(OCCOC(=O)[C@@H]1CCCN(C(=O)/C=C/c2c(F)cccc2Cl)C1)c1ccc(-c2c3nc(c(-c4c(F)c(F)c(F)c(F)c4F)c4ccc([nH]4)c(-c4c(F)c(F)c(F)c(F)c4F)c4nc(c(-c5c(F)c(F)c(F)c(F)c5F)c5ccc2[nH]5)C=C4)C=C3)cc1
REMARK SMILES IDX 5 1 4 2 3 3 2 4 1 5 27 6 28 7 89 8 29 9 88 10 30 11 31 12
REMARK SMILES IDX 32 13 82 14 33 15 87 16 81 17 83 18 34 19 86 20 80 21 79 22
REMARK SMILES IDX 35 24 67 25 47 26 66 27 48 28 51 29 65 30 84 31 49 32 50 33
REMARK SMILES IDX 64 35 85 36 52 37 36 38 37 39 45 40 38 41 39 42 43 43 46 44
REMARK SMILES IDX 40 45 41 46 44 47 42 48 68 49 69 50 77 51 70 52 71 53 75 54
REMARK SMILES IDX 78 55 72 56 73 57 76 58 74 59 53 60 54 61 62 62 55 63 56 64
REMARK SMILES IDX 60 65 63 66 57 67 58 68 61 69 59 70 6 71 7 72 8 73 9 74
REMARK SMILES IDX 10 75 26 76 11 77 13 78 12 79 14 80 15 81 16 82 17 83 18 84
REMARK SMILES IDX 19 85 24 86 20 87 21 88 23 89 25 90 22 91
REMARK H PARENT 83 23 51 34
REMARK Flexibility Score: inf
ROOT
ATOM      1  C   UNL A   1      31.940  29.018  26.726  1.00  0.00     0.274 C 
ENDROOT
BRANCH   1   2
ATOM      2  C   UNL A   1      31.692  30.441  26.231  1.00  0.00     0.275 C 
BRANCH   2   3
ATOM      3  O   UNL A   1      32.867  31.279  26.256  1.00  0.00    -0.458 OA
BRANCH   3   4
ATOM      4  C   UNL A   1      33.448  31.986  27.254  1.00  0.00     0.338 C 
ATOM      5  O   UNL A   1      32.919  33.050  27.582  1.00  0.00    -0.246 OA
BRANCH   4   6
ATOM      6  C   UNL A   1      34.725  31.626  27.962  1.00  0.00     0.060 A 
ATOM      7  C   UNL A   1      35.854  32.434  28.105  1.00  0.00     0.016 A 
ATOM      8  C   UNL A   1      34.782  30.330  28.526  1.00  0.00     0.016 A 
ATOM      9  C   UNL A   1      36.976  31.993  28.828  1.00  0.00     0.010 A 
ATOM     10  C   UNL A   1      35.905  29.879  29.237  1.00  0.00     0.010 A 
ATOM     11  C   UNL A   1      37.011  30.717  29.399  1.00  0.00    -0.014 A 
BRANCH  11  12
ATOM     12  C   UNL A   1      38.240  30.251  30.089  1.00  0.00     0.031 A 
ATOM     13  C   UNL A   1      38.501  30.715  31.483  1.00  0.00     0.074 A 
ATOM     14  C   UNL A   1      39.089  29.393  29.495  1.00  0.00     0.049 A 
ATOM     15  N   UNL A   1      39.450  30.354  32.305  1.00  0.00    -0.248 NA
ATOM     16  C   UNL A   1      37.566  31.710  32.030  1.00  0.00     0.031 C 
ATOM     17  C   UNL A   1      38.910  28.878  28.151  1.00  0.00     0.029 A 
ATOM     18  N   UNL A   1      40.248  28.791  29.916  1.00  0.00    -0.354 N 
ATOM     19  C   UNL A   1      39.217  31.061  33.472  1.00  0.00     0.074 A 
ATOM     20  C   UNL A   1      38.057  31.896  33.245  1.00  0.00     0.031 C 
ATOM     21  C   UNL A   1      39.901  28.033  27.840  1.00  0.00     0.029 A 
ATOM     22  C   UNL A   1      40.806  27.952  28.977  1.00  0.00     0.049 A 
ATOM     23  H   UNL A   1      40.643  28.945  30.804  1.00  0.00     0.167 HD
ATOM     24  C   UNL A   1      39.915  31.006  34.629  1.00  0.00     0.037 A 
ATOM     25  C   UNL A   1      41.918  27.193  29.030  1.00  0.00     0.037 A 
ATOM     26  C   UNL A   1      41.092  30.202  34.818  1.00  0.00     0.049 A 
ATOM     27  C   UNL A   1      42.698  27.191  30.314  1.00  0.00     0.074 A 
ATOM     28  C   UNL A   1      41.893  30.093  35.940  1.00  0.00     0.029 A 
ATOM     29  N   UNL A   1      41.650  29.383  33.844  1.00  0.00    -0.354 N 
ATOM     30  N   UNL A   1      42.433  27.817  31.435  1.00  0.00    -0.248 NA
ATOM     31  C   UNL A   1      43.920  26.380  30.350  1.00  0.00     0.031 C 
ATOM     32  C   UNL A   1      42.962  29.245  35.629  1.00  0.00     0.029 A 
ATOM     33  C   UNL A   1      42.803  28.790  34.329  1.00  0.00     0.049 A 
ATOM     34  H   UNL A   1      41.280  29.245  32.942  1.00  0.00     0.167 HD
ATOM     35  C   UNL A   1      43.444  27.469  32.315  1.00  0.00     0.074 A 
ATOM     36  C   UNL A   1      44.311  26.549  31.606  1.00  0.00     0.031 C 
ATOM     37  C   UNL A   1      43.646  27.882  33.590  1.00  0.00     0.037 A 
BRANCH  24  38
ATOM     38  C   UNL A   1      39.432  31.877  35.746  1.00  0.00     0.064 A 
ATOM     39  C   UNL A   1      39.984  33.146  35.978  1.00  0.00     0.173 A 
ATOM     40  C   UNL A   1      38.426  31.427  36.613  1.00  0.00     0.173 A 
ATOM     41  F   UNL A   1      40.970  33.607  35.192  1.00  0.00    -0.203 F 
ATOM     42  C   UNL A   1      39.563  33.923  37.053  1.00  0.00     0.198 A 
ATOM     43  C   UNL A   1      37.992  32.216  37.673  1.00  0.00     0.198 A 
ATOM     44  F   UNL A   1      37.875  30.216  36.438  1.00  0.00    -0.203 F 
ATOM     45  F   UNL A   1      40.138  35.111  37.286  1.00  0.00    -0.200 F 
ATOM     46  C   UNL A   1      38.565  33.459  37.897  1.00  0.00     0.200 A 
ATOM     47  F   UNL A   1      37.029  31.766  38.489  1.00  0.00    -0.200 F 
ATOM     48  F   UNL A   1      38.165  34.205  38.935  1.00  0.00    -0.200 F 
ENDBRANCH  24  38
BRANCH  25  49
ATOM     49  C   UNL A   1      42.340  26.375  27.858  1.00  0.00     0.064 A 
ATOM     50  C   UNL A   1      41.818  25.091  27.640  1.00  0.00     0.173 A 
ATOM     51  C   UNL A   1      43.283  26.852  26.935  1.00  0.00     0.173 A 
ATOM     52  F   UNL A   1      40.925  24.577  28.497  1.00  0.00    -0.203 F 
ATOM     53  C   UNL A   1      42.241  24.311  26.563  1.00  0.00     0.198 A 
ATOM     54  C   UNL A   1      43.683  26.083  25.842  1.00  0.00     0.198 A 
ATOM     55  F   UNL A   1      43.815  28.074  27.087  1.00  0.00    -0.203 F 
ATOM     56  F   UNL A   1      41.763  23.068  26.410  1.00  0.00    -0.200 F 
ATOM     57  C   UNL A   1      43.169  24.809  25.662  1.00  0.00     0.200 A 
ATOM     58  F   UNL A   1      44.571  26.575  24.967  1.00  0.00    -0.200 F 
ATOM     59  F   UNL A   1      43.576  24.057  24.630  1.00  0.00    -0.200 F 
ENDBRANCH  25  49
BRANCH  37  60
ATOM     60  C   UNL A   1      44.855  27.337  34.287  1.00  0.00     0.064 A 
ATOM     61  C   UNL A   1      46.082  28.015  34.251  1.00  0.00     0.173 A 
ATOM     62  C   UNL A   1      44.777  26.145  35.021  1.00  0.00     0.173 A 
ATOM     63  F   UNL A   1      46.206  29.149  33.545  1.00  0.00    -0.203 F 
ATOM     64  C   UNL A   1      47.196  27.507  34.910  1.00  0.00     0.198 A 
ATOM     65  C   UNL A   1      45.886  25.654  35.701  1.00  0.00     0.198 A 
ATOM     66  F   UNL A   1      43.624  25.463  35.084  1.00  0.00    -0.203 F 
ATOM     67  F   UNL A   1      48.371  28.146  34.826  1.00  0.00    -0.200 F 
ATOM     68  C   UNL A   1      47.095  26.331  35.641  1.00  0.00     0.200 A 
ATOM     69  F   UNL A   1      45.786  24.525  36.415  1.00  0.00    -0.200 F 
ATOM     70  F   UNL A   1      48.169  25.846  36.280  1.00  0.00    -0.200 F 
ENDBRANCH  37  60
ENDBRANCH  11  12
ENDBRANCH   4   6
ENDBRANCH   3   4
ENDBRANCH   2   3
ENDBRANCH   1   2
BRANCH   1  71
ATOM     71  O   UNL A   1      32.687  28.286  25.753  1.00  0.00    -0.462 OA
BRANCH  71  72
ATOM     72  C   UNL A   1      32.332  26.995  25.511  1.00  0.00     0.310 C 
ATOM     73  O   UNL A   1      32.872  26.014  26.000  1.00  0.00    -0.252 OA
BRANCH  72  74
ATOM     74  C   UNL A   1      31.077  26.950  24.652  1.00  0.00     0.119 C 
ATOM     75  C   UNL A   1      30.059  25.892  25.102  1.00  0.00     0.019 C 
ATOM     76  C   UNL A   1      31.416  26.756  23.182  1.00  0.00     0.135 C 
ATOM     77  C   UNL A   1      30.421  24.469  24.649  1.00  0.00     0.022 C 
ATOM     78  N   UNL A   1      31.805  25.382  22.879  1.00  0.00    -0.338 N 
ATOM     79  C   UNL A   1      30.751  24.416  23.158  1.00  0.00     0.120 C 
BRANCH  78  80
ATOM     80  C   UNL A   1      33.082  25.142  22.397  1.00  0.00     0.246 C 
ATOM     81  O   UNL A   1      33.654  25.889  21.603  1.00  0.00    -0.270 OA
BRANCH  80  82
ATOM     82  C   UNL A   1      33.777  23.885  22.750  1.00  0.00     0.072 C 
ATOM     83  C   UNL A   1      34.256  23.649  23.978  1.00  0.00     0.018 C 
BRANCH  83  84
ATOM     84  C   UNL A   1      35.054  22.457  24.286  1.00  0.00     0.029 A 
ATOM     85  C   UNL A   1      36.450  22.554  24.267  1.00  0.00     0.131 A 
ATOM     86  C   UNL A   1      34.481  21.225  24.636  1.00  0.00     0.051 A 
ATOM     87  F   UNL A   1      37.041  23.706  23.914  1.00  0.00    -0.206 F 
ATOM     88  C   UNL A   1      37.261  21.478  24.620  1.00  0.00     0.040 A 
ATOM     89  C   UNL A   1      35.291  20.142  24.999  1.00  0.00     0.021 A 
ATOM     90  Cl  UNL A   1      32.769  20.978  24.628  1.00  0.00    -0.084 Cl
ATOM     91  C   UNL A   1      36.681  20.272  25.001  1.00  0.00     0.005 A 
ENDBRANCH  83  84
ENDBRANCH  80  82
ENDBRANCH  78  80
ENDBRANCH  72  74
ENDBRANCH  71  72
ENDBRANCH   1  71
TORSDOF 14
ENDMDL
