MODEL 1
REMARK VINA RESULT:     -14.8      0.000      0.000
REMARK SMILES Cc1ccc(-c2nc(C)cc(N3CCCC[C@H]3C(=O)OCCOC(=O)c3ccc(-c4c5nc(c(-c6c(F)c(F)c(F)c(F)c6F)c6ccc([nH]6)c(-c6c(F)c(F)c(F)c(F)c6F)c6nc(c(-c7c(F)c(F)c(F)c(F)c7F)c7ccc4[nH]7)C=C6)C=C5)cc3)n2)cc1
REMARK SMILES IDX 21 1 20 2 18 3 19 4 17 5 12 6 13 7 14 8 16 9 15 10 11 11
REMARK SMILES IDX 6 12 7 13 89 14 8 15 9 16 10 17 5 18 1 19 2 20 3 21 91 22
REMARK SMILES IDX 4 23 90 24 22 25 23 26 24 27 25 28 26 29 27 30 88 31 28 32
REMARK SMILES IDX 87 33 29 34 30 35 31 36 81 37 32 38 86 39 80 40 82 41 33 42
REMARK SMILES IDX 85 43 79 44 78 45 34 47 66 48 46 49 65 50 47 51 50 52 64 53
REMARK SMILES IDX 83 54 48 55 49 56 63 58 84 59 51 60 35 61 36 62 44 63 37 64
REMARK SMILES IDX 38 65 42 66 45 67 39 68 40 69 43 70 41 71 67 72 68 73 76 74
REMARK SMILES IDX 69 75 70 76 74 77 77 78 71 79 72 80 75 81 73 82 52 83 53 84
REMARK SMILES IDX 61 85 54 86 55 87 59 88 62 89 56 90 57 91 60 92 58 93
REMARK H PARENT 82 46 50 57
REMARK Flexibility Score: inf
ROOT
ATOM      1  C   UNL A   1      38.892  21.623  25.508  1.00  0.00     0.274 C 
ENDROOT
BRANCH   1   2
ATOM      2  O   UNL A   1      37.533  21.974  25.824  1.00  0.00    -0.461 OA
BRANCH   2   3
ATOM      3  C   UNL A   1      36.539  21.820  24.760  1.00  0.00     0.328 C 
ATOM      4  O   UNL A   1      37.196  22.121  23.718  1.00  0.00    -0.250 OA
BRANCH   3   5
ATOM      5  C   UNL A   1      34.454  21.176  25.074  1.00  0.00     0.193 C 
ATOM      6  N   UNL A   1      33.001  21.910  24.402  1.00  0.00    -0.343 N 
ATOM      7  C   UNL A   1      32.462  21.328  23.147  1.00  0.00     0.119 C 
ATOM      8  C   UNL A   1      32.180  19.837  23.169  1.00  0.00     0.022 C 
ATOM      9  C   UNL A   1      33.684  19.582  25.181  1.00  0.00     0.037 C 
ATOM     10  C   UNL A   1      33.186  18.962  23.881  1.00  0.00     0.005 C 
BRANCH   6  11
ATOM     11  C   UNL A   1      32.077  22.815  25.000  1.00  0.00     0.133 A 
ATOM     12  C   UNL A   1      31.780  24.859  26.092  1.00  0.00     0.161 A 
ATOM     13  N   UNL A   1      30.744  24.458  26.831  1.00  0.00    -0.233 NA
ATOM     14  N   UNL A   1      32.453  24.104  25.184  1.00  0.00    -0.211 NA
ATOM     15  C   UNL A   1      30.317  23.222  26.608  1.00  0.00     0.043 A 
ATOM     16  C   UNL A   1      29.186  22.787  27.488  1.00  0.00     0.067 C 
ATOM     17  C   UNL A   1      30.920  22.399  25.660  1.00  0.00     0.070 A 
BRANCH  12  18
ATOM     18  C   UNL A   1      32.181  26.242  26.345  1.00  0.00     0.019 A 
ATOM     19  C   UNL A   1      33.465  30.255  27.316  1.00  0.00     0.044 C 
ATOM     20  C   UNL A   1      33.027  28.857  27.002  1.00  0.00    -0.051 A 
ATOM     21  C   UNL A   1      33.908  27.973  26.372  1.00  0.00     0.004 A 
ATOM     22  C   UNL A   1      31.735  28.421  27.319  1.00  0.00     0.004 A 
ATOM     23  C   UNL A   1      33.491  26.678  26.057  1.00  0.00     0.012 A 
ATOM     24  C   UNL A   1      31.315  27.131  26.987  1.00  0.00     0.012 A 
ENDBRANCH  12  18
ENDBRANCH   6  11
ENDBRANCH   3   5
ENDBRANCH   2   3
ENDBRANCH   1   2
BRANCH   1  25
ATOM     25  C   UNL A   1      39.784  21.918  26.722  1.00  0.00     0.275 C 
BRANCH  25  26
ATOM     26  O   UNL A   1      41.038  22.584  26.414  1.00  0.00    -0.458 OA
BRANCH  26  27
ATOM     27  C   UNL A   1      41.457  23.675  27.119  1.00  0.00     0.338 C 
ATOM     28  O   UNL A   1      42.323  23.663  27.974  1.00  0.00    -0.246 OA
BRANCH  27  29
ATOM     29  C   UNL A   1      40.501  24.796  27.010  1.00  0.00     0.060 A 
ATOM     30  C   UNL A   1      41.052  26.148  25.949  1.00  0.00     0.016 A 
ATOM     31  C   UNL A   1      39.479  25.142  28.427  1.00  0.00     0.016 A 
ATOM     32  C   UNL A   1      40.679  27.867  26.410  1.00  0.00     0.010 A 
ATOM     33  C   UNL A   1      39.132  26.856  28.890  1.00  0.00     0.010 A 
ATOM     34  C   UNL A   1      39.798  28.201  27.924  1.00  0.00    -0.014 A 
BRANCH  34  35
ATOM     35  C   UNL A   1      40.084  29.363  28.750  1.00  0.00     0.031 A 
ATOM     36  C   UNL A   1      39.040  30.390  28.791  1.00  0.00     0.074 A 
ATOM     37  C   UNL A   1      41.106  29.256  29.640  1.00  0.00     0.049 A 
ATOM     38  N   UNL A   1      39.218  31.536  29.324  1.00  0.00    -0.248 NA
ATOM     39  C   UNL A   1      37.718  30.271  28.168  1.00  0.00     0.031 C 
ATOM     40  C   UNL A   1      41.331  29.934  30.916  1.00  0.00     0.029 A 
ATOM     41  N   UNL A   1      42.273  28.504  29.487  1.00  0.00    -0.354 N 
ATOM     42  C   UNL A   1      37.982  32.118  29.468  1.00  0.00     0.074 A 
ATOM     43  C   UNL A   1      37.117  31.389  28.588  1.00  0.00     0.031 C 
ATOM     44  C   UNL A   1      42.615  29.772  31.297  1.00  0.00     0.029 A 
ATOM     45  C   UNL A   1      43.311  29.068  30.237  1.00  0.00     0.049 A 
ATOM     46  H   UNL A   1      42.354  27.695  28.933  1.00  0.00     0.167 HD
ATOM     47  C   UNL A   1      37.857  33.041  30.457  1.00  0.00     0.037 A 
ATOM     48  C   UNL A   1      44.411  29.534  29.576  1.00  0.00     0.037 A 
ATOM     49  C   UNL A   1      39.189  33.353  30.984  1.00  0.00     0.049 A 
ATOM     50  C   UNL A   1      44.342  31.046  29.443  1.00  0.00     0.074 A 
ATOM     51  C   UNL A   1      39.878  32.970  32.118  1.00  0.00     0.029 A 
ATOM     52  N   UNL A   1      40.149  33.812  30.083  1.00  0.00    -0.354 N 
ATOM     53  N   UNL A   1      43.264  31.748  29.673  1.00  0.00    -0.248 NA
ATOM     54  C   UNL A   1      45.484  31.881  29.091  1.00  0.00     0.031 C 
ATOM     55  C   UNL A   1      41.274  33.125  31.847  1.00  0.00     0.029 A 
ATOM     56  C   UNL A   1      41.429  33.639  30.566  1.00  0.00     0.049 A 
ATOM     57  H   UNL A   1      39.938  34.211  29.207  1.00  0.00     0.167 HD
ATOM     58  C   UNL A   1      43.536  33.082  29.550  1.00  0.00     0.074 A 
ATOM     59  C   UNL A   1      44.946  33.109  29.201  1.00  0.00     0.031 C 
ATOM     60  C   UNL A   1      42.581  34.044  29.756  1.00  0.00     0.037 A 
BRANCH  47  61
ATOM     61  C   UNL A   1      36.572  33.516  31.087  1.00  0.00     0.064 A 
ATOM     62  C   UNL A   1      36.285  33.152  32.420  1.00  0.00     0.173 A 
ATOM     63  C   UNL A   1      35.541  34.231  30.436  1.00  0.00     0.173 A 
ATOM     64  F   UNL A   1      37.170  32.461  33.153  1.00  0.00    -0.203 F 
ATOM     65  C   UNL A   1      35.074  33.468  33.043  1.00  0.00     0.198 A 
ATOM     66  C   UNL A   1      34.347  34.582  31.075  1.00  0.00     0.198 A 
ATOM     67  F   UNL A   1      35.613  34.577  29.147  1.00  0.00    -0.203 F 
ATOM     68  F   UNL A   1      34.845  33.053  34.296  1.00  0.00    -0.200 F 
ATOM     69  C   UNL A   1      34.109  34.193  32.375  1.00  0.00     0.200 A 
ATOM     70  F   UNL A   1      33.418  35.281  30.406  1.00  0.00    -0.200 F 
ATOM     71  F   UNL A   1      32.951  34.502  32.975  1.00  0.00    -0.200 F 
ENDBRANCH  47  61
BRANCH  48  72
ATOM     72  C   UNL A   1      44.847  28.571  28.520  1.00  0.00     0.064 A 
ATOM     73  C   UNL A   1      45.269  27.282  28.929  1.00  0.00     0.173 A 
ATOM     74  C   UNL A   1      44.433  28.715  27.200  1.00  0.00     0.173 A 
ATOM     75  F   UNL A   1      45.719  27.095  30.181  1.00  0.00    -0.203 F 
ATOM     76  C   UNL A   1      45.096  26.161  28.116  1.00  0.00     0.198 A 
ATOM     77  C   UNL A   1      44.308  27.597  26.378  1.00  0.00     0.198 A 
ATOM     78  F   UNL A   1      43.977  29.888  26.742  1.00  0.00    -0.203 F 
ATOM     79  F   UNL A   1      45.329  24.933  28.602  1.00  0.00    -0.200 F 
ATOM     80  C   UNL A   1      44.585  26.319  26.844  1.00  0.00     0.200 A 
ATOM     81  F   UNL A   1      43.736  27.769  25.183  1.00  0.00    -0.200 F 
ATOM     82  F   UNL A   1      44.292  25.246  26.093  1.00  0.00    -0.200 F 
ENDBRANCH  48  72
BRANCH  60  83
ATOM     83  C   UNL A   1      42.678  35.491  29.296  1.00  0.00     0.064 A 
ATOM     84  C   UNL A   1      42.001  36.017  28.184  1.00  0.00     0.173 A 
ATOM     85  C   UNL A   1      43.396  36.456  30.052  1.00  0.00     0.173 A 
ATOM     86  F   UNL A   1      41.106  35.302  27.494  1.00  0.00    -0.203 F 
ATOM     87  C   UNL A   1      42.157  37.343  27.774  1.00  0.00     0.198 A 
ATOM     88  C   UNL A   1      43.452  37.804  29.706  1.00  0.00     0.198 A 
ATOM     89  F   UNL A   1      44.055  36.148  31.176  1.00  0.00    -0.203 F 
ATOM     90  F   UNL A   1      41.578  37.752  26.636  1.00  0.00    -0.200 F 
ATOM     91  C   UNL A   1      42.874  38.239  28.538  1.00  0.00     0.200 A 
ATOM     92  F   UNL A   1      44.063  38.672  30.523  1.00  0.00    -0.200 F 
ATOM     93  F   UNL A   1      42.983  39.520  28.167  1.00  0.00    -0.200 F 
ENDBRANCH  60  83
ENDBRANCH  34  35
ENDBRANCH  27  29
ENDBRANCH  26  27
ENDBRANCH  25  26
ENDBRANCH   1  25
TORSDOF 13
ENDMDL
MODEL 2
REMARK VINA RESULT:     -14.7      3.974     10.128
REMARK SMILES Cc1ccc(-c2nc(C)cc(N3CCCC[C@H]3C(=O)OCCOC(=O)c3ccc(-c4c5nc(c(-c6c(F)c(F)c(F)c(F)c6F)c6ccc([nH]6)c(-c6c(F)c(F)c(F)c(F)c6F)c6nc(c(-c7c(F)c(F)c(F)c(F)c7F)c7ccc4[nH]7)C=C6)C=C5)cc3)n2)cc1
REMARK SMILES IDX 21 1 20 2 18 3 19 4 17 5 12 6 13 7 14 8 16 9 15 10 11 11
REMARK SMILES IDX 6 12 7 13 89 14 8 15 9 16 10 17 5 18 1 19 2 20 3 21 91 22
REMARK SMILES IDX 4 23 90 24 22 25 23 26 24 27 25 28 26 29 27 30 88 31 28 32
REMARK SMILES IDX 87 33 29 34 30 35 31 36 81 37 32 38 86 39 80 40 82 41 33 42
REMARK SMILES IDX 85 43 79 44 78 45 34 47 66 48 46 49 65 50 47 51 50 52 64 53
REMARK SMILES IDX 83 54 48 55 49 56 63 58 84 59 51 60 35 61 36 62 44 63 37 64
REMARK SMILES IDX 38 65 42 66 45 67 39 68 40 69 43 70 41 71 67 72 68 73 76 74
REMARK SMILES IDX 69 75 70 76 74 77 77 78 71 79 72 80 75 81 73 82 52 83 53 84
REMARK SMILES IDX 61 85 54 86 55 87 59 88 62 89 56 90 57 91 60 92 58 93
REMARK H PARENT 82 46 50 57
REMARK Flexibility Score: inf
ROOT
ATOM      1  C   UNL A   1      32.805  31.046  27.503  1.00  0.00     0.274 C 
ENDROOT
BRANCH   1   2
ATOM      2  O   UNL A   1      32.991  29.625  27.639  1.00  0.00    -0.461 OA
BRANCH   2   3
ATOM      3  C   UNL A   1      31.958  28.759  27.070  1.00  0.00     0.328 C 
ATOM      4  O   UNL A   1      31.412  28.261  28.100  1.00  0.00    -0.250 OA
BRANCH   3   5
ATOM      5  C   UNL A   1      31.563  28.527  24.913  1.00  0.00     0.193 C 
ATOM      6  N   UNL A   1      30.964  27.090  24.090  1.00  0.00    -0.343 N 
ATOM      7  C   UNL A   1      29.501  27.001  23.855  1.00  0.00     0.119 C 
ATOM      8  C   UNL A   1      28.869  28.171  23.123  1.00  0.00     0.022 C 
ATOM      9  C   UNL A   1      30.868  29.605  23.689  1.00  0.00     0.037 C 
ATOM     10  C   UNL A   1      29.358  29.552  23.492  1.00  0.00     0.005 C 
BRANCH   6  11
ATOM     11  C   UNL A   1      31.675  26.096  23.357  1.00  0.00     0.133 A 
ATOM     12  C   UNL A   1      33.606  24.790  23.213  1.00  0.00     0.161 A 
ATOM     13  N   UNL A   1      33.632  24.749  21.879  1.00  0.00    -0.233 NA
ATOM     14  N   UNL A   1      32.674  25.420  23.975  1.00  0.00    -0.211 NA
ATOM     15  C   UNL A   1      32.621  25.344  21.262  1.00  0.00     0.043 A 
ATOM     16  C   UNL A   1      32.706  25.324  19.766  1.00  0.00     0.067 C 
ATOM     17  C   UNL A   1      31.597  25.971  21.969  1.00  0.00     0.070 A 
BRANCH  12  18
ATOM     18  C   UNL A   1      34.719  24.082  23.844  1.00  0.00     0.019 A 
ATOM     19  C   UNL A   1      38.163  22.180  25.636  1.00  0.00     0.044 C 
ATOM     20  C   UNL A   1      36.984  22.856  25.005  1.00  0.00    -0.051 A 
ATOM     21  C   UNL A   1      36.246  23.795  25.731  1.00  0.00     0.004 A 
ATOM     22  C   UNL A   1      36.598  22.550  23.695  1.00  0.00     0.004 A 
ATOM     23  C   UNL A   1      35.133  24.407  25.152  1.00  0.00     0.012 A 
ATOM     24  C   UNL A   1      35.474  23.152  23.124  1.00  0.00     0.012 A 
ENDBRANCH  12  18
ENDBRANCH   6  11
ENDBRANCH   3   5
ENDBRANCH   2   3
ENDBRANCH   1   2
BRANCH   1  25
ATOM     25  C   UNL A   1      34.170  31.743  27.580  1.00  0.00     0.275 C 
BRANCH  25  26
ATOM     26  O   UNL A   1      34.643  32.019  28.926  1.00  0.00    -0.458 OA
BRANCH  26  27
ATOM     27  C   UNL A   1      35.928  31.749  29.298  1.00  0.00     0.338 C 
ATOM     28  O   UNL A   1      36.781  32.589  29.517  1.00  0.00    -0.246 OA
BRANCH  27  29
ATOM     29  C   UNL A   1      36.286  30.339  29.046  1.00  0.00     0.060 A 
ATOM     30  C   UNL A   1      36.530  29.351  30.537  1.00  0.00     0.016 A 
ATOM     31  C   UNL A   1      37.237  29.983  27.582  1.00  0.00     0.016 A 
ATOM     32  C   UNL A   1      37.842  28.093  30.582  1.00  0.00     0.010 A 
ATOM     33  C   UNL A   1      38.554  28.745  27.644  1.00  0.00     0.010 A 
ATOM     34  C   UNL A   1      38.896  27.869  29.161  1.00  0.00    -0.014 A 
BRANCH  34  35
ATOM     35  C   UNL A   1      40.307  27.539  29.284  1.00  0.00     0.031 A 
ATOM     36  C   UNL A   1      40.693  26.203  28.822  1.00  0.00     0.074 A 
ATOM     37  C   UNL A   1      41.169  28.568  29.496  1.00  0.00     0.049 A 
ATOM     38  N   UNL A   1      41.851  25.709  29.028  1.00  0.00    -0.248 NA
ATOM     39  C   UNL A   1      39.798  25.252  28.157  1.00  0.00     0.031 C 
ATOM     40  C   UNL A   1      42.583  28.711  29.152  1.00  0.00     0.029 A 
ATOM     41  N   UNL A   1      40.910  29.744  30.206  1.00  0.00    -0.354 N 
ATOM     42  C   UNL A   1      41.977  24.608  28.217  1.00  0.00     0.074 A 
ATOM     43  C   UNL A   1      40.639  24.263  27.837  1.00  0.00     0.031 C 
ATOM     44  C   UNL A   1      43.116  29.745  29.836  1.00  0.00     0.029 A 
ATOM     45  C   UNL A   1      42.099  30.259  30.734  1.00  0.00     0.049 A 
ATOM     46  H   UNL A   1      40.021  30.150  30.317  1.00  0.00     0.167 HD
ATOM     47  C   UNL A   1      43.240  24.259  27.858  1.00  0.00     0.037 A 
ATOM     48  C   UNL A   1      42.221  30.348  32.090  1.00  0.00     0.037 A 
ATOM     49  C   UNL A   1      44.191  25.044  28.652  1.00  0.00     0.049 A 
ATOM     50  C   UNL A   1      43.059  29.196  32.618  1.00  0.00     0.074 A 
ATOM     51  C   UNL A   1      44.963  26.158  28.383  1.00  0.00     0.029 A 
ATOM     52  N   UNL A   1      44.096  24.963  30.040  1.00  0.00    -0.354 N 
ATOM     53  N   UNL A   1      43.368  28.139  31.915  1.00  0.00    -0.248 NA
ATOM     54  C   UNL A   1      43.651  29.168  33.950  1.00  0.00     0.031 C 
ATOM     55  C   UNL A   1      45.254  26.791  29.632  1.00  0.00     0.029 A 
ATOM     56  C   UNL A   1      44.695  26.041  30.658  1.00  0.00     0.049 A 
ATOM     57  H   UNL A   1      43.656  24.224  30.521  1.00  0.00     0.167 HD
ATOM     58  C   UNL A   1      44.197  27.322  32.631  1.00  0.00     0.074 A 
ATOM     59  C   UNL A   1      44.355  28.024  33.894  1.00  0.00     0.031 C 
ATOM     60  C   UNL A   1      44.686  26.147  32.120  1.00  0.00     0.037 A 
BRANCH  47  61
ATOM     61  C   UNL A   1      43.637  23.386  26.694  1.00  0.00     0.064 A 
ATOM     62  C   UNL A   1      43.337  22.007  26.738  1.00  0.00     0.173 A 
ATOM     63  C   UNL A   1      44.387  23.791  25.569  1.00  0.00     0.173 A 
ATOM     64  F   UNL A   1      42.641  21.483  27.756  1.00  0.00    -0.203 F 
ATOM     65  C   UNL A   1      43.757  21.114  25.747  1.00  0.00     0.198 A 
ATOM     66  C   UNL A   1      44.770  22.902  24.557  1.00  0.00     0.198 A 
ATOM     67  F   UNL A   1      44.829  25.043  25.415  1.00  0.00    -0.203 F 
ATOM     68  F   UNL A   1      43.479  19.809  25.871  1.00  0.00    -0.200 F 
ATOM     69  C   UNL A   1      44.464  21.563  24.651  1.00  0.00     0.200 A 
ATOM     70  F   UNL A   1      45.464  23.357  23.503  1.00  0.00    -0.200 F 
ATOM     71  F   UNL A   1      44.860  20.708  23.698  1.00  0.00    -0.200 F 
ENDBRANCH  47  61
BRANCH  48  72
ATOM     72  C   UNL A   1      40.971  30.888  32.706  1.00  0.00     0.064 A 
ATOM     73  C   UNL A   1      40.555  32.190  32.333  1.00  0.00     0.173 A 
ATOM     74  C   UNL A   1      40.004  30.039  33.234  1.00  0.00     0.173 A 
ATOM     75  F   UNL A   1      41.455  33.065  31.857  1.00  0.00    -0.203 F 
ATOM     76  C   UNL A   1      39.207  32.549  32.305  1.00  0.00     0.198 A 
ATOM     77  C   UNL A   1      38.665  30.422  33.248  1.00  0.00     0.198 A 
ATOM     78  F   UNL A   1      40.301  28.777  33.571  1.00  0.00    -0.203 F 
ATOM     79  F   UNL A   1      38.832  33.720  31.769  1.00  0.00    -0.200 F 
ATOM     80  C   UNL A   1      38.256  31.648  32.739  1.00  0.00     0.200 A 
ATOM     81  F   UNL A   1      37.761  29.502  33.595  1.00  0.00    -0.200 F 
ATOM     82  F   UNL A   1      36.950  31.923  32.603  1.00  0.00    -0.200 F 
ENDBRANCH  48  72
BRANCH  60  83
ATOM     83  C   UNL A   1      45.293  25.018  32.939  1.00  0.00     0.064 A 
ATOM     84  C   UNL A   1      44.619  23.834  33.280  1.00  0.00     0.173 A 
ATOM     85  C   UNL A   1      46.659  25.043  33.327  1.00  0.00     0.173 A 
ATOM     86  F   UNL A   1      43.403  23.547  32.804  1.00  0.00    -0.203 F 
ATOM     87  C   UNL A   1      45.204  22.844  34.073  1.00  0.00     0.198 A 
ATOM     88  C   UNL A   1      47.273  24.000  34.015  1.00  0.00     0.198 A 
ATOM     89  F   UNL A   1      47.473  26.066  33.037  1.00  0.00    -0.203 F 
ATOM     90  F   UNL A   1      44.468  21.793  34.462  1.00  0.00    -0.200 F 
ATOM     91  C   UNL A   1      46.532  22.921  34.433  1.00  0.00     0.200 A 
ATOM     92  F   UNL A   1      48.590  24.051  34.257  1.00  0.00    -0.200 F 
ATOM     93  F   UNL A   1      47.102  21.948  35.153  1.00  0.00    -0.200 F 
ENDBRANCH  60  83
ENDBRANCH  34  35
ENDBRANCH  27  29
ENDBRANCH  26  27
ENDBRANCH  25  26
ENDBRANCH   1  25
TORSDOF 13
ENDMDL
MODEL 3
REMARK VINA RESULT:     -14.4      0.984      2.128
REMARK SMILES Cc1ccc(-c2nc(C)cc(N3CCCC[C@H]3C(=O)OCCOC(=O)c3ccc(-c4c5nc(c(-c6c(F)c(F)c(F)c(F)c6F)c6ccc([nH]6)c(-c6c(F)c(F)c(F)c(F)c6F)c6nc(c(-c7c(F)c(F)c(F)c(F)c7F)c7ccc4[nH]7)C=C6)C=C5)cc3)n2)cc1
REMARK SMILES IDX 21 1 20 2 18 3 19 4 17 5 12 6 13 7 14 8 16 9 15 10 11 11
REMARK SMILES IDX 6 12 7 13 89 14 8 15 9 16 10 17 5 18 1 19 2 20 3 21 91 22
REMARK SMILES IDX 4 23 90 24 22 25 23 26 24 27 25 28 26 29 27 30 88 31 28 32
REMARK SMILES IDX 87 33 29 34 30 35 31 36 81 37 32 38 86 39 80 40 82 41 33 42
REMARK SMILES IDX 85 43 79 44 78 45 34 47 66 48 46 49 65 50 47 51 50 52 64 53
REMARK SMILES IDX 83 54 48 55 49 56 63 58 84 59 51 60 35 61 36 62 44 63 37 64
REMARK SMILES IDX 38 65 42 66 45 67 39 68 40 69 43 70 41 71 67 72 68 73 76 74
REMARK SMILES IDX 69 75 70 76 74 77 77 78 71 79 72 80 75 81 73 82 52 83 53 84
REMARK SMILES IDX 61 85 54 86 55 87 59 88 62 89 56 90 57 91 60 92 58 93
REMARK H PARENT 82 46 50 57
REMARK Flexibility Score: inf
ROOT
ATOM      1  C   UNL A   1      38.474  21.950  25.821  1.00  0.00     0.274 C 
ENDROOT
BRANCH   1   2
ATOM      2  O   UNL A   1      37.788  21.273  24.752  1.00  0.00    -0.461 OA
BRANCH   2   3
ATOM      3  C   UNL A   1      36.550  21.881  24.263  1.00  0.00     0.328 C 
ATOM      4  O   UNL A   1      36.972  22.800  23.499  1.00  0.00    -0.250 OA
BRANCH   3   5
ATOM      5  C   UNL A   1      34.522  21.207  24.805  1.00  0.00     0.193 C 
ATOM      6  N   UNL A   1      32.993  21.875  24.243  1.00  0.00    -0.343 N 
ATOM      7  C   UNL A   1      32.353  21.222  23.074  1.00  0.00     0.119 C 
ATOM      8  C   UNL A   1      32.114  19.727  23.191  1.00  0.00     0.022 C 
ATOM      9  C   UNL A   1      33.809  19.602  25.058  1.00  0.00     0.037 C 
ATOM     10  C   UNL A   1      33.206  18.910  23.842  1.00  0.00     0.005 C 
BRANCH   6  11
ATOM     11  C   UNL A   1      32.106  22.787  24.884  1.00  0.00     0.133 A 
ATOM     12  C   UNL A   1      31.881  24.823  26.007  1.00  0.00     0.161 A 
ATOM     13  N   UNL A   1      30.868  24.429  26.781  1.00  0.00    -0.233 NA
ATOM     14  N   UNL A   1      32.508  24.068  25.067  1.00  0.00    -0.211 NA
ATOM     15  C   UNL A   1      30.415  23.202  26.563  1.00  0.00     0.043 A 
ATOM     16  C   UNL A   1      29.311  22.774  27.481  1.00  0.00     0.067 C 
ATOM     17  C   UNL A   1      30.969  22.381  25.584  1.00  0.00     0.070 A 
BRANCH  12  18
ATOM     18  C   UNL A   1      32.312  26.197  26.258  1.00  0.00     0.019 A 
ATOM     19  C   UNL A   1      33.688  30.182  27.221  1.00  0.00     0.044 C 
ATOM     20  C   UNL A   1      33.218  28.793  26.910  1.00  0.00    -0.051 A 
ATOM     21  C   UNL A   1      34.069  27.898  26.256  1.00  0.00     0.004 A 
ATOM     22  C   UNL A   1      31.926  28.379  27.253  1.00  0.00     0.004 A 
ATOM     23  C   UNL A   1      33.623  26.612  25.943  1.00  0.00     0.012 A 
ATOM     24  C   UNL A   1      31.477  27.098  26.924  1.00  0.00     0.012 A 
ENDBRANCH  12  18
ENDBRANCH   6  11
ENDBRANCH   3   5
ENDBRANCH   2   3
ENDBRANCH   1   2
BRANCH   1  25
ATOM     25  C   UNL A   1      39.803  21.235  26.099  1.00  0.00     0.275 C 
BRANCH  25  26
ATOM     26  O   UNL A   1      40.547  21.744  27.239  1.00  0.00    -0.458 OA
BRANCH  26  27
ATOM     27  C   UNL A   1      41.285  22.889  27.153  1.00  0.00     0.338 C 
ATOM     28  O   UNL A   1      42.455  22.991  27.473  1.00  0.00    -0.246 OA
BRANCH  27  29
ATOM     29  C   UNL A   1      40.428  24.081  26.988  1.00  0.00     0.060 A 
ATOM     30  C   UNL A   1      41.170  25.406  26.014  1.00  0.00     0.016 A 
ATOM     31  C   UNL A   1      39.310  24.477  28.317  1.00  0.00     0.016 A 
ATOM     32  C   UNL A   1      40.885  27.140  26.483  1.00  0.00     0.010 A 
ATOM     33  C   UNL A   1      39.049  26.203  28.789  1.00  0.00     0.010 A 
ATOM     34  C   UNL A   1      39.898  27.512  27.921  1.00  0.00    -0.014 A 
BRANCH  34  35
ATOM     35  C   UNL A   1      40.192  28.633  28.797  1.00  0.00     0.031 A 
ATOM     36  C   UNL A   1      39.213  29.723  28.791  1.00  0.00     0.074 A 
ATOM     37  C   UNL A   1      41.137  28.442  29.755  1.00  0.00     0.049 A 
ATOM     38  N   UNL A   1      39.421  30.843  29.368  1.00  0.00    -0.248 NA
ATOM     39  C   UNL A   1      37.936  29.702  28.072  1.00  0.00     0.031 C 
ATOM     40  C   UNL A   1      41.308  29.073  31.062  1.00  0.00     0.029 A 
ATOM     41  N   UNL A   1      42.265  27.622  29.665  1.00  0.00    -0.354 N 
ATOM     42  C   UNL A   1      38.215  31.498  29.439  1.00  0.00     0.074 A 
ATOM     43  C   UNL A   1      37.374  30.846  28.479  1.00  0.00     0.031 C 
ATOM     44  C   UNL A   1      42.549  28.822  31.531  1.00  0.00     0.029 A 
ATOM     45  C   UNL A   1      43.277  28.101  30.504  1.00  0.00     0.049 A 
ATOM     46  H   UNL A   1      42.337  26.823  29.096  1.00  0.00     0.167 HD
ATOM     47  C   UNL A   1      38.074  32.403  30.442  1.00  0.00     0.037 A 
ATOM     48  C   UNL A   1      44.449  28.512  29.937  1.00  0.00     0.037 A 
ATOM     49  C   UNL A   1      39.380  32.618  31.072  1.00  0.00     0.049 A 
ATOM     50  C   UNL A   1      44.482  30.028  29.842  1.00  0.00     0.074 A 
ATOM     51  C   UNL A   1      39.959  32.165  32.242  1.00  0.00     0.029 A 
ATOM     52  N   UNL A   1      40.430  33.037  30.256  1.00  0.00    -0.354 N 
ATOM     53  N   UNL A   1      43.436  30.792  30.014  1.00  0.00    -0.248 NA
ATOM     54  C   UNL A   1      45.696  30.798  29.598  1.00  0.00     0.031 C 
ATOM     55  C   UNL A   1      41.378  32.239  32.076  1.00  0.00     0.029 A 
ATOM     56  C   UNL A   1      41.658  32.772  30.826  1.00  0.00     0.049 A 
ATOM     57  H   UNL A   1      40.309  33.469  29.379  1.00  0.00     0.167 HD
ATOM     58  C   UNL A   1      43.796  32.108  29.949  1.00  0.00     0.074 A 
ATOM     59  C   UNL A   1      45.228  32.054  29.703  1.00  0.00     0.031 C 
ATOM     60  C   UNL A   1      42.890  33.123  30.111  1.00  0.00     0.037 A 
BRANCH  47  61
ATOM     61  C   UNL A   1      36.777  32.943  30.991  1.00  0.00     0.064 A 
ATOM     62  C   UNL A   1      36.013  33.827  30.198  1.00  0.00     0.173 A 
ATOM     63  C   UNL A   1      36.273  32.733  32.293  1.00  0.00     0.173 A 
ATOM     64  F   UNL A   1      36.382  34.126  28.945  1.00  0.00    -0.203 F 
ATOM     65  C   UNL A   1      34.852  34.448  30.669  1.00  0.00     0.198 A 
ATOM     66  C   UNL A   1      35.088  33.323  32.748  1.00  0.00     0.198 A 
ATOM     67  F   UNL A   1      36.918  31.995  33.201  1.00  0.00    -0.203 F 
ATOM     68  F   UNL A   1      34.197  35.312  29.883  1.00  0.00    -0.200 F 
ATOM     69  C   UNL A   1      34.383  34.188  31.940  1.00  0.00     0.200 A 
ATOM     70  F   UNL A   1      34.652  33.063  33.990  1.00  0.00    -0.200 F 
ATOM     71  F   UNL A   1      33.267  34.778  32.389  1.00  0.00    -0.200 F 
ENDBRANCH  47  61
BRANCH  48  72
ATOM     72  C   UNL A   1      44.902  27.549  28.888  1.00  0.00     0.064 A 
ATOM     73  C   UNL A   1      44.768  27.932  27.531  1.00  0.00     0.173 A 
ATOM     74  C   UNL A   1      45.828  26.552  29.179  1.00  0.00     0.173 A 
ATOM     75  F   UNL A   1      43.860  28.860  27.189  1.00  0.00    -0.203 F 
ATOM     76  C   UNL A   1      45.654  27.483  26.551  1.00  0.00     0.198 A 
ATOM     77  C   UNL A   1      46.678  26.073  28.185  1.00  0.00     0.198 A 
ATOM     78  F   UNL A   1      46.050  26.161  30.441  1.00  0.00    -0.203 F 
ATOM     79  F   UNL A   1      45.619  28.009  25.318  1.00  0.00    -0.200 F 
ATOM     80  C   UNL A   1      46.632  26.569  26.889  1.00  0.00     0.200 A 
ATOM     81  F   UNL A   1      47.664  25.253  28.557  1.00  0.00    -0.200 F 
ATOM     82  F   UNL A   1      47.571  26.220  25.997  1.00  0.00    -0.200 F 
ENDBRANCH  48  72
BRANCH  60  83
ATOM     83  C   UNL A   1      43.108  34.572  29.701  1.00  0.00     0.064 A 
ATOM     84  C   UNL A   1      43.338  35.625  30.601  1.00  0.00     0.173 A 
ATOM     85  C   UNL A   1      43.207  34.942  28.333  1.00  0.00     0.173 A 
ATOM     86  F   UNL A   1      43.503  35.416  31.911  1.00  0.00    -0.203 F 
ATOM     87  C   UNL A   1      43.489  36.948  30.179  1.00  0.00     0.198 A 
ATOM     88  C   UNL A   1      43.477  36.242  27.916  1.00  0.00     0.198 A 
ATOM     89  F   UNL A   1      43.074  34.058  27.335  1.00  0.00    -0.203 F 
ATOM     90  F   UNL A   1      43.586  37.923  31.093  1.00  0.00    -0.200 F 
ATOM     91  C   UNL A   1      43.568  37.256  28.837  1.00  0.00     0.200 A 
ATOM     92  F   UNL A   1      43.657  36.494  26.611  1.00  0.00    -0.200 F 
ATOM     93  F   UNL A   1      43.759  38.519  28.437  1.00  0.00    -0.200 F 
ENDBRANCH  60  83
ENDBRANCH  34  35
ENDBRANCH  27  29
ENDBRANCH  26  27
ENDBRANCH  25  26
ENDBRANCH   1  25
TORSDOF 13
ENDMDL
