MODEL 1
REMARK VINA RESULT:     -11.6      0.000      0.000
REMARK SMILES C[NH2+][C@]1(C(=O)OCCOC(=O)c2ccc(-c3c4nc(c(-c5c(F)c(F)c(F)c(F)c5F)c5ccc([nH]5)c(-c5c(F)c(F)c(F)c(F)c5F)c5nc(c(-c6c(F)c(F)c(F)c(F)c6F)c6ccc3[nH]6)C=C5)C=C4)cc2)CCC[C@@H]1CC[N@H+]1CCC[C@H]([NH+](C)C)C1
REMARK SMILES IDX 7 1 6 2 4 3 5 4 3 5 75 6 78 7 76 8 77 9 2 10 1 11 79 14
REMARK SMILES IDX 80 15 81 16 82 17 89 18 83 20 85 21 84 22 86 23 87 24 88 25
REMARK SMILES IDX 8 27 9 28 10 29 11 30 12 31 13 32 74 33 14 34 73 35 15 36
REMARK SMILES IDX 16 37 17 38 67 39 18 40 72 41 66 42 68 43 19 44 71 45 65 46
REMARK SMILES IDX 64 47 20 49 52 50 32 51 51 52 33 53 36 54 50 55 69 56 34 57
REMARK SMILES IDX 35 58 49 60 70 61 37 62 21 63 22 64 30 65 23 66 24 67 28 68
REMARK SMILES IDX 31 69 25 70 26 71 29 72 27 73 53 74 54 75 62 76 55 77 56 78
REMARK SMILES IDX 60 79 63 80 57 81 58 82 61 83 59 84 38 85 39 86 47 87 40 88
REMARK SMILES IDX 41 89 45 90 48 91 42 92 43 93 46 94 44 95
REMARK H PARENT 2 12 2 13 81 19 86 26 68 48 36 59
REMARK Flexibility Score: inf
ROOT
ATOM      1  C   UNL A   1      31.790  27.952  27.286  1.00  0.00     0.274 C 
ENDROOT
BRANCH   1   2
ATOM      2  O   UNL A   1      30.817  27.091  26.656  1.00  0.00    -0.457 OA
BRANCH   2   3
ATOM      3  C   UNL A   1      31.307  25.890  26.255  1.00  0.00     0.368 C 
ATOM      4  O   UNL A   1      31.421  24.923  27.001  1.00  0.00    -0.245 OA
BRANCH   3   5
ATOM      5  C   UNL A   1      31.775  25.839  24.785  1.00  0.00     0.197 C 
ATOM      6  C   UNL A   1      31.102  26.844  23.838  1.00  0.00     0.081 C 
ATOM      7  C   UNL A   1      33.242  26.375  24.743  1.00  0.00     0.068 C 
ATOM      8  C   UNL A   1      32.072  26.961  22.667  1.00  0.00     0.008 C 
ATOM      9  C   UNL A   1      33.466  26.721  23.259  1.00  0.00     0.011 C 
BRANCH   5  10
ATOM     10  N   UNL A   1      31.740  24.435  24.276  1.00  0.00    -0.334 N 
ATOM     11  C   UNL A   1      30.590  24.125  23.439  1.00  0.00     0.331 C 
ATOM     12  H   UNL A   1      32.585  24.274  23.729  1.00  0.00     0.347 HD
ATOM     13  H   UNL A   1      31.674  23.831  25.095  1.00  0.00     0.347 HD
ENDBRANCH   5  10
BRANCH   7  14
ATOM     14  C   UNL A   1      34.320  25.431  25.320  1.00  0.00     0.072 C 
BRANCH  14  15
ATOM     15  C   UNL A   1      34.974  24.475  24.305  1.00  0.00     0.262 C 
BRANCH  15  16
ATOM     16  N   UNL A   1      35.599  23.249  24.837  1.00  0.00    -0.330 N 
ATOM     17  C   UNL A   1      34.855  22.019  24.557  1.00  0.00     0.262 C 
ATOM     18  C   UNL A   1      36.965  23.107  24.295  1.00  0.00     0.327 C 
ATOM     19  H   UNL A   1      35.606  23.366  25.851  1.00  0.00     0.348 HD
ATOM     20  C   UNL A   1      35.476  20.815  25.262  1.00  0.00     0.068 C 
ATOM     21  C   UNL A   1      37.773  21.934  24.925  1.00  0.00     0.239 C 
ATOM     22  C   UNL A   1      36.944  20.630  24.907  1.00  0.00     0.077 C 
BRANCH  21  23
ATOM     23  N   UNL A   1      38.428  22.192  26.232  1.00  0.00    -0.333 N 
ATOM     24  C   UNL A   1      39.663  21.414  26.375  1.00  0.00     0.332 C 
ATOM     25  C   UNL A   1      38.704  23.598  26.519  1.00  0.00     0.332 C 
ATOM     26  H   UNL A   1      37.739  21.891  26.920  1.00  0.00     0.348 HD
ENDBRANCH  21  23
ENDBRANCH  15  16
ENDBRANCH  14  15
ENDBRANCH   7  14
ENDBRANCH   3   5
ENDBRANCH   2   3
ENDBRANCH   1   2
BRANCH   1  27
ATOM     27  C   UNL A   1      31.598  29.422  26.908  1.00  0.00     0.275 C 
BRANCH  27  28
ATOM     28  O   UNL A   1      32.826  29.981  26.403  1.00  0.00    -0.458 OA
BRANCH  28  29
ATOM     29  C   UNL A   1      33.293  31.076  27.044  1.00  0.00     0.338 C 
ATOM     30  O   UNL A   1      32.703  32.131  27.205  1.00  0.00    -0.246 OA
BRANCH  29  31
ATOM     31  C   UNL A   1      34.658  30.841  27.576  1.00  0.00     0.060 A 
ATOM     32  C   UNL A   1      35.134  29.554  27.818  1.00  0.00     0.016 A 
ATOM     33  C   UNL A   1      35.428  31.934  27.972  1.00  0.00     0.016 A 
ATOM     34  C   UNL A   1      36.308  29.346  28.536  1.00  0.00     0.010 A 
ATOM     35  C   UNL A   1      36.658  31.728  28.608  1.00  0.00     0.010 A 
ATOM     36  C   UNL A   1      37.094  30.431  28.931  1.00  0.00    -0.014 A 
BRANCH  36  37
ATOM     37  C   UNL A   1      38.325  30.221  29.738  1.00  0.00     0.031 A 
ATOM     38  C   UNL A   1      39.467  29.435  29.157  1.00  0.00     0.074 A 
ATOM     39  C   UNL A   1      38.443  30.742  30.975  1.00  0.00     0.049 A 
ATOM     40  N   UNL A   1      40.498  28.901  29.759  1.00  0.00    -0.248 NA
ATOM     41  C   UNL A   1      39.435  29.205  27.704  1.00  0.00     0.031 C 
ATOM     42  C   UNL A   1      37.457  31.595  31.639  1.00  0.00     0.029 A 
ATOM     43  N   UNL A   1      39.455  30.629  31.897  1.00  0.00    -0.354 N 
ATOM     44  C   UNL A   1      41.187  28.202  28.777  1.00  0.00     0.074 A 
ATOM     45  C   UNL A   1      40.475  28.401  27.533  1.00  0.00     0.031 C 
ATOM     46  C   UNL A   1      37.927  31.959  32.841  1.00  0.00     0.029 A 
ATOM     47  C   UNL A   1      39.198  31.283  33.077  1.00  0.00     0.049 A 
ATOM     48  H   UNL A   1      40.285  30.126  31.729  1.00  0.00     0.167 HD
ATOM     49  C   UNL A   1      42.303  27.447  28.914  1.00  0.00     0.037 A 
ATOM     50  C   UNL A   1      39.878  31.294  34.238  1.00  0.00     0.037 A 
ATOM     51  C   UNL A   1      43.047  27.319  30.139  1.00  0.00     0.049 A 
ATOM     52  C   UNL A   1      41.115  30.452  34.369  1.00  0.00     0.074 A 
ATOM     53  C   UNL A   1      44.186  26.575  30.387  1.00  0.00     0.029 A 
ATOM     54  N   UNL A   1      42.737  27.984  31.317  1.00  0.00    -0.354 N 
ATOM     55  N   UNL A   1      41.690  29.684  33.475  1.00  0.00    -0.248 NA
ATOM     56  C   UNL A   1      41.776  30.447  35.681  1.00  0.00     0.031 C 
ATOM     57  C   UNL A   1      44.558  26.775  31.722  1.00  0.00     0.029 A 
ATOM     58  C   UNL A   1      43.666  27.669  32.294  1.00  0.00     0.049 A 
ATOM     59  H   UNL A   1      41.971  28.589  31.439  1.00  0.00     0.167 HD
ATOM     60  C   UNL A   1      42.772  29.100  34.115  1.00  0.00     0.074 A 
ATOM     61  C   UNL A   1      42.793  29.623  35.466  1.00  0.00     0.031 C 
ATOM     62  C   UNL A   1      43.662  28.199  33.633  1.00  0.00     0.037 A 
BRANCH  49  63
ATOM     63  C   UNL A   1      42.758  26.659  27.722  1.00  0.00     0.064 A 
ATOM     64  C   UNL A   1      43.691  27.164  26.807  1.00  0.00     0.173 A 
ATOM     65  C   UNL A   1      42.273  25.358  27.520  1.00  0.00     0.173 A 
ATOM     66  F   UNL A   1      44.169  28.409  26.947  1.00  0.00    -0.203 F 
ATOM     67  C   UNL A   1      44.109  26.398  25.720  1.00  0.00     0.198 A 
ATOM     68  C   UNL A   1      42.711  24.587  26.447  1.00  0.00     0.198 A 
ATOM     69  F   UNL A   1      41.379  24.830  28.369  1.00  0.00    -0.203 F 
ATOM     70  F   UNL A   1      44.975  26.913  24.835  1.00  0.00    -0.200 F 
ATOM     71  C   UNL A   1      43.625  25.110  25.545  1.00  0.00     0.200 A 
ATOM     72  F   UNL A   1      42.248  23.340  26.285  1.00  0.00    -0.200 F 
ATOM     73  F   UNL A   1      44.036  24.374  24.503  1.00  0.00    -0.200 F 
ENDBRANCH  49  63
BRANCH  50  74
ATOM     74  C   UNL A   1      39.363  32.083  35.385  1.00  0.00     0.064 A 
ATOM     75  C   UNL A   1      38.533  31.494  36.349  1.00  0.00     0.173 A 
ATOM     76  C   UNL A   1      39.711  33.431  35.557  1.00  0.00     0.173 A 
ATOM     77  F   UNL A   1      38.150  30.217  36.211  1.00  0.00    -0.203 F 
ATOM     78  C   UNL A   1      38.073  32.225  37.442  1.00  0.00     0.198 A 
ATOM     79  C   UNL A   1      39.274  34.152  36.665  1.00  0.00     0.198 A 
ATOM     80  F   UNL A   1      40.501  34.040  34.660  1.00  0.00    -0.203 F 
ATOM     81  F   UNL A   1      37.258  31.647  38.336  1.00  0.00    -0.200 F 
ATOM     82  C   UNL A   1      38.452  33.549  37.605  1.00  0.00     0.200 A 
ATOM     83  F   UNL A   1      39.655  35.427  36.826  1.00  0.00    -0.200 F 
ATOM     84  F   UNL A   1      38.023  34.245  38.667  1.00  0.00    -0.200 F 
ENDBRANCH  50  74
BRANCH  62  85
ATOM     85  C   UNL A   1      44.731  27.734  34.571  1.00  0.00     0.064 A 
ATOM     86  C   UNL A   1      44.557  26.590  35.363  1.00  0.00     0.173 A 
ATOM     87  C   UNL A   1      45.950  28.421  34.659  1.00  0.00     0.173 A 
ATOM     88  F   UNL A   1      43.400  25.911  35.323  1.00  0.00    -0.203 F 
ATOM     89  C   UNL A   1      45.559  26.162  36.227  1.00  0.00     0.198 A 
ATOM     90  C   UNL A   1      46.958  27.979  35.510  1.00  0.00     0.198 A 
ATOM     91  F   UNL A   1      46.162  29.519  33.919  1.00  0.00    -0.203 F 
ATOM     92  F   UNL A   1      45.360  25.088  37.004  1.00  0.00    -0.200 F 
ATOM     93  C   UNL A   1      46.760  26.853  36.297  1.00  0.00     0.200 A 
ATOM     94  F   UNL A   1      48.119  28.645  35.573  1.00  0.00    -0.200 F 
ATOM     95  F   UNL A   1      47.725  26.440  37.130  1.00  0.00    -0.200 F 
ENDBRANCH  62  85
ENDBRANCH  36  37
ENDBRANCH  29  31
ENDBRANCH  28  29
ENDBRANCH  27  28
ENDBRANCH   1  27
TORSDOF 16
ENDMDL
MODEL 2
REMARK VINA RESULT:     -11.4      4.287      9.749
REMARK SMILES C[NH2+][C@]1(C(=O)OCCOC(=O)c2ccc(-c3c4nc(c(-c5c(F)c(F)c(F)c(F)c5F)c5ccc([nH]5)c(-c5c(F)c(F)c(F)c(F)c5F)c5nc(c(-c6c(F)c(F)c(F)c(F)c6F)c6ccc3[nH]6)C=C5)C=C4)cc2)CCC[C@@H]1CC[N@H+]1CCC[C@H]([NH+](C)C)C1
REMARK SMILES IDX 7 1 6 2 4 3 5 4 3 5 75 6 78 7 76 8 77 9 2 10 1 11 79 14
REMARK SMILES IDX 80 15 81 16 82 17 89 18 83 20 85 21 84 22 86 23 87 24 88 25
REMARK SMILES IDX 8 27 9 28 10 29 11 30 12 31 13 32 74 33 14 34 73 35 15 36
REMARK SMILES IDX 16 37 17 38 67 39 18 40 72 41 66 42 68 43 19 44 71 45 65 46
REMARK SMILES IDX 64 47 20 49 52 50 32 51 51 52 33 53 36 54 50 55 69 56 34 57
REMARK SMILES IDX 35 58 49 60 70 61 37 62 21 63 22 64 30 65 23 66 24 67 28 68
REMARK SMILES IDX 31 69 25 70 26 71 29 72 27 73 53 74 54 75 62 76 55 77 56 78
REMARK SMILES IDX 60 79 63 80 57 81 58 82 61 83 59 84 38 85 39 86 47 87 40 88
REMARK SMILES IDX 41 89 45 90 48 91 42 92 43 93 46 94 44 95
REMARK H PARENT 2 12 2 13 81 19 86 26 68 48 36 59
REMARK Flexibility Score: inf
ROOT
ATOM      1  C   UNL A   1      35.691  20.514  25.011  1.00  0.00     0.274 C 
ENDROOT
BRANCH   1   2
ATOM      2  O   UNL A   1      35.149  21.812  25.339  1.00  0.00    -0.457 OA
BRANCH   2   3
ATOM      3  C   UNL A   1      34.506  22.426  24.314  1.00  0.00     0.368 C 
ATOM      4  O   UNL A   1      35.080  22.864  23.321  1.00  0.00    -0.245 OA
BRANCH   3   5
ATOM      5  C   UNL A   1      32.984  22.593  24.510  1.00  0.00     0.197 C 
ATOM      6  C   UNL A   1      32.323  21.592  25.468  1.00  0.00     0.081 C 
ATOM      7  C   UNL A   1      32.758  23.917  25.309  1.00  0.00     0.068 C 
ATOM      8  C   UNL A   1      31.027  22.278  25.889  1.00  0.00     0.008 C 
ATOM      9  C   UNL A   1      31.322  23.782  25.850  1.00  0.00     0.011 C 
BRANCH   5  10
ATOM     10  N   UNL A   1      32.296  22.685  23.187  1.00  0.00    -0.334 N 
ATOM     11  C   UNL A   1      32.045  21.401  22.547  1.00  0.00     0.331 C 
ATOM     12  H   UNL A   1      31.400  23.151  23.326  1.00  0.00     0.347 HD
ATOM     13  H   UNL A   1      32.923  23.200  22.568  1.00  0.00     0.347 HD
ENDBRANCH   5  10
BRANCH   7  14
ATOM     14  C   UNL A   1      32.996  25.226  24.525  1.00  0.00     0.072 C 
BRANCH  14  15
ATOM     15  C   UNL A   1      33.977  26.218  25.177  1.00  0.00     0.262 C 
BRANCH  15  16
ATOM     16  N   UNL A   1      33.513  27.608  25.355  1.00  0.00    -0.330 N 
ATOM     17  C   UNL A   1      32.214  27.896  24.742  1.00  0.00     0.262 C 
ATOM     18  C   UNL A   1      33.438  27.931  26.794  1.00  0.00     0.327 C 
ATOM     19  H   UNL A   1      34.201  28.188  24.874  1.00  0.00     0.348 HD
ATOM     20  C   UNL A   1      31.867  29.380  24.834  1.00  0.00     0.068 C 
ATOM     21  C   UNL A   1      33.118  29.427  27.086  1.00  0.00     0.239 C 
ATOM     22  C   UNL A   1      31.896  29.894  26.266  1.00  0.00     0.077 C 
BRANCH  21  23
ATOM     23  N   UNL A   1      34.255  30.381  27.036  1.00  0.00    -0.333 N 
ATOM     24  C   UNL A   1      33.928  31.641  27.711  1.00  0.00     0.332 C 
ATOM     25  C   UNL A   1      35.520  29.865  27.557  1.00  0.00     0.332 C 
ATOM     26  H   UNL A   1      34.402  30.542  26.040  1.00  0.00     0.348 HD
ENDBRANCH  21  23
ENDBRANCH  15  16
ENDBRANCH  14  15
ENDBRANCH   7  14
ENDBRANCH   3   5
ENDBRANCH   2   3
ENDBRANCH   1   2
BRANCH   1  27
ATOM     27  C   UNL A   1      37.217  20.535  24.887  1.00  0.00     0.275 C 
BRANCH  27  28
ATOM     28  O   UNL A   1      37.775  21.602  25.678  1.00  0.00    -0.458 OA
BRANCH  28  29
ATOM     29  C   UNL A   1      39.045  21.425  26.108  1.00  0.00     0.338 C 
ATOM     30  O   UNL A   1      39.699  20.398  26.041  1.00  0.00    -0.246 OA
BRANCH  29  31
ATOM     31  C   UNL A   1      39.595  22.679  26.679  1.00  0.00     0.060 A 
ATOM     32  C   UNL A   1      39.178  23.930  26.226  1.00  0.00     0.016 A 
ATOM     33  C   UNL A   1      40.649  22.604  27.589  1.00  0.00     0.016 A 
ATOM     34  C   UNL A   1      39.862  25.088  26.587  1.00  0.00     0.010 A 
ATOM     35  C   UNL A   1      41.276  23.776  28.029  1.00  0.00     0.010 A 
ATOM     36  C   UNL A   1      40.913  25.028  27.504  1.00  0.00    -0.014 A 
BRANCH  36  37
ATOM     37  C   UNL A   1      41.679  26.253  27.859  1.00  0.00     0.031 A 
ATOM     38  C   UNL A   1      41.047  27.291  28.744  1.00  0.00     0.074 A 
ATOM     39  C   UNL A   1      42.938  26.439  27.417  1.00  0.00     0.049 A 
ATOM     40  N   UNL A   1      41.405  28.531  28.954  1.00  0.00    -0.248 NA
ATOM     41  C   UNL A   1      39.839  26.882  29.478  1.00  0.00     0.031 C 
ATOM     42  C   UNL A   1      43.712  25.485  26.623  1.00  0.00     0.029 A 
ATOM     43  N   UNL A   1      43.792  27.501  27.581  1.00  0.00    -0.354 N 
ATOM     44  C   UNL A   1      40.422  29.074  29.772  1.00  0.00     0.074 A 
ATOM     45  C   UNL A   1      39.467  28.022  30.045  1.00  0.00     0.031 C 
ATOM     46  C   UNL A   1      44.936  25.986  26.402  1.00  0.00     0.029 A 
ATOM     47  C   UNL A   1      45.000  27.337  26.948  1.00  0.00     0.049 A 
ATOM     48  H   UNL A   1      43.561  28.305  28.102  1.00  0.00     0.167 HD
ATOM     49  C   UNL A   1      40.324  30.343  30.233  1.00  0.00     0.037 A 
ATOM     50  C   UNL A   1      46.022  28.196  26.776  1.00  0.00     0.037 A 
ATOM     51  C   UNL A   1      41.320  31.360  30.020  1.00  0.00     0.049 A 
ATOM     52  C   UNL A   1      45.894  29.599  27.297  1.00  0.00     0.074 A 
ATOM     53  C   UNL A   1      41.315  32.678  30.437  1.00  0.00     0.029 A 
ATOM     54  N   UNL A   1      42.519  31.155  29.353  1.00  0.00    -0.354 N 
ATOM     55  N   UNL A   1      44.903  30.148  27.955  1.00  0.00    -0.248 NA
ATOM     56  C   UNL A   1      47.010  30.512  27.018  1.00  0.00     0.031 C 
ATOM     57  C   UNL A   1      42.505  33.278  30.008  1.00  0.00     0.029 A 
ATOM     58  C   UNL A   1      43.263  32.323  29.350  1.00  0.00     0.049 A 
ATOM     59  H   UNL A   1      42.799  30.305  28.942  1.00  0.00     0.167 HD
ATOM     60  C   UNL A   1      45.269  31.469  28.163  1.00  0.00     0.074 A 
ATOM     61  C   UNL A   1      46.588  31.634  27.586  1.00  0.00     0.031 C 
ATOM     62  C   UNL A   1      44.571  32.463  28.765  1.00  0.00     0.037 A 
BRANCH  49  63
ATOM     63  C   UNL A   1      39.073  30.719  30.969  1.00  0.00     0.064 A 
ATOM     64  C   UNL A   1      38.953  30.574  32.357  1.00  0.00     0.173 A 
ATOM     65  C   UNL A   1      37.989  31.268  30.267  1.00  0.00     0.173 A 
ATOM     66  F   UNL A   1      39.955  30.037  33.069  1.00  0.00    -0.203 F 
ATOM     67  C   UNL A   1      37.785  30.952  33.015  1.00  0.00     0.198 A 
ATOM     68  C   UNL A   1      36.832  31.666  30.931  1.00  0.00     0.198 A 
ATOM     69  F   UNL A   1      38.055  31.427  28.937  1.00  0.00    -0.203 F 
ATOM     70  F   UNL A   1      37.676  30.772  34.339  1.00  0.00    -0.200 F 
ATOM     71  C   UNL A   1      36.729  31.504  32.304  1.00  0.00     0.200 A 
ATOM     72  F   UNL A   1      35.818  32.206  30.242  1.00  0.00    -0.200 F 
ATOM     73  F   UNL A   1      35.609  31.873  32.941  1.00  0.00    -0.200 F 
ENDBRANCH  49  63
BRANCH  50  74
ATOM     74  C   UNL A   1      47.226  27.765  26.022  1.00  0.00     0.064 A 
ATOM     75  C   UNL A   1      48.369  27.308  26.692  1.00  0.00     0.173 A 
ATOM     76  C   UNL A   1      47.249  27.772  24.619  1.00  0.00     0.173 A 
ATOM     77  F   UNL A   1      48.404  27.310  28.032  1.00  0.00    -0.203 F 
ATOM     78  C   UNL A   1      49.489  26.875  25.986  1.00  0.00     0.198 A 
ATOM     79  C   UNL A   1      48.358  27.312  23.915  1.00  0.00     0.198 A 
ATOM     80  F   UNL A   1      46.180  28.203  23.933  1.00  0.00    -0.203 F 
ATOM     81  F   UNL A   1      50.580  26.469  26.650  1.00  0.00    -0.200 F 
ATOM     82  C   UNL A   1      49.480  26.867  24.599  1.00  0.00     0.200 A 
ATOM     83  F   UNL A   1      48.339  27.293  22.575  1.00  0.00    -0.200 F 
ATOM     84  F   UNL A   1      50.551  26.432  23.922  1.00  0.00    -0.200 F 
ENDBRANCH  50  74
BRANCH  62  85
ATOM     85  C   UNL A   1      45.226  33.806  28.833  1.00  0.00     0.064 A 
ATOM     86  C   UNL A   1      46.068  34.151  29.899  1.00  0.00     0.173 A 
ATOM     87  C   UNL A   1      45.033  34.746  27.810  1.00  0.00     0.173 A 
ATOM     88  F   UNL A   1      46.268  33.289  30.908  1.00  0.00    -0.203 F 
ATOM     89  C   UNL A   1      46.679  35.400  29.951  1.00  0.00     0.198 A 
ATOM     90  C   UNL A   1      45.660  35.986  27.855  1.00  0.00     0.198 A 
ATOM     91  F   UNL A   1      44.237  34.458  26.770  1.00  0.00    -0.203 F 
ATOM     92  F   UNL A   1      47.450  35.725  30.996  1.00  0.00    -0.200 F 
ATOM     93  C   UNL A   1      46.479  36.315  28.927  1.00  0.00     0.200 A 
ATOM     94  F   UNL A   1      45.470  36.868  26.863  1.00  0.00    -0.200 F 
ATOM     95  F   UNL A   1      47.066  37.518  28.977  1.00  0.00    -0.200 F 
ENDBRANCH  62  85
ENDBRANCH  36  37
ENDBRANCH  29  31
ENDBRANCH  28  29
ENDBRANCH  27  28
ENDBRANCH   1  27
TORSDOF 16
ENDMDL
MODEL 3
REMARK VINA RESULT:     -11.2      1.807      4.404
REMARK SMILES C[NH2+][C@]1(C(=O)OCCOC(=O)c2ccc(-c3c4nc(c(-c5c(F)c(F)c(F)c(F)c5F)c5ccc([nH]5)c(-c5c(F)c(F)c(F)c(F)c5F)c5nc(c(-c6c(F)c(F)c(F)c(F)c6F)c6ccc3[nH]6)C=C5)C=C4)cc2)CCC[C@@H]1CC[N@H+]1CCC[C@H]([NH+](C)C)C1
REMARK SMILES IDX 7 1 6 2 4 3 5 4 3 5 75 6 78 7 76 8 77 9 2 10 1 11 79 14
REMARK SMILES IDX 80 15 81 16 82 17 89 18 83 20 85 21 84 22 86 23 87 24 88 25
REMARK SMILES IDX 8 27 9 28 10 29 11 30 12 31 13 32 74 33 14 34 73 35 15 36
REMARK SMILES IDX 16 37 17 38 67 39 18 40 72 41 66 42 68 43 19 44 71 45 65 46
REMARK SMILES IDX 64 47 20 49 52 50 32 51 51 52 33 53 36 54 50 55 69 56 34 57
REMARK SMILES IDX 35 58 49 60 70 61 37 62 21 63 22 64 30 65 23 66 24 67 28 68
REMARK SMILES IDX 31 69 25 70 26 71 29 72 27 73 53 74 54 75 62 76 55 77 56 78
REMARK SMILES IDX 60 79 63 80 57 81 58 82 61 83 59 84 38 85 39 86 47 87 40 88
REMARK SMILES IDX 41 89 45 90 48 91 42 92 43 93 46 94 44 95
REMARK H PARENT 2 12 2 13 81 19 86 26 68 48 36 59
REMARK Flexibility Score: inf
ROOT
ATOM      1  C   UNL A   1      31.776  28.678  27.115  1.00  0.00     0.274 C 
ENDROOT
BRANCH   1   2
ATOM      2  O   UNL A   1      31.181  27.817  26.119  1.00  0.00    -0.457 OA
BRANCH   2   3
ATOM      3  C   UNL A   1      31.737  26.581  26.043  1.00  0.00     0.368 C 
ATOM      4  O   UNL A   1      31.670  25.753  26.946  1.00  0.00    -0.245 OA
BRANCH   3   5
ATOM      5  C   UNL A   1      32.523  26.302  24.745  1.00  0.00     0.197 C 
ATOM      6  C   UNL A   1      33.756  25.399  24.894  1.00  0.00     0.081 C 
ATOM      7  C   UNL A   1      31.630  25.387  23.845  1.00  0.00     0.068 C 
ATOM      8  C   UNL A   1      34.001  24.864  23.487  1.00  0.00     0.008 C 
ATOM      9  C   UNL A   1      32.620  24.794  22.825  1.00  0.00     0.011 C 
BRANCH   5  10
ATOM     10  N   UNL A   1      32.811  27.580  24.026  1.00  0.00    -0.334 N 
ATOM     11  C   UNL A   1      34.118  28.153  24.317  1.00  0.00     0.331 C 
ATOM     12  H   UNL A   1      32.759  27.401  23.024  1.00  0.00     0.347 HD
ATOM     13  H   UNL A   1      32.120  28.257  24.348  1.00  0.00     0.347 HD
ENDBRANCH   5  10
BRANCH   7  14
ATOM     14  C   UNL A   1      30.411  26.072  23.189  1.00  0.00     0.072 C 
BRANCH  14  15
ATOM     15  C   UNL A   1      30.701  27.421  22.505  1.00  0.00     0.262 C 
BRANCH  15  16
ATOM     16  N   UNL A   1      29.635  28.442  22.548  1.00  0.00    -0.330 N 
ATOM     17  C   UNL A   1      28.363  27.967  23.096  1.00  0.00     0.262 C 
ATOM     18  C   UNL A   1      30.086  29.604  23.341  1.00  0.00     0.327 C 
ATOM     19  H   UNL A   1      29.462  28.694  21.574  1.00  0.00     0.348 HD
ATOM     20  C   UNL A   1      27.269  29.025  22.972  1.00  0.00     0.068 C 
ATOM     21  C   UNL A   1      29.099  30.808  23.308  1.00  0.00     0.239 C 
ATOM     22  C   UNL A   1      27.661  30.343  23.625  1.00  0.00     0.077 C 
BRANCH  21  23
ATOM     23  N   UNL A   1      29.176  31.711  22.131  1.00  0.00    -0.333 N 
ATOM     24  C   UNL A   1      28.417  31.177  20.996  1.00  0.00     0.332 C 
ATOM     25  C   UNL A   1      28.768  33.091  22.382  1.00  0.00     0.332 C 
ATOM     26  H   UNL A   1      30.170  31.743  21.907  1.00  0.00     0.348 HD
ENDBRANCH  21  23
ENDBRANCH  15  16
ENDBRANCH  14  15
ENDBRANCH   7  14
ENDBRANCH   3   5
ENDBRANCH   2   3
ENDBRANCH   1   2
BRANCH   1  27
ATOM     27  C   UNL A   1      31.749  30.151  26.702  1.00  0.00     0.275 C 
BRANCH  27  28
ATOM     28  O   UNL A   1      33.081  30.625  26.426  1.00  0.00    -0.458 OA
BRANCH  28  29
ATOM     29  C   UNL A   1      33.567  31.566  27.267  1.00  0.00     0.338 C 
ATOM     30  O   UNL A   1      33.011  32.598  27.604  1.00  0.00    -0.246 OA
BRANCH  29  31
ATOM     31  C   UNL A   1      34.906  31.184  27.779  1.00  0.00     0.060 A 
ATOM     32  C   UNL A   1      35.195  29.873  28.154  1.00  0.00     0.016 A 
ATOM     33  C   UNL A   1      35.849  32.182  28.021  1.00  0.00     0.016 A 
ATOM     34  C   UNL A   1      36.360  29.567  28.854  1.00  0.00     0.010 A 
ATOM     35  C   UNL A   1      37.064  31.860  28.637  1.00  0.00     0.010 A 
ATOM     36  C   UNL A   1      37.317  30.555  29.094  1.00  0.00    -0.014 A 
BRANCH  36  37
ATOM     37  C   UNL A   1      38.541  30.248  29.881  1.00  0.00     0.031 A 
ATOM     38  C   UNL A   1      39.621  29.400  29.270  1.00  0.00     0.074 A 
ATOM     39  C   UNL A   1      38.708  30.735  31.127  1.00  0.00     0.049 A 
ATOM     40  N   UNL A   1      40.621  28.787  29.848  1.00  0.00    -0.248 NA
ATOM     41  C   UNL A   1      39.556  29.201  27.813  1.00  0.00     0.031 C 
ATOM     42  C   UNL A   1      37.788  31.638  31.819  1.00  0.00     0.029 A 
ATOM     43  N   UNL A   1      39.721  30.537  32.032  1.00  0.00    -0.354 N 
ATOM     44  C   UNL A   1      41.251  28.064  28.844  1.00  0.00     0.074 A 
ATOM     45  C   UNL A   1      40.539  28.335  27.614  1.00  0.00     0.031 C 
ATOM     46  C   UNL A   1      38.295  31.946  33.022  1.00  0.00     0.029 A 
ATOM     47  C   UNL A   1      39.521  31.183  33.228  1.00  0.00     0.049 A 
ATOM     48  H   UNL A   1      40.514  29.984  31.844  1.00  0.00     0.167 HD
ATOM     49  C   UNL A   1      42.316  27.234  28.952  1.00  0.00     0.037 A 
ATOM     50  C   UNL A   1      40.215  31.125  34.380  1.00  0.00     0.037 A 
ATOM     51  C   UNL A   1      43.064  27.033  30.164  1.00  0.00     0.049 A 
ATOM     52  C   UNL A   1      41.395  30.201  34.479  1.00  0.00     0.074 A 
ATOM     53  C   UNL A   1      44.154  26.210  30.383  1.00  0.00     0.029 A 
ATOM     54  N   UNL A   1      42.813  27.692  31.358  1.00  0.00    -0.354 N 
ATOM     55  N   UNL A   1      41.906  29.415  33.563  1.00  0.00    -0.248 NA
ATOM     56  C   UNL A   1      42.069  30.126  35.781  1.00  0.00     0.031 C 
ATOM     57  C   UNL A   1      44.554  26.358  31.717  1.00  0.00     0.029 A 
ATOM     58  C   UNL A   1      43.731  27.297  32.318  1.00  0.00     0.049 A 
ATOM     59  H   UNL A   1      42.090  28.344  31.503  1.00  0.00     0.167 HD
ATOM     60  C   UNL A   1      42.955  28.748  34.177  1.00  0.00     0.074 A 
ATOM     61  C   UNL A   1      43.027  29.242  35.537  1.00  0.00     0.031 C 
ATOM     62  C   UNL A   1      43.778  27.799  33.666  1.00  0.00     0.037 A 
BRANCH  49  63
ATOM     63  C   UNL A   1      42.704  26.442  27.740  1.00  0.00     0.064 A 
ATOM     64  C   UNL A   1      43.704  26.870  26.857  1.00  0.00     0.173 A 
ATOM     65  C   UNL A   1      42.080  25.211  27.482  1.00  0.00     0.173 A 
ATOM     66  F   UNL A   1      44.315  28.048  27.050  1.00  0.00    -0.203 F 
ATOM     67  C   UNL A   1      44.056  26.101  25.751  1.00  0.00     0.198 A 
ATOM     68  C   UNL A   1      42.451  24.434  26.388  1.00  0.00     0.198 A 
ATOM     69  F   UNL A   1      41.116  24.757  28.297  1.00  0.00    -0.203 F 
ATOM     70  F   UNL A   1      44.990  26.545  24.898  1.00  0.00    -0.200 F 
ATOM     71  C   UNL A   1      43.435  24.881  25.520  1.00  0.00     0.200 A 
ATOM     72  F   UNL A   1      41.855  23.253  26.174  1.00  0.00    -0.200 F 
ATOM     73  F   UNL A   1      43.781  24.140  24.459  1.00  0.00    -0.200 F 
ENDBRANCH  49  63
BRANCH  50  74
ATOM     74  C   UNL A   1      39.767  31.924  35.549  1.00  0.00     0.064 A 
ATOM     75  C   UNL A   1      40.356  33.161  35.843  1.00  0.00     0.173 A 
ATOM     76  C   UNL A   1      38.724  31.482  36.377  1.00  0.00     0.173 A 
ATOM     77  F   UNL A   1      41.375  33.611  35.098  1.00  0.00    -0.203 F 
ATOM     78  C   UNL A   1      39.917  33.926  36.922  1.00  0.00     0.198 A 
ATOM     79  C   UNL A   1      38.267  32.261  37.436  1.00  0.00     0.198 A 
ATOM     80  F   UNL A   1      38.130  30.304  36.137  1.00  0.00    -0.203 F 
ATOM     81  F   UNL A   1      40.515  35.092  37.200  1.00  0.00    -0.200 F 
ATOM     82  C   UNL A   1      38.867  33.481  37.711  1.00  0.00     0.200 A 
ATOM     83  F   UNL A   1      37.242  31.833  38.187  1.00  0.00    -0.200 F 
ATOM     84  F   UNL A   1      38.433  34.226  38.737  1.00  0.00    -0.200 F 
ENDBRANCH  50  74
BRANCH  62  85
ATOM     85  C   UNL A   1      44.825  27.246  34.581  1.00  0.00     0.064 A 
ATOM     86  C   UNL A   1      46.082  27.854  34.699  1.00  0.00     0.173 A 
ATOM     87  C   UNL A   1      44.559  26.115  35.366  1.00  0.00     0.173 A 
ATOM     88  F   UNL A   1      46.385  28.929  33.955  1.00  0.00    -0.203 F 
ATOM     89  C   UNL A   1      47.047  27.337  35.558  1.00  0.00     0.198 A 
ATOM     90  C   UNL A   1      45.519  25.612  36.238  1.00  0.00     0.198 A 
ATOM     91  F   UNL A   1      43.369  25.502  35.287  1.00  0.00    -0.203 F 
ATOM     92  F   UNL A   1      48.255  27.910  35.630  1.00  0.00    -0.200 F 
ATOM     93  C   UNL A   1      46.763  26.220  36.330  1.00  0.00     0.200 A 
ATOM     94  F   UNL A   1      45.242  24.535  36.987  1.00  0.00    -0.200 F 
ATOM     95  F   UNL A   1      47.693  25.721  37.156  1.00  0.00    -0.200 F 
ENDBRANCH  62  85
ENDBRANCH  36  37
ENDBRANCH  29  31
ENDBRANCH  28  29
ENDBRANCH  27  28
ENDBRANCH   1  27
TORSDOF 16
ENDMDL
