MODEL 1
REMARK VINA RESULT:     -10.4      0.000      0.000
REMARK SMILES CCCC[C@H](NC(=O)CC1([NH3+])CCC1)C(=O)OCCOC(=O)c1ccc(-c2c3nc(c(-c4c(F)c(F)c(F)c(F)c4F)c4ccc([nH]4)c(-c4c(F)c(F)c(F)c(F)c4F)c4nc(c(-c5c(F)c(F)c(F)c(F)c5F)c5ccc2[nH]5)C=C4)C=C3)cc1
REMARK SMILES IDX 18 1 17 2 15 3 16 4 5 5 4 6 3 7 2 8 1 9 6 10 7 11 8 13 9 14
REMARK SMILES IDX 10 15 12 16 14 17 13 18 11 19 19 23 20 24 21 25 22 26 23 27
REMARK SMILES IDX 24 28 85 29 25 30 84 31 26 32 27 33 28 34 78 35 29 36 83 37
REMARK SMILES IDX 77 38 79 39 30 40 82 41 76 42 75 43 31 45 63 46 43 47 62 48
REMARK SMILES IDX 44 49 47 50 61 51 80 52 45 53 46 54 60 56 81 57 48 58 32 59
REMARK SMILES IDX 33 60 41 61 34 62 35 63 39 64 42 65 36 66 37 67 40 68 38 69
REMARK SMILES IDX 64 70 65 71 73 72 66 73 67 74 71 75 74 76 68 77 69 78 72 79
REMARK SMILES IDX 70 80 49 81 50 82 58 83 51 84 52 85 56 86 59 87 53 88 54 89
REMARK SMILES IDX 57 90 55 91
REMARK H PARENT 6 12 11 20 11 21 11 22 79 44 47 55
REMARK Flexibility Score: inf
ROOT
ATOM      1  C   UNL A   1      36.669  20.111  24.672  1.00  0.00     0.274 C 
ENDROOT
BRANCH   1   2
ATOM      2  O   UNL A   1      35.814  20.912  25.514  1.00  0.00    -0.461 OA
BRANCH   2   3
ATOM      3  C   UNL A   1      34.495  20.824  25.204  1.00  0.00     0.328 C 
ATOM      4  O   UNL A   1      33.979  19.839  24.682  1.00  0.00    -0.250 OA
BRANCH   3   5
ATOM      5  C   UNL A   1      33.669  22.084  25.530  1.00  0.00     0.192 C 
BRANCH   5   6
ATOM      6  C   UNL A   1      34.666  23.217  25.888  1.00  0.00     0.037 C 
BRANCH   6   7
ATOM      7  C   UNL A   1      34.697  24.463  24.983  1.00  0.00     0.002 C 
BRANCH   7   8
ATOM      8  C   UNL A   1      34.145  24.318  23.565  1.00  0.00    -0.003 C 
ATOM      9  C   UNL A   1      33.692  25.630  22.947  1.00  0.00     0.004 C 
ENDBRANCH   7   8
ENDBRANCH   6   7
ENDBRANCH   5   6
BRANCH   5  10
ATOM     10  N   UNL A   1      32.538  22.073  26.467  1.00  0.00    -0.343 N 
ATOM     11  C   UNL A   1      31.460  22.901  26.551  1.00  0.00     0.226 C 
ATOM     12  H   UNL A   1      32.564  21.353  27.139  1.00  0.00     0.164 HD
ATOM     13  O   UNL A   1      30.866  22.972  27.627  1.00  0.00    -0.275 OA
BRANCH  11  14
ATOM     14  C   UNL A   1      30.991  23.658  25.341  1.00  0.00     0.168 C 
BRANCH  14  15
ATOM     15  C   UNL A   1      30.591  25.108  25.541  1.00  0.00     0.103 C 
ATOM     16  C   UNL A   1      31.603  26.206  25.995  1.00  0.00     0.069 C 
ATOM     17  C   UNL A   1      30.301  26.018  24.312  1.00  0.00     0.069 C 
ATOM     18  C   UNL A   1      30.818  27.220  25.127  1.00  0.00     0.013 C 
BRANCH  15  19
ATOM     19  N   UNL A   1      29.433  25.204  26.462  1.00  0.00    -0.352 N 
ATOM     20  H   UNL A   1      29.574  25.982  27.105  1.00  0.00     0.344 HD
ATOM     21  H   UNL A   1      29.347  24.336  26.991  1.00  0.00     0.344 HD
ATOM     22  H   UNL A   1      28.581  25.358  25.922  1.00  0.00     0.344 HD
ENDBRANCH  15  19
ENDBRANCH  14  15
ENDBRANCH  11  14
ENDBRANCH   5  10
ENDBRANCH   3   5
ENDBRANCH   2   3
ENDBRANCH   1   2
BRANCH   1  23
ATOM     23  C   UNL A   1      38.134  20.109  25.116  1.00  0.00     0.275 C 
BRANCH  23  24
ATOM     24  O   UNL A   1      38.543  21.377  25.664  1.00  0.00    -0.458 OA
BRANCH  24  25
ATOM     25  C   UNL A   1      39.652  21.326  26.431  1.00  0.00     0.338 C 
ATOM     26  O   UNL A   1      40.341  20.347  26.674  1.00  0.00    -0.246 OA
BRANCH  25  27
ATOM     27  C   UNL A   1      40.006  22.634  27.004  1.00  0.00     0.060 A 
ATOM     28  C   UNL A   1      39.486  23.813  26.470  1.00  0.00     0.016 A 
ATOM     29  C   UNL A   1      41.080  22.673  27.897  1.00  0.00     0.016 A 
ATOM     30  C   UNL A   1      40.099  25.033  26.775  1.00  0.00     0.010 A 
ATOM     31  C   UNL A   1      41.662  23.895  28.233  1.00  0.00     0.010 A 
ATOM     32  C   UNL A   1      41.204  25.082  27.641  1.00  0.00    -0.014 A 
BRANCH  32  33
ATOM     33  C   UNL A   1      41.877  26.363  27.964  1.00  0.00     0.031 A 
ATOM     34  C   UNL A   1      41.148  27.469  28.678  1.00  0.00     0.074 A 
ATOM     35  C   UNL A   1      43.143  26.553  27.554  1.00  0.00     0.049 A 
ATOM     36  N   UNL A   1      41.534  28.703  28.897  1.00  0.00    -0.248 NA
ATOM     37  C   UNL A   1      39.818  27.151  29.216  1.00  0.00     0.031 C 
ATOM     38  C   UNL A   1      43.959  25.553  26.867  1.00  0.00     0.029 A 
ATOM     39  N   UNL A   1      43.954  27.657  27.633  1.00  0.00    -0.354 N 
ATOM     40  C   UNL A   1      40.495  29.310  29.591  1.00  0.00     0.074 A 
ATOM     41  C   UNL A   1      39.454  28.314  29.744  1.00  0.00     0.031 C 
ATOM     42  C   UNL A   1      45.152  26.092  26.573  1.00  0.00     0.029 A 
ATOM     43  C   UNL A   1      45.161  27.487  27.003  1.00  0.00     0.049 A 
ATOM     44  H   UNL A   1      43.696  28.486  28.094  1.00  0.00     0.167 HD
ATOM     45  C   UNL A   1      40.426  30.578  30.063  1.00  0.00     0.037 A 
ATOM     46  C   UNL A   1      46.150  28.365  26.754  1.00  0.00     0.037 A 
ATOM     47  C   UNL A   1      41.466  31.566  29.920  1.00  0.00     0.049 A 
ATOM     48  C   UNL A   1      46.015  29.785  27.214  1.00  0.00     0.074 A 
ATOM     49  C   UNL A   1      41.498  32.865  30.403  1.00  0.00     0.029 A 
ATOM     50  N   UNL A   1      42.655  31.367  29.237  1.00  0.00    -0.354 N 
ATOM     51  N   UNL A   1      45.027  30.349  27.862  1.00  0.00    -0.248 NA
ATOM     52  C   UNL A   1      47.125  30.692  26.895  1.00  0.00     0.031 C 
ATOM     53  C   UNL A   1      42.693  33.461  29.982  1.00  0.00     0.029 A 
ATOM     54  C   UNL A   1      43.417  32.526  29.262  1.00  0.00     0.049 A 
ATOM     55  H   UNL A   1      42.921  30.526  28.799  1.00  0.00     0.167 HD
ATOM     56  C   UNL A   1      45.393  31.675  28.032  1.00  0.00     0.074 A 
ATOM     57  C   UNL A   1      46.702  31.829  27.430  1.00  0.00     0.031 C 
ATOM     58  C   UNL A   1      44.704  32.673  28.635  1.00  0.00     0.037 A 
BRANCH  45  59
ATOM     59  C   UNL A   1      39.178  30.991  30.784  1.00  0.00     0.064 A 
ATOM     60  C   UNL A   1      38.069  31.497  30.092  1.00  0.00     0.173 A 
ATOM     61  C   UNL A   1      39.056  30.788  32.168  1.00  0.00     0.173 A 
ATOM     62  F   UNL A   1      38.138  31.708  28.769  1.00  0.00    -0.203 F 
ATOM     63  C   UNL A   1      36.882  31.790  30.760  1.00  0.00     0.198 A 
ATOM     64  C   UNL A   1      37.864  31.069  32.829  1.00  0.00     0.198 A 
ATOM     65  F   UNL A   1      40.086  30.296  32.871  1.00  0.00    -0.203 F 
ATOM     66  F   UNL A   1      35.836  32.281  30.082  1.00  0.00    -0.200 F 
ATOM     67  C   UNL A   1      36.778  31.568  32.126  1.00  0.00     0.200 A 
ATOM     68  F   UNL A   1      37.760  30.844  34.147  1.00  0.00    -0.200 F 
ATOM     69  F   UNL A   1      35.629  31.835  32.764  1.00  0.00    -0.200 F 
ENDBRANCH  45  59
BRANCH  46  70
ATOM     70  C   UNL A   1      47.335  27.906  25.995  1.00  0.00     0.064 A 
ATOM     71  C   UNL A   1      48.483  27.457  26.656  1.00  0.00     0.173 A 
ATOM     72  C   UNL A   1      47.308  27.832  24.594  1.00  0.00     0.173 A 
ATOM     73  F   UNL A   1      48.555  27.528  27.993  1.00  0.00    -0.203 F 
ATOM     74  C   UNL A   1      49.560  26.937  25.944  1.00  0.00     0.198 A 
ATOM     75  C   UNL A   1      48.376  27.293  23.884  1.00  0.00     0.198 A 
ATOM     76  F   UNL A   1      46.224  28.248  23.921  1.00  0.00    -0.203 F 
ATOM     77  F   UNL A   1      50.653  26.517  26.596  1.00  0.00    -0.200 F 
ATOM     78  C   UNL A   1      49.500  26.844  24.560  1.00  0.00     0.200 A 
ATOM     79  F   UNL A   1      48.308  27.191  22.550  1.00  0.00    -0.200 F 
ATOM     80  F   UNL A   1      50.527  26.318  23.878  1.00  0.00    -0.200 F 
ENDBRANCH  46  70
BRANCH  58  81
ATOM     81  C   UNL A   1      45.355  34.022  28.663  1.00  0.00     0.064 A 
ATOM     82  C   UNL A   1      46.222  34.385  29.703  1.00  0.00     0.173 A 
ATOM     83  C   UNL A   1      45.114  34.954  27.645  1.00  0.00     0.173 A 
ATOM     84  F   UNL A   1      46.466  33.531  30.708  1.00  0.00    -0.203 F 
ATOM     85  C   UNL A   1      46.812  35.646  29.731  1.00  0.00     0.198 A 
ATOM     86  C   UNL A   1      45.719  36.207  27.667  1.00  0.00     0.198 A 
ATOM     87  F   UNL A   1      44.291  34.650  26.630  1.00  0.00    -0.203 F 
ATOM     88  F   UNL A   1      47.607  35.988  30.754  1.00  0.00    -0.200 F 
ATOM     89  C   UNL A   1      46.562  36.554  28.713  1.00  0.00     0.200 A 
ATOM     90  F   UNL A   1      45.478  37.085  26.683  1.00  0.00    -0.200 F 
ATOM     91  F   UNL A   1      47.124  37.770  28.747  1.00  0.00    -0.200 F 
ENDBRANCH  58  81
ENDBRANCH  32  33
ENDBRANCH  25  27
ENDBRANCH  24  25
ENDBRANCH  23  24
ENDBRANCH   1  23
TORSDOF 18
ENDMDL
MODEL 2
REMARK VINA RESULT:     -10.4      2.016      3.315
REMARK SMILES CCCC[C@H](NC(=O)CC1([NH3+])CCC1)C(=O)OCCOC(=O)c1ccc(-c2c3nc(c(-c4c(F)c(F)c(F)c(F)c4F)c4ccc([nH]4)c(-c4c(F)c(F)c(F)c(F)c4F)c4nc(c(-c5c(F)c(F)c(F)c(F)c5F)c5ccc2[nH]5)C=C4)C=C3)cc1
REMARK SMILES IDX 18 1 17 2 15 3 16 4 5 5 4 6 3 7 2 8 1 9 6 10 7 11 8 13 9 14
REMARK SMILES IDX 10 15 12 16 14 17 13 18 11 19 19 23 20 24 21 25 22 26 23 27
REMARK SMILES IDX 24 28 85 29 25 30 84 31 26 32 27 33 28 34 78 35 29 36 83 37
REMARK SMILES IDX 77 38 79 39 30 40 82 41 76 42 75 43 31 45 63 46 43 47 62 48
REMARK SMILES IDX 44 49 47 50 61 51 80 52 45 53 46 54 60 56 81 57 48 58 32 59
REMARK SMILES IDX 33 60 41 61 34 62 35 63 39 64 42 65 36 66 37 67 40 68 38 69
REMARK SMILES IDX 64 70 65 71 73 72 66 73 67 74 71 75 74 76 68 77 69 78 72 79
REMARK SMILES IDX 70 80 49 81 50 82 58 83 51 84 52 85 56 86 59 87 53 88 54 89
REMARK SMILES IDX 57 90 55 91
REMARK H PARENT 6 12 11 20 11 21 11 22 79 44 47 55
REMARK Flexibility Score: inf
ROOT
ATOM      1  C   UNL A   1      37.841  20.460  25.353  1.00  0.00     0.274 C 
ENDROOT
BRANCH   1   2
ATOM      2  O   UNL A   1      38.063  21.796  24.855  1.00  0.00    -0.461 OA
BRANCH   2   3
ATOM      3  C   UNL A   1      37.471  22.766  25.598  1.00  0.00     0.328 C 
ATOM      4  O   UNL A   1      38.090  23.629  26.217  1.00  0.00    -0.250 OA
BRANCH   3   5
ATOM      5  C   UNL A   1      35.932  22.699  25.641  1.00  0.00     0.192 C 
BRANCH   5   6
ATOM      6  C   UNL A   1      35.395  24.140  25.431  1.00  0.00     0.037 C 
BRANCH   6   7
ATOM      7  C   UNL A   1      34.624  24.439  24.132  1.00  0.00     0.002 C 
BRANCH   7   8
ATOM      8  C   UNL A   1      34.640  23.370  23.040  1.00  0.00    -0.003 C 
ATOM      9  C   UNL A   1      33.300  23.173  22.353  1.00  0.00     0.004 C 
ENDBRANCH   7   8
ENDBRANCH   6   7
ENDBRANCH   5   6
BRANCH   5  10
ATOM     10  N   UNL A   1      35.195  22.024  26.718  1.00  0.00    -0.343 N 
ATOM     11  C   UNL A   1      33.956  21.459  26.712  1.00  0.00     0.226 C 
ATOM     12  H   UNL A   1      35.673  21.971  27.578  1.00  0.00     0.164 HD
ATOM     13  O   UNL A   1      33.377  21.321  27.790  1.00  0.00    -0.275 OA
BRANCH  11  14
ATOM     14  C   UNL A   1      33.351  20.973  25.425  1.00  0.00     0.168 C 
BRANCH  14  15
ATOM     15  C   UNL A   1      33.325  19.474  25.192  1.00  0.00     0.103 C 
ATOM     16  C   UNL A   1      32.534  18.817  24.017  1.00  0.00     0.069 C 
ATOM     17  C   UNL A   1      34.579  18.746  24.629  1.00  0.00     0.069 C 
ATOM     18  C   UNL A   1      33.639  17.736  23.942  1.00  0.00     0.013 C 
BRANCH  15  19
ATOM     19  N   UNL A   1      32.902  18.765  26.424  1.00  0.00    -0.352 N 
ATOM     20  H   UNL A   1      33.529  19.012  27.190  1.00  0.00     0.344 HD
ATOM     21  H   UNL A   1      32.938  17.758  26.266  1.00  0.00     0.344 HD
ATOM     22  H   UNL A   1      31.948  19.039  26.663  1.00  0.00     0.344 HD
ENDBRANCH  15  19
ENDBRANCH  14  15
ENDBRANCH  11  14
ENDBRANCH   5  10
ENDBRANCH   3   5
ENDBRANCH   2   3
ENDBRANCH   1   2
BRANCH   1  23
ATOM     23  C   UNL A   1      39.084  19.570  25.287  1.00  0.00     0.275 C 
BRANCH  23  24
ATOM     24  O   UNL A   1      39.931  19.723  26.442  1.00  0.00    -0.458 OA
BRANCH  24  25
ATOM     25  C   UNL A   1      41.250  19.569  26.197  1.00  0.00     0.338 C 
ATOM     26  O   UNL A   1      41.809  18.579  25.749  1.00  0.00    -0.246 OA
BRANCH  25  27
ATOM     27  C   UNL A   1      42.032  20.768  26.531  1.00  0.00     0.060 A 
ATOM     28  C   UNL A   1      42.359  21.064  27.855  1.00  0.00     0.016 A 
ATOM     29  C   UNL A   1      42.190  21.731  25.529  1.00  0.00     0.016 A 
ATOM     30  C   UNL A   1      42.772  22.359  28.187  1.00  0.00     0.010 A 
ATOM     31  C   UNL A   1      42.643  23.009  25.857  1.00  0.00     0.010 A 
ATOM     32  C   UNL A   1      42.897  23.346  27.195  1.00  0.00    -0.014 A 
BRANCH  32  33
ATOM     33  C   UNL A   1      43.318  24.728  27.530  1.00  0.00     0.031 A 
ATOM     34  C   UNL A   1      42.337  25.734  28.067  1.00  0.00     0.074 A 
ATOM     35  C   UNL A   1      44.588  25.096  27.288  1.00  0.00     0.049 A 
ATOM     36  N   UNL A   1      42.498  27.020  28.263  1.00  0.00    -0.248 NA
ATOM     37  C   UNL A   1      41.004  25.233  28.435  1.00  0.00     0.031 C 
ATOM     38  C   UNL A   1      45.635  24.211  26.781  1.00  0.00     0.029 A 
ATOM     39  N   UNL A   1      45.206  26.316  27.410  1.00  0.00    -0.354 N 
ATOM     40  C   UNL A   1      41.291  27.485  28.769  1.00  0.00     0.074 A 
ATOM     41  C   UNL A   1      40.399  26.345  28.837  1.00  0.00     0.031 C 
ATOM     42  C   UNL A   1      46.765  24.916  26.624  1.00  0.00     0.029 A 
ATOM     43  C   UNL A   1      46.503  26.311  26.965  1.00  0.00     0.049 A 
ATOM     44  H   UNL A   1      44.763  27.112  27.781  1.00  0.00     0.167 HD
ATOM     45  C   UNL A   1      40.966  28.744  29.148  1.00  0.00     0.037 A 
ATOM     46  C   UNL A   1      47.376  27.322  26.803  1.00  0.00     0.037 A 
ATOM     47  C   UNL A   1      41.857  29.875  29.091  1.00  0.00     0.049 A 
ATOM     48  C   UNL A   1      46.966  28.721  27.152  1.00  0.00     0.074 A 
ATOM     49  C   UNL A   1      41.626  31.181  29.494  1.00  0.00     0.029 A 
ATOM     50  N   UNL A   1      43.150  29.838  28.592  1.00  0.00    -0.354 N 
ATOM     51  N   UNL A   1      45.821  29.149  27.623  1.00  0.00    -0.248 NA
ATOM     52  C   UNL A   1      47.964  29.776  26.935  1.00  0.00     0.031 C 
ATOM     53  C   UNL A   1      42.767  31.940  29.207  1.00  0.00     0.029 A 
ATOM     54  C   UNL A   1      43.719  31.101  28.652  1.00  0.00     0.049 A 
ATOM     55  H   UNL A   1      43.599  29.032  28.246  1.00  0.00     0.167 HD
ATOM     56  C   UNL A   1      45.957  30.521  27.761  1.00  0.00     0.074 A 
ATOM     57  C   UNL A   1      47.303  30.854  27.337  1.00  0.00     0.031 C 
ATOM     58  C   UNL A   1      45.048  31.422  28.201  1.00  0.00     0.037 A 
BRANCH  45  59
ATOM     59  C   UNL A   1      39.579  28.985  29.664  1.00  0.00     0.064 A 
ATOM     60  C   UNL A   1      39.267  28.817  31.020  1.00  0.00     0.173 A 
ATOM     61  C   UNL A   1      38.579  29.479  28.813  1.00  0.00     0.173 A 
ATOM     62  F   UNL A   1      40.189  28.347  31.873  1.00  0.00    -0.203 F 
ATOM     63  C   UNL A   1      38.000  29.133  31.506  1.00  0.00     0.198 A 
ATOM     64  C   UNL A   1      37.319  29.807  29.305  1.00  0.00     0.198 A 
ATOM     65  F   UNL A   1      38.835  29.667  27.510  1.00  0.00    -0.203 F 
ATOM     66  F   UNL A   1      37.718  28.957  32.804  1.00  0.00    -0.200 F 
ATOM     67  C   UNL A   1      37.030  29.634  30.650  1.00  0.00     0.200 A 
ATOM     68  F   UNL A   1      36.386  30.302  28.479  1.00  0.00    -0.200 F 
ATOM     69  F   UNL A   1      35.817  29.953  31.123  1.00  0.00    -0.200 F 
ENDBRANCH  45  59
BRANCH  46  70
ATOM     70  C   UNL A   1      48.714  27.024  26.243  1.00  0.00     0.064 A 
ATOM     71  C   UNL A   1      49.759  26.595  27.068  1.00  0.00     0.173 A 
ATOM     72  C   UNL A   1      48.946  27.086  24.861  1.00  0.00     0.173 A 
ATOM     73  F   UNL A   1      49.582  26.540  28.397  1.00  0.00    -0.203 F 
ATOM     74  C   UNL A   1      50.988  26.224  26.531  1.00  0.00     0.198 A 
ATOM     75  C   UNL A   1      50.168  26.697  24.322  1.00  0.00     0.198 A 
ATOM     76  F   UNL A   1      47.970  27.489  24.033  1.00  0.00    -0.203 F 
ATOM     77  F   UNL A   1      51.977  25.820  27.339  1.00  0.00    -0.200 F 
ATOM     78  C   UNL A   1      51.187  26.263  25.157  1.00  0.00     0.200 A 
ATOM     79  F   UNL A   1      50.351  26.721  22.995  1.00  0.00    -0.200 F 
ATOM     80  F   UNL A   1      52.362  25.880  24.638  1.00  0.00    -0.200 F 
ENDBRANCH  46  70
BRANCH  58  81
ATOM     81  C   UNL A   1      45.480  32.856  28.237  1.00  0.00     0.064 A 
ATOM     82  C   UNL A   1      45.237  33.712  27.153  1.00  0.00     0.173 A 
ATOM     83  C   UNL A   1      46.137  33.378  29.359  1.00  0.00     0.173 A 
ATOM     84  F   UNL A   1      44.628  33.250  26.051  1.00  0.00    -0.203 F 
ATOM     85  C   UNL A   1      45.655  35.039  27.186  1.00  0.00     0.198 A 
ATOM     86  C   UNL A   1      46.538  34.711  29.395  1.00  0.00     0.198 A 
ATOM     87  F   UNL A   1      46.391  32.596  30.418  1.00  0.00    -0.203 F 
ATOM     88  F   UNL A   1      45.448  35.831  26.125  1.00  0.00    -0.200 F 
ATOM     89  C   UNL A   1      46.303  35.538  28.307  1.00  0.00     0.200 A 
ATOM     90  F   UNL A   1      47.164  35.192  30.478  1.00  0.00    -0.200 F 
ATOM     91  F   UNL A   1      46.712  36.814  28.332  1.00  0.00    -0.200 F 
ENDBRANCH  58  81
ENDBRANCH  32  33
ENDBRANCH  25  27
ENDBRANCH  24  25
ENDBRANCH  23  24
ENDBRANCH   1  23
TORSDOF 18
ENDMDL
MODEL 3
REMARK VINA RESULT:     -10.4      1.250      2.872
REMARK SMILES CCCC[C@H](NC(=O)CC1([NH3+])CCC1)C(=O)OCCOC(=O)c1ccc(-c2c3nc(c(-c4c(F)c(F)c(F)c(F)c4F)c4ccc([nH]4)c(-c4c(F)c(F)c(F)c(F)c4F)c4nc(c(-c5c(F)c(F)c(F)c(F)c5F)c5ccc2[nH]5)C=C4)C=C3)cc1
REMARK SMILES IDX 18 1 17 2 15 3 16 4 5 5 4 6 3 7 2 8 1 9 6 10 7 11 8 13 9 14
REMARK SMILES IDX 10 15 12 16 14 17 13 18 11 19 19 23 20 24 21 25 22 26 23 27
REMARK SMILES IDX 24 28 85 29 25 30 84 31 26 32 27 33 28 34 78 35 29 36 83 37
REMARK SMILES IDX 77 38 79 39 30 40 82 41 76 42 75 43 31 45 63 46 43 47 62 48
REMARK SMILES IDX 44 49 47 50 61 51 80 52 45 53 46 54 60 56 81 57 48 58 32 59
REMARK SMILES IDX 33 60 41 61 34 62 35 63 39 64 42 65 36 66 37 67 40 68 38 69
REMARK SMILES IDX 64 70 65 71 73 72 66 73 67 74 71 75 74 76 68 77 69 78 72 79
REMARK SMILES IDX 70 80 49 81 50 82 58 83 51 84 52 85 56 86 59 87 53 88 54 89
REMARK SMILES IDX 57 90 55 91
REMARK H PARENT 6 12 11 20 11 21 11 22 79 44 47 55
REMARK Flexibility Score: inf
ROOT
ATOM      1  C   UNL A   1      36.775  22.780  23.742  1.00  0.00     0.274 C 
ENDROOT
BRANCH   1   2
ATOM      2  O   UNL A   1      35.407  22.609  23.318  1.00  0.00    -0.461 OA
BRANCH   2   3
ATOM      3  C   UNL A   1      34.614  23.682  23.569  1.00  0.00     0.328 C 
ATOM      4  O   UNL A   1      34.299  24.514  22.721  1.00  0.00    -0.250 OA
BRANCH   3   5
ATOM      5  C   UNL A   1      34.144  23.812  25.032  1.00  0.00     0.192 C 
BRANCH   5   6
ATOM      6  C   UNL A   1      34.469  25.255  25.501  1.00  0.00     0.037 C 
BRANCH   6   7
ATOM      7  C   UNL A   1      33.301  26.137  25.979  1.00  0.00     0.002 C 
BRANCH   7   8
ATOM      8  C   UNL A   1      31.892  25.551  25.893  1.00  0.00    -0.003 C 
ATOM      9  C   UNL A   1      30.889  26.460  25.204  1.00  0.00     0.004 C 
ENDBRANCH   7   8
ENDBRANCH   6   7
ENDBRANCH   5   6
BRANCH   5  10
ATOM     10  N   UNL A   1      34.500  22.837  26.071  1.00  0.00    -0.343 N 
ATOM     11  C   UNL A   1      33.844  21.717  26.485  1.00  0.00     0.226 C 
ATOM     12  H   UNL A   1      35.346  23.021  26.540  1.00  0.00     0.164 HD
ATOM     13  O   UNL A   1      34.089  21.284  27.610  1.00  0.00    -0.275 OA
BRANCH  11  14
ATOM     14  C   UNL A   1      32.890  21.013  25.561  1.00  0.00     0.168 C 
BRANCH  14  15
ATOM     15  C   UNL A   1      33.157  19.546  25.275  1.00  0.00     0.103 C 
ATOM     16  C   UNL A   1      32.498  18.788  24.080  1.00  0.00     0.069 C 
ATOM     17  C   UNL A   1      34.524  19.099  24.682  1.00  0.00     0.069 C 
ATOM     18  C   UNL A   1      33.793  17.948  23.963  1.00  0.00     0.013 C 
BRANCH  15  19
ATOM     19  N   UNL A   1      32.894  18.727  26.482  1.00  0.00    -0.352 N 
ATOM     20  H   UNL A   1      33.062  19.288  27.316  1.00  0.00     0.344 HD
ATOM     21  H   UNL A   1      33.514  17.918  26.485  1.00  0.00     0.344 HD
ATOM     22  H   UNL A   1      31.924  18.411  26.473  1.00  0.00     0.344 HD
ENDBRANCH  15  19
ENDBRANCH  14  15
ENDBRANCH  11  14
ENDBRANCH   5  10
ENDBRANCH   3   5
ENDBRANCH   2   3
ENDBRANCH   1   2
BRANCH   1  23
ATOM     23  C   UNL A   1      37.351  21.553  24.455  1.00  0.00     0.275 C 
BRANCH  23  24
ATOM     24  O   UNL A   1      37.619  21.804  25.848  1.00  0.00    -0.458 OA
BRANCH  24  25
ATOM     25  C   UNL A   1      38.928  21.804  26.177  1.00  0.00     0.338 C 
ATOM     26  O   UNL A   1      39.742  20.916  25.975  1.00  0.00    -0.246 OA
BRANCH  25  27
ATOM     27  C   UNL A   1      39.343  23.044  26.849  1.00  0.00     0.060 A 
ATOM     28  C   UNL A   1      38.914  24.288  26.387  1.00  0.00     0.016 A 
ATOM     29  C   UNL A   1      40.390  22.953  27.772  1.00  0.00     0.016 A 
ATOM     30  C   UNL A   1      39.591  25.442  26.793  1.00  0.00     0.010 A 
ATOM     31  C   UNL A   1      41.036  24.110  28.208  1.00  0.00     0.010 A 
ATOM     32  C   UNL A   1      40.669  25.361  27.690  1.00  0.00    -0.014 A 
BRANCH  32  33
ATOM     33  C   UNL A   1      41.410  26.572  28.120  1.00  0.00     0.031 A 
ATOM     34  C   UNL A   1      40.723  27.682  28.869  1.00  0.00     0.074 A 
ATOM     35  C   UNL A   1      42.704  26.698  27.778  1.00  0.00     0.049 A 
ATOM     36  N   UNL A   1      41.178  28.871  29.181  1.00  0.00    -0.248 NA
ATOM     37  C   UNL A   1      39.350  27.424  29.328  1.00  0.00     0.031 C 
ATOM     38  C   UNL A   1      43.484  25.687  27.066  1.00  0.00     0.029 A 
ATOM     39  N   UNL A   1      43.581  27.737  27.960  1.00  0.00    -0.354 N 
ATOM     40  C   UNL A   1      40.150  29.506  29.865  1.00  0.00     0.074 A 
ATOM     41  C   UNL A   1      39.039  28.577  29.911  1.00  0.00     0.031 C 
ATOM     42  C   UNL A   1      44.722  26.158  26.859  1.00  0.00     0.029 A 
ATOM     43  C   UNL A   1      44.802  27.521  27.374  1.00  0.00     0.049 A 
ATOM     44  H   UNL A   1      43.357  28.553  28.460  1.00  0.00     0.167 HD
ATOM     45  C   UNL A   1      40.143  30.746  30.411  1.00  0.00     0.037 A 
ATOM     46  C   UNL A   1      45.858  28.342  27.223  1.00  0.00     0.037 A 
ATOM     47  C   UNL A   1      41.251  31.667  30.374  1.00  0.00     0.049 A 
ATOM     48  C   UNL A   1      45.795  29.739  27.763  1.00  0.00     0.074 A 
ATOM     49  C   UNL A   1      41.346  32.930  30.938  1.00  0.00     0.029 A 
ATOM     50  N   UNL A   1      42.456  31.427  29.733  1.00  0.00    -0.354 N 
ATOM     51  N   UNL A   1      44.817  30.330  28.402  1.00  0.00    -0.248 NA
ATOM     52  C   UNL A   1      46.977  30.584  27.549  1.00  0.00     0.031 C 
ATOM     53  C   UNL A   1      42.597  33.466  30.607  1.00  0.00     0.029 A 
ATOM     54  C   UNL A   1      43.291  32.527  29.863  1.00  0.00     0.049 A 
ATOM     55  H   UNL A   1      42.686  30.597  29.255  1.00  0.00     0.167 HD
ATOM     56  C   UNL A   1      45.262  31.616  28.669  1.00  0.00     0.074 A 
ATOM     57  C   UNL A   1      46.606  31.715  28.135  1.00  0.00     0.031 C 
ATOM     58  C   UNL A   1      44.613  32.622  29.302  1.00  0.00     0.037 A 
BRANCH  45  59
ATOM     59  C   UNL A   1      38.892  31.200  31.102  1.00  0.00     0.064 A 
ATOM     60  C   UNL A   1      38.713  31.017  32.480  1.00  0.00     0.173 A 
ATOM     61  C   UNL A   1      37.907  31.910  30.398  1.00  0.00     0.173 A 
ATOM     62  F   UNL A   1      39.626  30.345  33.196  1.00  0.00    -0.203 F 
ATOM     63  C   UNL A   1      37.589  31.525  33.129  1.00  0.00     0.198 A 
ATOM     64  C   UNL A   1      36.793  32.429  31.051  1.00  0.00     0.198 A 
ATOM     65  F   UNL A   1      38.040  32.120  29.080  1.00  0.00    -0.203 F 
ATOM     66  F   UNL A   1      37.432  31.332  34.445  1.00  0.00    -0.200 F 
ATOM     67  C   UNL A   1      36.635  32.237  32.416  1.00  0.00     0.200 A 
ATOM     68  F   UNL A   1      35.877  33.126  30.364  1.00  0.00    -0.200 F 
ATOM     69  F   UNL A   1      35.563  32.739  33.045  1.00  0.00    -0.200 F 
ENDBRANCH  45  59
BRANCH  46  70
ATOM     70  C   UNL A   1      47.045  27.848  26.488  1.00  0.00     0.064 A 
ATOM     71  C   UNL A   1      48.097  27.220  27.162  1.00  0.00     0.173 A 
ATOM     72  C   UNL A   1      47.108  27.924  25.089  1.00  0.00     0.173 A 
ATOM     73  F   UNL A   1      48.083  27.143  28.501  1.00  0.00    -0.203 F 
ATOM     74  C   UNL A   1      49.167  26.671  26.462  1.00  0.00     0.198 A 
ATOM     75  C   UNL A   1      48.169  27.358  24.388  1.00  0.00     0.198 A 
ATOM     76  F   UNL A   1      46.118  28.515  24.403  1.00  0.00    -0.203 F 
ATOM     77  F   UNL A   1      50.168  26.077  27.127  1.00  0.00    -0.200 F 
ATOM     78  C   UNL A   1      49.196  26.730  25.075  1.00  0.00     0.200 A 
ATOM     79  F   UNL A   1      48.184  27.403  23.049  1.00  0.00    -0.200 F 
ATOM     80  F   UNL A   1      50.214  26.178  24.401  1.00  0.00    -0.200 F 
ENDBRANCH  46  70
BRANCH  58  81
ATOM     81  C   UNL A   1      45.349  33.918  29.441  1.00  0.00     0.064 A 
ATOM     82  C   UNL A   1      45.226  34.928  28.476  1.00  0.00     0.173 A 
ATOM     83  C   UNL A   1      46.179  34.155  30.546  1.00  0.00     0.173 A 
ATOM     84  F   UNL A   1      44.458  34.736  27.393  1.00  0.00    -0.203 F 
ATOM     85  C   UNL A   1      45.926  36.124  28.602  1.00  0.00     0.198 A 
ATOM     86  C   UNL A   1      46.863  35.361  30.678  1.00  0.00     0.198 A 
ATOM     87  F   UNL A   1      46.327  33.218  31.493  1.00  0.00    -0.203 F 
ATOM     88  F   UNL A   1      45.825  37.061  27.650  1.00  0.00    -0.200 F 
ATOM     89  C   UNL A   1      46.741  36.340  29.704  1.00  0.00     0.200 A 
ATOM     90  F   UNL A   1      47.651  35.570  31.742  1.00  0.00    -0.200 F 
ATOM     91  F   UNL A   1      47.420  37.490  29.820  1.00  0.00    -0.200 F 
ENDBRANCH  58  81
ENDBRANCH  32  33
ENDBRANCH  25  27
ENDBRANCH  24  25
ENDBRANCH  23  24
ENDBRANCH   1  23
TORSDOF 18
ENDMDL
