MODEL 1
REMARK VINA RESULT:     -13.2      0.000      0.000
REMARK SMILES Cc1noc2c1-c1c(c(C(=O)OCCOC(=O)c3ccc(-c4c5nc(c(-c6c(F)c(F)c(F)c(F)c6F)c6ccc([nH]6)c(-c6c(F)c(F)c(F)c(F)c6F)c6nc(c(-c7c(F)c(F)c(F)c(F)c7F)c7ccc4[nH]7)C=C6)C=C5)cc3)nn1C)CC2
REMARK SMILES IDX 14 1 13 2 12 3 10 4 11 5 9 6 1 7 2 8 3 9 6 10 4 11 5 12 7 13
REMARK SMILES IDX 85 14 8 15 82 16 84 17 81 18 83 19 15 20 16 21 17 22 18 23
REMARK SMILES IDX 19 24 80 25 20 26 79 27 21 28 22 29 23 30 73 31 24 32 78 33
REMARK SMILES IDX 72 34 74 35 25 36 77 37 71 38 70 39 26 41 58 42 38 43 57 44
REMARK SMILES IDX 39 45 42 46 56 47 75 48 40 49 41 50 55 52 76 53 43 54 27 55
REMARK SMILES IDX 28 56 36 57 29 58 30 59 34 60 37 61 31 62 32 63 35 64 33 65
REMARK SMILES IDX 59 66 60 67 68 68 61 69 62 70 66 71 69 72 63 73 64 74 67 75
REMARK SMILES IDX 65 76 44 77 45 78 53 79 46 80 47 81 51 82 54 83 48 84 49 85
REMARK SMILES IDX 52 86 50 87
REMARK H PARENT 74 40 42 51
REMARK Flexibility Score: inf
ROOT
ATOM      1  C   UNL A   1      32.997  31.305  27.252  1.00  0.00     0.275 C 
ENDROOT
BRANCH   1   2
ATOM      2  C   UNL A   1      32.030  30.210  26.827  1.00  0.00     0.275 C 
BRANCH   2   3
ATOM      3  O   UNL A   1      32.680  28.930  26.815  1.00  0.00    -0.457 OA
BRANCH   3   4
ATOM      4  C   UNL A   1      31.897  27.845  27.107  1.00  0.00     0.359 C 
ATOM      5  O   UNL A   1      31.062  27.839  28.009  1.00  0.00    -0.244 OA
BRANCH   4   6
ATOM      6  C   UNL A   1      32.126  26.719  26.183  1.00  0.00     0.174 A 
ATOM      7  C   UNL A   1      32.846  22.554  22.426  1.00  0.00     0.071 C 
ATOM      8  C   UNL A   1      32.937  24.002  22.141  1.00  0.00     0.090 A 
ATOM      9  N   UNL A   1      33.237  24.395  20.889  1.00  0.00    -0.084 NA
ATOM     10  C   UNL A   1      32.741  25.114  22.978  1.00  0.00     0.066 A 
ATOM     11  O   UNL A   1      33.234  25.783  20.904  1.00  0.00    -0.360 OA
ATOM     12  C   UNL A   1      32.926  26.195  22.150  1.00  0.00     0.146 A 
ATOM     13  C   UNL A   1      32.455  25.423  24.394  1.00  0.00     0.077 A 
ATOM     14  C   UNL A   1      32.907  27.639  22.489  1.00  0.00     0.084 C 
ATOM     15  C   UNL A   1      32.211  26.739  24.761  1.00  0.00     0.014 A 
ATOM     16  N   UNL A   1      32.394  24.691  25.535  1.00  0.00    -0.267 N 
ATOM     17  C   UNL A   1      32.067  27.866  23.769  1.00  0.00     0.048 C 
ATOM     18  N   UNL A   1      32.260  25.453  26.639  1.00  0.00    -0.165 NA
ATOM     19  C   UNL A   1      32.512  23.264  25.700  1.00  0.00     0.174 C 
ENDBRANCH   4   6
ENDBRANCH   3   4
ENDBRANCH   2   3
ENDBRANCH   1   2
BRANCH   1  20
ATOM     20  O   UNL A   1      34.276  30.769  27.588  1.00  0.00    -0.458 OA
BRANCH  20  21
ATOM     21  C   UNL A   1      35.219  31.682  27.918  1.00  0.00     0.338 C 
ATOM     22  O   UNL A   1      35.245  32.860  27.608  1.00  0.00    -0.246 OA
BRANCH  21  23
ATOM     23  C   UNL A   1      36.348  30.985  28.543  1.00  0.00     0.060 A 
ATOM     24  C   UNL A   1      37.386  31.752  29.080  1.00  0.00     0.016 A 
ATOM     25  C   UNL A   1      36.472  29.600  28.366  1.00  0.00     0.016 A 
ATOM     26  C   UNL A   1      38.602  31.143  29.328  1.00  0.00     0.010 A 
ATOM     27  C   UNL A   1      37.686  28.998  28.596  1.00  0.00     0.010 A 
ATOM     28  C   UNL A   1      38.754  29.786  29.020  1.00  0.00    -0.014 A 
BRANCH  28  29
ATOM     29  C   UNL A   1      40.039  29.156  29.249  1.00  0.00     0.031 A 
ATOM     30  C   UNL A   1      40.378  28.973  30.682  1.00  0.00     0.074 A 
ATOM     31  C   UNL A   1      40.759  28.624  28.242  1.00  0.00     0.049 A 
ATOM     32  N   UNL A   1      41.424  29.394  31.312  1.00  0.00    -0.248 NA
ATOM     33  C   UNL A   1      39.374  28.330  31.548  1.00  0.00     0.031 C 
ATOM     34  C   UNL A   1      40.370  28.481  26.836  1.00  0.00     0.029 A 
ATOM     35  N   UNL A   1      41.957  27.983  28.295  1.00  0.00    -0.354 N 
ATOM     36  C   UNL A   1      41.293  28.930  32.618  1.00  0.00     0.074 A 
ATOM     37  C   UNL A   1      39.957  28.413  32.743  1.00  0.00     0.031 C 
ATOM     38  C   UNL A   1      41.204  27.604  26.233  1.00  0.00     0.029 A 
ATOM     39  C   UNL A   1      42.244  27.217  27.172  1.00  0.00     0.049 A 
ATOM     40  H   UNL A   1      42.569  28.054  29.063  1.00  0.00     0.167 HD
ATOM     41  C   UNL A   1      42.377  28.798  33.429  1.00  0.00     0.037 A 
ATOM     42  C   UNL A   1      43.213  26.274  27.069  1.00  0.00     0.037 A 
ATOM     43  C   UNL A   1      43.476  29.606  32.967  1.00  0.00     0.049 A 
ATOM     44  C   UNL A   1      44.188  26.514  28.163  1.00  0.00     0.074 A 
ATOM     45  C   UNL A   1      43.658  30.959  32.757  1.00  0.00     0.029 A 
ATOM     46  N   UNL A   1      44.504  28.987  32.301  1.00  0.00    -0.354 N 
ATOM     47  N   UNL A   1      44.990  27.540  28.218  1.00  0.00    -0.248 NA
ATOM     48  C   UNL A   1      43.967  25.829  29.429  1.00  0.00     0.031 C 
ATOM     49  C   UNL A   1      44.477  31.047  31.594  1.00  0.00     0.029 A 
ATOM     50  C   UNL A   1      44.788  29.747  31.196  1.00  0.00     0.049 A 
ATOM     51  H   UNL A   1      44.953  28.152  32.566  1.00  0.00     0.167 HD
ATOM     52  C   UNL A   1      45.013  27.894  29.558  1.00  0.00     0.074 A 
ATOM     53  C   UNL A   1      44.450  26.750  30.267  1.00  0.00     0.031 C 
ATOM     54  C   UNL A   1      45.213  29.191  29.935  1.00  0.00     0.037 A 
BRANCH  41  55
ATOM     55  C   UNL A   1      42.559  27.663  34.405  1.00  0.00     0.064 A 
ATOM     56  C   UNL A   1      43.085  26.442  33.941  1.00  0.00     0.173 A 
ATOM     57  C   UNL A   1      41.954  27.620  35.680  1.00  0.00     0.173 A 
ATOM     58  F   UNL A   1      43.669  26.362  32.735  1.00  0.00    -0.203 F 
ATOM     59  C   UNL A   1      42.931  25.253  34.659  1.00  0.00     0.198 A 
ATOM     60  C   UNL A   1      41.852  26.442  36.419  1.00  0.00     0.198 A 
ATOM     61  F   UNL A   1      41.335  28.678  36.216  1.00  0.00    -0.203 F 
ATOM     62  F   UNL A   1      43.324  24.093  34.114  1.00  0.00    -0.200 F 
ATOM     63  C   UNL A   1      42.308  25.253  35.893  1.00  0.00     0.200 A 
ATOM     64  F   UNL A   1      41.229  26.461  37.604  1.00  0.00    -0.200 F 
ATOM     65  F   UNL A   1      42.097  24.105  36.550  1.00  0.00    -0.200 F 
ENDBRANCH  41  55
BRANCH  42  66
ATOM     66  C   UNL A   1      43.195  25.009  26.294  1.00  0.00     0.064 A 
ATOM     67  C   UNL A   1      44.123  24.782  25.263  1.00  0.00     0.173 A 
ATOM     68  C   UNL A   1      42.462  23.887  26.729  1.00  0.00     0.173 A 
ATOM     69  F   UNL A   1      44.894  25.785  24.816  1.00  0.00    -0.203 F 
ATOM     70  C   UNL A   1      44.328  23.508  24.725  1.00  0.00     0.198 A 
ATOM     71  C   UNL A   1      42.659  22.618  26.183  1.00  0.00     0.198 A 
ATOM     72  F   UNL A   1      41.609  23.974  27.758  1.00  0.00    -0.203 F 
ATOM     73  F   UNL A   1      45.273  23.320  23.793  1.00  0.00    -0.200 F 
ATOM     74  C   UNL A   1      43.604  22.424  25.193  1.00  0.00     0.200 A 
ATOM     75  F   UNL A   1      41.973  21.573  26.668  1.00  0.00    -0.200 F 
ATOM     76  F   UNL A   1      43.844  21.192  24.725  1.00  0.00    -0.200 F 
ENDBRANCH  42  66
BRANCH  54  77
ATOM     77  C   UNL A   1      45.685  30.158  28.886  1.00  0.00     0.064 A 
ATOM     78  C   UNL A   1      44.829  30.852  28.012  1.00  0.00     0.173 A 
ATOM     79  C   UNL A   1      47.047  30.485  28.848  1.00  0.00     0.173 A 
ATOM     80  F   UNL A   1      43.503  30.679  28.061  1.00  0.00    -0.203 F 
ATOM     81  C   UNL A   1      45.325  31.785  27.105  1.00  0.00     0.198 A 
ATOM     82  C   UNL A   1      47.534  31.448  27.969  1.00  0.00     0.198 A 
ATOM     83  F   UNL A   1      47.903  29.899  29.700  1.00  0.00    -0.203 F 
ATOM     84  F   UNL A   1      44.490  32.417  26.266  1.00  0.00    -0.200 F 
ATOM     85  C   UNL A   1      46.676  32.086  27.088  1.00  0.00     0.200 A 
ATOM     86  F   UNL A   1      48.833  31.774  27.992  1.00  0.00    -0.200 F 
ATOM     87  F   UNL A   1      47.150  33.011  26.241  1.00  0.00    -0.200 F 
ENDBRANCH  54  77
ENDBRANCH  28  29
ENDBRANCH  21  23
ENDBRANCH  20  21
ENDBRANCH   1  20
TORSDOF 11
ENDMDL
MODEL 2
REMARK VINA RESULT:     -13.2      3.306      8.695
REMARK SMILES Cc1noc2c1-c1c(c(C(=O)OCCOC(=O)c3ccc(-c4c5nc(c(-c6c(F)c(F)c(F)c(F)c6F)c6ccc([nH]6)c(-c6c(F)c(F)c(F)c(F)c6F)c6nc(c(-c7c(F)c(F)c(F)c(F)c7F)c7ccc4[nH]7)C=C6)C=C5)cc3)nn1C)CC2
REMARK SMILES IDX 14 1 13 2 12 3 10 4 11 5 9 6 1 7 2 8 3 9 6 10 4 11 5 12 7 13
REMARK SMILES IDX 85 14 8 15 82 16 84 17 81 18 83 19 15 20 16 21 17 22 18 23
REMARK SMILES IDX 19 24 80 25 20 26 79 27 21 28 22 29 23 30 73 31 24 32 78 33
REMARK SMILES IDX 72 34 74 35 25 36 77 37 71 38 70 39 26 41 58 42 38 43 57 44
REMARK SMILES IDX 39 45 42 46 56 47 75 48 40 49 41 50 55 52 76 53 43 54 27 55
REMARK SMILES IDX 28 56 36 57 29 58 30 59 34 60 37 61 31 62 32 63 35 64 33 65
REMARK SMILES IDX 59 66 60 67 68 68 61 69 62 70 66 71 69 72 63 73 64 74 67 75
REMARK SMILES IDX 65 76 44 77 45 78 53 79 46 80 47 81 51 82 54 83 48 84 49 85
REMARK SMILES IDX 52 86 50 87
REMARK H PARENT 74 40 42 51
REMARK Flexibility Score: inf
ROOT
ATOM      1  C   UNL A   1      39.049  21.321  25.833  1.00  0.00     0.275 C 
ENDROOT
BRANCH   1   2
ATOM      2  C   UNL A   1      37.770  22.086  25.530  1.00  0.00     0.275 C 
BRANCH   2   3
ATOM      3  O   UNL A   1      37.242  21.712  24.248  1.00  0.00    -0.457 OA
BRANCH   3   4
ATOM      4  C   UNL A   1      36.379  22.599  23.661  1.00  0.00     0.359 C 
ATOM      5  O   UNL A   1      36.689  23.314  22.710  1.00  0.00    -0.244 OA
BRANCH   4   6
ATOM      6  C   UNL A   1      35.031  22.552  24.256  1.00  0.00     0.174 A 
ATOM      7  C   UNL A   1      29.954  22.575  26.748  1.00  0.00     0.071 C 
ATOM      8  C   UNL A   1      30.800  23.761  26.496  1.00  0.00     0.090 A 
ATOM      9  N   UNL A   1      30.339  24.972  26.863  1.00  0.00    -0.084 NA
ATOM     10  C   UNL A   1      32.080  23.869  25.926  1.00  0.00     0.066 A 
ATOM     11  O   UNL A   1      31.331  25.885  26.533  1.00  0.00    -0.360 OA
ATOM     12  C   UNL A   1      32.364  25.212  25.988  1.00  0.00     0.146 A 
ATOM     13  C   UNL A   1      33.108  23.017  25.293  1.00  0.00     0.077 A 
ATOM     14  C   UNL A   1      33.555  25.934  25.477  1.00  0.00     0.084 C 
ATOM     15  C   UNL A   1      34.340  23.570  24.976  1.00  0.00     0.014 A 
ATOM     16  N   UNL A   1      33.150  21.726  24.877  1.00  0.00    -0.267 N 
ATOM     17  C   UNL A   1      34.756  24.962  25.381  1.00  0.00     0.048 C 
ATOM     18  N   UNL A   1      34.273  21.434  24.190  1.00  0.00    -0.165 NA
ATOM     19  C   UNL A   1      32.153  20.697  25.024  1.00  0.00     0.174 C 
ENDBRANCH   4   6
ENDBRANCH   3   4
ENDBRANCH   2   3
ENDBRANCH   1   2
BRANCH   1  20
ATOM     20  O   UNL A   1      39.889  22.046  26.732  1.00  0.00    -0.458 OA
BRANCH  20  21
ATOM     21  C   UNL A   1      41.107  22.379  26.246  1.00  0.00     0.338 C 
ATOM     22  O   UNL A   1      41.923  21.637  25.730  1.00  0.00    -0.246 OA
BRANCH  21  23
ATOM     23  C   UNL A   1      41.403  23.763  26.632  1.00  0.00     0.060 A 
ATOM     24  C   UNL A   1      42.423  23.988  27.562  1.00  0.00     0.016 A 
ATOM     25  C   UNL A   1      40.511  24.777  26.257  1.00  0.00     0.016 A 
ATOM     26  C   UNL A   1      42.471  25.208  28.211  1.00  0.00     0.010 A 
ATOM     27  C   UNL A   1      40.549  25.983  26.915  1.00  0.00     0.010 A 
ATOM     28  C   UNL A   1      41.492  26.166  27.924  1.00  0.00    -0.014 A 
BRANCH  28  29
ATOM     29  C   UNL A   1      41.524  27.432  28.630  1.00  0.00     0.031 A 
ATOM     30  C   UNL A   1      42.668  28.301  28.262  1.00  0.00     0.074 A 
ATOM     31  C   UNL A   1      40.499  27.841  29.403  1.00  0.00     0.049 A 
ATOM     32  N   UNL A   1      43.563  28.811  29.043  1.00  0.00    -0.248 NA
ATOM     33  C   UNL A   1      42.909  28.551  26.830  1.00  0.00     0.031 C 
ATOM     34  C   UNL A   1      39.196  27.194  29.584  1.00  0.00     0.029 A 
ATOM     35  N   UNL A   1      40.366  29.000  30.102  1.00  0.00    -0.354 N 
ATOM     36  C   UNL A   1      44.387  29.580  28.225  1.00  0.00     0.074 A 
ATOM     37  C   UNL A   1      44.031  29.269  26.868  1.00  0.00     0.031 C 
ATOM     38  C   UNL A   1      38.340  28.075  30.149  1.00  0.00     0.029 A 
ATOM     39  C   UNL A   1      39.060  29.296  30.470  1.00  0.00     0.049 A 
ATOM     40  H   UNL A   1      41.129  29.579  30.328  1.00  0.00     0.167 HD
ATOM     41  C   UNL A   1      45.142  30.588  28.738  1.00  0.00     0.037 A 
ATOM     42  C   UNL A   1      38.604  30.492  30.920  1.00  0.00     0.037 A 
ATOM     43  C   UNL A   1      45.340  30.424  30.155  1.00  0.00     0.049 A 
ATOM     44  C   UNL A   1      39.779  31.273  31.383  1.00  0.00     0.074 A 
ATOM     45  C   UNL A   1      45.912  29.444  30.943  1.00  0.00     0.029 A 
ATOM     46  N   UNL A   1      44.595  31.197  31.010  1.00  0.00    -0.354 N 
ATOM     47  N   UNL A   1      40.483  30.980  32.440  1.00  0.00    -0.248 NA
ATOM     48  C   UNL A   1      40.439  32.139  30.417  1.00  0.00     0.031 C 
ATOM     49  C   UNL A   1      45.101  29.389  32.114  1.00  0.00     0.029 A 
ATOM     50  C   UNL A   1      44.118  30.371  31.995  1.00  0.00     0.049 A 
ATOM     51  H   UNL A   1      44.432  32.165  30.931  1.00  0.00     0.167 HD
ATOM     52  C   UNL A   1      41.793  31.241  32.071  1.00  0.00     0.074 A 
ATOM     53  C   UNL A   1      41.697  32.046  30.857  1.00  0.00     0.031 C 
ATOM     54  C   UNL A   1      42.828  30.537  32.617  1.00  0.00     0.037 A 
BRANCH  41  55
ATOM     55  C   UNL A   1      45.376  31.900  28.034  1.00  0.00     0.064 A 
ATOM     56  C   UNL A   1      44.265  32.678  27.653  1.00  0.00     0.173 A 
ATOM     57  C   UNL A   1      46.606  32.266  27.444  1.00  0.00     0.173 A 
ATOM     58  F   UNL A   1      43.043  32.410  28.140  1.00  0.00    -0.203 F 
ATOM     59  C   UNL A   1      44.364  33.682  26.686  1.00  0.00     0.198 A 
ATOM     60  C   UNL A   1      46.711  33.306  26.520  1.00  0.00     0.198 A 
ATOM     61  F   UNL A   1      47.731  31.569  27.639  1.00  0.00    -0.203 F 
ATOM     62  F   UNL A   1      43.256  34.300  26.255  1.00  0.00    -0.200 F 
ATOM     63  C   UNL A   1      45.585  33.988  26.115  1.00  0.00     0.200 A 
ATOM     64  F   UNL A   1      47.900  33.575  25.966  1.00  0.00    -0.200 F 
ATOM     65  F   UNL A   1      45.670  34.901  25.138  1.00  0.00    -0.200 F 
ENDBRANCH  41  55
BRANCH  42  66
ATOM     66  C   UNL A   1      37.280  31.122  30.694  1.00  0.00     0.064 A 
ATOM     67  C   UNL A   1      36.435  31.429  31.775  1.00  0.00     0.173 A 
ATOM     68  C   UNL A   1      36.935  31.694  29.454  1.00  0.00     0.173 A 
ATOM     69  F   UNL A   1      36.711  30.962  33.002  1.00  0.00    -0.203 F 
ATOM     70  C   UNL A   1      35.335  32.280  31.629  1.00  0.00     0.198 A 
ATOM     71  C   UNL A   1      35.830  32.533  29.307  1.00  0.00     0.198 A 
ATOM     72  F   UNL A   1      37.715  31.530  28.376  1.00  0.00    -0.203 F 
ATOM     73  F   UNL A   1      34.596  32.606  32.699  1.00  0.00    -0.200 F 
ATOM     74  C   UNL A   1      35.040  32.841  30.398  1.00  0.00     0.200 A 
ATOM     75  F   UNL A   1      35.576  33.094  28.116  1.00  0.00    -0.200 F 
ATOM     76  F   UNL A   1      34.026  33.708  30.271  1.00  0.00    -0.200 F 
ENDBRANCH  42  66
BRANCH  54  77
ATOM     77  C   UNL A   1      42.534  29.684  33.818  1.00  0.00     0.064 A 
ATOM     78  C   UNL A   1      41.990  28.388  33.750  1.00  0.00     0.173 A 
ATOM     79  C   UNL A   1      42.933  30.149  35.078  1.00  0.00     0.173 A 
ATOM     80  F   UNL A   1      41.685  27.827  32.574  1.00  0.00    -0.203 F 
ATOM     81  C   UNL A   1      41.802  27.623  34.899  1.00  0.00     0.198 A 
ATOM     82  C   UNL A   1      42.782  29.365  36.218  1.00  0.00     0.198 A 
ATOM     83  F   UNL A   1      43.514  31.353  35.197  1.00  0.00    -0.203 F 
ATOM     84  F   UNL A   1      41.260  26.399  34.809  1.00  0.00    -0.200 F 
ATOM     85  C   UNL A   1      42.203  28.110  36.131  1.00  0.00     0.200 A 
ATOM     86  F   UNL A   1      43.220  29.819  37.401  1.00  0.00    -0.200 F 
ATOM     87  F   UNL A   1      42.057  27.359  37.232  1.00  0.00    -0.200 F 
ENDBRANCH  54  77
ENDBRANCH  28  29
ENDBRANCH  21  23
ENDBRANCH  20  21
ENDBRANCH   1  20
TORSDOF 11
ENDMDL
MODEL 3
REMARK VINA RESULT:     -13.2      4.101      9.187
REMARK SMILES Cc1noc2c1-c1c(c(C(=O)OCCOC(=O)c3ccc(-c4c5nc(c(-c6c(F)c(F)c(F)c(F)c6F)c6ccc([nH]6)c(-c6c(F)c(F)c(F)c(F)c6F)c6nc(c(-c7c(F)c(F)c(F)c(F)c7F)c7ccc4[nH]7)C=C6)C=C5)cc3)nn1C)CC2
REMARK SMILES IDX 14 1 13 2 12 3 10 4 11 5 9 6 1 7 2 8 3 9 6 10 4 11 5 12 7 13
REMARK SMILES IDX 85 14 8 15 82 16 84 17 81 18 83 19 15 20 16 21 17 22 18 23
REMARK SMILES IDX 19 24 80 25 20 26 79 27 21 28 22 29 23 30 73 31 24 32 78 33
REMARK SMILES IDX 72 34 74 35 25 36 77 37 71 38 70 39 26 41 58 42 38 43 57 44
REMARK SMILES IDX 39 45 42 46 56 47 75 48 40 49 41 50 55 52 76 53 43 54 27 55
REMARK SMILES IDX 28 56 36 57 29 58 30 59 34 60 37 61 31 62 32 63 35 64 33 65
REMARK SMILES IDX 59 66 60 67 68 68 61 69 62 70 66 71 69 72 63 73 64 74 67 75
REMARK SMILES IDX 65 76 44 77 45 78 53 79 46 80 47 81 51 82 54 83 48 84 49 85
REMARK SMILES IDX 52 86 50 87
REMARK H PARENT 74 40 42 51
REMARK Flexibility Score: inf
ROOT
ATOM      1  C   UNL A   1      44.463  18.840  25.217  1.00  0.00     0.275 C 
ENDROOT
BRANCH   1   2
ATOM      2  C   UNL A   1      43.163  18.505  25.933  1.00  0.00     0.275 C 
BRANCH   2   3
ATOM      3  O   UNL A   1      42.075  19.281  25.408  1.00  0.00    -0.457 OA
BRANCH   3   4
ATOM      4  C   UNL A   1      41.427  20.099  26.295  1.00  0.00     0.359 C 
ATOM      5  O   UNL A   1      41.982  20.629  27.255  1.00  0.00    -0.244 OA
BRANCH   4   6
ATOM      6  C   UNL A   1      40.014  20.318  25.931  1.00  0.00     0.174 A 
ATOM      7  C   UNL A   1      34.579  21.359  24.767  1.00  0.00     0.071 C 
ATOM      8  C   UNL A   1      35.595  22.369  25.133  1.00  0.00     0.090 A 
ATOM      9  N   UNL A   1      35.228  23.664  25.183  1.00  0.00    -0.084 NA
ATOM     10  C   UNL A   1      36.949  22.223  25.477  1.00  0.00     0.066 A 
ATOM     11  O   UNL A   1      36.356  24.375  25.568  1.00  0.00    -0.360 OA
ATOM     12  C   UNL A   1      37.368  23.503  25.751  1.00  0.00     0.146 A 
ATOM     13  C   UNL A   1      37.979  21.168  25.580  1.00  0.00     0.077 A 
ATOM     14  C   UNL A   1      38.726  23.980  26.109  1.00  0.00     0.084 C 
ATOM     15  C   UNL A   1      39.221  21.488  26.110  1.00  0.00     0.014 A 
ATOM     16  N   UNL A   1      38.038  19.858  25.231  1.00  0.00    -0.267 N 
ATOM     17  C   UNL A   1      39.539  22.823  26.736  1.00  0.00     0.048 C 
ATOM     18  N   UNL A   1      39.274  19.335  25.372  1.00  0.00    -0.165 NA
ATOM     19  C   UNL A   1      36.998  19.019  24.694  1.00  0.00     0.174 C 
ENDBRANCH   4   6
ENDBRANCH   3   4
ENDBRANCH   2   3
ENDBRANCH   1   2
BRANCH   1  20
ATOM     20  O   UNL A   1      44.855  20.192  25.455  1.00  0.00    -0.458 OA
BRANCH  20  21
ATOM     21  C   UNL A   1      44.676  21.040  24.417  1.00  0.00     0.338 C 
ATOM     22  O   UNL A   1      44.659  20.760  23.231  1.00  0.00    -0.246 OA
BRANCH  21  23
ATOM     23  C   UNL A   1      44.718  22.416  24.922  1.00  0.00     0.060 A 
ATOM     24  C   UNL A   1      45.593  22.711  25.972  1.00  0.00     0.016 A 
ATOM     25  C   UNL A   1      43.724  23.318  24.517  1.00  0.00     0.016 A 
ATOM     26  C   UNL A   1      45.389  23.869  26.700  1.00  0.00     0.010 A 
ATOM     27  C   UNL A   1      43.512  24.460  25.251  1.00  0.00     0.010 A 
ATOM     28  C   UNL A   1      44.309  24.695  26.368  1.00  0.00    -0.014 A 
BRANCH  28  29
ATOM     29  C   UNL A   1      44.077  25.891  27.153  1.00  0.00     0.031 A 
ATOM     30  C   UNL A   1      45.020  26.999  26.863  1.00  0.00     0.074 A 
ATOM     31  C   UNL A   1      42.987  26.029  27.933  1.00  0.00     0.049 A 
ATOM     32  N   UNL A   1      45.786  27.629  27.689  1.00  0.00    -0.248 NA
ATOM     33  C   UNL A   1      45.210  27.387  25.453  1.00  0.00     0.031 C 
ATOM     34  C   UNL A   1      41.844  25.118  28.050  1.00  0.00     0.029 A 
ATOM     35  N   UNL A   1      42.615  27.087  28.702  1.00  0.00    -0.354 N 
ATOM     36  C   UNL A   1      46.438  28.603  26.937  1.00  0.00     0.074 A 
ATOM     37  C   UNL A   1      46.160  28.315  25.556  1.00  0.00     0.031 C 
ATOM     38  C   UNL A   1      40.822  25.766  28.654  1.00  0.00     0.029 A 
ATOM     39  C   UNL A   1      41.274  27.084  29.065  1.00  0.00     0.049 A 
ATOM     40  H   UNL A   1      43.242  27.795  28.977  1.00  0.00     0.167 HD
ATOM     41  C   UNL A   1      46.968  29.708  27.526  1.00  0.00     0.037 A 
ATOM     42  C   UNL A   1      40.580  28.129  29.582  1.00  0.00     0.037 A 
ATOM     43  C   UNL A   1      47.189  29.495  28.933  1.00  0.00     0.049 A 
ATOM     44  C   UNL A   1      41.567  29.102  30.114  1.00  0.00     0.074 A 
ATOM     45  C   UNL A   1      47.947  28.603  29.667  1.00  0.00     0.029 A 
ATOM     46  N   UNL A   1      46.297  30.041  29.822  1.00  0.00    -0.354 N 
ATOM     47  N   UNL A   1      42.312  28.891  31.163  1.00  0.00    -0.248 NA
ATOM     48  C   UNL A   1      42.039  30.147  29.216  1.00  0.00     0.031 C 
ATOM     49  C   UNL A   1      47.160  28.307  30.818  1.00  0.00     0.029 A 
ATOM     50  C   UNL A   1      45.996  29.072  30.744  1.00  0.00     0.049 A 
ATOM     51  H   UNL A   1      45.939  30.958  29.802  1.00  0.00     0.167 HD
ATOM     52  C   UNL A   1      43.542  29.439  30.834  1.00  0.00     0.074 A 
ATOM     53  C   UNL A   1      43.287  30.286  29.672  1.00  0.00     0.031 C 
ATOM     54  C   UNL A   1      44.697  28.929  31.353  1.00  0.00     0.037 A 
BRANCH  41  55
ATOM     55  C   UNL A   1      46.929  31.084  26.911  1.00  0.00     0.064 A 
ATOM     56  C   UNL A   1      48.106  31.858  26.896  1.00  0.00     0.173 A 
ATOM     57  C   UNL A   1      45.736  31.786  26.630  1.00  0.00     0.173 A 
ATOM     58  F   UNL A   1      49.297  31.298  27.165  1.00  0.00    -0.203 F 
ATOM     59  C   UNL A   1      48.077  33.242  26.708  1.00  0.00     0.198 A 
ATOM     60  C   UNL A   1      45.717  33.159  26.387  1.00  0.00     0.198 A 
ATOM     61  F   UNL A   1      44.532  31.207  26.693  1.00  0.00    -0.203 F 
ATOM     62  F   UNL A   1      49.204  33.954  26.841  1.00  0.00    -0.200 F 
ATOM     63  C   UNL A   1      46.881  33.892  26.462  1.00  0.00     0.200 A 
ATOM     64  F   UNL A   1      44.547  33.771  26.169  1.00  0.00    -0.200 F 
ATOM     65  F   UNL A   1      46.841  35.226  26.351  1.00  0.00    -0.200 F 
ENDBRANCH  41  55
BRANCH  42  66
ATOM     66  C   UNL A   1      39.155  28.488  29.373  1.00  0.00     0.064 A 
ATOM     67  C   UNL A   1      38.282  28.634  30.465  1.00  0.00     0.173 A 
ATOM     68  C   UNL A   1      38.688  28.971  28.135  1.00  0.00     0.173 A 
ATOM     69  F   UNL A   1      38.662  28.239  31.690  1.00  0.00    -0.203 F 
ATOM     70  C   UNL A   1      37.036  29.253  30.332  1.00  0.00     0.198 A 
ATOM     71  C   UNL A   1      37.439  29.578  28.000  1.00  0.00     0.198 A 
ATOM     72  F   UNL A   1      39.470  28.953  27.046  1.00  0.00    -0.203 F 
ATOM     73  F   UNL A   1      36.262  29.438  31.411  1.00  0.00    -0.200 F 
ATOM     74  C   UNL A   1      36.620  29.736  29.102  1.00  0.00     0.200 A 
ATOM     75  F   UNL A   1      37.064  30.069  26.811  1.00  0.00    -0.200 F 
ATOM     76  F   UNL A   1      35.455  30.388  28.986  1.00  0.00    -0.200 F 
ENDBRANCH  42  66
BRANCH  54  77
ATOM     77  C   UNL A   1      44.580  27.956  32.492  1.00  0.00     0.064 A 
ATOM     78  C   UNL A   1      44.381  26.573  32.329  1.00  0.00     0.173 A 
ATOM     79  C   UNL A   1      44.800  28.426  33.793  1.00  0.00     0.173 A 
ATOM     80  F   UNL A   1      44.273  26.028  31.112  1.00  0.00    -0.203 F 
ATOM     81  C   UNL A   1      44.347  25.714  33.426  1.00  0.00     0.198 A 
ATOM     82  C   UNL A   1      44.806  27.560  34.882  1.00  0.00     0.198 A 
ATOM     83  F   UNL A   1      45.055  29.727  34.003  1.00  0.00    -0.203 F 
ATOM     84  F   UNL A   1      44.133  24.402  33.246  1.00  0.00    -0.200 F 
ATOM     85  C   UNL A   1      44.565  26.208  34.701  1.00  0.00     0.200 A 
ATOM     86  F   UNL A   1      45.069  28.034  36.108  1.00  0.00    -0.200 F 
ATOM     87  F   UNL A   1      44.569  25.377  35.753  1.00  0.00    -0.200 F 
ENDBRANCH  54  77
ENDBRANCH  28  29
ENDBRANCH  21  23
ENDBRANCH  20  21
ENDBRANCH   1  20
TORSDOF 11
ENDMDL
