MODEL 1
REMARK VINA RESULT:     -11.8      0.000      0.000
REMARK SMILES COc1cccc(S[C@H]2CC[C@@]([NH3+])(C(=O)OCCOC(=O)c3ccc(-c4c5nc(c(-c6c(F)c(F)c(F)c(F)c6F)c6ccc([nH]6)c(-c6c(F)c(F)c(F)c(F)c6F)c6nc(c(-c7c(F)c(F)c(F)c(F)c7F)c7ccc4[nH]7)C=C6)C=C5)cc3)C2)c1
REMARK SMILES IDX 17 1 16 2 14 3 15 4 12 5 9 6 10 7 85 8 11 9 8 10 7 11 3 12
REMARK SMILES IDX 4 13 86 14 5 15 6 16 2 17 1 18 13 19 18 23 19 24 20 25 21 26
REMARK SMILES IDX 22 27 23 28 84 29 24 30 83 31 25 32 26 33 27 34 77 35 28 36
REMARK SMILES IDX 82 37 76 38 78 39 29 40 81 41 75 42 74 43 30 45 62 46 42 47
REMARK SMILES IDX 61 48 43 49 46 50 60 51 79 52 44 53 45 54 59 56 80 57 47 58
REMARK SMILES IDX 31 59 32 60 40 61 33 62 34 63 38 64 41 65 35 66 36 67 39 68
REMARK SMILES IDX 37 69 63 70 64 71 72 72 65 73 66 74 70 75 73 76 67 77 68 78
REMARK SMILES IDX 71 79 69 80 48 81 49 82 57 83 50 84 51 85 55 86 58 87 52 88
REMARK SMILES IDX 53 89 56 90 54 91
REMARK H PARENT 13 20 13 21 13 22 78 44 46 55
REMARK Flexibility Score: inf
ROOT
ATOM      1  C   UNL A   1      31.778  28.763  27.258  1.00  0.00     0.274 C 
ENDROOT
BRANCH   1   2
ATOM      2  O   UNL A   1      31.323  27.750  26.333  1.00  0.00    -0.457 OA
BRANCH   2   3
ATOM      3  C   UNL A   1      32.177  26.721  26.096  1.00  0.00     0.368 C 
ATOM      4  O   UNL A   1      33.404  26.812  26.133  1.00  0.00    -0.245 OA
BRANCH   3   5
ATOM      5  C   UNL A   1      31.472  25.396  25.668  1.00  0.00     0.193 C 
ATOM      6  C   UNL A   1      30.034  25.637  23.681  1.00  0.00     0.059 C 
ATOM      7  C   UNL A   1      30.991  24.481  23.427  1.00  0.00     0.022 C 
ATOM      8  C   UNL A   1      30.021  25.698  25.214  1.00  0.00     0.095 C 
ATOM      9  C   UNL A   1      32.097  24.629  24.482  1.00  0.00     0.082 C 
BRANCH   6  10
ATOM     10  S   UNL A   1      30.713  27.185  22.993  1.00  0.00    -0.122 SA
BRANCH  10  11
ATOM     11  C   UNL A   1      29.435  28.416  23.135  1.00  0.00     0.011 A 
ATOM     12  C   UNL A   1      29.018  30.799  23.485  1.00  0.00     0.119 A 
ATOM     13  C   UNL A   1      27.650  30.567  23.357  1.00  0.00     0.046 A 
ATOM     14  C   UNL A   1      29.898  29.724  23.372  1.00  0.00     0.061 A 
ATOM     15  C   UNL A   1      27.172  29.276  23.126  1.00  0.00     0.005 A 
ATOM     16  C   UNL A   1      28.063  28.202  23.016  1.00  0.00     0.015 A 
BRANCH  12  17
ATOM     17  O   UNL A   1      29.373  32.101  23.711  1.00  0.00    -0.497 OA
ATOM     18  C   UNL A   1      28.799  33.079  22.849  1.00  0.00     0.278 C 
ENDBRANCH  12  17
ENDBRANCH  10  11
ENDBRANCH   6  10
BRANCH   5  19
ATOM     19  N   UNL A   1      31.453  24.532  26.876  1.00  0.00    -0.343 N 
ATOM     20  H   UNL A   1      32.107  23.759  26.751  1.00  0.00     0.345 HD
ATOM     21  H   UNL A   1      30.512  24.163  27.015  1.00  0.00     0.345 HD
ATOM     22  H   UNL A   1      31.727  25.081  27.691  1.00  0.00     0.345 HD
ENDBRANCH   5  19
ENDBRANCH   3   5
ENDBRANCH   2   3
ENDBRANCH   1   2
BRANCH   1  23
ATOM     23  C   UNL A   1      31.805  30.142  26.600  1.00  0.00     0.275 C 
BRANCH  23  24
ATOM     24  O   UNL A   1      33.170  30.539  26.408  1.00  0.00    -0.458 OA
BRANCH  24  25
ATOM     25  C   UNL A   1      33.630  31.489  27.251  1.00  0.00     0.338 C 
ATOM     26  O   UNL A   1      33.042  32.511  27.585  1.00  0.00    -0.246 OA
BRANCH  25  27
ATOM     27  C   UNL A   1      34.940  31.080  27.821  1.00  0.00     0.060 A 
ATOM     28  C   UNL A   1      35.157  29.785  28.301  1.00  0.00     0.016 A 
ATOM     29  C   UNL A   1      35.926  32.055  28.009  1.00  0.00     0.016 A 
ATOM     30  C   UNL A   1      36.294  29.495  29.055  1.00  0.00     0.010 A 
ATOM     31  C   UNL A   1      37.103  31.741  28.696  1.00  0.00     0.010 A 
ATOM     32  C   UNL A   1      37.289  30.465  29.248  1.00  0.00    -0.014 A 
BRANCH  32  33
ATOM     33  C   UNL A   1      38.543  30.140  29.978  1.00  0.00     0.031 A 
ATOM     34  C   UNL A   1      39.542  29.171  29.410  1.00  0.00     0.074 A 
ATOM     35  C   UNL A   1      38.759  30.683  31.191  1.00  0.00     0.049 A 
ATOM     36  N   UNL A   1      40.566  28.602  29.997  1.00  0.00    -0.248 NA
ATOM     37  C   UNL A   1      39.369  28.788  28.001  1.00  0.00     0.031 C 
ATOM     38  C   UNL A   1      37.889  31.660  31.847  1.00  0.00     0.029 A 
ATOM     39  N   UNL A   1      39.768  30.472  32.099  1.00  0.00    -0.354 N 
ATOM     40  C   UNL A   1      41.136  27.767  29.044  1.00  0.00     0.074 A 
ATOM     41  C   UNL A   1      40.345  27.903  27.839  1.00  0.00     0.031 C 
ATOM     42  C   UNL A   1      38.396  31.963  33.048  1.00  0.00     0.029 A 
ATOM     43  C   UNL A   1      39.575  31.136  33.284  1.00  0.00     0.049 A 
ATOM     44  H   UNL A   1      40.549  29.901  31.919  1.00  0.00     0.167 HD
ATOM     45  C   UNL A   1      42.218  26.960  29.172  1.00  0.00     0.037 A 
ATOM     46  C   UNL A   1      40.225  31.049  34.459  1.00  0.00     0.037 A 
ATOM     47  C   UNL A   1      43.019  26.848  30.367  1.00  0.00     0.049 A 
ATOM     48  C   UNL A   1      41.377  30.103  34.597  1.00  0.00     0.074 A 
ATOM     49  C   UNL A   1      44.157  26.086  30.574  1.00  0.00     0.029 A 
ATOM     50  N   UNL A   1      42.765  27.513  31.557  1.00  0.00    -0.354 N 
ATOM     51  N   UNL A   1      41.887  29.290  33.706  1.00  0.00    -0.248 NA
ATOM     52  C   UNL A   1      42.034  30.050  35.909  1.00  0.00     0.031 C 
ATOM     53  C   UNL A   1      44.569  26.261  31.901  1.00  0.00     0.029 A 
ATOM     54  C   UNL A   1      43.712  27.163  32.508  1.00  0.00     0.049 A 
ATOM     55  H   UNL A   1      42.022  28.143  31.704  1.00  0.00     0.167 HD
ATOM     56  C   UNL A   1      42.922  28.625  34.346  1.00  0.00     0.074 A 
ATOM     57  C   UNL A   1      42.982  29.148  35.696  1.00  0.00     0.031 C 
ATOM     58  C   UNL A   1      43.745  27.667  33.856  1.00  0.00     0.037 A 
BRANCH  45  59
ATOM     59  C   UNL A   1      42.598  26.106  28.000  1.00  0.00     0.064 A 
ATOM     60  C   UNL A   1      41.989  24.865  27.761  1.00  0.00     0.173 A 
ATOM     61  C   UNL A   1      43.523  26.577  27.054  1.00  0.00     0.173 A 
ATOM     62  F   UNL A   1      41.105  24.367  28.638  1.00  0.00    -0.203 F 
ATOM     63  C   UNL A   1      42.298  24.125  26.623  1.00  0.00     0.198 A 
ATOM     64  C   UNL A   1      43.812  25.844  25.906  1.00  0.00     0.198 A 
ATOM     65  F   UNL A   1      44.126  27.762  27.231  1.00  0.00    -0.203 F 
ATOM     66  F   UNL A   1      41.720  22.931  26.425  1.00  0.00    -0.200 F 
ATOM     67  C   UNL A   1      43.200  24.618  25.693  1.00  0.00     0.200 A 
ATOM     68  F   UNL A   1      44.674  26.329  25.001  1.00  0.00    -0.200 F 
ATOM     69  F   UNL A   1      43.481  23.912  24.589  1.00  0.00    -0.200 F 
ENDBRANCH  45  59
BRANCH  46  70
ATOM     70  C   UNL A   1      39.736  31.849  35.607  1.00  0.00     0.064 A 
ATOM     71  C   UNL A   1      40.252  33.122  35.872  1.00  0.00     0.173 A 
ATOM     72  C   UNL A   1      38.689  31.381  36.417  1.00  0.00     0.173 A 
ATOM     73  F   UNL A   1      41.267  33.599  35.137  1.00  0.00    -0.203 F 
ATOM     74  C   UNL A   1      39.730  33.906  36.899  1.00  0.00     0.198 A 
ATOM     75  C   UNL A   1      38.151  32.174  37.425  1.00  0.00     0.198 A 
ATOM     76  F   UNL A   1      38.163  30.167  36.198  1.00  0.00    -0.203 F 
ATOM     77  F   UNL A   1      40.249  35.117  37.142  1.00  0.00    -0.200 F 
ATOM     78  C   UNL A   1      38.672  33.437  37.664  1.00  0.00     0.200 A 
ATOM     79  F   UNL A   1      37.117  31.726  38.149  1.00  0.00    -0.200 F 
ATOM     80  F   UNL A   1      38.153  34.203  38.633  1.00  0.00    -0.200 F 
ENDBRANCH  46  70
BRANCH  58  81
ATOM     81  C   UNL A   1      44.786  27.130  34.792  1.00  0.00     0.064 A 
ATOM     82  C   UNL A   1      44.554  25.976  35.555  1.00  0.00     0.173 A 
ATOM     83  C   UNL A   1      46.023  27.774  34.931  1.00  0.00     0.173 A 
ATOM     84  F   UNL A   1      43.378  25.336  35.470  1.00  0.00    -0.203 F 
ATOM     85  C   UNL A   1      45.514  25.503  36.445  1.00  0.00     0.198 A 
ATOM     86  C   UNL A   1      46.990  27.285  35.805  1.00  0.00     0.198 A 
ATOM     87  F   UNL A   1      46.293  28.881  34.222  1.00  0.00    -0.203 F 
ATOM     88  F   UNL A   1      45.253  24.427  37.201  1.00  0.00    -0.200 F 
ATOM     89  C   UNL A   1      46.732  26.155  36.567  1.00  0.00     0.200 A 
ATOM     90  F   UNL A   1      48.168  27.914  35.919  1.00  0.00    -0.200 F 
ATOM     91  F   UNL A   1      47.652  25.703  37.429  1.00  0.00    -0.200 F 
ENDBRANCH  58  81
ENDBRANCH  32  33
ENDBRANCH  25  27
ENDBRANCH  24  25
ENDBRANCH  23  24
ENDBRANCH   1  23
TORSDOF 15
ENDMDL
MODEL 2
REMARK VINA RESULT:     -11.7      1.579      3.809
REMARK SMILES COc1cccc(S[C@H]2CC[C@@]([NH3+])(C(=O)OCCOC(=O)c3ccc(-c4c5nc(c(-c6c(F)c(F)c(F)c(F)c6F)c6ccc([nH]6)c(-c6c(F)c(F)c(F)c(F)c6F)c6nc(c(-c7c(F)c(F)c(F)c(F)c7F)c7ccc4[nH]7)C=C6)C=C5)cc3)C2)c1
REMARK SMILES IDX 17 1 16 2 14 3 15 4 12 5 9 6 10 7 85 8 11 9 8 10 7 11 3 12
REMARK SMILES IDX 4 13 86 14 5 15 6 16 2 17 1 18 13 19 18 23 19 24 20 25 21 26
REMARK SMILES IDX 22 27 23 28 84 29 24 30 83 31 25 32 26 33 27 34 77 35 28 36
REMARK SMILES IDX 82 37 76 38 78 39 29 40 81 41 75 42 74 43 30 45 62 46 42 47
REMARK SMILES IDX 61 48 43 49 46 50 60 51 79 52 44 53 45 54 59 56 80 57 47 58
REMARK SMILES IDX 31 59 32 60 40 61 33 62 34 63 38 64 41 65 35 66 36 67 39 68
REMARK SMILES IDX 37 69 63 70 64 71 72 72 65 73 66 74 70 75 73 76 67 77 68 78
REMARK SMILES IDX 71 79 69 80 48 81 49 82 57 83 50 84 51 85 55 86 58 87 52 88
REMARK SMILES IDX 53 89 56 90 54 91
REMARK H PARENT 13 20 13 21 13 22 78 44 46 55
REMARK Flexibility Score: inf
ROOT
ATOM      1  C   UNL A   1      31.376  29.510  24.484  1.00  0.00     0.274 C 
ENDROOT
BRANCH   1   2
ATOM      2  O   UNL A   1      30.898  28.198  24.851  1.00  0.00    -0.457 OA
BRANCH   2   3
ATOM      3  C   UNL A   1      30.407  27.430  23.844  1.00  0.00     0.368 C 
ATOM      4  O   UNL A   1      30.329  27.789  22.670  1.00  0.00    -0.245 OA
BRANCH   3   5
ATOM      5  C   UNL A   1      29.844  26.051  24.314  1.00  0.00     0.193 C 
ATOM      6  C   UNL A   1      31.584  24.350  24.702  1.00  0.00     0.059 C 
ATOM      7  C   UNL A   1      30.721  24.430  25.953  1.00  0.00     0.022 C 
ATOM      8  C   UNL A   1      30.632  24.904  23.633  1.00  0.00     0.095 C 
ATOM      9  C   UNL A   1      29.936  25.742  25.824  1.00  0.00     0.082 C 
BRANCH   6  10
ATOM     10  S   UNL A   1      33.043  25.433  24.869  1.00  0.00    -0.122 SA
BRANCH  10  11
ATOM     11  C   UNL A   1      34.468  24.445  24.465  1.00  0.00     0.011 A 
ATOM     12  C   UNL A   1      36.631  23.667  25.294  1.00  0.00     0.119 A 
ATOM     13  C   UNL A   1      36.804  22.932  24.122  1.00  0.00     0.046 A 
ATOM     14  C   UNL A   1      35.466  24.415  25.456  1.00  0.00     0.061 A 
ATOM     15  C   UNL A   1      35.826  22.953  23.126  1.00  0.00     0.005 A 
ATOM     16  C   UNL A   1      34.660  23.708  23.297  1.00  0.00     0.015 A 
BRANCH  12  17
ATOM     17  O   UNL A   1      37.653  23.573  26.199  1.00  0.00    -0.497 OA
ATOM     18  C   UNL A   1      38.528  22.457  26.064  1.00  0.00     0.278 C 
ENDBRANCH  12  17
ENDBRANCH  10  11
ENDBRANCH   6  10
BRANCH   5  19
ATOM     19  N   UNL A   1      28.425  26.018  23.876  1.00  0.00    -0.343 N 
ATOM     20  H   UNL A   1      28.035  25.092  24.057  1.00  0.00     0.345 HD
ATOM     21  H   UNL A   1      28.373  26.219  22.877  1.00  0.00     0.345 HD
ATOM     22  H   UNL A   1      27.893  26.718  24.392  1.00  0.00     0.345 HD
ENDBRANCH   5  19
ENDBRANCH   3   5
ENDBRANCH   2   3
ENDBRANCH   1   2
BRANCH   1  23
ATOM     23  C   UNL A   1      31.523  30.411  25.709  1.00  0.00     0.275 C 
BRANCH  23  24
ATOM     24  O   UNL A   1      32.865  30.308  26.204  1.00  0.00    -0.458 OA
BRANCH  24  25
ATOM     25  C   UNL A   1      33.269  31.304  27.022  1.00  0.00     0.338 C 
ATOM     26  O   UNL A   1      32.631  32.309  27.312  1.00  0.00    -0.246 OA
BRANCH  25  27
ATOM     27  C   UNL A   1      34.586  30.974  27.624  1.00  0.00     0.060 A 
ATOM     28  C   UNL A   1      34.886  29.680  28.064  1.00  0.00     0.016 A 
ATOM     29  C   UNL A   1      35.487  32.012  27.886  1.00  0.00     0.016 A 
ATOM     30  C   UNL A   1      36.016  29.447  28.848  1.00  0.00     0.010 A 
ATOM     31  C   UNL A   1      36.660  31.761  28.604  1.00  0.00     0.010 A 
ATOM     32  C   UNL A   1      36.925  30.481  29.115  1.00  0.00    -0.014 A 
BRANCH  32  33
ATOM     33  C   UNL A   1      38.174  30.223  29.878  1.00  0.00     0.031 A 
ATOM     34  C   UNL A   1      39.241  29.313  29.336  1.00  0.00     0.074 A 
ATOM     35  C   UNL A   1      38.327  30.773  31.098  1.00  0.00     0.049 A 
ATOM     36  N   UNL A   1      40.278  28.799  29.950  1.00  0.00    -0.248 NA
ATOM     37  C   UNL A   1      39.128  28.926  27.922  1.00  0.00     0.031 C 
ATOM     38  C   UNL A   1      37.386  31.698  31.732  1.00  0.00     0.029 A 
ATOM     39  N   UNL A   1      39.320  30.614  32.032  1.00  0.00    -0.354 N 
ATOM     40  C   UNL A   1      40.919  28.001  29.011  1.00  0.00     0.074 A 
ATOM     41  C   UNL A   1      40.156  28.098  27.785  1.00  0.00     0.031 C 
ATOM     42  C   UNL A   1      37.843  32.023  32.947  1.00  0.00     0.029 A 
ATOM     43  C   UNL A   1      39.058  31.262  33.213  1.00  0.00     0.049 A 
ATOM     44  H   UNL A   1      40.137  30.088  31.873  1.00  0.00     0.167 HD
ATOM     45  C   UNL A   1      42.041  27.254  29.167  1.00  0.00     0.037 A 
ATOM     46  C   UNL A   1      39.680  31.206  34.406  1.00  0.00     0.037 A 
ATOM     47  C   UNL A   1      42.813  27.182  30.383  1.00  0.00     0.049 A 
ATOM     48  C   UNL A   1      40.878  30.325  34.574  1.00  0.00     0.074 A 
ATOM     49  C   UNL A   1      43.986  26.483  30.620  1.00  0.00     0.029 A 
ATOM     50  N   UNL A   1      42.491  27.828  31.567  1.00  0.00    -0.354 N 
ATOM     51  N   UNL A   1      41.456  29.544  33.695  1.00  0.00    -0.248 NA
ATOM     52  C   UNL A   1      41.500  30.303  35.903  1.00  0.00     0.031 C 
ATOM     53  C   UNL A   1      44.350  26.675  31.958  1.00  0.00     0.029 A 
ATOM     54  C   UNL A   1      43.428  27.526  32.544  1.00  0.00     0.049 A 
ATOM     55  H   UNL A   1      41.710  28.415  31.695  1.00  0.00     0.167 HD
ATOM     56  C   UNL A   1      42.509  28.936  34.362  1.00  0.00     0.074 A 
ATOM     57  C   UNL A   1      42.503  29.456  35.715  1.00  0.00     0.031 C 
ATOM     58  C   UNL A   1      43.397  28.027  33.893  1.00  0.00     0.037 A 
BRANCH  45  59
ATOM     59  C   UNL A   1      42.499  26.426  28.004  1.00  0.00     0.064 A 
ATOM     60  C   UNL A   1      41.988  25.143  27.763  1.00  0.00     0.173 A 
ATOM     61  C   UNL A   1      43.399  26.963  27.068  1.00  0.00     0.173 A 
ATOM     62  F   UNL A   1      41.132  24.583  28.630  1.00  0.00    -0.203 F 
ATOM     63  C   UNL A   1      42.367  24.424  26.632  1.00  0.00     0.198 A 
ATOM     64  C   UNL A   1      43.758  26.249  25.928  1.00  0.00     0.198 A 
ATOM     65  F   UNL A   1      43.909  28.190  27.248  1.00  0.00    -0.203 F 
ATOM     66  F   UNL A   1      41.883  23.190  26.431  1.00  0.00    -0.200 F 
ATOM     67  C   UNL A   1      43.243  24.980  25.711  1.00  0.00     0.200 A 
ATOM     68  F   UNL A   1      44.593  26.795  25.032  1.00  0.00    -0.200 F 
ATOM     69  F   UNL A   1      43.590  24.293  24.614  1.00  0.00    -0.200 F 
ENDBRANCH  45  59
BRANCH  46  70
ATOM     70  C   UNL A   1      39.115  31.974  35.542  1.00  0.00     0.064 A 
ATOM     71  C   UNL A   1      38.289  31.358  36.488  1.00  0.00     0.173 A 
ATOM     72  C   UNL A   1      39.454  33.321  35.741  1.00  0.00     0.173 A 
ATOM     73  F   UNL A   1      37.922  30.078  36.325  1.00  0.00    -0.203 F 
ATOM     74  C   UNL A   1      37.830  32.059  37.601  1.00  0.00     0.198 A 
ATOM     75  C   UNL A   1      39.018  34.013  36.866  1.00  0.00     0.198 A 
ATOM     76  F   UNL A   1      40.246  33.951  34.860  1.00  0.00    -0.203 F 
ATOM     77  F   UNL A   1      37.028  31.453  38.488  1.00  0.00    -0.200 F 
ATOM     78  C   UNL A   1      38.206  33.381  37.796  1.00  0.00     0.200 A 
ATOM     79  F   UNL A   1      39.399  35.282  37.060  1.00  0.00    -0.200 F 
ATOM     80  F   UNL A   1      37.787  34.045  38.881  1.00  0.00    -0.200 F 
ENDBRANCH  46  70
BRANCH  58  81
ATOM     81  C   UNL A   1      44.439  27.543  34.856  1.00  0.00     0.064 A 
ATOM     82  C   UNL A   1      45.643  28.240  35.037  1.00  0.00     0.173 A 
ATOM     83  C   UNL A   1      44.236  26.373  35.600  1.00  0.00     0.173 A 
ATOM     84  F   UNL A   1      45.891  29.354  34.333  1.00  0.00    -0.203 F 
ATOM     85  C   UNL A   1      46.618  27.765  35.910  1.00  0.00     0.198 A 
ATOM     86  C   UNL A   1      45.204  25.913  36.489  1.00  0.00     0.198 A 
ATOM     87  F   UNL A   1      43.100  25.672  35.462  1.00  0.00    -0.203 F 
ATOM     88  F   UNL A   1      47.783  28.418  36.031  1.00  0.00    -0.200 F 
ATOM     89  C   UNL A   1      46.397  26.605  36.637  1.00  0.00     0.200 A 
ATOM     90  F   UNL A   1      44.987  24.794  37.194  1.00  0.00    -0.200 F 
ATOM     91  F   UNL A   1      47.340  26.145  37.471  1.00  0.00    -0.200 F 
ENDBRANCH  58  81
ENDBRANCH  32  33
ENDBRANCH  25  27
ENDBRANCH  24  25
ENDBRANCH  23  24
ENDBRANCH   1  23
TORSDOF 15
ENDMDL
MODEL 3
REMARK VINA RESULT:     -11.6      5.084     10.409
REMARK SMILES COc1cccc(S[C@H]2CC[C@@]([NH3+])(C(=O)OCCOC(=O)c3ccc(-c4c5nc(c(-c6c(F)c(F)c(F)c(F)c6F)c6ccc([nH]6)c(-c6c(F)c(F)c(F)c(F)c6F)c6nc(c(-c7c(F)c(F)c(F)c(F)c7F)c7ccc4[nH]7)C=C6)C=C5)cc3)C2)c1
REMARK SMILES IDX 17 1 16 2 14 3 15 4 12 5 9 6 10 7 85 8 11 9 8 10 7 11 3 12
REMARK SMILES IDX 4 13 86 14 5 15 6 16 2 17 1 18 13 19 18 23 19 24 20 25 21 26
REMARK SMILES IDX 22 27 23 28 84 29 24 30 83 31 25 32 26 33 27 34 77 35 28 36
REMARK SMILES IDX 82 37 76 38 78 39 29 40 81 41 75 42 74 43 30 45 62 46 42 47
REMARK SMILES IDX 61 48 43 49 46 50 60 51 79 52 44 53 45 54 59 56 80 57 47 58
REMARK SMILES IDX 31 59 32 60 40 61 33 62 34 63 38 64 41 65 35 66 36 67 39 68
REMARK SMILES IDX 37 69 63 70 64 71 72 72 65 73 66 74 70 75 73 76 67 77 68 78
REMARK SMILES IDX 71 79 69 80 48 81 49 82 57 83 50 84 51 85 55 86 58 87 52 88
REMARK SMILES IDX 53 89 56 90 54 91
REMARK H PARENT 13 20 13 21 13 22 78 44 46 55
REMARK Flexibility Score: inf
ROOT
ATOM      1  C   UNL A   1      36.779  22.489  23.662  1.00  0.00     0.274 C 
ENDROOT
BRANCH   1   2
ATOM      2  O   UNL A   1      35.344  22.597  23.540  1.00  0.00    -0.457 OA
BRANCH   2   3
ATOM      3  C   UNL A   1      34.770  23.690  24.108  1.00  0.00     0.368 C 
ATOM      4  O   UNL A   1      35.197  24.257  25.113  1.00  0.00    -0.245 OA
BRANCH   3   5
ATOM      5  C   UNL A   1      33.436  24.132  23.428  1.00  0.00     0.193 C 
ATOM      6  C   UNL A   1      31.676  22.408  23.485  1.00  0.00     0.059 C 
ATOM      7  C   UNL A   1      31.090  23.693  24.052  1.00  0.00     0.022 C 
ATOM      8  C   UNL A   1      32.835  22.944  22.634  1.00  0.00     0.095 C 
ATOM      9  C   UNL A   1      32.297  24.588  24.365  1.00  0.00     0.082 C 
BRANCH   6  10
ATOM     10  S   UNL A   1      32.317  21.356  24.832  1.00  0.00    -0.122 SA
BRANCH  10  11
ATOM     11  C   UNL A   1      32.769  19.798  24.098  1.00  0.00     0.011 A 
ATOM     12  C   UNL A   1      34.316  17.912  24.261  1.00  0.00     0.119 A 
ATOM     13  C   UNL A   1      33.674  17.307  23.183  1.00  0.00     0.046 A 
ATOM     14  C   UNL A   1      33.858  19.151  24.710  1.00  0.00     0.061 A 
ATOM     15  C   UNL A   1      32.594  17.936  22.561  1.00  0.00     0.005 A 
ATOM     16  C   UNL A   1      32.143  19.179  23.017  1.00  0.00     0.015 A 
BRANCH  12  17
ATOM     17  O   UNL A   1      35.361  17.207  24.792  1.00  0.00    -0.497 OA
ATOM     18  C   UNL A   1      35.083  15.876  25.218  1.00  0.00     0.278 C 
ENDBRANCH  12  17
ENDBRANCH  10  11
ENDBRANCH   6  10
BRANCH   5  19
ATOM     19  N   UNL A   1      33.796  25.231  22.496  1.00  0.00    -0.343 N 
ATOM     20  H   UNL A   1      33.632  26.129  22.952  1.00  0.00     0.345 HD
ATOM     21  H   UNL A   1      33.221  25.166  21.656  1.00  0.00     0.345 HD
ATOM     22  H   UNL A   1      34.780  25.153  22.242  1.00  0.00     0.345 HD
ENDBRANCH   5  19
ENDBRANCH   3   5
ENDBRANCH   2   3
ENDBRANCH   1   2
BRANCH   1  23
ATOM     23  C   UNL A   1      37.175  21.263  24.484  1.00  0.00     0.275 C 
BRANCH  23  24
ATOM     24  O   UNL A   1      37.574  21.690  25.793  1.00  0.00    -0.458 OA
BRANCH  24  25
ATOM     25  C   UNL A   1      38.872  21.483  26.109  1.00  0.00     0.338 C 
ATOM     26  O   UNL A   1      39.515  20.461  25.907  1.00  0.00    -0.246 OA
BRANCH  25  27
ATOM     27  C   UNL A   1      39.470  22.727  26.661  1.00  0.00     0.060 A 
ATOM     28  C   UNL A   1      39.089  23.991  26.198  1.00  0.00     0.016 A 
ATOM     29  C   UNL A   1      40.538  22.619  27.558  1.00  0.00     0.016 A 
ATOM     30  C   UNL A   1      39.833  25.119  26.540  1.00  0.00     0.010 A 
ATOM     31  C   UNL A   1      41.233  23.763  27.964  1.00  0.00     0.010 A 
ATOM     32  C   UNL A   1      40.905  25.022  27.439  1.00  0.00    -0.014 A 
BRANCH  32  33
ATOM     33  C   UNL A   1      41.650  26.232  27.876  1.00  0.00     0.031 A 
ATOM     34  C   UNL A   1      40.976  27.312  28.676  1.00  0.00     0.074 A 
ATOM     35  C   UNL A   1      42.934  26.387  27.501  1.00  0.00     0.049 A 
ATOM     36  N   UNL A   1      41.396  28.523  28.948  1.00  0.00    -0.248 NA
ATOM     37  C   UNL A   1      39.658  26.993  29.244  1.00  0.00     0.031 C 
ATOM     38  C   UNL A   1      43.719  25.405  26.750  1.00  0.00     0.029 A 
ATOM     39  N   UNL A   1      43.798  27.438  27.682  1.00  0.00    -0.354 N 
ATOM     40  C   UNL A   1      40.381  29.122  29.683  1.00  0.00     0.074 A 
ATOM     41  C   UNL A   1      39.325  28.142  29.818  1.00  0.00     0.031 C 
ATOM     42  C   UNL A   1      44.944  25.898  26.532  1.00  0.00     0.029 A 
ATOM     43  C   UNL A   1      45.003  27.261  27.048  1.00  0.00     0.049 A 
ATOM     44  H   UNL A   1      43.577  28.238  28.210  1.00  0.00     0.167 HD
ATOM     45  C   UNL A   1      40.342  30.378  30.193  1.00  0.00     0.037 A 
ATOM     46  C   UNL A   1      46.021  28.116  26.838  1.00  0.00     0.037 A 
ATOM     47  C   UNL A   1      41.408  31.342  30.079  1.00  0.00     0.049 A 
ATOM     48  C   UNL A   1      45.928  29.518  27.353  1.00  0.00     0.074 A 
ATOM     49  C   UNL A   1      41.472  32.624  30.600  1.00  0.00     0.029 A 
ATOM     50  N   UNL A   1      42.597  31.132  29.397  1.00  0.00    -0.354 N 
ATOM     51  N   UNL A   1      44.952  30.089  28.015  1.00  0.00    -0.248 NA
ATOM     52  C   UNL A   1      47.070  30.399  27.080  1.00  0.00     0.031 C 
ATOM     53  C   UNL A   1      42.681  33.204  30.198  1.00  0.00     0.029 A 
ATOM     54  C   UNL A   1      43.390  32.269  29.463  1.00  0.00     0.049 A 
ATOM     55  H   UNL A   1      42.842  30.298  28.933  1.00  0.00     0.167 HD
ATOM     56  C   UNL A   1      45.358  31.397  28.235  1.00  0.00     0.074 A 
ATOM     57  C   UNL A   1      46.680  31.527  27.657  1.00  0.00     0.031 C 
ATOM     58  C   UNL A   1      44.691  32.397  28.860  1.00  0.00     0.037 A 
BRANCH  45  59
ATOM     59  C   UNL A   1      39.093  30.806  30.906  1.00  0.00     0.064 A 
ATOM     60  C   UNL A   1      38.935  30.631  32.288  1.00  0.00     0.173 A 
ATOM     61  C   UNL A   1      38.079  31.481  30.207  1.00  0.00     0.173 A 
ATOM     62  F   UNL A   1      39.872  29.987  32.999  1.00  0.00    -0.203 F 
ATOM     63  C   UNL A   1      37.802  31.109  32.943  1.00  0.00     0.198 A 
ATOM     64  C   UNL A   1      36.959  31.976  30.870  1.00  0.00     0.198 A 
ATOM     65  F   UNL A   1      38.187  31.682  28.885  1.00  0.00    -0.203 F 
ATOM     66  F   UNL A   1      37.660  30.912  34.262  1.00  0.00    -0.200 F 
ATOM     67  C   UNL A   1      36.821  31.788  32.237  1.00  0.00     0.200 A 
ATOM     68  F   UNL A   1      36.019  32.645  30.188  1.00  0.00    -0.200 F 
ATOM     69  F   UNL A   1      35.742  32.264  32.874  1.00  0.00    -0.200 F 
ENDBRANCH  45  59
BRANCH  46  70
ATOM     70  C   UNL A   1      47.184  27.658  26.040  1.00  0.00     0.064 A 
ATOM     71  C   UNL A   1      47.174  27.734  24.643  1.00  0.00     0.173 A 
ATOM     72  C   UNL A   1      48.355  27.205  26.667  1.00  0.00     0.173 A 
ATOM     73  F   UNL A   1      46.069  28.139  24.001  1.00  0.00    -0.203 F 
ATOM     74  C   UNL A   1      48.300  27.383  23.900  1.00  0.00     0.198 A 
ATOM     75  C   UNL A   1      49.487  26.881  25.926  1.00  0.00     0.198 A 
ATOM     76  F   UNL A   1      48.409  27.118  28.005  1.00  0.00    -0.203 F 
ATOM     77  F   UNL A   1      48.264  27.451  22.562  1.00  0.00    -0.200 F 
ATOM     78  C   UNL A   1      49.459  26.971  24.543  1.00  0.00     0.200 A 
ATOM     79  F   UNL A   1      50.610  26.502  26.552  1.00  0.00    -0.200 F 
ATOM     80  F   UNL A   1      50.549  26.662  23.829  1.00  0.00    -0.200 F 
ENDBRANCH  46  70
BRANCH  58  81
ATOM     81  C   UNL A   1      45.391  33.719  28.952  1.00  0.00     0.064 A 
ATOM     82  C   UNL A   1      46.247  34.019  30.021  1.00  0.00     0.173 A 
ATOM     83  C   UNL A   1      45.200  34.698  27.966  1.00  0.00     0.173 A 
ATOM     84  F   UNL A   1      46.445  33.122  30.998  1.00  0.00    -0.203 F 
ATOM     85  C   UNL A   1      46.867  35.262  30.114  1.00  0.00     0.198 A 
ATOM     86  C   UNL A   1      45.839  35.932  28.050  1.00  0.00     0.198 A 
ATOM     87  F   UNL A   1      44.391  34.458  26.923  1.00  0.00    -0.203 F 
ATOM     88  F   UNL A   1      47.642  35.547  31.170  1.00  0.00    -0.200 F 
ATOM     89  C   UNL A   1      46.665  36.216  29.127  1.00  0.00     0.200 A 
ATOM     90  F   UNL A   1      45.647  36.851  27.093  1.00  0.00    -0.200 F 
ATOM     91  F   UNL A   1      47.256  37.415  29.222  1.00  0.00    -0.200 F 
ENDBRANCH  58  81
ENDBRANCH  32  33
ENDBRANCH  25  27
ENDBRANCH  24  25
ENDBRANCH  23  24
ENDBRANCH   1  23
TORSDOF 15
ENDMDL
