MODEL 1
REMARK VINA RESULT:     -13.2      0.000      0.000
REMARK SMILES O=C(OCCOC(=O)[C@H]1C[C@H]2CCCC[C@@H]2[N@@H+]1C1CCS(=O)(=O)CC1)c1ccc(-c2c3nc(c(-c4c(F)c(F)c(F)c(F)c4F)c4ccc([nH]4)c(-c4c(F)c(F)c(F)c(F)c4F)c4nc(c(-c5c(F)c(F)c(F)c(F)c5F)c5ccc2[nH]5)C=C4)C=C3)cc1
REMARK SMILES IDX 4 1 3 2 2 3 1 4 26 5 27 6 88 7 28 8 87 9 29 10 30 11 31 12
REMARK SMILES IDX 81 13 32 14 86 15 80 16 82 17 33 18 85 19 79 20 78 21 34 23
REMARK SMILES IDX 66 24 46 25 65 26 47 27 50 28 64 29 83 30 48 31 49 32 63 34
REMARK SMILES IDX 84 35 51 36 35 37 36 38 44 39 37 40 38 41 42 42 45 43 39 44
REMARK SMILES IDX 40 45 43 46 41 47 67 48 68 49 76 50 69 51 70 52 74 53 77 54
REMARK SMILES IDX 71 55 72 56 75 57 73 58 52 59 53 60 61 61 54 62 55 63 59 64
REMARK SMILES IDX 62 65 56 66 57 67 60 68 58 69 5 70 6 71 7 72 8 73 9 74 10 75
REMARK SMILES IDX 17 76 11 77 16 78 12 80 15 81 13 82 14 83 18 84 19 85 25 86
REMARK SMILES IDX 20 87 24 88 21 89 22 90 23 91
REMARK H PARENT 82 22 50 33 17 79
REMARK Flexibility Score: inf
ROOT
ATOM      1  C   UNL A   1      31.507  32.182  26.889  1.00  0.00     0.275 C 
ENDROOT
BRANCH   1   2
ATOM      2  O   UNL A   1      32.659  33.022  26.903  1.00  0.00    -0.458 OA
BRANCH   2   3
ATOM      3  C   UNL A   1      33.475  33.273  27.945  1.00  0.00     0.338 C 
ATOM      4  O   UNL A   1      33.103  34.099  28.780  1.00  0.00    -0.246 OA
BRANCH   3   5
ATOM      5  C   UNL A   1      34.818  32.620  28.164  1.00  0.00     0.060 A 
ATOM      6  C   UNL A   1      36.086  33.200  28.301  1.00  0.00     0.016 A 
ATOM      7  C   UNL A   1      34.753  31.242  28.349  1.00  0.00     0.016 A 
ATOM      8  C   UNL A   1      37.221  32.457  28.687  1.00  0.00     0.010 A 
ATOM      9  C   UNL A   1      35.850  30.537  28.843  1.00  0.00     0.010 A 
ATOM     10  C   UNL A   1      37.108  31.129  29.078  1.00  0.00    -0.014 A 
BRANCH  10  11
ATOM     11  C   UNL A   1      38.193  30.386  29.833  1.00  0.00     0.031 A 
ATOM     12  C   UNL A   1      38.603  30.883  31.205  1.00  0.00     0.074 A 
ATOM     13  C   UNL A   1      38.989  29.444  29.257  1.00  0.00     0.049 A 
ATOM     14  N   UNL A   1      39.710  30.675  31.874  1.00  0.00    -0.248 NA
ATOM     15  C   UNL A   1      37.699  31.850  31.856  1.00  0.00     0.031 C 
ATOM     16  C   UNL A   1      38.885  28.909  27.896  1.00  0.00     0.029 A 
ATOM     17  N   UNL A   1      40.138  28.835  29.733  1.00  0.00    -0.354 N 
ATOM     18  C   UNL A   1      39.610  31.502  32.981  1.00  0.00     0.074 A 
ATOM     19  C   UNL A   1      38.524  32.417  32.722  1.00  0.00     0.031 C 
ATOM     20  C   UNL A   1      39.951  28.136  27.622  1.00  0.00     0.029 A 
ATOM     21  C   UNL A   1      40.826  28.108  28.780  1.00  0.00     0.049 A 
ATOM     22  H   UNL A   1      40.440  28.914  30.667  1.00  0.00     0.167 HD
ATOM     23  C   UNL A   1      40.186  31.379  34.200  1.00  0.00     0.037 A 
ATOM     24  C   UNL A   1      42.031  27.503  28.818  1.00  0.00     0.037 A 
ATOM     25  C   UNL A   1      41.139  30.361  34.526  1.00  0.00     0.049 A 
ATOM     26  C   UNL A   1      42.731  27.383  30.142  1.00  0.00     0.074 A 
ATOM     27  C   UNL A   1      41.631  29.997  35.766  1.00  0.00     0.029 A 
ATOM     28  N   UNL A   1      41.727  29.524  33.594  1.00  0.00    -0.354 N 
ATOM     29  N   UNL A   1      42.465  27.983  31.275  1.00  0.00    -0.248 NA
ATOM     30  C   UNL A   1      43.828  26.407  30.226  1.00  0.00     0.031 C 
ATOM     31  C   UNL A   1      42.530  28.941  35.581  1.00  0.00     0.029 A 
ATOM     32  C   UNL A   1      42.574  28.634  34.231  1.00  0.00     0.049 A 
ATOM     33  H   UNL A   1      41.568  29.557  32.623  1.00  0.00     0.167 HD
ATOM     34  C   UNL A   1      43.285  27.388  32.221  1.00  0.00     0.074 A 
ATOM     35  C   UNL A   1      44.082  26.401  31.526  1.00  0.00     0.031 C 
ATOM     36  C   UNL A   1      43.335  27.619  33.555  1.00  0.00     0.037 A 
BRANCH  23  37
ATOM     37  C   UNL A   1      39.628  32.241  35.297  1.00  0.00     0.064 A 
ATOM     38  C   UNL A   1      40.111  33.551  35.492  1.00  0.00     0.173 A 
ATOM     39  C   UNL A   1      38.632  31.779  36.164  1.00  0.00     0.173 A 
ATOM     40  F   UNL A   1      41.061  34.051  34.686  1.00  0.00    -0.203 F 
ATOM     41  C   UNL A   1      39.681  34.327  36.560  1.00  0.00     0.198 A 
ATOM     42  C   UNL A   1      38.164  32.583  37.203  1.00  0.00     0.198 A 
ATOM     43  F   UNL A   1      38.119  30.549  36.015  1.00  0.00    -0.203 F 
ATOM     44  F   UNL A   1      40.241  35.526  36.781  1.00  0.00    -0.200 F 
ATOM     45  C   UNL A   1      38.703  33.845  37.412  1.00  0.00     0.200 A 
ATOM     46  F   UNL A   1      37.200  32.129  38.016  1.00  0.00    -0.200 F 
ATOM     47  F   UNL A   1      38.286  34.594  38.442  1.00  0.00    -0.200 F 
ENDBRANCH  23  37
BRANCH  24  48
ATOM     48  C   UNL A   1      42.612  26.836  27.617  1.00  0.00     0.064 A 
ATOM     49  C   UNL A   1      42.366  25.478  27.364  1.00  0.00     0.173 A 
ATOM     50  C   UNL A   1      43.500  27.504  26.759  1.00  0.00     0.173 A 
ATOM     51  F   UNL A   1      41.553  24.786  28.176  1.00  0.00    -0.203 F 
ATOM     52  C   UNL A   1      43.018  24.802  26.334  1.00  0.00     0.198 A 
ATOM     53  C   UNL A   1      44.135  26.830  25.713  1.00  0.00     0.198 A 
ATOM     54  F   UNL A   1      43.785  28.799  26.956  1.00  0.00    -0.203 F 
ATOM     55  F   UNL A   1      42.820  23.487  26.168  1.00  0.00    -0.200 F 
ATOM     56  C   UNL A   1      43.905  25.477  25.510  1.00  0.00     0.200 A 
ATOM     57  F   UNL A   1      44.997  27.482  24.918  1.00  0.00    -0.200 F 
ATOM     58  F   UNL A   1      44.552  24.820  24.537  1.00  0.00    -0.200 F 
ENDBRANCH  24  48
BRANCH  36  59
ATOM     59  C   UNL A   1      44.192  26.713  34.383  1.00  0.00     0.064 A 
ATOM     60  C   UNL A   1      43.716  25.499  34.894  1.00  0.00     0.173 A 
ATOM     61  C   UNL A   1      45.528  27.060  34.642  1.00  0.00     0.173 A 
ATOM     62  F   UNL A   1      42.441  25.133  34.690  1.00  0.00    -0.203 F 
ATOM     63  C   UNL A   1      44.538  24.679  35.662  1.00  0.00     0.198 A 
ATOM     64  C   UNL A   1      46.357  26.220  35.377  1.00  0.00     0.198 A 
ATOM     65  F   UNL A   1      46.033  28.211  34.171  1.00  0.00    -0.203 F 
ATOM     66  F   UNL A   1      44.045  23.550  36.190  1.00  0.00    -0.200 F 
ATOM     67  C   UNL A   1      45.858  25.035  35.894  1.00  0.00     0.200 A 
ATOM     68  F   UNL A   1      47.637  26.558  35.585  1.00  0.00    -0.200 F 
ATOM     69  F   UNL A   1      46.650  24.237  36.623  1.00  0.00    -0.200 F 
ENDBRANCH  36  59
ENDBRANCH  10  11
ENDBRANCH   3   5
ENDBRANCH   2   3
ENDBRANCH   1   2
BRANCH   1  70
ATOM     70  C   UNL A   1      31.779  30.794  26.288  1.00  0.00     0.274 C 
BRANCH  70  71
ATOM     71  O   UNL A   1      32.166  29.768  27.239  1.00  0.00    -0.458 OA
BRANCH  71  72
ATOM     72  C   UNL A   1      31.611  28.521  27.049  1.00  0.00     0.365 C 
ATOM     73  O   UNL A   1      31.070  27.893  27.952  1.00  0.00    -0.245 OA
BRANCH  72  74
ATOM     74  C   UNL A   1      31.914  27.961  25.610  1.00  0.00     0.296 C 
ATOM     75  C   UNL A   1      33.262  27.214  25.734  1.00  0.00     0.087 C 
ATOM     76  N   UNL A   1      30.907  26.928  25.180  1.00  0.00    -0.318 N 
ATOM     77  C   UNL A   1      32.906  25.762  25.446  1.00  0.00     0.054 C 
ATOM     78  C   UNL A   1      31.423  25.679  25.782  1.00  0.00     0.188 C 
ATOM     79  H   UNL A   1      30.005  27.283  25.498  1.00  0.00     0.349 HD
ATOM     80  C   UNL A   1      33.692  24.659  26.125  1.00  0.00     0.010 C 
ATOM     81  C   UNL A   1      30.792  24.328  25.431  1.00  0.00     0.065 C 
ATOM     82  C   UNL A   1      33.124  23.317  25.645  1.00  0.00     0.001 C 
ATOM     83  C   UNL A   1      31.634  23.171  25.972  1.00  0.00     0.006 C 
BRANCH  76  84
ATOM     84  C   UNL A   1      30.439  26.753  23.780  1.00  0.00     0.186 C 
ATOM     85  C   UNL A   1      28.938  26.839  23.542  1.00  0.00     0.081 C 
ATOM     86  C   UNL A   1      31.098  27.431  22.554  1.00  0.00     0.081 C 
ATOM     87  C   UNL A   1      28.372  28.232  23.493  1.00  0.00     0.143 C 
ATOM     88  C   UNL A   1      30.921  28.917  22.422  1.00  0.00     0.143 C 
ATOM     89  S   UNL A   1      29.297  29.514  22.704  1.00  0.00     0.150 S 
ATOM     90  O   UNL A   1      29.473  30.578  23.681  1.00  0.00    -0.229 OA
ATOM     91  O   UNL A   1      28.693  29.760  21.412  1.00  0.00    -0.229 OA
ENDBRANCH  76  84
ENDBRANCH  72  74
ENDBRANCH  71  72
ENDBRANCH  70  71
ENDBRANCH   1  70
TORSDOF 12
ENDMDL
MODEL 2
REMARK VINA RESULT:     -12.9      1.275      7.573
REMARK SMILES O=C(OCCOC(=O)[C@H]1C[C@H]2CCCC[C@@H]2[N@@H+]1C1CCS(=O)(=O)CC1)c1ccc(-c2c3nc(c(-c4c(F)c(F)c(F)c(F)c4F)c4ccc([nH]4)c(-c4c(F)c(F)c(F)c(F)c4F)c4nc(c(-c5c(F)c(F)c(F)c(F)c5F)c5ccc2[nH]5)C=C4)C=C3)cc1
REMARK SMILES IDX 4 1 3 2 2 3 1 4 26 5 27 6 88 7 28 8 87 9 29 10 30 11 31 12
REMARK SMILES IDX 81 13 32 14 86 15 80 16 82 17 33 18 85 19 79 20 78 21 34 23
REMARK SMILES IDX 66 24 46 25 65 26 47 27 50 28 64 29 83 30 48 31 49 32 63 34
REMARK SMILES IDX 84 35 51 36 35 37 36 38 44 39 37 40 38 41 42 42 45 43 39 44
REMARK SMILES IDX 40 45 43 46 41 47 67 48 68 49 76 50 69 51 70 52 74 53 77 54
REMARK SMILES IDX 71 55 72 56 75 57 73 58 52 59 53 60 61 61 54 62 55 63 59 64
REMARK SMILES IDX 62 65 56 66 57 67 60 68 58 69 5 70 6 71 7 72 8 73 9 74 10 75
REMARK SMILES IDX 17 76 11 77 16 78 12 80 15 81 13 82 14 83 18 84 19 85 25 86
REMARK SMILES IDX 20 87 24 88 21 89 22 90 23 91
REMARK H PARENT 82 22 50 33 17 79
REMARK Flexibility Score: inf
ROOT
ATOM      1  C   UNL A   1      31.298  32.065  26.922  1.00  0.00     0.275 C 
ENDROOT
BRANCH   1   2
ATOM      2  O   UNL A   1      32.074  33.261  26.914  1.00  0.00    -0.458 OA
BRANCH   2   3
ATOM      3  C   UNL A   1      32.885  33.715  27.889  1.00  0.00     0.338 C 
ATOM      4  O   UNL A   1      32.468  34.627  28.604  1.00  0.00    -0.246 OA
BRANCH   3   5
ATOM      5  C   UNL A   1      34.273  33.193  28.167  1.00  0.00     0.060 A 
ATOM      6  C   UNL A   1      35.516  33.822  28.012  1.00  0.00     0.016 A 
ATOM      7  C   UNL A   1      34.296  31.931  28.751  1.00  0.00     0.016 A 
ATOM      8  C   UNL A   1      36.716  33.258  28.494  1.00  0.00     0.010 A 
ATOM      9  C   UNL A   1      35.463  31.433  29.328  1.00  0.00     0.010 A 
ATOM     10  C   UNL A   1      36.703  32.103  29.265  1.00  0.00    -0.014 A 
BRANCH  10  11
ATOM     11  C   UNL A   1      37.882  31.646  30.103  1.00  0.00     0.031 A 
ATOM     12  C   UNL A   1      38.721  30.481  29.614  1.00  0.00     0.074 A 
ATOM     13  C   UNL A   1      38.092  32.060  31.382  1.00  0.00     0.049 A 
ATOM     14  N   UNL A   1      39.514  29.682  30.283  1.00  0.00    -0.248 NA
ATOM     15  C   UNL A   1      38.542  30.082  28.205  1.00  0.00     0.031 C 
ATOM     16  C   UNL A   1      37.322  33.064  32.124  1.00  0.00     0.029 A 
ATOM     17  N   UNL A   1      38.977  31.591  32.338  1.00  0.00    -0.354 N 
ATOM     18  C   UNL A   1      39.880  28.708  29.370  1.00  0.00     0.074 A 
ATOM     19  C   UNL A   1      38.991  28.838  28.240  1.00  0.00     0.031 C 
ATOM     20  C   UNL A   1      37.703  33.074  33.414  1.00  0.00     0.029 A 
ATOM     21  C   UNL A   1      38.745  32.083  33.609  1.00  0.00     0.049 A 
ATOM     22  H   UNL A   1      39.707  30.963  32.131  1.00  0.00     0.167 HD
ATOM     23  C   UNL A   1      40.991  27.933  29.340  1.00  0.00     0.037 A 
ATOM     24  C   UNL A   1      39.289  31.763  34.801  1.00  0.00     0.037 A 
ATOM     25  C   UNL A   1      41.978  27.924  30.376  1.00  0.00     0.049 A 
ATOM     26  C   UNL A   1      40.496  30.868  34.821  1.00  0.00     0.074 A 
ATOM     27  C   UNL A   1      43.238  27.355  30.371  1.00  0.00     0.029 A 
ATOM     28  N   UNL A   1      41.817  28.541  31.605  1.00  0.00    -0.354 N 
ATOM     29  N   UNL A   1      40.999  30.137  33.859  1.00  0.00    -0.248 NA
ATOM     30  C   UNL A   1      41.285  30.848  36.062  1.00  0.00     0.031 C 
ATOM     31  C   UNL A   1      43.838  27.621  31.607  1.00  0.00     0.029 A 
ATOM     32  C   UNL A   1      42.960  28.376  32.366  1.00  0.00     0.049 A 
ATOM     33  H   UNL A   1      41.009  29.025  31.894  1.00  0.00     0.167 HD
ATOM     34  C   UNL A   1      42.207  29.655  34.340  1.00  0.00     0.074 A 
ATOM     35  C   UNL A   1      42.349  30.150  35.692  1.00  0.00     0.031 C 
ATOM     36  C   UNL A   1      43.129  28.903  33.694  1.00  0.00     0.037 A 
BRANCH  23  37
ATOM     37  C   UNL A   1      41.272  27.211  28.051  1.00  0.00     0.064 A 
ATOM     38  C   UNL A   1      40.906  25.859  27.896  1.00  0.00     0.173 A 
ATOM     39  C   UNL A   1      41.910  27.840  26.977  1.00  0.00     0.173 A 
ATOM     40  F   UNL A   1      40.284  25.205  28.891  1.00  0.00    -0.203 F 
ATOM     41  C   UNL A   1      41.246  25.146  26.754  1.00  0.00     0.198 A 
ATOM     42  C   UNL A   1      42.200  27.135  25.810  1.00  0.00     0.198 A 
ATOM     43  F   UNL A   1      42.262  29.132  27.059  1.00  0.00    -0.203 F 
ATOM     44  F   UNL A   1      40.981  23.833  26.684  1.00  0.00    -0.200 F 
ATOM     45  C   UNL A   1      41.887  25.786  25.708  1.00  0.00     0.200 A 
ATOM     46  F   UNL A   1      42.800  27.756  24.786  1.00  0.00    -0.200 F 
ATOM     47  F   UNL A   1      42.213  25.100  24.605  1.00  0.00    -0.200 F 
ENDBRANCH  23  37
BRANCH  24  48
ATOM     48  C   UNL A   1      38.812  32.382  36.072  1.00  0.00     0.064 A 
ATOM     49  C   UNL A   1      39.198  33.685  36.421  1.00  0.00     0.173 A 
ATOM     50  C   UNL A   1      38.053  31.659  37.005  1.00  0.00     0.173 A 
ATOM     51  F   UNL A   1      39.954  34.405  35.579  1.00  0.00    -0.203 F 
ATOM     52  C   UNL A   1      38.887  34.224  37.669  1.00  0.00     0.198 A 
ATOM     53  C   UNL A   1      37.723  32.210  38.245  1.00  0.00     0.198 A 
ATOM     54  F   UNL A   1      37.665  30.405  36.735  1.00  0.00    -0.203 F 
ATOM     55  F   UNL A   1      39.337  35.442  38.001  1.00  0.00    -0.200 F 
ATOM     56  C   UNL A   1      38.151  33.485  38.582  1.00  0.00     0.200 A 
ATOM     57  F   UNL A   1      37.015  31.493  39.132  1.00  0.00    -0.200 F 
ATOM     58  F   UNL A   1      37.876  33.994  39.792  1.00  0.00    -0.200 F 
ENDBRANCH  24  48
BRANCH  36  59
ATOM     59  C   UNL A   1      44.434  28.662  34.385  1.00  0.00     0.064 A 
ATOM     60  C   UNL A   1      45.511  29.552  34.277  1.00  0.00     0.173 A 
ATOM     61  C   UNL A   1      44.595  27.528  35.198  1.00  0.00     0.173 A 
ATOM     62  F   UNL A   1      45.413  30.639  33.497  1.00  0.00    -0.203 F 
ATOM     63  C   UNL A   1      46.712  29.299  34.932  1.00  0.00     0.198 A 
ATOM     64  C   UNL A   1      45.784  27.299  35.882  1.00  0.00     0.198 A 
ATOM     65  F   UNL A   1      43.592  26.647  35.338  1.00  0.00    -0.203 F 
ATOM     66  F   UNL A   1      47.749  30.133  34.768  1.00  0.00    -0.200 F 
ATOM     67  C   UNL A   1      46.845  28.180  35.740  1.00  0.00     0.200 A 
ATOM     68  F   UNL A   1      45.902  26.225  36.675  1.00  0.00    -0.200 F 
ATOM     69  F   UNL A   1      47.999  27.945  36.379  1.00  0.00    -0.200 F 
ENDBRANCH  36  59
ENDBRANCH  10  11
ENDBRANCH   3   5
ENDBRANCH   2   3
ENDBRANCH   1   2
BRANCH   1  70
ATOM     70  C   UNL A   1      31.977  30.899  26.187  1.00  0.00     0.274 C 
BRANCH  70  71
ATOM     71  O   UNL A   1      31.627  29.573  26.666  1.00  0.00    -0.458 OA
BRANCH  71  72
ATOM     72  C   UNL A   1      32.646  28.645  26.684  1.00  0.00     0.365 C 
ATOM     73  O   UNL A   1      33.482  28.599  27.578  1.00  0.00    -0.245 OA
BRANCH  72  74
ATOM     74  C   UNL A   1      32.689  27.800  25.357  1.00  0.00     0.296 C 
ATOM     75  C   UNL A   1      33.755  26.707  25.600  1.00  0.00     0.087 C 
ATOM     76  N   UNL A   1      31.397  27.069  25.108  1.00  0.00    -0.318 N 
ATOM     77  C   UNL A   1      32.965  25.406  25.558  1.00  0.00     0.054 C 
ATOM     78  C   UNL A   1      31.545  25.833  25.908  1.00  0.00     0.188 C 
ATOM     79  H   UNL A   1      30.662  27.728  25.365  1.00  0.00     0.349 HD
ATOM     80  C   UNL A   1      33.420  24.238  26.409  1.00  0.00     0.010 C 
ATOM     81  C   UNL A   1      30.521  24.702  25.788  1.00  0.00     0.065 C 
ATOM     82  C   UNL A   1      32.449  23.074  26.159  1.00  0.00     0.001 C 
ATOM     83  C   UNL A   1      31.004  23.443  26.511  1.00  0.00     0.006 C 
BRANCH  76  84
ATOM     84  C   UNL A   1      30.824  26.827  23.758  1.00  0.00     0.186 C 
ATOM     85  C   UNL A   1      29.306  26.782  23.655  1.00  0.00     0.081 C 
ATOM     86  C   UNL A   1      31.311  27.533  22.469  1.00  0.00     0.081 C 
ATOM     87  C   UNL A   1      28.621  28.121  23.640  1.00  0.00     0.143 C 
ATOM     88  C   UNL A   1      30.997  28.996  22.334  1.00  0.00     0.143 C 
ATOM     89  S   UNL A   1      29.359  29.460  22.754  1.00  0.00     0.150 S 
ATOM     90  O   UNL A   1      29.529  30.555  23.697  1.00  0.00    -0.229 OA
ATOM     91  O   UNL A   1      28.624  29.628  21.519  1.00  0.00    -0.229 OA
ENDBRANCH  76  84
ENDBRANCH  72  74
ENDBRANCH  71  72
ENDBRANCH  70  71
ENDBRANCH   1  70
TORSDOF 12
ENDMDL
MODEL 3
REMARK VINA RESULT:     -12.8      5.115     10.468
REMARK SMILES O=C(OCCOC(=O)[C@H]1C[C@H]2CCCC[C@@H]2[N@@H+]1C1CCS(=O)(=O)CC1)c1ccc(-c2c3nc(c(-c4c(F)c(F)c(F)c(F)c4F)c4ccc([nH]4)c(-c4c(F)c(F)c(F)c(F)c4F)c4nc(c(-c5c(F)c(F)c(F)c(F)c5F)c5ccc2[nH]5)C=C4)C=C3)cc1
REMARK SMILES IDX 4 1 3 2 2 3 1 4 26 5 27 6 88 7 28 8 87 9 29 10 30 11 31 12
REMARK SMILES IDX 81 13 32 14 86 15 80 16 82 17 33 18 85 19 79 20 78 21 34 23
REMARK SMILES IDX 66 24 46 25 65 26 47 27 50 28 64 29 83 30 48 31 49 32 63 34
REMARK SMILES IDX 84 35 51 36 35 37 36 38 44 39 37 40 38 41 42 42 45 43 39 44
REMARK SMILES IDX 40 45 43 46 41 47 67 48 68 49 76 50 69 51 70 52 74 53 77 54
REMARK SMILES IDX 71 55 72 56 75 57 73 58 52 59 53 60 61 61 54 62 55 63 59 64
REMARK SMILES IDX 62 65 56 66 57 67 60 68 58 69 5 70 6 71 7 72 8 73 9 74 10 75
REMARK SMILES IDX 17 76 11 77 16 78 12 80 15 81 13 82 14 83 18 84 19 85 25 86
REMARK SMILES IDX 20 87 24 88 21 89 22 90 23 91
REMARK H PARENT 82 22 50 33 17 79
REMARK Flexibility Score: inf
ROOT
ATOM      1  C   UNL A   1      38.469  19.774  24.993  1.00  0.00     0.275 C 
ENDROOT
BRANCH   1   2
ATOM      2  O   UNL A   1      39.225  19.840  26.200  1.00  0.00    -0.458 OA
BRANCH   2   3
ATOM      3  C   UNL A   1      40.432  20.409  26.379  1.00  0.00     0.338 C 
ATOM      4  O   UNL A   1      41.421  19.800  25.969  1.00  0.00    -0.246 OA
BRANCH   3   5
ATOM      5  C   UNL A   1      40.665  21.739  27.053  1.00  0.00     0.060 A 
ATOM      6  C   UNL A   1      41.618  22.103  28.015  1.00  0.00     0.016 A 
ATOM      7  C   UNL A   1      39.867  22.768  26.563  1.00  0.00     0.016 A 
ATOM      8  C   UNL A   1      41.823  23.442  28.408  1.00  0.00     0.010 A 
ATOM      9  C   UNL A   1      40.153  24.098  26.868  1.00  0.00     0.010 A 
ATOM     10  C   UNL A   1      41.174  24.485  27.761  1.00  0.00    -0.014 A 
BRANCH  10  11
ATOM     11  C   UNL A   1      41.602  25.935  27.878  1.00  0.00     0.031 A 
ATOM     12  C   UNL A   1      43.043  26.300  27.582  1.00  0.00     0.074 A 
ATOM     13  C   UNL A   1      40.833  26.894  28.463  1.00  0.00     0.049 A 
ATOM     14  N   UNL A   1      43.734  27.349  27.953  1.00  0.00    -0.248 NA
ATOM     15  C   UNL A   1      43.853  25.284  26.883  1.00  0.00     0.031 C 
ATOM     16  C   UNL A   1      39.464  26.745  28.968  1.00  0.00     0.029 A 
ATOM     17  N   UNL A   1      41.151  28.190  28.834  1.00  0.00    -0.354 N 
ATOM     18  C   UNL A   1      45.030  27.077  27.545  1.00  0.00     0.074 A 
ATOM     19  C   UNL A   1      45.076  25.674  27.207  1.00  0.00     0.031 C 
ATOM     20  C   UNL A   1      39.099  27.849  29.643  1.00  0.00     0.029 A 
ATOM     21  C   UNL A   1      40.198  28.798  29.628  1.00  0.00     0.049 A 
ATOM     22  H   UNL A   1      41.983  28.638  28.557  1.00  0.00     0.167 HD
ATOM     23  C   UNL A   1      46.032  27.934  27.241  1.00  0.00     0.037 A 
ATOM     24  C   UNL A   1      40.206  29.974  30.290  1.00  0.00     0.037 A 
ATOM     25  C   UNL A   1      45.938  29.354  27.405  1.00  0.00     0.049 A 
ATOM     26  C   UNL A   1      41.325  30.940  30.018  1.00  0.00     0.074 A 
ATOM     27  C   UNL A   1      46.787  30.340  26.940  1.00  0.00     0.029 A 
ATOM     28  N   UNL A   1      44.905  29.989  28.074  1.00  0.00    -0.354 N 
ATOM     29  N   UNL A   1      42.456  30.740  29.391  1.00  0.00    -0.248 NA
ATOM     30  C   UNL A   1      41.115  32.333  30.442  1.00  0.00     0.031 C 
ATOM     31  C   UNL A   1      46.272  31.578  27.340  1.00  0.00     0.029 A 
ATOM     32  C   UNL A   1      45.090  31.359  28.028  1.00  0.00     0.049 A 
ATOM     33  H   UNL A   1      44.153  29.533  28.517  1.00  0.00     0.167 HD
ATOM     34  C   UNL A   1      43.041  31.990  29.255  1.00  0.00     0.074 A 
ATOM     35  C   UNL A   1      42.157  32.940  29.893  1.00  0.00     0.031 C 
ATOM     36  C   UNL A   1      44.192  32.314  28.619  1.00  0.00     0.037 A 
BRANCH  23  37
ATOM     37  C   UNL A   1      47.211  27.357  26.509  1.00  0.00     0.064 A 
ATOM     38  C   UNL A   1      48.366  26.963  27.214  1.00  0.00     0.173 A 
ATOM     39  C   UNL A   1      47.214  27.203  25.118  1.00  0.00     0.173 A 
ATOM     40  F   UNL A   1      48.419  27.080  28.550  1.00  0.00    -0.203 F 
ATOM     41  C   UNL A   1      49.502  26.522  26.549  1.00  0.00     0.198 A 
ATOM     42  C   UNL A   1      48.338  26.708  24.459  1.00  0.00     0.198 A 
ATOM     43  F   UNL A   1      46.135  27.541  24.396  1.00  0.00    -0.203 F 
ATOM     44  F   UNL A   1      50.621  26.260  27.241  1.00  0.00    -0.200 F 
ATOM     45  C   UNL A   1      49.486  26.388  25.171  1.00  0.00     0.200 A 
ATOM     46  F   UNL A   1      48.318  26.554  23.128  1.00  0.00    -0.200 F 
ATOM     47  F   UNL A   1      50.581  25.960  24.529  1.00  0.00    -0.200 F 
ENDBRANCH  23  37
BRANCH  24  48
ATOM     48  C   UNL A   1      39.074  30.389  31.167  1.00  0.00     0.064 A 
ATOM     49  C   UNL A   1      37.979  31.089  30.636  1.00  0.00     0.173 A 
ATOM     50  C   UNL A   1      39.104  30.190  32.556  1.00  0.00     0.173 A 
ATOM     51  F   UNL A   1      37.920  31.336  29.319  1.00  0.00    -0.203 F 
ATOM     52  C   UNL A   1      36.985  31.614  31.461  1.00  0.00     0.198 A 
ATOM     53  C   UNL A   1      38.095  30.698  33.377  1.00  0.00     0.198 A 
ATOM     54  F   UNL A   1      40.129  29.540  33.123  1.00  0.00    -0.203 F 
ATOM     55  F   UNL A   1      35.994  32.344  30.930  1.00  0.00    -0.200 F 
ATOM     56  C   UNL A   1      37.045  31.421  32.832  1.00  0.00     0.200 A 
ATOM     57  F   UNL A   1      38.155  30.516  34.705  1.00  0.00    -0.200 F 
ATOM     58  F   UNL A   1      36.104  31.951  33.627  1.00  0.00    -0.200 F 
ENDBRANCH  24  48
BRANCH  36  59
ATOM     59  C   UNL A   1      44.512  33.768  28.467  1.00  0.00     0.064 A 
ATOM     60  C   UNL A   1      44.073  34.518  27.368  1.00  0.00     0.173 A 
ATOM     61  C   UNL A   1      45.252  34.428  29.462  1.00  0.00     0.173 A 
ATOM     62  F   UNL A   1      43.380  33.928  26.382  1.00  0.00    -0.203 F 
ATOM     63  C   UNL A   1      44.389  35.868  27.256  1.00  0.00     0.198 A 
ATOM     64  C   UNL A   1      45.532  35.786  29.365  1.00  0.00     0.198 A 
ATOM     65  F   UNL A   1      45.693  33.755  30.537  1.00  0.00    -0.203 F 
ATOM     66  F   UNL A   1      44.008  36.553  26.169  1.00  0.00    -0.200 F 
ATOM     67  C   UNL A   1      45.109  36.503  28.257  1.00  0.00     0.200 A 
ATOM     68  F   UNL A   1      46.214  36.400  30.343  1.00  0.00    -0.200 F 
ATOM     69  F   UNL A   1      45.401  37.806  28.152  1.00  0.00    -0.200 F 
ENDBRANCH  36  59
ENDBRANCH  10  11
ENDBRANCH   3   5
ENDBRANCH   2   3
ENDBRANCH   1   2
BRANCH   1  70
ATOM     70  C   UNL A   1      37.240  20.697  24.998  1.00  0.00     0.274 C 
BRANCH  70  71
ATOM     71  O   UNL A   1      37.454  22.025  24.451  1.00  0.00    -0.458 OA
BRANCH  71  72
ATOM     72  C   UNL A   1      36.438  22.533  23.672  1.00  0.00     0.365 C 
ATOM     73  O   UNL A   1      36.625  22.960  22.539  1.00  0.00    -0.245 OA
BRANCH  72  74
ATOM     74  C   UNL A   1      35.089  22.649  24.475  1.00  0.00     0.296 C 
ATOM     75  C   UNL A   1      35.108  24.059  25.109  1.00  0.00     0.087 C 
ATOM     76  N   UNL A   1      33.887  22.618  23.570  1.00  0.00    -0.318 N 
ATOM     77  C   UNL A   1      33.943  24.778  24.443  1.00  0.00     0.054 C 
ATOM     78  C   UNL A   1      33.755  24.026  23.131  1.00  0.00     0.188 C 
ATOM     79  H   UNL A   1      34.098  21.910  22.867  1.00  0.00     0.349 HD
ATOM     80  C   UNL A   1      34.028  26.273  24.218  1.00  0.00     0.010 C 
ATOM     81  C   UNL A   1      32.528  24.481  22.337  1.00  0.00     0.065 C 
ATOM     82  C   UNL A   1      32.723  26.719  23.544  1.00  0.00     0.001 C 
ATOM     83  C   UNL A   1      32.490  26.005  22.208  1.00  0.00     0.006 C 
BRANCH  76  84
ATOM     84  C   UNL A   1      32.588  21.995  23.932  1.00  0.00     0.186 C 
ATOM     85  C   UNL A   1      32.030  20.959  22.966  1.00  0.00     0.081 C 
ATOM     86  C   UNL A   1      32.238  21.476  25.349  1.00  0.00     0.081 C 
ATOM     87  C   UNL A   1      32.646  19.590  23.062  1.00  0.00     0.143 C 
ATOM     88  C   UNL A   1      32.956  20.242  25.817  1.00  0.00     0.143 C 
ATOM     89  S   UNL A   1      33.058  18.937  24.651  1.00  0.00     0.150 S 
ATOM     90  O   UNL A   1      34.472  18.596  24.620  1.00  0.00    -0.229 OA
ATOM     91  O   UNL A   1      32.048  17.961  25.000  1.00  0.00    -0.229 OA
ENDBRANCH  76  84
ENDBRANCH  72  74
ENDBRANCH  71  72
ENDBRANCH  70  71
ENDBRANCH   1  70
TORSDOF 12
ENDMDL
