MODEL 1
REMARK VINA RESULT:     -13.8      0.000      0.000
REMARK SMILES CC1(C)[C@H](O)CC[C@]2(C)[C@@H]1CC[C@@]1(C)Oc3oc(C(=O)OCCOC(=O)c4ccc(-c5c6nc(c(-c7c(F)c(F)c(F)c(F)c7F)c7ccc([nH]7)c(-c7c(F)c(F)c(F)c(F)c7F)c7nc(c(-c8c(F)c(F)c(F)c(F)c8F)c8ccc5[nH]8)C=C7)C=C6)cc4)cc(=O)c3C[C@H]21
REMARK SMILES IDX 23 1 22 2 21 3 19 4 20 5 18 6 1 7 2 8 3 9 4 10 10 11 6 12
REMARK SMILES IDX 8 13 11 14 7 15 9 16 95 17 12 18 13 19 94 20 14 21 15 22
REMARK SMILES IDX 93 23 16 24 91 25 17 26 90 27 92 28 5 29 24 31 25 32 26 33
REMARK SMILES IDX 27 34 28 35 89 36 29 37 88 38 30 39 31 40 32 41 82 42 33 43
REMARK SMILES IDX 87 44 81 45 83 46 34 47 86 48 80 49 79 50 35 52 67 53 47 54
REMARK SMILES IDX 66 55 48 56 51 57 65 58 84 59 49 60 50 61 64 63 85 64 52 65
REMARK SMILES IDX 36 66 37 67 45 68 38 69 39 70 43 71 46 72 40 73 41 74 44 75
REMARK SMILES IDX 42 76 68 77 69 78 77 79 70 80 71 81 75 82 78 83 72 84 73 85
REMARK SMILES IDX 76 86 74 87 53 88 54 89 62 90 55 91 56 92 60 93 63 94 57 95
REMARK SMILES IDX 58 96 61 97 59 98
REMARK H PARENT 5 30 83 51 51 62
REMARK Flexibility Score: inf
ROOT
ATOM      1  C   UNL A   1      37.548  21.048  24.589  1.00  0.00     0.275 C 
ENDROOT
BRANCH   1   2
ATOM      2  C   UNL A   1      36.524  19.983  24.984  1.00  0.00     0.275 C 
BRANCH   2   3
ATOM      3  O   UNL A   1      35.328  20.643  25.424  1.00  0.00    -0.456 OA
BRANCH   3   4
ATOM      4  C   UNL A   1      34.120  20.329  24.877  1.00  0.00     0.374 C 
ATOM      5  O   UNL A   1      33.639  19.209  24.794  1.00  0.00    -0.242 OA
BRANCH   4   6
ATOM      6  C   UNL A   1      33.433  21.612  24.521  1.00  0.00     0.219 A 
ATOM      7  C   UNL A   1      31.800  30.633  26.018  1.00  0.00     0.014 C 
ATOM      8  C   UNL A   1      32.771  29.421  25.887  1.00  0.00    -0.006 C 
ATOM      9  C   UNL A   1      34.098  29.890  26.537  1.00  0.00     0.014 C 
ATOM     10  C   UNL A   1      32.106  28.344  27.012  1.00  0.00     0.120 C 
ATOM     11  C   UNL A   1      32.714  28.810  24.183  1.00  0.00     0.004 C 
ATOM     12  C   UNL A   1      30.851  27.672  26.513  1.00  0.00     0.033 C 
ATOM     13  C   UNL A   1      32.481  27.367  24.521  1.00  0.00    -0.022 C 
ATOM     14  C   UNL A   1      33.594  28.765  22.866  1.00  0.00     0.009 C 
ATOM     15  C   UNL A   1      30.999  27.572  25.043  1.00  0.00     0.010 C 
ATOM     16  C   UNL A   1      34.047  27.179  25.086  1.00  0.00     0.012 C 
ATOM     17  C   UNL A   1      32.439  26.089  23.742  1.00  0.00     0.044 C 
ATOM     18  C   UNL A   1      33.905  27.321  22.108  1.00  0.00     0.049 C 
ATOM     19  C   UNL A   1      32.976  26.029  22.348  1.00  0.00     0.113 C 
ATOM     20  C   UNL A   1      31.316  25.106  23.983  1.00  0.00     0.055 C 
ATOM     21  C   UNL A   1      31.886  26.000  21.262  1.00  0.00     0.057 C 
ATOM     22  O   UNL A   1      33.665  24.669  22.316  1.00  0.00    -0.458 OA
ATOM     23  C   UNL A   1      31.928  23.781  23.808  1.00  0.00     0.081 A 
ATOM     24  C   UNL A   1      33.088  23.600  23.142  1.00  0.00     0.292 A 
ATOM     25  C   UNL A   1      31.417  22.838  24.815  1.00  0.00     0.192 A 
ATOM     26  O   UNL A   1      33.855  22.444  23.453  1.00  0.00    -0.418 OA
ATOM     27  C   UNL A   1      32.324  21.808  25.239  1.00  0.00     0.107 A 
ATOM     28  O   UNL A   1      30.319  22.948  25.348  1.00  0.00    -0.289 OA
BRANCH  10  29
ATOM     29  O   UNL A   1      32.922  27.260  27.451  1.00  0.00    -0.393 OA
ATOM     30  H   UNL A   1      32.472  26.786  28.168  1.00  0.00     0.210 HD
ENDBRANCH  10  29
ENDBRANCH   4   6
ENDBRANCH   3   4
ENDBRANCH   2   3
ENDBRANCH   1   2
BRANCH   1  31
ATOM     31  O   UNL A   1      37.915  21.820  25.749  1.00  0.00    -0.458 OA
BRANCH  31  32
ATOM     32  C   UNL A   1      39.150  21.572  26.240  1.00  0.00     0.338 C 
ATOM     33  O   UNL A   1      39.822  20.564  26.100  1.00  0.00    -0.246 OA
BRANCH  32  34
ATOM     34  C   UNL A   1      39.675  22.776  26.894  1.00  0.00     0.060 A 
ATOM     35  C   UNL A   1      39.184  24.013  26.492  1.00  0.00     0.016 A 
ATOM     36  C   UNL A   1      40.775  22.702  27.740  1.00  0.00     0.016 A 
ATOM     37  C   UNL A   1      39.858  25.180  26.802  1.00  0.00     0.010 A 
ATOM     38  C   UNL A   1      41.383  23.889  28.162  1.00  0.00     0.010 A 
ATOM     39  C   UNL A   1      40.953  25.133  27.661  1.00  0.00    -0.014 A 
BRANCH  39  40
ATOM     40  C   UNL A   1      41.672  26.384  27.985  1.00  0.00     0.031 A 
ATOM     41  C   UNL A   1      40.991  27.431  28.812  1.00  0.00     0.074 A 
ATOM     42  C   UNL A   1      42.942  26.559  27.572  1.00  0.00     0.049 A 
ATOM     43  N   UNL A   1      41.336  28.674  29.023  1.00  0.00    -0.248 NA
ATOM     44  C   UNL A   1      39.746  27.029  29.489  1.00  0.00     0.031 C 
ATOM     45  C   UNL A   1      43.750  25.564  26.862  1.00  0.00     0.029 A 
ATOM     46  N   UNL A   1      43.778  27.637  27.693  1.00  0.00    -0.354 N 
ATOM     47  C   UNL A   1      40.331  29.214  29.812  1.00  0.00     0.074 A 
ATOM     48  C   UNL A   1      39.356  28.170  30.038  1.00  0.00     0.031 C 
ATOM     49  C   UNL A   1      44.968  26.072  26.627  1.00  0.00     0.029 A 
ATOM     50  C   UNL A   1      44.991  27.457  27.077  1.00  0.00     0.049 A 
ATOM     51  H   UNL A   1      43.532  28.460  28.174  1.00  0.00     0.167 HD
ATOM     52  C   UNL A   1      40.243  30.474  30.299  1.00  0.00     0.037 A 
ATOM     53  C   UNL A   1      45.988  28.331  26.849  1.00  0.00     0.037 A 
ATOM     54  C   UNL A   1      41.246  31.486  30.089  1.00  0.00     0.049 A 
ATOM     55  C   UNL A   1      45.820  29.749  27.313  1.00  0.00     0.074 A 
ATOM     56  C   UNL A   1      41.249  32.801  30.514  1.00  0.00     0.029 A 
ATOM     57  N   UNL A   1      42.436  31.285  29.401  1.00  0.00    -0.354 N 
ATOM     58  N   UNL A   1      44.829  30.289  27.979  1.00  0.00    -0.248 NA
ATOM     59  C   UNL A   1      46.901  30.682  26.976  1.00  0.00     0.031 C 
ATOM     60  C   UNL A   1      42.420  33.408  30.048  1.00  0.00     0.029 A 
ATOM     61  C   UNL A   1      43.173  32.457  29.378  1.00  0.00     0.049 A 
ATOM     62  H   UNL A   1      42.714  30.434  28.991  1.00  0.00     0.167 HD
ATOM     63  C   UNL A   1      45.171  31.622  28.157  1.00  0.00     0.074 A 
ATOM     64  C   UNL A   1      46.474  31.800  27.549  1.00  0.00     0.031 C 
ATOM     65  C   UNL A   1      44.468  32.611  28.763  1.00  0.00     0.037 A 
BRANCH  52  66
ATOM     66  C   UNL A   1      39.010  30.841  31.071  1.00  0.00     0.064 A 
ATOM     67  C   UNL A   1      38.947  30.727  32.468  1.00  0.00     0.173 A 
ATOM     68  C   UNL A   1      37.889  31.360  30.404  1.00  0.00     0.173 A 
ATOM     69  F   UNL A   1      39.982  30.218  33.152  1.00  0.00    -0.203 F 
ATOM     70  C   UNL A   1      37.803  31.108  33.166  1.00  0.00     0.198 A 
ATOM     71  C   UNL A   1      36.760  31.767  31.108  1.00  0.00     0.198 A 
ATOM     72  F   UNL A   1      37.896  31.488  29.069  1.00  0.00    -0.203 F 
ATOM     73  F   UNL A   1      37.750  30.956  34.496  1.00  0.00    -0.200 F 
ATOM     74  C   UNL A   1      36.715  31.637  32.488  1.00  0.00     0.200 A 
ATOM     75  F   UNL A   1      35.714  32.290  30.450  1.00  0.00    -0.200 F 
ATOM     76  F   UNL A   1      35.622  32.019  33.162  1.00  0.00    -0.200 F 
ENDBRANCH  52  66
BRANCH  53  77
ATOM     77  C   UNL A   1      47.201  27.890  26.114  1.00  0.00     0.064 A 
ATOM     78  C   UNL A   1      48.367  27.533  26.803  1.00  0.00     0.173 A 
ATOM     79  C   UNL A   1      47.216  27.795  24.713  1.00  0.00     0.173 A 
ATOM     80  F   UNL A   1      48.411  27.632  28.140  1.00  0.00    -0.203 F 
ATOM     81  C   UNL A   1      49.503  27.101  26.120  1.00  0.00     0.198 A 
ATOM     82  C   UNL A   1      48.341  27.333  24.034  1.00  0.00     0.198 A 
ATOM     83  F   UNL A   1      46.127  28.126  24.004  1.00  0.00    -0.203 F 
ATOM     84  F   UNL A   1      50.617  26.800  26.801  1.00  0.00    -0.200 F 
ATOM     85  C   UNL A   1      49.485  26.992  24.737  1.00  0.00     0.200 A 
ATOM     86  F   UNL A   1      48.313  27.213  22.699  1.00  0.00    -0.200 F 
ATOM     87  F   UNL A   1      50.573  26.562  24.084  1.00  0.00    -0.200 F 
ENDBRANCH  53  77
BRANCH  65  88
ATOM     88  C   UNL A   1      45.110  33.966  28.817  1.00  0.00     0.064 A 
ATOM     89  C   UNL A   1      45.979  34.326  29.858  1.00  0.00     0.173 A 
ATOM     90  C   UNL A   1      44.875  34.905  27.801  1.00  0.00     0.173 A 
ATOM     91  F   UNL A   1      46.222  33.470  30.861  1.00  0.00    -0.203 F 
ATOM     92  C   UNL A   1      46.564  35.588  29.895  1.00  0.00     0.198 A 
ATOM     93  C   UNL A   1      45.490  36.152  27.823  1.00  0.00     0.198 A 
ATOM     94  F   UNL A   1      44.059  34.605  26.778  1.00  0.00    -0.203 F 
ATOM     95  F   UNL A   1      47.345  35.932  30.928  1.00  0.00    -0.200 F 
ATOM     96  C   UNL A   1      46.325  36.497  28.874  1.00  0.00     0.200 A 
ATOM     97  F   UNL A   1      45.272  37.023  26.827  1.00  0.00    -0.200 F 
ATOM     98  F   UNL A   1      46.894  37.709  28.909  1.00  0.00    -0.200 F 
ENDBRANCH  65  88
ENDBRANCH  39  40
ENDBRANCH  32  34
ENDBRANCH  31  32
ENDBRANCH   1  31
TORSDOF 12
ENDMDL
MODEL 2
REMARK VINA RESULT:     -13.7      1.030      1.964
REMARK SMILES CC1(C)[C@H](O)CC[C@]2(C)[C@@H]1CC[C@@]1(C)Oc3oc(C(=O)OCCOC(=O)c4ccc(-c5c6nc(c(-c7c(F)c(F)c(F)c(F)c7F)c7ccc([nH]7)c(-c7c(F)c(F)c(F)c(F)c7F)c7nc(c(-c8c(F)c(F)c(F)c(F)c8F)c8ccc5[nH]8)C=C7)C=C6)cc4)cc(=O)c3C[C@H]21
REMARK SMILES IDX 23 1 22 2 21 3 19 4 20 5 18 6 1 7 2 8 3 9 4 10 10 11 6 12
REMARK SMILES IDX 8 13 11 14 7 15 9 16 95 17 12 18 13 19 94 20 14 21 15 22
REMARK SMILES IDX 93 23 16 24 91 25 17 26 90 27 92 28 5 29 24 31 25 32 26 33
REMARK SMILES IDX 27 34 28 35 89 36 29 37 88 38 30 39 31 40 32 41 82 42 33 43
REMARK SMILES IDX 87 44 81 45 83 46 34 47 86 48 80 49 79 50 35 52 67 53 47 54
REMARK SMILES IDX 66 55 48 56 51 57 65 58 84 59 49 60 50 61 64 63 85 64 52 65
REMARK SMILES IDX 36 66 37 67 45 68 38 69 39 70 43 71 46 72 40 73 41 74 44 75
REMARK SMILES IDX 42 76 68 77 69 78 77 79 70 80 71 81 75 82 78 83 72 84 73 85
REMARK SMILES IDX 76 86 74 87 53 88 54 89 62 90 55 91 56 92 60 93 63 94 57 95
REMARK SMILES IDX 58 96 61 97 59 98
REMARK H PARENT 5 30 83 51 51 62
REMARK Flexibility Score: inf
ROOT
ATOM      1  C   UNL A   1      36.479  20.735  25.053  1.00  0.00     0.275 C 
ENDROOT
BRANCH   1   2
ATOM      2  C   UNL A   1      35.161  21.390  24.634  1.00  0.00     0.275 C 
BRANCH   2   3
ATOM      3  O   UNL A   1      34.082  20.524  25.013  1.00  0.00    -0.456 OA
BRANCH   3   4
ATOM      4  C   UNL A   1      32.919  20.513  24.303  1.00  0.00     0.374 C 
ATOM      5  O   UNL A   1      32.501  19.587  23.624  1.00  0.00    -0.242 OA
BRANCH   4   6
ATOM      6  C   UNL A   1      32.184  21.781  24.612  1.00  0.00     0.219 A 
ATOM      7  C   UNL A   1      32.133  30.808  26.804  1.00  0.00     0.014 C 
ATOM      8  C   UNL A   1      32.666  29.605  25.968  1.00  0.00    -0.006 C 
ATOM      9  C   UNL A   1      33.994  30.101  25.342  1.00  0.00     0.014 C 
ATOM     10  C   UNL A   1      33.148  28.540  27.194  1.00  0.00     0.120 C 
ATOM     11  C   UNL A   1      31.316  28.962  24.945  1.00  0.00     0.004 C 
ATOM     12  C   UNL A   1      31.987  27.845  27.860  1.00  0.00     0.033 C 
ATOM     13  C   UNL A   1      31.463  27.524  25.342  1.00  0.00    -0.022 C 
ATOM     14  C   UNL A   1      30.842  28.905  23.434  1.00  0.00     0.009 C 
ATOM     15  C   UNL A   1      30.937  27.721  26.824  1.00  0.00     0.010 C 
ATOM     16  C   UNL A   1      32.890  27.365  24.477  1.00  0.00     0.012 C 
ATOM     17  C   UNL A   1      30.858  26.231  24.889  1.00  0.00     0.044 C 
ATOM     18  C   UNL A   1      30.478  27.451  22.720  1.00  0.00     0.049 C 
ATOM     19  C   UNL A   1      30.111  26.152  23.597  1.00  0.00     0.113 C 
ATOM     20  C   UNL A   1      30.363  25.240  25.916  1.00  0.00     0.055 C 
ATOM     21  C   UNL A   1      28.581  26.091  23.765  1.00  0.00     0.057 C 
ATOM     22  O   UNL A   1      30.547  24.800  23.042  1.00  0.00    -0.458 OA
ATOM     23  C   UNL A   1      30.638  23.919  25.333  1.00  0.00     0.081 A 
ATOM     24  C   UNL A   1      30.851  23.739  24.012  1.00  0.00     0.292 A 
ATOM     25  C   UNL A   1      31.123  22.989  26.365  1.00  0.00     0.192 A 
ATOM     26  O   UNL A   1      31.599  22.599  23.612  1.00  0.00    -0.418 OA
ATOM     27  C   UNL A   1      32.043  21.976  25.926  1.00  0.00     0.107 A 
ATOM     28  O   UNL A   1      30.847  23.095  27.554  1.00  0.00    -0.289 OA
BRANCH  10  29
ATOM     29  O   UNL A   1      34.024  27.474  26.836  1.00  0.00    -0.393 OA
ATOM     30  H   UNL A   1      34.902  27.635  27.216  1.00  0.00     0.210 HD
ENDBRANCH  10  29
ENDBRANCH   4   6
ENDBRANCH   3   4
ENDBRANCH   2   3
ENDBRANCH   1   2
BRANCH   1  31
ATOM     31  O   UNL A   1      37.512  21.737  25.135  1.00  0.00    -0.458 OA
BRANCH  31  32
ATOM     32  C   UNL A   1      38.631  21.357  25.790  1.00  0.00     0.338 C 
ATOM     33  O   UNL A   1      39.189  20.273  25.754  1.00  0.00    -0.246 OA
BRANCH  32  34
ATOM     34  C   UNL A   1      39.207  22.507  26.496  1.00  0.00     0.060 A 
ATOM     35  C   UNL A   1      38.753  23.780  26.166  1.00  0.00     0.016 A 
ATOM     36  C   UNL A   1      40.316  22.353  27.319  1.00  0.00     0.016 A 
ATOM     37  C   UNL A   1      39.472  24.905  26.524  1.00  0.00     0.010 A 
ATOM     38  C   UNL A   1      40.970  23.495  27.792  1.00  0.00     0.010 A 
ATOM     39  C   UNL A   1      40.577  24.777  27.361  1.00  0.00    -0.014 A 
BRANCH  39  40
ATOM     40  C   UNL A   1      41.344  25.985  27.737  1.00  0.00     0.031 A 
ATOM     41  C   UNL A   1      40.690  27.039  28.578  1.00  0.00     0.074 A 
ATOM     42  C   UNL A   1      42.629  26.112  27.360  1.00  0.00     0.049 A 
ATOM     43  N   UNL A   1      41.086  28.259  28.831  1.00  0.00    -0.248 NA
ATOM     44  C   UNL A   1      39.412  26.676  29.213  1.00  0.00     0.031 C 
ATOM     45  C   UNL A   1      43.409  25.101  26.640  1.00  0.00     0.029 A 
ATOM     46  N   UNL A   1      43.510  27.148  27.530  1.00  0.00    -0.354 N 
ATOM     47  C   UNL A   1      40.087  28.823  29.611  1.00  0.00     0.074 A 
ATOM     48  C   UNL A   1      39.060  27.819  29.785  1.00  0.00     0.031 C 
ATOM     49  C   UNL A   1      44.654  25.559  26.449  1.00  0.00     0.029 A 
ATOM     50  C   UNL A   1      44.729  26.929  26.938  1.00  0.00     0.049 A 
ATOM     51  H   UNL A   1      43.290  27.968  28.029  1.00  0.00     0.167 HD
ATOM     52  C   UNL A   1      40.044  30.072  30.131  1.00  0.00     0.037 A 
ATOM     53  C   UNL A   1      45.769  27.762  26.758  1.00  0.00     0.037 A 
ATOM     54  C   UNL A   1      41.096  31.042  29.973  1.00  0.00     0.049 A 
ATOM     55  C   UNL A   1      45.654  29.173  27.258  1.00  0.00     0.074 A 
ATOM     56  C   UNL A   1      41.148  32.344  30.435  1.00  0.00     0.029 A 
ATOM     57  N   UNL A   1      42.292  30.806  29.308  1.00  0.00    -0.354 N 
ATOM     58  N   UNL A   1      44.673  29.741  27.915  1.00  0.00    -0.248 NA
ATOM     59  C   UNL A   1      46.784  30.065  26.972  1.00  0.00     0.031 C 
ATOM     60  C   UNL A   1      42.356  32.909  30.013  1.00  0.00     0.029 A 
ATOM     61  C   UNL A   1      43.082  31.944  29.335  1.00  0.00     0.049 A 
ATOM     62  H   UNL A   1      42.542  29.954  28.881  1.00  0.00     0.167 HD
ATOM     63  C   UNL A   1      45.070  31.050  28.138  1.00  0.00     0.074 A 
ATOM     64  C   UNL A   1      46.394  31.185  27.566  1.00  0.00     0.031 C 
ATOM     65  C   UNL A   1      44.398  32.054  28.755  1.00  0.00     0.037 A 
BRANCH  52  66
ATOM     66  C   UNL A   1      38.810  30.474  30.884  1.00  0.00     0.064 A 
ATOM     67  C   UNL A   1      38.740  30.412  32.284  1.00  0.00     0.173 A 
ATOM     68  C   UNL A   1      37.694  30.974  30.194  1.00  0.00     0.173 A 
ATOM     69  F   UNL A   1      39.770  29.923  32.991  1.00  0.00    -0.203 F 
ATOM     70  C   UNL A   1      37.596  30.825  32.963  1.00  0.00     0.198 A 
ATOM     71  C   UNL A   1      36.564  31.414  30.877  1.00  0.00     0.198 A 
ATOM     72  F   UNL A   1      37.707  31.053  28.855  1.00  0.00    -0.203 F 
ATOM     73  F   UNL A   1      37.537  30.722  34.298  1.00  0.00    -0.200 F 
ATOM     74  C   UNL A   1      36.514  31.335  32.261  1.00  0.00     0.200 A 
ATOM     75  F   UNL A   1      35.524  31.918  30.197  1.00  0.00    -0.200 F 
ATOM     76  F   UNL A   1      35.420  31.747  32.917  1.00  0.00    -0.200 F 
ENDBRANCH  52  66
BRANCH  53  77
ATOM     77  C   UNL A   1      46.979  27.287  26.039  1.00  0.00     0.064 A 
ATOM     78  C   UNL A   1      47.103  27.454  24.654  1.00  0.00     0.173 A 
ATOM     79  C   UNL A   1      48.046  26.677  26.720  1.00  0.00     0.173 A 
ATOM     80  F   UNL A   1      46.101  28.007  23.955  1.00  0.00    -0.203 F 
ATOM     81  C   UNL A   1      48.243  27.026  23.976  1.00  0.00     0.198 A 
ATOM     82  C   UNL A   1      49.198  26.280  26.047  1.00  0.00     0.198 A 
ATOM     83  F   UNL A   1      47.978  26.492  28.047  1.00  0.00    -0.203 F 
ATOM     84  F   UNL A   1      48.320  27.165  22.646  1.00  0.00    -0.200 F 
ATOM     85  C   UNL A   1      49.294  26.450  24.675  1.00  0.00     0.200 A 
ATOM     86  F   UNL A   1      50.217  25.739  26.729  1.00  0.00    -0.200 F 
ATOM     87  F   UNL A   1      50.396  26.053  24.024  1.00  0.00    -0.200 F 
ENDBRANCH  53  77
BRANCH  65  88
ATOM     88  C   UNL A   1      45.098  33.376  28.862  1.00  0.00     0.064 A 
ATOM     89  C   UNL A   1      44.941  34.372  27.886  1.00  0.00     0.173 A 
ATOM     90  C   UNL A   1      45.915  33.661  29.966  1.00  0.00     0.173 A 
ATOM     91  F   UNL A   1      44.184  34.142  26.803  1.00  0.00    -0.203 F 
ATOM     92  C   UNL A   1      45.600  35.592  27.998  1.00  0.00     0.198 A 
ATOM     93  C   UNL A   1      46.544  34.895  30.092  1.00  0.00     0.198 A 
ATOM     94  F   UNL A   1      46.091  32.745  30.931  1.00  0.00    -0.203 F 
ATOM     95  F   UNL A   1      45.481  36.507  27.026  1.00  0.00    -0.200 F 
ATOM     96  C   UNL A   1      46.395  35.856  29.104  1.00  0.00     0.200 A 
ATOM     97  F   UNL A   1      47.298  35.154  31.170  1.00  0.00    -0.200 F 
ATOM     98  F   UNL A   1      47.024  37.033  29.212  1.00  0.00    -0.200 F 
ENDBRANCH  65  88
ENDBRANCH  39  40
ENDBRANCH  32  34
ENDBRANCH  31  32
ENDBRANCH   1  31
TORSDOF 12
ENDMDL
MODEL 3
REMARK VINA RESULT:     -13.5      4.123      9.881
REMARK SMILES CC1(C)[C@H](O)CC[C@]2(C)[C@@H]1CC[C@@]1(C)Oc3oc(C(=O)OCCOC(=O)c4ccc(-c5c6nc(c(-c7c(F)c(F)c(F)c(F)c7F)c7ccc([nH]7)c(-c7c(F)c(F)c(F)c(F)c7F)c7nc(c(-c8c(F)c(F)c(F)c(F)c8F)c8ccc5[nH]8)C=C7)C=C6)cc4)cc(=O)c3C[C@H]21
REMARK SMILES IDX 23 1 22 2 21 3 19 4 20 5 18 6 1 7 2 8 3 9 4 10 10 11 6 12
REMARK SMILES IDX 8 13 11 14 7 15 9 16 95 17 12 18 13 19 94 20 14 21 15 22
REMARK SMILES IDX 93 23 16 24 91 25 17 26 90 27 92 28 5 29 24 31 25 32 26 33
REMARK SMILES IDX 27 34 28 35 89 36 29 37 88 38 30 39 31 40 32 41 82 42 33 43
REMARK SMILES IDX 87 44 81 45 83 46 34 47 86 48 80 49 79 50 35 52 67 53 47 54
REMARK SMILES IDX 66 55 48 56 51 57 65 58 84 59 49 60 50 61 64 63 85 64 52 65
REMARK SMILES IDX 36 66 37 67 45 68 38 69 39 70 43 71 46 72 40 73 41 74 44 75
REMARK SMILES IDX 42 76 68 77 69 78 77 79 70 80 71 81 75 82 78 83 72 84 73 85
REMARK SMILES IDX 76 86 74 87 53 88 54 89 62 90 55 91 56 92 60 93 63 94 57 95
REMARK SMILES IDX 58 96 61 97 59 98
REMARK H PARENT 5 30 83 51 51 62
REMARK Flexibility Score: inf
ROOT
ATOM      1  C   UNL A   1      31.598  31.366  27.039  1.00  0.00     0.275 C 
ENDROOT
BRANCH   1   2
ATOM      2  C   UNL A   1      31.042  31.190  25.625  1.00  0.00     0.275 C 
BRANCH   2   3
ATOM      3  O   UNL A   1      31.418  29.891  25.145  1.00  0.00    -0.456 OA
BRANCH   3   4
ATOM      4  C   UNL A   1      30.724  29.298  24.134  1.00  0.00     0.374 C 
ATOM      5  O   UNL A   1      30.109  29.875  23.250  1.00  0.00    -0.242 OA
BRANCH   4   6
ATOM      6  C   UNL A   1      30.964  27.822  24.221  1.00  0.00     0.219 A 
ATOM      7  C   UNL A   1      36.710  20.562  24.985  1.00  0.00     0.014 C 
ATOM      8  C   UNL A   1      36.237  21.985  25.412  1.00  0.00    -0.006 C 
ATOM      9  C   UNL A   1      37.429  22.592  26.196  1.00  0.00     0.014 C 
ATOM     10  C   UNL A   1      36.250  22.796  23.926  1.00  0.00     0.120 C 
ATOM     11  C   UNL A   1      34.587  21.854  26.147  1.00  0.00     0.004 C 
ATOM     12  C   UNL A   1      35.081  22.433  23.046  1.00  0.00     0.033 C 
ATOM     13  C   UNL A   1      33.940  22.926  25.321  1.00  0.00    -0.022 C 
ATOM     14  C   UNL A   1      33.858  21.949  27.551  1.00  0.00     0.009 C 
ATOM     15  C   UNL A   1      33.965  22.107  23.964  1.00  0.00     0.010 C 
ATOM     16  C   UNL A   1      34.771  24.137  26.126  1.00  0.00     0.012 C 
ATOM     17  C   UNL A   1      32.610  23.613  25.328  1.00  0.00     0.044 C 
ATOM     18  C   UNL A   1      32.564  22.968  27.762  1.00  0.00     0.049 C 
ATOM     19  C   UNL A   1      31.703  23.503  26.511  1.00  0.00     0.113 C 
ATOM     20  C   UNL A   1      31.862  23.805  24.029  1.00  0.00     0.055 C 
ATOM     21  C   UNL A   1      30.511  22.552  26.294  1.00  0.00     0.057 C 
ATOM     22  O   UNL A   1      31.127  24.911  26.622  1.00  0.00    -0.458 OA
ATOM     23  C   UNL A   1      31.174  25.095  24.173  1.00  0.00     0.081 A 
ATOM     24  C   UNL A   1      30.949  25.667  25.375  1.00  0.00     0.292 A 
ATOM     25  C   UNL A   1      31.227  25.853  22.913  1.00  0.00     0.192 A 
ATOM     26  O   UNL A   1      30.774  27.078  25.414  1.00  0.00    -0.418 OA
ATOM     27  C   UNL A   1      31.253  27.285  23.033  1.00  0.00     0.107 A 
ATOM     28  O   UNL A   1      31.331  25.327  21.812  1.00  0.00    -0.289 OA
BRANCH  10  29
ATOM     29  O   UNL A   1      36.229  24.222  23.951  1.00  0.00    -0.393 OA
ATOM     30  H   UNL A   1      37.102  24.563  23.703  1.00  0.00     0.210 HD
ENDBRANCH  10  29
ENDBRANCH   4   6
ENDBRANCH   3   4
ENDBRANCH   2   3
ENDBRANCH   1   2
BRANCH   1  31
ATOM     31  O   UNL A   1      33.033  31.235  27.014  1.00  0.00    -0.458 OA
BRANCH  31  32
ATOM     32  C   UNL A   1      33.715  32.268  27.555  1.00  0.00     0.338 C 
ATOM     33  O   UNL A   1      33.309  33.396  27.783  1.00  0.00    -0.246 OA
BRANCH  32  34
ATOM     34  C   UNL A   1      35.045  31.818  27.979  1.00  0.00     0.060 A 
ATOM     35  C   UNL A   1      35.199  30.493  28.373  1.00  0.00     0.016 A 
ATOM     36  C   UNL A   1      36.074  32.730  28.181  1.00  0.00     0.016 A 
ATOM     37  C   UNL A   1      36.307  30.091  29.096  1.00  0.00     0.010 A 
ATOM     38  C   UNL A   1      37.251  32.295  28.798  1.00  0.00     0.010 A 
ATOM     39  C   UNL A   1      37.356  30.983  29.297  1.00  0.00    -0.014 A 
BRANCH  39  40
ATOM     40  C   UNL A   1      38.536  30.547  30.076  1.00  0.00     0.031 A 
ATOM     41  C   UNL A   1      39.531  29.620  29.448  1.00  0.00     0.074 A 
ATOM     42  C   UNL A   1      38.731  31.015  31.323  1.00  0.00     0.049 A 
ATOM     43  N   UNL A   1      40.498  28.940  30.008  1.00  0.00    -0.248 NA
ATOM     44  C   UNL A   1      39.418  29.420  27.994  1.00  0.00     0.031 C 
ATOM     45  C   UNL A   1      37.896  32.012  31.998  1.00  0.00     0.029 A 
ATOM     46  N   UNL A   1      39.697  30.715  32.247  1.00  0.00    -0.354 N 
ATOM     47  C   UNL A   1      41.075  28.199  28.987  1.00  0.00     0.074 A 
ATOM     48  C   UNL A   1      40.348  28.502  27.773  1.00  0.00     0.031 C 
ATOM     49  C   UNL A   1      38.396  32.254  33.218  1.00  0.00     0.029 A 
ATOM     50  C   UNL A   1      39.521  31.356  33.448  1.00  0.00     0.049 A 
ATOM     51  H   UNL A   1      40.444  30.099  32.067  1.00  0.00     0.167 HD
ATOM     52  C   UNL A   1      42.121  27.345  29.070  1.00  0.00     0.037 A 
ATOM     53  C   UNL A   1      40.158  31.195  34.621  1.00  0.00     0.037 A 
ATOM     54  C   UNL A   1      42.852  27.088  30.284  1.00  0.00     0.049 A 
ATOM     55  C   UNL A   1      41.249  30.168  34.710  1.00  0.00     0.074 A 
ATOM     56  C   UNL A   1      43.912  26.224  30.489  1.00  0.00     0.029 A 
ATOM     57  N   UNL A   1      42.601  27.710  31.500  1.00  0.00    -0.354 N 
ATOM     58  N   UNL A   1      41.738  29.396  33.770  1.00  0.00    -0.248 NA
ATOM     59  C   UNL A   1      41.864  29.976  36.029  1.00  0.00     0.031 C 
ATOM     60  C   UNL A   1      44.275  26.291  31.838  1.00  0.00     0.029 A 
ATOM     61  C   UNL A   1      43.478  27.236  32.463  1.00  0.00     0.049 A 
ATOM     62  H   UNL A   1      41.904  28.387  31.655  1.00  0.00     0.167 HD
ATOM     63  C   UNL A   1      42.728  28.637  34.375  1.00  0.00     0.074 A 
ATOM     64  C   UNL A   1      42.786  29.062  35.760  1.00  0.00     0.031 C 
ATOM     65  C   UNL A   1      43.515  27.672  33.837  1.00  0.00     0.037 A 
BRANCH  52  66
ATOM     66  C   UNL A   1      42.515  26.599  27.829  1.00  0.00     0.064 A 
ATOM     67  C   UNL A   1      43.504  27.078  26.956  1.00  0.00     0.173 A 
ATOM     68  C   UNL A   1      41.925  25.360  27.534  1.00  0.00     0.173 A 
ATOM     69  F   UNL A   1      44.085  28.266  27.180  1.00  0.00    -0.203 F 
ATOM     70  C   UNL A   1      43.877  26.349  25.829  1.00  0.00     0.198 A 
ATOM     71  C   UNL A   1      42.322  24.621  26.424  1.00  0.00     0.198 A 
ATOM     72  F   UNL A   1      40.973  24.856  28.334  1.00  0.00    -0.203 F 
ATOM     73  F   UNL A   1      44.797  26.843  24.989  1.00  0.00    -0.200 F 
ATOM     74  C   UNL A   1      43.295  25.117  25.569  1.00  0.00     0.200 A 
ATOM     75  F   UNL A   1      41.766  23.425  26.182  1.00  0.00    -0.200 F 
ATOM     76  F   UNL A   1      43.667  24.411  24.494  1.00  0.00    -0.200 F 
ENDBRANCH  52  66
BRANCH  53  77
ATOM     77  C   UNL A   1      39.745  31.997  35.801  1.00  0.00     0.064 A 
ATOM     78  C   UNL A   1      40.414  33.181  36.133  1.00  0.00     0.173 A 
ATOM     79  C   UNL A   1      38.662  31.612  36.608  1.00  0.00     0.173 A 
ATOM     80  F   UNL A   1      41.471  33.578  35.410  1.00  0.00    -0.203 F 
ATOM     81  C   UNL A   1      40.021  33.948  37.229  1.00  0.00     0.198 A 
ATOM     82  C   UNL A   1      38.249  32.395  37.682  1.00  0.00     0.198 A 
ATOM     83  F   UNL A   1      37.987  30.485  36.335  1.00  0.00    -0.203 F 
ATOM     84  F   UNL A   1      40.701  35.058  37.546  1.00  0.00    -0.200 F 
ATOM     85  C   UNL A   1      38.932  33.560  37.996  1.00  0.00     0.200 A 
ATOM     86  F   UNL A   1      37.186  32.024  38.410  1.00  0.00    -0.200 F 
ATOM     87  F   UNL A   1      38.545  34.306  39.040  1.00  0.00    -0.200 F 
ENDBRANCH  53  77
BRANCH  65  88
ATOM     88  C   UNL A   1      44.520  27.030  34.746  1.00  0.00     0.064 A 
ATOM     89  C   UNL A   1      44.231  25.848  35.444  1.00  0.00     0.173 A 
ATOM     90  C   UNL A   1      45.798  27.589  34.900  1.00  0.00     0.173 A 
ATOM     91  F   UNL A   1      43.017  25.285  35.343  1.00  0.00    -0.203 F 
ATOM     92  C   UNL A   1      45.174  25.266  36.286  1.00  0.00     0.198 A 
ATOM     93  C   UNL A   1      46.750  26.985  35.715  1.00  0.00     0.198 A 
ATOM     94  F   UNL A   1      46.128  28.714  34.248  1.00  0.00    -0.203 F 
ATOM     95  F   UNL A   1      44.857  24.169  36.986  1.00  0.00    -0.200 F 
ATOM     96  C   UNL A   1      46.434  25.830  36.415  1.00  0.00     0.200 A 
ATOM     97  F   UNL A   1      47.973  27.521  35.826  1.00  0.00    -0.200 F 
ATOM     98  F   UNL A   1      47.343  25.265  37.221  1.00  0.00    -0.200 F 
ENDBRANCH  65  88
ENDBRANCH  39  40
ENDBRANCH  32  34
ENDBRANCH  31  32
ENDBRANCH   1  31
TORSDOF 12
ENDMDL
