MODEL 1
REMARK VINA RESULT:     -12.3      0.000      0.000
REMARK SMILES O=C(CN1C(=O)/C(=C2/Sc3ccccc3N2CCCS(=O)(=O)[O-])SC1=S)OCCOC(=O)c1ccc(-c2c3nc(c(-c4c(F)c(F)c(F)c(F)c4F)c4ccc([nH]4)c(-c4c(F)c(F)c(F)c(F)c4F)c4nc(c(-c5c(F)c(F)c(F)c(F)c5F)c5ccc2[nH]5)C=C4)C=C3)cc1
REMARK SMILES IDX 27 1 2 2 1 3 3 4 4 5 5 6 25 7 6 8 7 9 24 10 26 11 8 12 9 13
REMARK SMILES IDX 16 14 10 15 15 16 11 17 14 18 12 19 13 20 17 21 18 22 19 23
REMARK SMILES IDX 20 24 21 25 22 26 23 27 28 28 29 29 30 30 31 31 32 32 33 33
REMARK SMILES IDX 34 34 95 35 35 36 94 37 36 38 37 39 38 40 88 41 39 42 93 43
REMARK SMILES IDX 87 44 89 45 40 46 92 47 86 48 85 49 41 51 73 52 53 53 72 54
REMARK SMILES IDX 54 55 57 56 71 57 90 58 55 59 56 60 70 62 91 63 58 64 42 65
REMARK SMILES IDX 43 66 51 67 44 68 45 69 49 70 52 71 46 72 47 73 50 74 48 75
REMARK SMILES IDX 74 76 75 77 83 78 76 79 77 80 81 81 84 82 78 83 79 84 82 85
REMARK SMILES IDX 80 86 59 87 60 88 68 89 61 90 62 91 66 92 69 93 63 94 64 95
REMARK SMILES IDX 67 96 65 97
REMARK H PARENT 89 50 57 61
REMARK Flexibility Score: inf
ROOT
ATOM      1  O   UNL A   1      36.142  22.308  25.226  1.00  0.00    -0.461 OA
ENDROOT
BRANCH   1   2
ATOM      2  C   UNL A   1      35.854  23.252  24.296  1.00  0.00     0.326 C 
ATOM      3  O   UNL A   1      36.206  23.215  23.127  1.00  0.00    -0.250 OA
BRANCH   2   4
ATOM      4  C   UNL A   1      34.960  24.333  24.951  1.00  0.00     0.250 C 
BRANCH   4   5
ATOM      5  N   UNL A   1      33.551  24.209  24.538  1.00  0.00    -0.281 N 
ATOM      6  C   UNL A   1      33.091  24.854  23.409  1.00  0.00     0.269 C 
ATOM      7  C   UNL A   1      32.635  23.322  25.036  1.00  0.00     0.148 C 
ATOM      8  O   UNL A   1      33.725  25.013  22.376  1.00  0.00    -0.268 OA
ATOM      9  C   UNL A   1      31.643  25.120  23.531  1.00  0.00     0.111 C 
ATOM     10  S   UNL A   1      31.048  23.676  24.334  1.00  0.00    -0.052 SA
ATOM     11  S   UNL A   1      32.905  22.044  26.071  1.00  0.00    -0.052 S 
ATOM     12  C   UNL A   1      30.954  26.272  23.306  1.00  0.00     0.100 C 
ATOM     13  S   UNL A   1      29.138  26.150  23.499  1.00  0.00    -0.068 SA
ATOM     14  N   UNL A   1      31.338  27.611  22.990  1.00  0.00    -0.334 N 
ATOM     15  C   UNL A   1      28.990  27.893  23.224  1.00  0.00     0.037 A 
ATOM     16  C   UNL A   1      30.235  28.516  23.059  1.00  0.00     0.056 A 
ATOM     17  C   UNL A   1      27.795  28.598  23.158  1.00  0.00     0.017 A 
ATOM     18  C   UNL A   1      30.270  29.910  22.966  1.00  0.00     0.027 A 
ATOM     19  C   UNL A   1      27.840  29.980  22.989  1.00  0.00     0.001 A 
ATOM     20  C   UNL A   1      29.073  30.637  22.925  1.00  0.00     0.002 A 
BRANCH  14  21
ATOM     21  C   UNL A   1      32.500  28.132  22.261  1.00  0.00     0.124 C 
BRANCH  21  22
ATOM     22  C   UNL A   1      33.435  28.948  23.147  1.00  0.00     0.037 C 
BRANCH  22  23
ATOM     23  C   UNL A   1      33.946  28.124  24.287  1.00  0.00     0.124 C 
BRANCH  23  24
ATOM     24  S   UNL A   1      33.392  28.474  25.932  1.00  0.00     0.095 S 
ATOM     25  O   UNL A   1      34.518  28.969  26.702  1.00  0.00    -0.243 OA
ATOM     26  O   UNL A   1      32.146  29.190  25.876  1.00  0.00    -0.243 OA
ATOM     27  O   UNL A   1      33.093  26.989  26.471  1.00  0.00    -0.748 OA
ENDBRANCH  23  24
ENDBRANCH  22  23
ENDBRANCH  21  22
ENDBRANCH  14  21
ENDBRANCH   4   5
ENDBRANCH   2   4
ENDBRANCH   1   2
BRANCH   1  28
ATOM     28  C   UNL A   1      36.095  20.869  24.998  1.00  0.00     0.274 C 
BRANCH  28  29
ATOM     29  C   UNL A   1      37.565  20.387  25.008  1.00  0.00     0.275 C 
BRANCH  29  30
ATOM     30  O   UNL A   1      38.467  21.489  25.215  1.00  0.00    -0.458 OA
BRANCH  30  31
ATOM     31  C   UNL A   1      39.429  21.218  26.125  1.00  0.00     0.338 C 
ATOM     32  O   UNL A   1      40.023  20.157  26.236  1.00  0.00    -0.246 OA
BRANCH  31  33
ATOM     33  C   UNL A   1      39.854  22.459  26.811  1.00  0.00     0.060 A 
ATOM     34  C   UNL A   1      40.897  22.492  27.740  1.00  0.00     0.016 A 
ATOM     35  C   UNL A   1      39.169  23.636  26.478  1.00  0.00     0.016 A 
ATOM     36  C   UNL A   1      41.324  23.722  28.245  1.00  0.00     0.010 A 
ATOM     37  C   UNL A   1      39.606  24.863  26.968  1.00  0.00     0.010 A 
ATOM     38  C   UNL A   1      40.721  24.916  27.811  1.00  0.00    -0.014 A 
BRANCH  38  39
ATOM     39  C   UNL A   1      41.390  26.212  28.068  1.00  0.00     0.031 A 
ATOM     40  C   UNL A   1      42.786  26.486  27.615  1.00  0.00     0.074 A 
ATOM     41  C   UNL A   1      40.703  27.139  28.763  1.00  0.00     0.049 A 
ATOM     42  N   UNL A   1      43.457  27.608  27.668  1.00  0.00    -0.248 NA
ATOM     43  C   UNL A   1      43.531  25.360  27.038  1.00  0.00     0.031 C 
ATOM     44  C   UNL A   1      39.358  26.946  29.310  1.00  0.00     0.029 A 
ATOM     45  N   UNL A   1      41.026  28.422  29.120  1.00  0.00    -0.354 N 
ATOM     46  C   UNL A   1      44.692  27.335  27.102  1.00  0.00     0.074 A 
ATOM     47  C   UNL A   1      44.702  25.925  26.769  1.00  0.00     0.031 C 
ATOM     48  C   UNL A   1      38.954  28.082  29.894  1.00  0.00     0.029 A 
ATOM     49  C   UNL A   1      40.020  29.073  29.793  1.00  0.00     0.049 A 
ATOM     50  H   UNL A   1      41.895  28.838  28.917  1.00  0.00     0.167 HD
ATOM     51  C   UNL A   1      45.710  28.195  26.862  1.00  0.00     0.037 A 
ATOM     52  C   UNL A   1      39.958  30.332  30.265  1.00  0.00     0.037 A 
ATOM     53  C   UNL A   1      45.694  29.586  27.237  1.00  0.00     0.049 A 
ATOM     54  C   UNL A   1      41.123  31.251  30.037  1.00  0.00     0.074 A 
ATOM     55  C   UNL A   1      46.657  30.553  27.001  1.00  0.00     0.029 A 
ATOM     56  N   UNL A   1      44.677  30.205  27.953  1.00  0.00    -0.354 N 
ATOM     57  N   UNL A   1      42.239  31.020  29.390  1.00  0.00    -0.248 NA
ATOM     58  C   UNL A   1      41.022  32.604  30.599  1.00  0.00     0.031 C 
ATOM     59  C   UNL A   1      46.256  31.732  27.636  1.00  0.00     0.029 A 
ATOM     60  C   UNL A   1      45.013  31.525  28.211  1.00  0.00     0.049 A 
ATOM     61  H   UNL A   1      43.840  29.769  28.235  1.00  0.00     0.167 HD
ATOM     62  C   UNL A   1      42.969  32.198  29.453  1.00  0.00     0.074 A 
ATOM     63  C   UNL A   1      42.159  33.150  30.185  1.00  0.00     0.031 C 
ATOM     64  C   UNL A   1      44.200  32.461  28.949  1.00  0.00     0.037 A 
BRANCH  51  65
ATOM     65  C   UNL A   1      46.924  27.660  26.161  1.00  0.00     0.064 A 
ATOM     66  C   UNL A   1      47.039  27.707  24.763  1.00  0.00     0.173 A 
ATOM     67  C   UNL A   1      48.008  27.153  26.892  1.00  0.00     0.173 A 
ATOM     68  F   UNL A   1      46.029  28.181  24.017  1.00  0.00    -0.203 F 
ATOM     69  C   UNL A   1      48.186  27.246  24.122  1.00  0.00     0.198 A 
ATOM     70  C   UNL A   1      49.165  26.719  26.249  1.00  0.00     0.198 A 
ATOM     71  F   UNL A   1      47.955  27.095  28.231  1.00  0.00    -0.203 F 
ATOM     72  F   UNL A   1      48.258  27.268  22.784  1.00  0.00    -0.200 F 
ATOM     73  C   UNL A   1      49.250  26.760  24.865  1.00  0.00     0.200 A 
ATOM     74  F   UNL A   1      50.202  26.268  26.970  1.00  0.00    -0.200 F 
ATOM     75  F   UNL A   1      50.360  26.332  24.248  1.00  0.00    -0.200 F 
ENDBRANCH  51  65
BRANCH  52  76
ATOM     76  C   UNL A   1      38.722  30.787  30.952  1.00  0.00     0.064 A 
ATOM     77  C   UNL A   1      38.618  30.743  32.349  1.00  0.00     0.173 A 
ATOM     78  C   UNL A   1      37.650  31.338  30.234  1.00  0.00     0.173 A 
ATOM     79  F   UNL A   1      39.611  30.213  33.077  1.00  0.00    -0.203 F 
ATOM     80  C   UNL A   1      37.491  31.236  33.002  1.00  0.00     0.198 A 
ATOM     81  C   UNL A   1      36.535  31.856  30.889  1.00  0.00     0.198 A 
ATOM     82  F   UNL A   1      37.704  31.411  28.897  1.00  0.00    -0.203 F 
ATOM     83  F   UNL A   1      37.409  31.167  34.337  1.00  0.00    -0.200 F 
ATOM     84  C   UNL A   1      36.455  31.804  32.272  1.00  0.00     0.200 A 
ATOM     85  F   UNL A   1      35.547  32.422  30.183  1.00  0.00    -0.200 F 
ATOM     86  F   UNL A   1      35.382  32.300  32.903  1.00  0.00    -0.200 F 
ENDBRANCH  52  76
BRANCH  64  87
ATOM     87  C   UNL A   1      44.768  33.832  29.175  1.00  0.00     0.064 A 
ATOM     88  C   UNL A   1      45.558  34.119  30.298  1.00  0.00     0.173 A 
ATOM     89  C   UNL A   1      44.608  34.838  28.209  1.00  0.00     0.173 A 
ATOM     90  F   UNL A   1      45.727  33.198  31.258  1.00  0.00    -0.203 F 
ATOM     91  C   UNL A   1      46.168  35.362  30.444  1.00  0.00     0.198 A 
ATOM     92  C   UNL A   1      45.246  36.068  28.343  1.00  0.00     0.198 A 
ATOM     93  F   UNL A   1      43.866  34.612  27.113  1.00  0.00    -0.203 F 
ATOM     94  F   UNL A   1      46.900  35.622  31.535  1.00  0.00    -0.200 F 
ATOM     95  C   UNL A   1      46.023  36.329  29.460  1.00  0.00     0.200 A 
ATOM     96  F   UNL A   1      45.120  36.994  27.382  1.00  0.00    -0.200 F 
ATOM     97  F   UNL A   1      46.637  37.514  29.588  1.00  0.00    -0.200 F 
ENDBRANCH  64  87
ENDBRANCH  38  39
ENDBRANCH  31  33
ENDBRANCH  30  31
ENDBRANCH  29  30
ENDBRANCH  28  29
ENDBRANCH   1  28
TORSDOF 16
ENDMDL
MODEL 2
REMARK VINA RESULT:     -12.2      4.073      9.980
REMARK SMILES O=C(CN1C(=O)/C(=C2/Sc3ccccc3N2CCCS(=O)(=O)[O-])SC1=S)OCCOC(=O)c1ccc(-c2c3nc(c(-c4c(F)c(F)c(F)c(F)c4F)c4ccc([nH]4)c(-c4c(F)c(F)c(F)c(F)c4F)c4nc(c(-c5c(F)c(F)c(F)c(F)c5F)c5ccc2[nH]5)C=C4)C=C3)cc1
REMARK SMILES IDX 27 1 2 2 1 3 3 4 4 5 5 6 25 7 6 8 7 9 24 10 26 11 8 12 9 13
REMARK SMILES IDX 16 14 10 15 15 16 11 17 14 18 12 19 13 20 17 21 18 22 19 23
REMARK SMILES IDX 20 24 21 25 22 26 23 27 28 28 29 29 30 30 31 31 32 32 33 33
REMARK SMILES IDX 34 34 95 35 35 36 94 37 36 38 37 39 38 40 88 41 39 42 93 43
REMARK SMILES IDX 87 44 89 45 40 46 92 47 86 48 85 49 41 51 73 52 53 53 72 54
REMARK SMILES IDX 54 55 57 56 71 57 90 58 55 59 56 60 70 62 91 63 58 64 42 65
REMARK SMILES IDX 43 66 51 67 44 68 45 69 49 70 52 71 46 72 47 73 50 74 48 75
REMARK SMILES IDX 74 76 75 77 83 78 76 79 77 80 81 81 84 82 78 83 79 84 82 85
REMARK SMILES IDX 80 86 59 87 60 88 68 89 61 90 62 91 66 92 69 93 63 94 64 95
REMARK SMILES IDX 67 96 65 97
REMARK H PARENT 89 50 57 61
REMARK Flexibility Score: inf
ROOT
ATOM      1  O   UNL A   1      32.102  30.214  25.809  1.00  0.00    -0.461 OA
ENDROOT
BRANCH   1   2
ATOM      2  C   UNL A   1      31.955  28.957  26.295  1.00  0.00     0.326 C 
ATOM      3  O   UNL A   1      32.624  28.470  27.192  1.00  0.00    -0.250 OA
BRANCH   2   4
ATOM      4  C   UNL A   1      30.767  28.283  25.566  1.00  0.00     0.250 C 
BRANCH   4   5
ATOM      5  N   UNL A   1      31.219  27.367  24.503  1.00  0.00    -0.281 N 
ATOM      6  C   UNL A   1      31.354  26.018  24.750  1.00  0.00     0.269 C 
ATOM      7  C   UNL A   1      31.329  27.663  23.171  1.00  0.00     0.148 C 
ATOM      8  O   UNL A   1      30.625  25.352  25.470  1.00  0.00    -0.268 OA
ATOM      9  C   UNL A   1      32.361  25.434  23.838  1.00  0.00     0.111 C 
ATOM     10  S   UNL A   1      32.065  26.287  22.333  1.00  0.00    -0.052 SA
ATOM     11  S   UNL A   1      30.807  29.035  22.380  1.00  0.00    -0.052 S 
ATOM     12  C   UNL A   1      33.413  24.618  24.121  1.00  0.00     0.100 C 
ATOM     13  S   UNL A   1      34.377  24.051  22.673  1.00  0.00    -0.068 SA
ATOM     14  N   UNL A   1      33.987  24.124  25.333  1.00  0.00    -0.334 N 
ATOM     15  C   UNL A   1      35.532  23.252  23.753  1.00  0.00     0.037 A 
ATOM     16  C   UNL A   1      35.228  23.457  25.106  1.00  0.00     0.056 A 
ATOM     17  C   UNL A   1      36.617  22.487  23.345  1.00  0.00     0.017 A 
ATOM     18  C   UNL A   1      36.134  22.991  26.064  1.00  0.00     0.027 A 
ATOM     19  C   UNL A   1      37.470  21.964  24.313  1.00  0.00     0.001 A 
ATOM     20  C   UNL A   1      37.248  22.242  25.665  1.00  0.00     0.002 A 
BRANCH  14  21
ATOM     21  C   UNL A   1      33.380  23.839  26.638  1.00  0.00     0.124 C 
BRANCH  21  22
ATOM     22  C   UNL A   1      32.396  22.675  26.591  1.00  0.00     0.037 C 
BRANCH  22  23
ATOM     23  C   UNL A   1      33.120  21.368  26.508  1.00  0.00     0.124 C 
BRANCH  23  24
ATOM     24  S   UNL A   1      33.112  20.465  24.984  1.00  0.00     0.095 S 
ATOM     25  O   UNL A   1      32.399  21.244  23.990  1.00  0.00    -0.243 OA
ATOM     26  O   UNL A   1      34.428  19.943  24.729  1.00  0.00    -0.243 OA
ATOM     27  O   UNL A   1      32.150  19.234  25.369  1.00  0.00    -0.748 OA
ENDBRANCH  23  24
ENDBRANCH  22  23
ENDBRANCH  21  22
ENDBRANCH  14  21
ENDBRANCH   4   5
ENDBRANCH   2   4
ENDBRANCH   1   2
BRANCH   1  28
ATOM     28  C   UNL A   1      31.053  31.224  25.773  1.00  0.00     0.274 C 
BRANCH  28  29
ATOM     29  C   UNL A   1      31.555  32.394  26.653  1.00  0.00     0.275 C 
BRANCH  29  30
ATOM     30  O   UNL A   1      32.635  31.970  27.505  1.00  0.00    -0.458 OA
BRANCH  30  31
ATOM     31  C   UNL A   1      33.537  32.949  27.738  1.00  0.00     0.338 C 
ATOM     32  O   UNL A   1      33.281  34.136  27.863  1.00  0.00    -0.246 OA
BRANCH  31  33
ATOM     33  C   UNL A   1      34.855  32.365  28.075  1.00  0.00     0.060 A 
ATOM     34  C   UNL A   1      36.024  33.127  28.152  1.00  0.00     0.016 A 
ATOM     35  C   UNL A   1      34.892  30.989  28.340  1.00  0.00     0.016 A 
ATOM     36  C   UNL A   1      37.201  32.528  28.604  1.00  0.00     0.010 A 
ATOM     37  C   UNL A   1      36.061  30.397  28.807  1.00  0.00     0.010 A 
ATOM     38  C   UNL A   1      37.208  31.177  28.993  1.00  0.00    -0.014 A 
BRANCH  38  39
ATOM     39  C   UNL A   1      38.339  30.648  29.788  1.00  0.00     0.031 A 
ATOM     40  C   UNL A   1      38.579  31.066  31.201  1.00  0.00     0.074 A 
ATOM     41  C   UNL A   1      39.180  29.789  29.178  1.00  0.00     0.049 A 
ATOM     42  N   UNL A   1      39.457  30.602  32.053  1.00  0.00    -0.248 NA
ATOM     43  C   UNL A   1      37.736  32.147  31.726  1.00  0.00     0.031 C 
ATOM     44  C   UNL A   1      39.073  29.369  27.779  1.00  0.00     0.029 A 
ATOM     45  N   UNL A   1      40.273  29.109  29.647  1.00  0.00    -0.354 N 
ATOM     46  C   UNL A   1      39.253  31.310  33.227  1.00  0.00     0.074 A 
ATOM     47  C   UNL A   1      38.210  32.280  32.959  1.00  0.00     0.031 C 
ATOM     48  C   UNL A   1      40.033  28.472  27.516  1.00  0.00     0.029 A 
ATOM     49  C   UNL A   1      40.841  28.277  28.714  1.00  0.00     0.049 A 
ATOM     50  H   UNL A   1      40.620  29.209  30.563  1.00  0.00     0.167 HD
ATOM     51  C   UNL A   1      39.868  31.141  34.421  1.00  0.00     0.037 A 
ATOM     52  C   UNL A   1      41.891  27.439  28.815  1.00  0.00     0.037 A 
ATOM     53  C   UNL A   1      40.930  30.197  34.655  1.00  0.00     0.049 A 
ATOM     54  C   UNL A   1      42.593  27.312  30.136  1.00  0.00     0.074 A 
ATOM     55  C   UNL A   1      41.590  29.918  35.839  1.00  0.00     0.029 A 
ATOM     56  N   UNL A   1      41.510  29.397  33.679  1.00  0.00    -0.354 N 
ATOM     57  N   UNL A   1      42.313  27.895  31.276  1.00  0.00    -0.248 NA
ATOM     58  C   UNL A   1      43.752  26.411  30.189  1.00  0.00     0.031 C 
ATOM     59  C   UNL A   1      42.614  29.007  35.565  1.00  0.00     0.029 A 
ATOM     60  C   UNL A   1      42.553  28.664  34.224  1.00  0.00     0.049 A 
ATOM     61  H   UNL A   1      41.222  29.357  32.738  1.00  0.00     0.167 HD
ATOM     62  C   UNL A   1      43.249  27.424  32.186  1.00  0.00     0.074 A 
ATOM     63  C   UNL A   1      44.093  26.490  31.469  1.00  0.00     0.031 C 
ATOM     64  C   UNL A   1      43.392  27.742  33.496  1.00  0.00     0.037 A 
BRANCH  51  65
ATOM     65  C   UNL A   1      39.406  31.993  35.568  1.00  0.00     0.064 A 
ATOM     66  C   UNL A   1      38.466  31.519  36.496  1.00  0.00     0.173 A 
ATOM     67  C   UNL A   1      39.952  33.267  35.779  1.00  0.00     0.173 A 
ATOM     68  F   UNL A   1      37.912  30.307  36.339  1.00  0.00    -0.203 F 
ATOM     69  C   UNL A   1      38.073  32.300  37.581  1.00  0.00     0.198 A 
ATOM     70  C   UNL A   1      39.578  34.034  36.881  1.00  0.00     0.198 A 
ATOM     71  F   UNL A   1      40.863  33.765  34.928  1.00  0.00    -0.203 F 
ATOM     72  F   UNL A   1      37.147  31.840  38.434  1.00  0.00    -0.200 F 
ATOM     73  C   UNL A   1      38.635  33.552  37.776  1.00  0.00     0.200 A 
ATOM     74  F   UNL A   1      40.138  35.235  37.080  1.00  0.00    -0.200 F 
ATOM     75  F   UNL A   1      38.269  34.295  38.830  1.00  0.00    -0.200 F 
ENDBRANCH  51  65
BRANCH  52  76
ATOM     76  C   UNL A   1      42.289  26.632  27.634  1.00  0.00     0.064 A 
ATOM     77  C   UNL A   1      43.307  27.069  26.775  1.00  0.00     0.173 A 
ATOM     78  C   UNL A   1      41.712  25.379  27.379  1.00  0.00     0.173 A 
ATOM     79  F   UNL A   1      43.879  28.266  26.970  1.00  0.00    -0.203 F 
ATOM     80  C   UNL A   1      43.734  26.282  25.708  1.00  0.00     0.198 A 
ATOM     81  C   UNL A   1      42.159  24.580  26.329  1.00  0.00     0.198 A 
ATOM     82  F   UNL A   1      40.742  24.911  28.177  1.00  0.00    -0.203 F 
ATOM     83  F   UNL A   1      44.696  26.730  24.891  1.00  0.00    -0.200 F 
ATOM     84  C   UNL A   1      43.168  25.033  25.492  1.00  0.00     0.200 A 
ATOM     85  F   UNL A   1      41.625  23.366  26.137  1.00  0.00    -0.200 F 
ATOM     86  F   UNL A   1      43.597  24.266  24.481  1.00  0.00    -0.200 F 
ENDBRANCH  52  76
BRANCH  64  87
ATOM     87  C   UNL A   1      44.511  27.088  34.255  1.00  0.00     0.064 A 
ATOM     88  C   UNL A   1      45.751  27.722  34.415  1.00  0.00     0.173 A 
ATOM     89  C   UNL A   1      44.306  25.867  34.914  1.00  0.00     0.173 A 
ATOM     90  F   UNL A   1      46.003  28.882  33.792  1.00  0.00    -0.203 F 
ATOM     91  C   UNL A   1      46.745  27.156  35.209  1.00  0.00     0.198 A 
ATOM     92  C   UNL A   1      45.290  25.321  35.733  1.00  0.00     0.198 A 
ATOM     93  F   UNL A   1      43.134  25.223  34.798  1.00  0.00    -0.203 F 
ATOM     94  F   UNL A   1      47.931  27.767  35.330  1.00  0.00    -0.200 F 
ATOM     95  C   UNL A   1      46.508  25.965  35.879  1.00  0.00     0.200 A 
ATOM     96  F   UNL A   1      45.052  24.179  36.394  1.00  0.00    -0.200 F 
ATOM     97  F   UNL A   1      47.456  25.438  36.667  1.00  0.00    -0.200 F 
ENDBRANCH  64  87
ENDBRANCH  38  39
ENDBRANCH  31  33
ENDBRANCH  30  31
ENDBRANCH  29  30
ENDBRANCH  28  29
ENDBRANCH   1  28
TORSDOF 16
ENDMDL
MODEL 3
REMARK VINA RESULT:     -12.1      2.216      3.143
REMARK SMILES O=C(CN1C(=O)/C(=C2/Sc3ccccc3N2CCCS(=O)(=O)[O-])SC1=S)OCCOC(=O)c1ccc(-c2c3nc(c(-c4c(F)c(F)c(F)c(F)c4F)c4ccc([nH]4)c(-c4c(F)c(F)c(F)c(F)c4F)c4nc(c(-c5c(F)c(F)c(F)c(F)c5F)c5ccc2[nH]5)C=C4)C=C3)cc1
REMARK SMILES IDX 27 1 2 2 1 3 3 4 4 5 5 6 25 7 6 8 7 9 24 10 26 11 8 12 9 13
REMARK SMILES IDX 16 14 10 15 15 16 11 17 14 18 12 19 13 20 17 21 18 22 19 23
REMARK SMILES IDX 20 24 21 25 22 26 23 27 28 28 29 29 30 30 31 31 32 32 33 33
REMARK SMILES IDX 34 34 95 35 35 36 94 37 36 38 37 39 38 40 88 41 39 42 93 43
REMARK SMILES IDX 87 44 89 45 40 46 92 47 86 48 85 49 41 51 73 52 53 53 72 54
REMARK SMILES IDX 54 55 57 56 71 57 90 58 55 59 56 60 70 62 91 63 58 64 42 65
REMARK SMILES IDX 43 66 51 67 44 68 45 69 49 70 52 71 46 72 47 73 50 74 48 75
REMARK SMILES IDX 74 76 75 77 83 78 76 79 77 80 81 81 84 82 78 83 79 84 82 85
REMARK SMILES IDX 80 86 59 87 60 88 68 89 61 90 62 91 66 92 69 93 63 94 64 95
REMARK SMILES IDX 67 96 65 97
REMARK H PARENT 89 50 57 61
REMARK Flexibility Score: inf
ROOT
ATOM      1  O   UNL A   1      37.705  21.556  24.429  1.00  0.00    -0.461 OA
ENDROOT
BRANCH   1   2
ATOM      2  C   UNL A   1      36.846  22.605  24.396  1.00  0.00     0.326 C 
ATOM      3  O   UNL A   1      37.009  23.663  24.983  1.00  0.00    -0.250 OA
BRANCH   2   4
ATOM      4  C   UNL A   1      35.675  22.252  23.446  1.00  0.00     0.250 C 
BRANCH   4   5
ATOM      5  N   UNL A   1      34.372  22.654  24.005  1.00  0.00    -0.281 N 
ATOM      6  C   UNL A   1      33.738  23.794  23.557  1.00  0.00     0.269 C 
ATOM      7  C   UNL A   1      33.563  21.893  24.805  1.00  0.00     0.148 C 
ATOM      8  O   UNL A   1      33.743  24.201  22.405  1.00  0.00    -0.268 OA
ATOM      9  C   UNL A   1      32.853  24.330  24.612  1.00  0.00     0.111 C 
ATOM     10  S   UNL A   1      32.192  22.876  25.342  1.00  0.00    -0.052 SA
ATOM     11  S   UNL A   1      33.731  20.280  25.191  1.00  0.00    -0.052 S 
ATOM     12  C   UNL A   1      32.739  25.603  25.080  1.00  0.00     0.100 C 
ATOM     13  S   UNL A   1      31.450  25.858  26.353  1.00  0.00    -0.068 SA
ATOM     14  N   UNL A   1      33.450  26.818  24.833  1.00  0.00    -0.334 N 
ATOM     15  C   UNL A   1      31.969  27.541  26.545  1.00  0.00     0.037 A 
ATOM     16  C   UNL A   1      33.074  27.853  25.741  1.00  0.00     0.056 A 
ATOM     17  C   UNL A   1      31.368  28.478  27.374  1.00  0.00     0.017 A 
ATOM     18  C   UNL A   1      33.667  29.110  25.893  1.00  0.00     0.027 A 
ATOM     19  C   UNL A   1      31.924  29.753  27.460  1.00  0.00     0.001 A 
ATOM     20  C   UNL A   1      33.087  30.057  26.747  1.00  0.00     0.002 A 
BRANCH  14  21
ATOM     21  C   UNL A   1      34.159  27.291  23.639  1.00  0.00     0.124 C 
BRANCH  21  22
ATOM     22  C   UNL A   1      33.239  27.463  22.435  1.00  0.00     0.037 C 
BRANCH  22  23
ATOM     23  C   UNL A   1      32.476  28.747  22.525  1.00  0.00     0.124 C 
BRANCH  23  24
ATOM     24  S   UNL A   1      30.721  28.701  22.760  1.00  0.00     0.095 S 
ATOM     25  O   UNL A   1      30.090  29.399  21.656  1.00  0.00    -0.243 OA
ATOM     26  O   UNL A   1      30.322  27.371  23.135  1.00  0.00    -0.243 OA
ATOM     27  O   UNL A   1      30.565  29.654  24.046  1.00  0.00    -0.748 OA
ENDBRANCH  23  24
ENDBRANCH  22  23
ENDBRANCH  21  22
ENDBRANCH  14  21
ENDBRANCH   4   5
ENDBRANCH   2   4
ENDBRANCH   1   2
BRANCH   1  28
ATOM     28  C   UNL A   1      37.387  20.231  24.947  1.00  0.00     0.274 C 
BRANCH  28  29
ATOM     29  C   UNL A   1      38.745  19.524  25.173  1.00  0.00     0.275 C 
BRANCH  29  30
ATOM     30  O   UNL A   1      39.546  20.242  26.129  1.00  0.00    -0.458 OA
BRANCH  30  31
ATOM     31  C   UNL A   1      40.848  19.878  26.104  1.00  0.00     0.338 C 
ATOM     32  O   UNL A   1      41.282  18.823  25.669  1.00  0.00    -0.246 OA
BRANCH  31  33
ATOM     33  C   UNL A   1      41.712  21.031  26.441  1.00  0.00     0.060 A 
ATOM     34  C   UNL A   1      42.259  21.877  25.472  1.00  0.00     0.016 A 
ATOM     35  C   UNL A   1      41.958  21.265  27.801  1.00  0.00     0.016 A 
ATOM     36  C   UNL A   1      42.955  23.018  25.876  1.00  0.00     0.010 A 
ATOM     37  C   UNL A   1      42.636  22.412  28.203  1.00  0.00     0.010 A 
ATOM     38  C   UNL A   1      43.090  23.322  27.242  1.00  0.00    -0.014 A 
BRANCH  38  39
ATOM     39  C   UNL A   1      43.509  24.681  27.654  1.00  0.00     0.031 A 
ATOM     40  C   UNL A   1      44.946  25.078  27.733  1.00  0.00     0.074 A 
ATOM     41  C   UNL A   1      42.540  25.555  27.992  1.00  0.00     0.049 A 
ATOM     42  N   UNL A   1      45.456  26.259  27.967  1.00  0.00    -0.248 NA
ATOM     43  C   UNL A   1      45.940  24.015  27.539  1.00  0.00     0.031 C 
ATOM     44  C   UNL A   1      41.108  25.246  28.013  1.00  0.00     0.029 A 
ATOM     45  N   UNL A   1      42.602  26.871  28.369  1.00  0.00    -0.354 N 
ATOM     46  C   UNL A   1      46.831  26.093  27.913  1.00  0.00     0.074 A 
ATOM     47  C   UNL A   1      47.077  24.683  27.689  1.00  0.00     0.031 C 
ATOM     48  C   UNL A   1      40.425  26.351  28.341  1.00  0.00     0.029 A 
ATOM     49  C   UNL A   1      41.369  27.437  28.583  1.00  0.00     0.049 A 
ATOM     50  H   UNL A   1      43.448  27.363  28.477  1.00  0.00     0.167 HD
ATOM     51  C   UNL A   1      47.791  27.042  28.018  1.00  0.00     0.037 A 
ATOM     52  C   UNL A   1      41.034  28.695  28.927  1.00  0.00     0.037 A 
ATOM     53  C   UNL A   1      47.526  28.433  28.280  1.00  0.00     0.049 A 
ATOM     54  C   UNL A   1      42.122  29.716  29.093  1.00  0.00     0.074 A 
ATOM     55  C   UNL A   1      48.426  29.481  28.361  1.00  0.00     0.029 A 
ATOM     56  N   UNL A   1      46.269  28.967  28.532  1.00  0.00    -0.354 N 
ATOM     57  N   UNL A   1      43.413  29.578  28.918  1.00  0.00    -0.248 NA
ATOM     58  C   UNL A   1      41.710  31.066  29.499  1.00  0.00     0.031 C 
ATOM     59  C   UNL A   1      47.724  30.632  28.734  1.00  0.00     0.029 A 
ATOM     60  C   UNL A   1      46.377  30.319  28.820  1.00  0.00     0.049 A 
ATOM     61  H   UNL A   1      45.425  28.460  28.510  1.00  0.00     0.167 HD
ATOM     62  C   UNL A   1      43.970  30.822  29.179  1.00  0.00     0.074 A 
ATOM     63  C   UNL A   1      42.871  31.709  29.504  1.00  0.00     0.031 C 
ATOM     64  C   UNL A   1      45.275  31.190  29.151  1.00  0.00     0.037 A 
BRANCH  51  65
ATOM     65  C   UNL A   1      49.218  26.609  27.846  1.00  0.00     0.064 A 
ATOM     66  C   UNL A   1      49.786  26.455  26.572  1.00  0.00     0.173 A 
ATOM     67  C   UNL A   1      50.045  26.407  28.961  1.00  0.00     0.173 A 
ATOM     68  F   UNL A   1      49.038  26.634  25.472  1.00  0.00    -0.203 F 
ATOM     69  C   UNL A   1      51.122  26.092  26.421  1.00  0.00     0.198 A 
ATOM     70  C   UNL A   1      51.388  26.073  28.806  1.00  0.00     0.198 A 
ATOM     71  F   UNL A   1      49.556  26.552  30.202  1.00  0.00    -0.203 F 
ATOM     72  F   UNL A   1      51.632  25.916  25.194  1.00  0.00    -0.200 F 
ATOM     73  C   UNL A   1      51.924  25.910  27.537  1.00  0.00     0.200 A 
ATOM     74  F   UNL A   1      52.167  25.917  29.886  1.00  0.00    -0.200 F 
ATOM     75  F   UNL A   1      53.214  25.578  27.391  1.00  0.00    -0.200 F 
ENDBRANCH  51  65
BRANCH  52  76
ATOM     76  C   UNL A   1      39.599  29.045  29.081  1.00  0.00     0.064 A 
ATOM     77  C   UNL A   1      38.823  29.404  27.970  1.00  0.00     0.173 A 
ATOM     78  C   UNL A   1      38.957  28.961  30.326  1.00  0.00     0.173 A 
ATOM     79  F   UNL A   1      39.394  29.510  26.762  1.00  0.00    -0.203 F 
ATOM     80  C   UNL A   1      37.460  29.662  28.099  1.00  0.00     0.198 A 
ATOM     81  C   UNL A   1      37.589  29.192  30.449  1.00  0.00     0.198 A 
ATOM     82  F   UNL A   1      39.653  28.613  31.418  1.00  0.00    -0.203 F 
ATOM     83  F   UNL A   1      36.745  30.020  27.024  1.00  0.00    -0.200 F 
ATOM     84  C   UNL A   1      36.842  29.544  29.335  1.00  0.00     0.200 A 
ATOM     85  F   UNL A   1      36.992  29.057  31.640  1.00  0.00    -0.200 F 
ATOM     86  F   UNL A   1      35.526  29.769  29.453  1.00  0.00    -0.200 F 
ENDBRANCH  52  76
BRANCH  64  87
ATOM     87  C   UNL A   1      45.605  32.615  29.491  1.00  0.00     0.064 A 
ATOM     88  C   UNL A   1      45.991  32.984  30.788  1.00  0.00     0.173 A 
ATOM     89  C   UNL A   1      45.637  33.598  28.490  1.00  0.00     0.173 A 
ATOM     90  F   UNL A   1      45.962  32.086  31.784  1.00  0.00    -0.203 F 
ATOM     91  C   UNL A   1      46.399  34.285  31.069  1.00  0.00     0.198 A 
ATOM     92  C   UNL A   1      46.076  34.889  28.768  1.00  0.00     0.198 A 
ATOM     93  F   UNL A   1      45.282  33.294  27.232  1.00  0.00    -0.203 F 
ATOM     94  F   UNL A   1      46.742  34.622  32.319  1.00  0.00    -0.200 F 
ATOM     95  C   UNL A   1      46.455  35.232  30.057  1.00  0.00     0.200 A 
ATOM     96  F   UNL A   1      46.147  35.797  27.785  1.00  0.00    -0.200 F 
ATOM     97  F   UNL A   1      46.877  36.476  30.323  1.00  0.00    -0.200 F 
ENDBRANCH  64  87
ENDBRANCH  38  39
ENDBRANCH  31  33
ENDBRANCH  30  31
ENDBRANCH  29  30
ENDBRANCH  28  29
ENDBRANCH   1  28
TORSDOF 16
ENDMDL
