MODEL 1
REMARK VINA RESULT:     -13.5      0.000      0.000
REMARK SMILES CC1=CC[C@@](C(=O)N/N=C/C2=C([O-])CC(C)(C)CC2=O)(C(=O)OCCOC(=O)c2ccc(-c3c4nc(c(-c5c(F)c(F)c(F)c(F)c5F)c5ccc([nH]5)c(-c5c(F)c(F)c(F)c(F)c5F)c5nc(c(-c6c(F)c(F)c(F)c(F)c6F)c6ccc3[nH]6)C=C5)C=C4)cc2)C[C@@H]1c1ccccc1
REMARK SMILES IDX 24 1 23 2 21 3 22 4 5 5 1 6 2 7 3 8 93 9 4 10 92 11 94 12
REMARK SMILES IDX 95 13 99 14 96 15 98 16 97 17 6 18 7 19 8 20 9 22 10 23
REMARK SMILES IDX 11 24 12 25 19 26 13 27 14 28 18 29 20 30 15 31 16 32 17 33
REMARK SMILES IDX 25 34 26 35 27 36 28 37 29 38 30 39 91 40 31 41 90 42 32 43
REMARK SMILES IDX 33 44 34 45 84 46 35 47 89 48 83 49 85 50 36 51 88 52 82 53
REMARK SMILES IDX 81 54 37 56 69 57 49 58 68 59 50 60 53 61 67 62 86 63 51 64
REMARK SMILES IDX 52 65 66 67 87 68 54 69 38 70 39 71 47 72 40 73 41 74 45 75
REMARK SMILES IDX 48 76 42 77 43 78 46 79 44 80 70 81 71 82 79 83 72 84 73 85
REMARK SMILES IDX 77 86 80 87 74 88 75 89 78 90 76 91 55 92 56 93 64 94 57 95
REMARK SMILES IDX 58 96 62 97 65 98 59 99 60 100 63 101 61 102
REMARK H PARENT 8 21 85 55 53 66
REMARK Flexibility Score: inf
ROOT
ATOM      1  C   UNL A   1      31.471  28.605  27.108  1.00  0.00     0.274 C 
ENDROOT
BRANCH   1   2
ATOM      2  O   UNL A   1      32.156  27.351  26.893  1.00  0.00    -0.461 OA
BRANCH   2   3
ATOM      3  C   UNL A   1      31.340  26.298  26.600  1.00  0.00     0.322 C 
ATOM      4  O   UNL A   1      30.142  26.279  26.867  1.00  0.00    -0.251 OA
BRANCH   3   5
ATOM      5  C   UNL A   1      32.064  25.186  25.819  1.00  0.00     0.152 C 
ATOM      6  C   UNL A   1      35.804  23.351  24.282  1.00  0.00     0.040 C 
ATOM      7  C   UNL A   1      34.649  24.108  24.876  1.00  0.00    -0.070 C 
ATOM      8  C   UNL A   1      34.256  23.883  26.144  1.00  0.00    -0.026 C 
ATOM      9  C   UNL A   1      34.036  25.213  24.050  1.00  0.00     0.046 C 
ATOM     10  C   UNL A   1      33.033  24.485  26.788  1.00  0.00     0.056 C 
ATOM     11  C   UNL A   1      32.868  25.951  24.730  1.00  0.00     0.042 C 
BRANCH   9  12
ATOM     12  C   UNL A   1      33.659  24.970  22.598  1.00  0.00    -0.041 A 
ATOM     13  C   UNL A   1      33.280  26.095  21.834  1.00  0.00     0.004 A 
ATOM     14  C   UNL A   1      33.486  23.701  22.045  1.00  0.00     0.004 A 
ATOM     15  C   UNL A   1      32.700  25.953  20.577  1.00  0.00     0.000 A 
ATOM     16  C   UNL A   1      32.904  23.559  20.780  1.00  0.00     0.000 A 
ATOM     17  C   UNL A   1      32.500  24.681  20.056  1.00  0.00     0.000 A 
ENDBRANCH   9  12
BRANCH   5  18
ATOM     18  C   UNL A   1      30.980  24.310  25.146  1.00  0.00     0.257 C 
ATOM     19  O   UNL A   1      30.926  23.093  25.372  1.00  0.00    -0.272 OA
ATOM     20  N   UNL A   1      29.986  24.827  24.346  1.00  0.00    -0.246 N 
ATOM     21  H   UNL A   1      29.276  24.218  24.042  1.00  0.00     0.193 HD
BRANCH  20  22
ATOM     22  N   UNL A   1      29.926  26.115  23.952  1.00  0.00    -0.181 NA
ATOM     23  C   UNL A   1      28.820  26.561  23.451  1.00  0.00     0.144 C 
BRANCH  23  24
ATOM     24  C   UNL A   1      28.631  28.005  23.128  1.00  0.00     0.026 C 
ATOM     25  C   UNL A   1      27.470  28.637  23.394  1.00  0.00    -0.119 C 
ATOM     26  C   UNL A   1      29.773  28.834  22.637  1.00  0.00     0.164 C 
ATOM     27  O   UNL A   1      26.334  28.011  23.873  1.00  0.00    -0.875 OA
ATOM     28  C   UNL A   1      27.278  30.138  23.306  1.00  0.00     0.026 C 
ATOM     29  C   UNL A   1      29.760  30.313  22.957  1.00  0.00     0.087 C 
ATOM     30  O   UNL A   1      30.700  28.337  22.000  1.00  0.00    -0.294 OA
ATOM     31  C   UNL A   1      28.404  30.933  22.610  1.00  0.00    -0.025 C 
ATOM     32  C   UNL A   1      28.203  30.938  21.082  1.00  0.00     0.012 C 
ATOM     33  C   UNL A   1      28.372  32.393  23.101  1.00  0.00     0.012 C 
ENDBRANCH  23  24
ENDBRANCH  20  22
ENDBRANCH   5  18
ENDBRANCH   3   5
ENDBRANCH   2   3
ENDBRANCH   1   2
BRANCH   1  34
ATOM     34  C   UNL A   1      31.647  29.497  25.876  1.00  0.00     0.275 C 
BRANCH  34  35
ATOM     35  O   UNL A   1      32.966  30.077  25.882  1.00  0.00    -0.458 OA
BRANCH  35  36
ATOM     36  C   UNL A   1      33.163  31.075  26.777  1.00  0.00     0.338 C 
ATOM     37  O   UNL A   1      32.411  32.022  26.976  1.00  0.00    -0.246 OA
BRANCH  36  38
ATOM     38  C   UNL A   1      34.419  30.856  27.547  1.00  0.00     0.060 A 
ATOM     39  C   UNL A   1      35.276  31.911  27.858  1.00  0.00     0.016 A 
ATOM     40  C   UNL A   1      34.793  29.561  27.913  1.00  0.00     0.016 A 
ATOM     41  C   UNL A   1      36.523  31.675  28.443  1.00  0.00     0.010 A 
ATOM     42  C   UNL A   1      35.990  29.342  28.615  1.00  0.00     0.010 A 
ATOM     43  C   UNL A   1      36.883  30.396  28.882  1.00  0.00    -0.014 A 
BRANCH  43  44
ATOM     44  C   UNL A   1      38.156  30.163  29.638  1.00  0.00     0.031 A 
ATOM     45  C   UNL A   1      39.248  29.295  29.063  1.00  0.00     0.074 A 
ATOM     46  C   UNL A   1      38.338  30.691  30.868  1.00  0.00     0.049 A 
ATOM     47  N   UNL A   1      40.275  28.744  29.664  1.00  0.00    -0.248 NA
ATOM     48  C   UNL A   1      39.164  28.988  27.627  1.00  0.00     0.031 C 
ATOM     49  C   UNL A   1      37.407  31.580  31.564  1.00  0.00     0.029 A 
ATOM     50  N   UNL A   1      39.376  30.547  31.764  1.00  0.00    -0.354 N 
ATOM     51  C   UNL A   1      40.907  27.964  28.704  1.00  0.00     0.074 A 
ATOM     52  C   UNL A   1      40.163  28.127  27.473  1.00  0.00     0.031 C 
ATOM     53  C   UNL A   1      37.923  31.929  32.751  1.00  0.00     0.029 A 
ATOM     54  C   UNL A   1      39.168  31.200  32.957  1.00  0.00     0.049 A 
ATOM     55  H   UNL A   1      40.189  30.026  31.569  1.00  0.00     0.167 HD
ATOM     56  C   UNL A   1      42.001  27.175  28.843  1.00  0.00     0.037 A 
ATOM     57  C   UNL A   1      39.851  31.169  34.118  1.00  0.00     0.037 A 
ATOM     58  C   UNL A   1      42.797  27.077  30.041  1.00  0.00     0.049 A 
ATOM     59  C   UNL A   1      41.055  30.281  34.248  1.00  0.00     0.074 A 
ATOM     60  C   UNL A   1      43.956  26.348  30.247  1.00  0.00     0.029 A 
ATOM     61  N   UNL A   1      42.531  27.744  31.225  1.00  0.00    -0.354 N 
ATOM     62  N   UNL A   1      41.604  29.497  33.356  1.00  0.00    -0.248 NA
ATOM     63  C   UNL A   1      41.714  30.249  35.563  1.00  0.00     0.031 C 
ATOM     64  C   UNL A   1      44.373  26.545  31.568  1.00  0.00     0.029 A 
ATOM     65  C   UNL A   1      43.495  27.428  32.171  1.00  0.00     0.049 A 
ATOM     66  H   UNL A   1      41.771  28.352  31.374  1.00  0.00     0.167 HD
ATOM     67  C   UNL A   1      42.666  28.876  33.997  1.00  0.00     0.074 A 
ATOM     68  C   UNL A   1      42.707  29.398  35.346  1.00  0.00     0.031 C 
ATOM     69  C   UNL A   1      43.522  27.944  33.513  1.00  0.00     0.037 A 
BRANCH  56  70
ATOM     70  C   UNL A   1      42.404  26.315  27.681  1.00  0.00     0.064 A 
ATOM     71  C   UNL A   1      43.409  26.697  26.784  1.00  0.00     0.173 A 
ATOM     72  C   UNL A   1      41.831  25.041  27.524  1.00  0.00     0.173 A 
ATOM     73  F   UNL A   1      43.981  27.906  26.885  1.00  0.00    -0.203 F 
ATOM     74  C   UNL A   1      43.820  25.840  25.764  1.00  0.00     0.198 A 
ATOM     75  C   UNL A   1      42.263  24.179  26.521  1.00  0.00     0.198 A 
ATOM     76  F   UNL A   1      40.873  24.624  28.365  1.00  0.00    -0.203 F 
ATOM     77  F   UNL A   1      44.766  26.235  24.901  1.00  0.00    -0.200 F 
ATOM     78  C   UNL A   1      43.254  24.580  25.640  1.00  0.00     0.200 A 
ATOM     79  F   UNL A   1      41.725  22.955  26.413  1.00  0.00    -0.200 F 
ATOM     80  F   UNL A   1      43.667  23.750  24.671  1.00  0.00    -0.200 F 
ENDBRANCH  56  70
BRANCH  57  81
ATOM     81  C   UNL A   1      39.359  31.948  35.286  1.00  0.00     0.064 A 
ATOM     82  C   UNL A   1      38.533  31.358  36.251  1.00  0.00     0.173 A 
ATOM     83  C   UNL A   1      39.701  33.298  35.455  1.00  0.00     0.173 A 
ATOM     84  F   UNL A   1      38.150  30.080  36.115  1.00  0.00    -0.203 F 
ATOM     85  C   UNL A   1      38.059  32.092  37.338  1.00  0.00     0.198 A 
ATOM     86  C   UNL A   1      39.257  34.021  36.560  1.00  0.00     0.198 A 
ATOM     87  F   UNL A   1      40.484  33.911  34.555  1.00  0.00    -0.203 F 
ATOM     88  F   UNL A   1      37.233  31.518  38.223  1.00  0.00    -0.200 F 
ATOM     89  C   UNL A   1      38.430  33.420  37.496  1.00  0.00     0.200 A 
ATOM     90  F   UNL A   1      39.629  35.299  36.715  1.00  0.00    -0.200 F 
ATOM     91  F   UNL A   1      37.983  34.123  38.546  1.00  0.00    -0.200 F 
ENDBRANCH  57  81
BRANCH  69  92
ATOM     92  C   UNL A   1      44.579  27.437  34.448  1.00  0.00     0.064 A 
ATOM     93  C   UNL A   1      44.374  26.288  35.226  1.00  0.00     0.173 A 
ATOM     94  C   UNL A   1      45.814  28.092  34.554  1.00  0.00     0.173 A 
ATOM     95  F   UNL A   1      43.202  25.637  35.173  1.00  0.00    -0.203 F 
ATOM     96  C   UNL A   1      45.360  25.826  36.093  1.00  0.00     0.198 A 
ATOM     97  C   UNL A   1      46.807  27.615  35.405  1.00  0.00     0.198 A 
ATOM     98  F   UNL A   1      46.059  29.195  33.829  1.00  0.00    -0.203 F 
ATOM     99  F   UNL A   1      45.127  24.753  36.860  1.00  0.00    -0.200 F 
ATOM    100  C   UNL A   1      46.577  26.486  36.179  1.00  0.00     0.200 A 
ATOM    101  F   UNL A   1      47.985  28.250  35.481  1.00  0.00    -0.200 F 
ATOM    102  F   UNL A   1      47.525  26.042  37.014  1.00  0.00    -0.200 F 
ENDBRANCH  69  92
ENDBRANCH  43  44
ENDBRANCH  36  38
ENDBRANCH  35  36
ENDBRANCH  34  35
ENDBRANCH   1  34
TORSDOF 15
ENDMDL
MODEL 2
REMARK VINA RESULT:     -13.4      0.213      1.524
REMARK SMILES CC1=CC[C@@](C(=O)N/N=C/C2=C([O-])CC(C)(C)CC2=O)(C(=O)OCCOC(=O)c2ccc(-c3c4nc(c(-c5c(F)c(F)c(F)c(F)c5F)c5ccc([nH]5)c(-c5c(F)c(F)c(F)c(F)c5F)c5nc(c(-c6c(F)c(F)c(F)c(F)c6F)c6ccc3[nH]6)C=C5)C=C4)cc2)C[C@@H]1c1ccccc1
REMARK SMILES IDX 24 1 23 2 21 3 22 4 5 5 1 6 2 7 3 8 93 9 4 10 92 11 94 12
REMARK SMILES IDX 95 13 99 14 96 15 98 16 97 17 6 18 7 19 8 20 9 22 10 23
REMARK SMILES IDX 11 24 12 25 19 26 13 27 14 28 18 29 20 30 15 31 16 32 17 33
REMARK SMILES IDX 25 34 26 35 27 36 28 37 29 38 30 39 91 40 31 41 90 42 32 43
REMARK SMILES IDX 33 44 34 45 84 46 35 47 89 48 83 49 85 50 36 51 88 52 82 53
REMARK SMILES IDX 81 54 37 56 69 57 49 58 68 59 50 60 53 61 67 62 86 63 51 64
REMARK SMILES IDX 52 65 66 67 87 68 54 69 38 70 39 71 47 72 40 73 41 74 45 75
REMARK SMILES IDX 48 76 42 77 43 78 46 79 44 80 70 81 71 82 79 83 72 84 73 85
REMARK SMILES IDX 77 86 80 87 74 88 75 89 78 90 76 91 55 92 56 93 64 94 57 95
REMARK SMILES IDX 58 96 62 97 65 98 59 99 60 100 63 101 61 102
REMARK H PARENT 8 21 85 55 53 66
REMARK Flexibility Score: inf
ROOT
ATOM      1  C   UNL A   1      31.558  28.585  27.105  1.00  0.00     0.274 C 
ENDROOT
BRANCH   1   2
ATOM      2  O   UNL A   1      32.242  27.329  26.897  1.00  0.00    -0.461 OA
BRANCH   2   3
ATOM      3  C   UNL A   1      31.426  26.280  26.587  1.00  0.00     0.322 C 
ATOM      4  O   UNL A   1      30.223  26.267  26.832  1.00  0.00    -0.251 OA
BRANCH   3   5
ATOM      5  C   UNL A   1      32.159  25.166  25.817  1.00  0.00     0.152 C 
ATOM      6  C   UNL A   1      35.913  23.356  24.284  1.00  0.00     0.040 C 
ATOM      7  C   UNL A   1      34.752  24.106  24.874  1.00  0.00    -0.070 C 
ATOM      8  C   UNL A   1      34.369  23.895  26.147  1.00  0.00    -0.026 C 
ATOM      9  C   UNL A   1      34.120  25.192  24.036  1.00  0.00     0.046 C 
ATOM     10  C   UNL A   1      33.143  24.491  26.790  1.00  0.00     0.056 C 
ATOM     11  C   UNL A   1      32.947  25.925  24.712  1.00  0.00     0.042 C 
BRANCH   9  12
ATOM     12  C   UNL A   1      33.738  24.924  22.590  1.00  0.00    -0.041 A 
ATOM     13  C   UNL A   1      33.320  26.030  21.819  1.00  0.00     0.004 A 
ATOM     14  C   UNL A   1      33.596  23.645  22.051  1.00  0.00     0.004 A 
ATOM     15  C   UNL A   1      32.734  25.859  20.568  1.00  0.00     0.000 A 
ATOM     16  C   UNL A   1      33.007  23.473  20.793  1.00  0.00     0.000 A 
ATOM     17  C   UNL A   1      32.565  24.576  20.061  1.00  0.00     0.000 A 
ENDBRANCH   9  12
BRANCH   5  18
ATOM     18  C   UNL A   1      31.082  24.267  25.163  1.00  0.00     0.257 C 
ATOM     19  O   UNL A   1      31.054  23.051  25.395  1.00  0.00    -0.272 OA
ATOM     20  N   UNL A   1      30.068  24.763  24.375  1.00  0.00    -0.246 N 
ATOM     21  H   UNL A   1      29.364  24.139  24.084  1.00  0.00     0.193 HD
BRANCH  20  22
ATOM     22  N   UNL A   1      29.978  26.047  23.976  1.00  0.00    -0.181 NA
ATOM     23  C   UNL A   1      28.868  26.463  23.460  1.00  0.00     0.144 C 
BRANCH  23  24
ATOM     24  C   UNL A   1      28.645  27.900  23.130  1.00  0.00     0.026 C 
ATOM     25  C   UNL A   1      27.480  28.514  23.423  1.00  0.00    -0.119 C 
ATOM     26  C   UNL A   1      29.758  28.744  22.601  1.00  0.00     0.164 C 
ATOM     27  O   UNL A   1      26.369  27.872  23.937  1.00  0.00    -0.875 OA
ATOM     28  C   UNL A   1      27.259  30.011  23.326  1.00  0.00     0.026 C 
ATOM     29  C   UNL A   1      29.727  30.226  22.909  1.00  0.00     0.087 C 
ATOM     30  O   UNL A   1      30.676  28.258  21.944  1.00  0.00    -0.294 OA
ATOM     31  C   UNL A   1      28.352  30.819  22.594  1.00  0.00    -0.025 C 
ATOM     32  C   UNL A   1      28.110  30.807  21.072  1.00  0.00     0.012 C 
ATOM     33  C   UNL A   1      28.307  32.282  23.073  1.00  0.00     0.012 C 
ENDBRANCH  23  24
ENDBRANCH  20  22
ENDBRANCH   5  18
ENDBRANCH   3   5
ENDBRANCH   2   3
ENDBRANCH   1   2
BRANCH   1  34
ATOM     34  C   UNL A   1      31.782  29.492  25.893  1.00  0.00     0.275 C 
BRANCH  34  35
ATOM     35  O   UNL A   1      33.108  30.054  25.945  1.00  0.00    -0.458 OA
BRANCH  35  36
ATOM     36  C   UNL A   1      33.287  31.051  26.845  1.00  0.00     0.338 C 
ATOM     37  O   UNL A   1      32.517  31.981  27.050  1.00  0.00    -0.246 OA
BRANCH  36  38
ATOM     38  C   UNL A   1      34.549  30.852  27.611  1.00  0.00     0.060 A 
ATOM     39  C   UNL A   1      35.402  31.917  27.897  1.00  0.00     0.016 A 
ATOM     40  C   UNL A   1      34.932  29.566  28.000  1.00  0.00     0.016 A 
ATOM     41  C   UNL A   1      36.653  31.699  28.479  1.00  0.00     0.010 A 
ATOM     42  C   UNL A   1      36.135  29.367  28.699  1.00  0.00     0.010 A 
ATOM     43  C   UNL A   1      37.023  30.431  28.939  1.00  0.00    -0.014 A 
BRANCH  43  44
ATOM     44  C   UNL A   1      38.301  30.219  29.693  1.00  0.00     0.031 A 
ATOM     45  C   UNL A   1      39.390  29.337  29.132  1.00  0.00     0.074 A 
ATOM     46  C   UNL A   1      38.492  30.779  30.907  1.00  0.00     0.049 A 
ATOM     47  N   UNL A   1      40.422  28.803  29.740  1.00  0.00    -0.248 NA
ATOM     48  C   UNL A   1      39.296  28.993  27.705  1.00  0.00     0.031 C 
ATOM     49  C   UNL A   1      37.565  31.684  31.586  1.00  0.00     0.029 A 
ATOM     50  N   UNL A   1      39.536  30.659  31.798  1.00  0.00    -0.354 N 
ATOM     51  C   UNL A   1      41.049  27.999  28.796  1.00  0.00     0.074 A 
ATOM     52  C   UNL A   1      40.295  28.130  27.567  1.00  0.00     0.031 C 
ATOM     53  C   UNL A   1      38.089  32.065  32.760  1.00  0.00     0.029 A 
ATOM     54  C   UNL A   1      39.336  31.342  32.976  1.00  0.00     0.049 A 
ATOM     55  H   UNL A   1      40.348  30.134  31.612  1.00  0.00     0.167 HD
ATOM     56  C   UNL A   1      42.144  27.215  28.947  1.00  0.00     0.037 A 
ATOM     57  C   UNL A   1      40.027  31.343  34.133  1.00  0.00     0.037 A 
ATOM     58  C   UNL A   1      42.949  27.149  30.142  1.00  0.00     0.049 A 
ATOM     59  C   UNL A   1      41.234  30.460  34.277  1.00  0.00     0.074 A 
ATOM     60  C   UNL A   1      44.111  26.427  30.358  1.00  0.00     0.029 A 
ATOM     61  N   UNL A   1      42.691  27.846  31.310  1.00  0.00    -0.354 N 
ATOM     62  N   UNL A   1      41.777  29.653  33.401  1.00  0.00    -0.248 NA
ATOM     63  C   UNL A   1      41.902  30.462  35.587  1.00  0.00     0.031 C 
ATOM     64  C   UNL A   1      44.537  26.658  31.671  1.00  0.00     0.029 A 
ATOM     65  C   UNL A   1      43.662  27.556  32.257  1.00  0.00     0.049 A 
ATOM     66  H   UNL A   1      41.931  28.457  31.449  1.00  0.00     0.167 HD
ATOM     67  C   UNL A   1      42.844  29.050  34.051  1.00  0.00     0.074 A 
ATOM     68  C   UNL A   1      42.895  29.607  35.386  1.00  0.00     0.031 C 
ATOM     69  C   UNL A   1      43.698  28.106  33.585  1.00  0.00     0.037 A 
BRANCH  56  70
ATOM     70  C   UNL A   1      42.541  26.325  27.805  1.00  0.00     0.064 A 
ATOM     71  C   UNL A   1      41.917  25.094  27.569  1.00  0.00     0.173 A 
ATOM     72  C   UNL A   1      43.502  26.766  26.879  1.00  0.00     0.173 A 
ATOM     73  F   UNL A   1      41.000  24.625  28.428  1.00  0.00    -0.203 F 
ATOM     74  C   UNL A   1      42.248  24.328  26.452  1.00  0.00     0.198 A 
ATOM     75  C   UNL A   1      43.811  26.010  25.752  1.00  0.00     0.198 A 
ATOM     76  F   UNL A   1      44.120  27.943  27.055  1.00  0.00    -0.203 F 
ATOM     77  F   UNL A   1      41.658  23.142  26.257  1.00  0.00    -0.200 F 
ATOM     78  C   UNL A   1      43.186  24.791  25.541  1.00  0.00     0.200 A 
ATOM     79  F   UNL A   1      44.706  26.467  24.865  1.00  0.00    -0.200 F 
ATOM     80  F   UNL A   1      43.487  24.062  24.457  1.00  0.00    -0.200 F 
ENDBRANCH  56  70
BRANCH  57  81
ATOM     81  C   UNL A   1      39.543  32.150  35.283  1.00  0.00     0.064 A 
ATOM     82  C   UNL A   1      39.970  33.472  35.469  1.00  0.00     0.173 A 
ATOM     83  C   UNL A   1      38.649  31.614  36.223  1.00  0.00     0.173 A 
ATOM     84  F   UNL A   1      40.851  34.017  34.618  1.00  0.00    -0.203 F 
ATOM     85  C   UNL A   1      39.527  34.223  36.557  1.00  0.00     0.198 A 
ATOM     86  C   UNL A   1      38.179  32.378  37.289  1.00  0.00     0.198 A 
ATOM     87  F   UNL A   1      38.215  30.352  36.093  1.00  0.00    -0.203 F 
ATOM     88  F   UNL A   1      39.986  35.469  36.738  1.00  0.00    -0.200 F 
ATOM     89  C   UNL A   1      38.624  33.679  37.460  1.00  0.00     0.200 A 
ATOM     90  F   UNL A   1      37.298  31.851  38.149  1.00  0.00    -0.200 F 
ATOM     91  F   UNL A   1      38.192  34.406  38.499  1.00  0.00    -0.200 F 
ENDBRANCH  57  81
BRANCH  69  92
ATOM     92  C   UNL A   1      44.763  27.625  34.525  1.00  0.00     0.064 A 
ATOM     93  C   UNL A   1      44.563  26.499  35.337  1.00  0.00     0.173 A 
ATOM     94  C   UNL A   1      45.999  28.282  34.603  1.00  0.00     0.173 A 
ATOM     95  F   UNL A   1      43.390  25.848  35.312  1.00  0.00    -0.203 F 
ATOM     96  C   UNL A   1      45.556  26.061  36.209  1.00  0.00     0.198 A 
ATOM     97  C   UNL A   1      46.998  27.828  35.458  1.00  0.00     0.198 A 
ATOM     98  F   UNL A   1      46.238  29.363  33.845  1.00  0.00    -0.203 F 
ATOM     99  F   UNL A   1      45.328  25.009  37.008  1.00  0.00    -0.200 F 
ATOM    100  C   UNL A   1      46.774  26.722  36.266  1.00  0.00     0.200 A 
ATOM    101  F   UNL A   1      48.177  28.463  35.507  1.00  0.00    -0.200 F 
ATOM    102  F   UNL A   1      47.728  26.299  37.105  1.00  0.00    -0.200 F 
ENDBRANCH  69  92
ENDBRANCH  43  44
ENDBRANCH  36  38
ENDBRANCH  35  36
ENDBRANCH  34  35
ENDBRANCH   1  34
TORSDOF 15
ENDMDL
MODEL 3
REMARK VINA RESULT:     -13.1      3.479      7.800
REMARK SMILES CC1=CC[C@@](C(=O)N/N=C/C2=C([O-])CC(C)(C)CC2=O)(C(=O)OCCOC(=O)c2ccc(-c3c4nc(c(-c5c(F)c(F)c(F)c(F)c5F)c5ccc([nH]5)c(-c5c(F)c(F)c(F)c(F)c5F)c5nc(c(-c6c(F)c(F)c(F)c(F)c6F)c6ccc3[nH]6)C=C5)C=C4)cc2)C[C@@H]1c1ccccc1
REMARK SMILES IDX 24 1 23 2 21 3 22 4 5 5 1 6 2 7 3 8 93 9 4 10 92 11 94 12
REMARK SMILES IDX 95 13 99 14 96 15 98 16 97 17 6 18 7 19 8 20 9 22 10 23
REMARK SMILES IDX 11 24 12 25 19 26 13 27 14 28 18 29 20 30 15 31 16 32 17 33
REMARK SMILES IDX 25 34 26 35 27 36 28 37 29 38 30 39 91 40 31 41 90 42 32 43
REMARK SMILES IDX 33 44 34 45 84 46 35 47 89 48 83 49 85 50 36 51 88 52 82 53
REMARK SMILES IDX 81 54 37 56 69 57 49 58 68 59 50 60 53 61 67 62 86 63 51 64
REMARK SMILES IDX 52 65 66 67 87 68 54 69 38 70 39 71 47 72 40 73 41 74 45 75
REMARK SMILES IDX 48 76 42 77 43 78 46 79 44 80 70 81 71 82 79 83 72 84 73 85
REMARK SMILES IDX 77 86 80 87 74 88 75 89 78 90 76 91 55 92 56 93 64 94 57 95
REMARK SMILES IDX 58 96 62 97 65 98 59 99 60 100 63 101 61 102
REMARK H PARENT 8 21 85 55 53 66
REMARK Flexibility Score: inf
ROOT
ATOM      1  C   UNL A   1      31.626  27.605  27.551  1.00  0.00     0.274 C 
ENDROOT
BRANCH   1   2
ATOM      2  O   UNL A   1      32.465  26.733  26.763  1.00  0.00    -0.461 OA
BRANCH   2   3
ATOM      3  C   UNL A   1      31.921  25.512  26.488  1.00  0.00     0.322 C 
ATOM      4  O   UNL A   1      31.074  24.977  27.198  1.00  0.00    -0.251 OA
BRANCH   3   5
ATOM      5  C   UNL A   1      32.412  24.931  25.150  1.00  0.00     0.152 C 
ATOM      6  C   UNL A   1      32.219  21.823  21.985  1.00  0.00     0.040 C 
ATOM      7  C   UNL A   1      32.148  22.776  23.144  1.00  0.00    -0.070 C 
ATOM      8  C   UNL A   1      31.270  23.797  23.145  1.00  0.00    -0.026 C 
ATOM      9  C   UNL A   1      32.998  22.473  24.355  1.00  0.00     0.046 C 
ATOM     10  C   UNL A   1      31.210  24.883  24.189  1.00  0.00     0.056 C 
ATOM     11  C   UNL A   1      32.861  23.486  25.506  1.00  0.00     0.042 C 
BRANCH   9  12
ATOM     12  C   UNL A   1      34.471  22.136  24.196  1.00  0.00    -0.041 A 
ATOM     13  C   UNL A   1      35.014  21.187  25.089  1.00  0.00     0.004 A 
ATOM     14  C   UNL A   1      35.341  22.837  23.361  1.00  0.00     0.004 A 
ATOM     15  C   UNL A   1      36.388  20.983  25.179  1.00  0.00     0.000 A 
ATOM     16  C   UNL A   1      36.721  22.630  23.450  1.00  0.00     0.000 A 
ATOM     17  C   UNL A   1      37.243  21.716  24.367  1.00  0.00     0.000 A 
ENDBRANCH   9  12
BRANCH   5  18
ATOM     18  C   UNL A   1      33.639  25.762  24.704  1.00  0.00     0.257 C 
ATOM     19  O   UNL A   1      34.786  25.392  24.989  1.00  0.00    -0.272 OA
ATOM     20  N   UNL A   1      33.539  26.885  23.914  1.00  0.00    -0.246 N 
ATOM     21  H   UNL A   1      34.372  27.295  23.588  1.00  0.00     0.193 HD
BRANCH  20  22
ATOM     22  N   UNL A   1      32.371  27.458  23.558  1.00  0.00    -0.181 NA
ATOM     23  C   UNL A   1      32.059  28.604  24.071  1.00  0.00     0.144 C 
BRANCH  23  24
ATOM     24  C   UNL A   1      30.858  29.365  23.619  1.00  0.00     0.026 C 
ATOM     25  C   UNL A   1      30.427  30.455  24.286  1.00  0.00    -0.119 C 
ATOM     26  C   UNL A   1      30.185  29.033  22.327  1.00  0.00     0.164 C 
ATOM     27  O   UNL A   1      30.963  30.900  25.481  1.00  0.00    -0.875 OA
ATOM     28  C   UNL A   1      29.364  31.403  23.770  1.00  0.00     0.026 C 
ATOM     29  C   UNL A   1      29.475  30.151  21.595  1.00  0.00     0.087 C 
ATOM     30  O   UNL A   1      30.210  27.894  21.865  1.00  0.00    -0.294 OA
ATOM     31  C   UNL A   1      28.557  30.926  22.543  1.00  0.00    -0.025 C 
ATOM     32  C   UNL A   1      27.378  30.035  22.980  1.00  0.00     0.012 C 
ATOM     33  C   UNL A   1      27.982  32.151  21.806  1.00  0.00     0.012 C 
ENDBRANCH  23  24
ENDBRANCH  20  22
ENDBRANCH   5  18
ENDBRANCH   3   5
ENDBRANCH   2   3
ENDBRANCH   1   2
BRANCH   1  34
ATOM     34  C   UNL A   1      32.179  29.032  27.491  1.00  0.00     0.275 C 
BRANCH  34  35
ATOM     35  O   UNL A   1      33.619  28.994  27.482  1.00  0.00    -0.458 OA
BRANCH  35  36
ATOM     36  C   UNL A   1      34.237  30.149  27.829  1.00  0.00     0.338 C 
ATOM     37  O   UNL A   1      33.704  31.248  27.929  1.00  0.00    -0.246 OA
BRANCH  36  38
ATOM     38  C   UNL A   1      35.677  29.911  28.125  1.00  0.00     0.060 A 
ATOM     39  C   UNL A   1      36.663  30.127  27.163  1.00  0.00     0.016 A 
ATOM     40  C   UNL A   1      36.056  29.396  29.366  1.00  0.00     0.016 A 
ATOM     41  C   UNL A   1      37.989  29.755  27.398  1.00  0.00     0.010 A 
ATOM     42  C   UNL A   1      37.410  29.142  29.644  1.00  0.00     0.010 A 
ATOM     43  C   UNL A   1      38.400  29.307  28.658  1.00  0.00    -0.014 A 
BRANCH  43  44
ATOM     44  C   UNL A   1      39.845  29.044  28.958  1.00  0.00     0.031 A 
ATOM     45  C   UNL A   1      40.695  30.091  29.635  1.00  0.00     0.074 A 
ATOM     46  C   UNL A   1      40.430  27.883  28.592  1.00  0.00     0.049 A 
ATOM     47  N   UNL A   1      42.000  30.175  29.719  1.00  0.00    -0.248 NA
ATOM     48  C   UNL A   1      39.985  31.201  30.289  1.00  0.00     0.031 C 
ATOM     49  C   UNL A   1      39.756  26.749  27.959  1.00  0.00     0.029 A 
ATOM     50  N   UNL A   1      41.739  27.465  28.692  1.00  0.00    -0.354 N 
ATOM     51  C   UNL A   1      42.267  31.380  30.356  1.00  0.00     0.074 A 
ATOM     52  C   UNL A   1      40.988  31.987  30.659  1.00  0.00     0.031 C 
ATOM     53  C   UNL A   1      40.637  25.758  27.762  1.00  0.00     0.029 A 
ATOM     54  C   UNL A   1      41.964  26.223  28.143  1.00  0.00     0.049 A 
ATOM     55  H   UNL A   1      42.447  28.003  29.115  1.00  0.00     0.167 HD
ATOM     56  C   UNL A   1      43.470  31.933  30.650  1.00  0.00     0.037 A 
ATOM     57  C   UNL A   1      43.107  25.552  27.900  1.00  0.00     0.037 A 
ATOM     58  C   UNL A   1      44.744  31.294  30.430  1.00  0.00     0.049 A 
ATOM     59  C   UNL A   1      44.427  26.190  28.227  1.00  0.00     0.074 A 
ATOM     60  C   UNL A   1      46.007  31.759  30.754  1.00  0.00     0.029 A 
ATOM     61  N   UNL A   1      44.915  30.046  29.854  1.00  0.00    -0.354 N 
ATOM     62  N   UNL A   1      44.669  27.357  28.768  1.00  0.00    -0.248 NA
ATOM     63  C   UNL A   1      45.635  25.428  27.877  1.00  0.00     0.031 C 
ATOM     64  C   UNL A   1      46.947  30.808  30.342  1.00  0.00     0.029 A 
ATOM     65  C   UNL A   1      46.265  29.734  29.797  1.00  0.00     0.049 A 
ATOM     66  H   UNL A   1      44.187  29.467  29.532  1.00  0.00     0.167 HD
ATOM     67  C   UNL A   1      46.051  27.473  28.818  1.00  0.00     0.074 A 
ATOM     68  C   UNL A   1      46.597  26.243  28.285  1.00  0.00     0.031 C 
ATOM     69  C   UNL A   1      46.800  28.514  29.256  1.00  0.00     0.037 A 
BRANCH  56  70
ATOM     70  C   UNL A   1      43.490  33.322  31.217  1.00  0.00     0.064 A 
ATOM     71  C   UNL A   1      43.456  34.461  30.402  1.00  0.00     0.173 A 
ATOM     72  C   UNL A   1      43.450  33.507  32.610  1.00  0.00     0.173 A 
ATOM     73  F   UNL A   1      43.502  34.338  29.067  1.00  0.00    -0.203 F 
ATOM     74  C   UNL A   1      43.390  35.736  30.960  1.00  0.00     0.198 A 
ATOM     75  C   UNL A   1      43.359  34.782  33.162  1.00  0.00     0.198 A 
ATOM     76  F   UNL A   1      43.469  32.448  33.433  1.00  0.00    -0.203 F 
ATOM     77  F   UNL A   1      43.383  36.814  30.163  1.00  0.00    -0.200 F 
ATOM     78  C   UNL A   1      43.332  35.895  32.337  1.00  0.00     0.200 A 
ATOM     79  F   UNL A   1      43.286  34.931  34.492  1.00  0.00    -0.200 F 
ATOM     80  F   UNL A   1      43.248  37.122  32.870  1.00  0.00    -0.200 F 
ENDBRANCH  56  70
BRANCH  57  81
ATOM     81  C   UNL A   1      43.057  24.224  27.233  1.00  0.00     0.064 A 
ATOM     82  C   UNL A   1      43.350  24.089  25.869  1.00  0.00     0.173 A 
ATOM     83  C   UNL A   1      42.709  23.066  27.944  1.00  0.00     0.173 A 
ATOM     84  F   UNL A   1      43.654  25.171  25.139  1.00  0.00    -0.203 F 
ATOM     85  C   UNL A   1      43.288  22.845  25.241  1.00  0.00     0.198 A 
ATOM     86  C   UNL A   1      42.682  21.819  27.324  1.00  0.00     0.198 A 
ATOM     87  F   UNL A   1      42.413  23.143  29.250  1.00  0.00    -0.203 F 
ATOM     88  F   UNL A   1      43.528  22.749  23.927  1.00  0.00    -0.200 F 
ATOM     89  C   UNL A   1      42.964  21.711  25.971  1.00  0.00     0.200 A 
ATOM     90  F   UNL A   1      42.382  20.725  28.037  1.00  0.00    -0.200 F 
ATOM     91  F   UNL A   1      42.914  20.515  25.369  1.00  0.00    -0.200 F 
ENDBRANCH  57  81
BRANCH  69  92
ATOM     92  C   UNL A   1      48.290  28.362  29.182  1.00  0.00     0.064 A 
ATOM     93  C   UNL A   1      49.017  27.787  30.234  1.00  0.00     0.173 A 
ATOM     94  C   UNL A   1      48.995  28.777  28.043  1.00  0.00     0.173 A 
ATOM     95  F   UNL A   1      48.389  27.392  31.352  1.00  0.00    -0.203 F 
ATOM     96  C   UNL A   1      50.400  27.654  30.158  1.00  0.00     0.198 A 
ATOM     97  C   UNL A   1      50.375  28.620  27.960  1.00  0.00     0.198 A 
ATOM     98  F   UNL A   1      48.344  29.331  27.009  1.00  0.00    -0.203 F 
ATOM     99  F   UNL A   1      51.081  27.143  31.193  1.00  0.00    -0.200 F 
ATOM    100  C   UNL A   1      51.078  28.065  29.020  1.00  0.00     0.200 A 
ATOM    101  F   UNL A   1      51.028  29.011  26.857  1.00  0.00    -0.200 F 
ATOM    102  F   UNL A   1      52.409  27.936  28.947  1.00  0.00    -0.200 F 
ENDBRANCH  69  92
ENDBRANCH  43  44
ENDBRANCH  36  38
ENDBRANCH  35  36
ENDBRANCH  34  35
ENDBRANCH   1  34
TORSDOF 15
ENDMDL
