MODEL 1
REMARK VINA RESULT:     -12.1      0.000      0.000
REMARK SMILES Cc1cc(N2CCOC[C@H]2C(=O)OCCOC(=O)c2ccc(-c3c4nc(c(-c5c(F)c(F)c(F)c(F)c5F)c5ccc([nH]5)c(-c5c(F)c(F)c(F)c(F)c5F)c5nc(c(-c6c(F)c(F)c(F)c(F)c6F)c6ccc3[nH]6)C=C5)C=C4)cc2)ncc1[N+](=O)[O-]
REMARK SMILES IDX 14 1 13 2 11 3 12 4 10 5 5 6 6 7 7 8 9 9 8 10 4 11 1 12 2 13
REMARK SMILES IDX 3 14 84 15 83 16 82 17 85 18 86 19 87 20 15 21 16 22 17 23
REMARK SMILES IDX 18 24 19 25 20 26 81 27 21 28 80 29 22 30 23 31 24 32 74 33
REMARK SMILES IDX 25 34 79 35 73 36 75 37 26 38 78 39 72 40 71 41 27 43 59 44
REMARK SMILES IDX 39 45 58 46 40 47 43 48 57 49 76 50 41 51 42 52 56 54 77 55
REMARK SMILES IDX 44 56 28 57 29 58 37 59 30 60 31 61 35 62 38 63 32 64 33 65
REMARK SMILES IDX 36 66 34 67 60 68 61 69 69 70 62 71 63 72 67 73 70 74 64 75
REMARK SMILES IDX 65 76 68 77 66 78 45 79 46 80 54 81 47 82 48 83 52 84 55 85
REMARK SMILES IDX 49 86 50 87 53 88 51 89
REMARK H PARENT 75 42 43 53
REMARK Flexibility Score: inf
ROOT
ATOM      1  C   UNL A   1      36.725  22.058  23.835  1.00  0.00     0.274 C 
ENDROOT
BRANCH   1   2
ATOM      2  O   UNL A   1      35.487  22.550  24.380  1.00  0.00    -0.460 OA
BRANCH   2   3
ATOM      3  C   UNL A   1      34.474  22.732  23.491  1.00  0.00     0.331 C 
ATOM      4  O   UNL A   1      34.464  23.594  22.615  1.00  0.00    -0.250 OA
BRANCH   3   5
ATOM      5  C   UNL A   1      33.323  21.741  23.657  1.00  0.00     0.220 C 
ATOM      6  N   UNL A   1      33.207  21.157  25.018  1.00  0.00    -0.339 N 
ATOM      7  C   UNL A   1      32.419  21.906  26.001  1.00  0.00     0.147 C 
ATOM      8  C   UNL A   1      31.143  22.482  25.385  1.00  0.00     0.181 C 
ATOM      9  C   UNL A   1      32.021  22.423  23.204  1.00  0.00     0.197 C 
ATOM     10  O   UNL A   1      31.445  23.261  24.217  1.00  0.00    -0.377 OA
BRANCH   6  11
ATOM     11  C   UNL A   1      33.206  19.778  25.102  1.00  0.00     0.130 A 
ATOM     12  C   UNL A   1      34.350  16.892  22.913  1.00  0.00     0.052 C 
ATOM     13  C   UNL A   1      33.757  17.635  24.073  1.00  0.00     0.032 A 
ATOM     14  C   UNL A   1      33.747  19.036  24.048  1.00  0.00     0.057 A 
ATOM     15  C   UNL A   1      33.191  17.021  25.193  1.00  0.00     0.290 A 
ATOM     16  C   UNL A   1      32.689  17.813  26.216  1.00  0.00     0.199 A 
ATOM     17  N   UNL A   1      32.688  19.173  26.188  1.00  0.00    -0.232 NA
BRANCH  15  18
ATOM     18  N   UNL A   1      33.106  15.577  25.344  1.00  0.00     0.064 N 
ATOM     19  O   UNL A   1      31.995  15.100  25.614  1.00  0.00    -0.258 OA
ATOM     20  O   UNL A   1      34.139  14.916  25.180  1.00  0.00    -0.258 OA
ENDBRANCH  15  18
ENDBRANCH   6  11
ENDBRANCH   3   5
ENDBRANCH   2   3
ENDBRANCH   1   2
BRANCH   1  21
ATOM     21  C   UNL A   1      37.277  20.946  24.721  1.00  0.00     0.275 C 
BRANCH  21  22
ATOM     22  O   UNL A   1      37.714  21.504  25.974  1.00  0.00    -0.458 OA
BRANCH  22  23
ATOM     23  C   UNL A   1      39.042  21.432  26.207  1.00  0.00     0.338 C 
ATOM     24  O   UNL A   1      39.780  20.480  26.024  1.00  0.00    -0.246 OA
BRANCH  23  25
ATOM     25  C   UNL A   1      39.536  22.714  26.739  1.00  0.00     0.060 A 
ATOM     26  C   UNL A   1      39.064  23.929  26.235  1.00  0.00     0.016 A 
ATOM     27  C   UNL A   1      40.600  22.692  27.643  1.00  0.00     0.016 A 
ATOM     28  C   UNL A   1      39.718  25.117  26.567  1.00  0.00     0.010 A 
ATOM     29  C   UNL A   1      41.203  23.889  28.032  1.00  0.00     0.010 A 
ATOM     30  C   UNL A   1      40.801  25.107  27.462  1.00  0.00    -0.014 A 
BRANCH  30  31
ATOM     31  C   UNL A   1      41.551  26.355  27.763  1.00  0.00     0.031 A 
ATOM     32  C   UNL A   1      40.895  27.466  28.544  1.00  0.00     0.074 A 
ATOM     33  C   UNL A   1      42.822  26.497  27.343  1.00  0.00     0.049 A 
ATOM     34  N   UNL A   1      41.368  28.644  28.865  1.00  0.00    -0.248 NA
ATOM     35  C   UNL A   1      39.531  27.217  29.033  1.00  0.00     0.031 C 
ATOM     36  C   UNL A   1      43.586  25.494  26.603  1.00  0.00     0.029 A 
ATOM     37  N   UNL A   1      43.693  27.551  27.475  1.00  0.00    -0.354 N 
ATOM     38  C   UNL A   1      40.366  29.269  29.597  1.00  0.00     0.074 A 
ATOM     39  C   UNL A   1      39.250  28.352  29.657  1.00  0.00     0.031 C 
ATOM     40  C   UNL A   1      44.814  25.976  26.352  1.00  0.00     0.029 A 
ATOM     41  C   UNL A   1      44.904  27.339  26.866  1.00  0.00     0.049 A 
ATOM     42  H   UNL A   1      43.469  28.378  27.961  1.00  0.00     0.167 HD
ATOM     43  C   UNL A   1      40.373  30.496  30.170  1.00  0.00     0.037 A 
ATOM     44  C   UNL A   1      45.959  28.163  26.711  1.00  0.00     0.037 A 
ATOM     45  C   UNL A   1      41.468  31.423  30.107  1.00  0.00     0.049 A 
ATOM     46  C   UNL A   1      45.900  29.557  27.271  1.00  0.00     0.074 A 
ATOM     47  C   UNL A   1      41.565  32.687  30.661  1.00  0.00     0.029 A 
ATOM     48  N   UNL A   1      42.659  31.186  29.440  1.00  0.00    -0.354 N 
ATOM     49  N   UNL A   1      44.953  30.127  27.972  1.00  0.00    -0.248 NA
ATOM     50  C   UNL A   1      47.056  30.425  27.004  1.00  0.00     0.031 C 
ATOM     51  C   UNL A   1      42.801  33.232  30.297  1.00  0.00     0.029 A 
ATOM     52  C   UNL A   1      43.485  32.293  29.543  1.00  0.00     0.049 A 
ATOM     53  H   UNL A   1      42.885  30.355  28.963  1.00  0.00     0.167 HD
ATOM     54  C   UNL A   1      45.406  31.409  28.253  1.00  0.00     0.074 A 
ATOM     55  C   UNL A   1      46.717  31.532  27.650  1.00  0.00     0.031 C 
ATOM     56  C   UNL A   1      44.790  32.396  28.948  1.00  0.00     0.037 A 
BRANCH  43  57
ATOM     57  C   UNL A   1      39.137  30.922  30.901  1.00  0.00     0.064 A 
ATOM     58  C   UNL A   1      38.057  31.509  30.227  1.00  0.00     0.173 A 
ATOM     59  C   UNL A   1      39.014  30.697  32.279  1.00  0.00     0.173 A 
ATOM     60  F   UNL A   1      38.135  31.751  28.910  1.00  0.00    -0.203 F 
ATOM     61  C   UNL A   1      36.898  31.865  30.913  1.00  0.00     0.198 A 
ATOM     62  C   UNL A   1      37.850  31.040  32.958  1.00  0.00     0.198 A 
ATOM     63  F   UNL A   1      40.024  30.138  32.964  1.00  0.00    -0.203 F 
ATOM     64  F   UNL A   1      35.883  32.445  30.257  1.00  0.00    -0.200 F 
ATOM     65  C   UNL A   1      36.793  31.625  32.276  1.00  0.00     0.200 A 
ATOM     66  F   UNL A   1      37.748  30.805  34.274  1.00  0.00    -0.200 F 
ATOM     67  F   UNL A   1      35.674  31.963  32.933  1.00  0.00    -0.200 F 
ENDBRANCH  43  57
BRANCH  44  68
ATOM     68  C   UNL A   1      47.155  27.698  25.965  1.00  0.00     0.064 A 
ATOM     69  C   UNL A   1      47.205  27.772  24.568  1.00  0.00     0.173 A 
ATOM     70  C   UNL A   1      48.262  27.159  26.635  1.00  0.00     0.173 A 
ATOM     71  F   UNL A   1      46.158  28.256  23.884  1.00  0.00    -0.203 F 
ATOM     72  C   UNL A   1      48.318  27.314  23.865  1.00  0.00     0.198 A 
ATOM     73  C   UNL A   1      49.383  26.722  25.933  1.00  0.00     0.198 A 
ATOM     74  F   UNL A   1      48.258  27.062  27.972  1.00  0.00    -0.203 F 
ATOM     75  F   UNL A   1      48.327  27.359  22.527  1.00  0.00    -0.200 F 
ATOM     76  C   UNL A   1      49.407  26.794  24.549  1.00  0.00     0.200 A 
ATOM     77  F   UNL A   1      50.437  26.230  26.598  1.00  0.00    -0.200 F 
ATOM     78  F   UNL A   1      50.477  26.355  23.873  1.00  0.00    -0.200 F 
ENDBRANCH  44  68
BRANCH  56  79
ATOM     79  C   UNL A   1      45.541  33.680  29.123  1.00  0.00     0.064 A 
ATOM     80  C   UNL A   1      46.413  33.875  30.204  1.00  0.00     0.173 A 
ATOM     81  C   UNL A   1      45.407  34.715  28.186  1.00  0.00     0.173 A 
ATOM     82  F   UNL A   1      46.558  32.920  31.135  1.00  0.00    -0.203 F 
ATOM     83  C   UNL A   1      47.112  35.070  30.348  1.00  0.00     0.198 A 
ATOM     84  C   UNL A   1      46.124  35.899  28.322  1.00  0.00     0.198 A 
ATOM     85  F   UNL A   1      44.586  34.571  27.134  1.00  0.00    -0.203 F 
ATOM     86  F   UNL A   1      47.911  35.253  31.408  1.00  0.00    -0.200 F 
ATOM     87  C   UNL A   1      46.970  36.079  29.406  1.00  0.00     0.200 A 
ATOM     88  F   UNL A   1      45.992  36.870  27.408  1.00  0.00    -0.200 F 
ATOM     89  F   UNL A   1      47.645  37.228  29.547  1.00  0.00    -0.200 F 
ENDBRANCH  56  79
ENDBRANCH  30  31
ENDBRANCH  23  25
ENDBRANCH  22  23
ENDBRANCH  21  22
ENDBRANCH   1  21
TORSDOF 13
ENDMDL
MODEL 2
REMARK VINA RESULT:     -12.0      5.298     10.517
REMARK SMILES Cc1cc(N2CCOC[C@H]2C(=O)OCCOC(=O)c2ccc(-c3c4nc(c(-c5c(F)c(F)c(F)c(F)c5F)c5ccc([nH]5)c(-c5c(F)c(F)c(F)c(F)c5F)c5nc(c(-c6c(F)c(F)c(F)c(F)c6F)c6ccc3[nH]6)C=C5)C=C4)cc2)ncc1[N+](=O)[O-]
REMARK SMILES IDX 14 1 13 2 11 3 12 4 10 5 5 6 6 7 7 8 9 9 8 10 4 11 1 12 2 13
REMARK SMILES IDX 3 14 84 15 83 16 82 17 85 18 86 19 87 20 15 21 16 22 17 23
REMARK SMILES IDX 18 24 19 25 20 26 81 27 21 28 80 29 22 30 23 31 24 32 74 33
REMARK SMILES IDX 25 34 79 35 73 36 75 37 26 38 78 39 72 40 71 41 27 43 59 44
REMARK SMILES IDX 39 45 58 46 40 47 43 48 57 49 76 50 41 51 42 52 56 54 77 55
REMARK SMILES IDX 44 56 28 57 29 58 37 59 30 60 31 61 35 62 38 63 32 64 33 65
REMARK SMILES IDX 36 66 34 67 60 68 61 69 69 70 62 71 63 72 67 73 70 74 64 75
REMARK SMILES IDX 65 76 68 77 66 78 45 79 46 80 54 81 47 82 48 83 52 84 55 85
REMARK SMILES IDX 49 86 50 87 53 88 51 89
REMARK H PARENT 75 42 43 53
REMARK Flexibility Score: inf
ROOT
ATOM      1  C   UNL A   1      31.774  28.711  26.898  1.00  0.00     0.274 C 
ENDROOT
BRANCH   1   2
ATOM      2  O   UNL A   1      32.892  27.934  26.431  1.00  0.00    -0.460 OA
BRANCH   2   3
ATOM      3  C   UNL A   1      32.600  26.698  25.947  1.00  0.00     0.331 C 
ATOM      4  O   UNL A   1      33.329  25.715  26.063  1.00  0.00    -0.250 OA
BRANCH   3   5
ATOM      5  C   UNL A   1      31.247  26.616  25.243  1.00  0.00     0.220 C 
ATOM      6  N   UNL A   1      31.301  26.861  23.778  1.00  0.00    -0.339 N 
ATOM      7  C   UNL A   1      31.575  25.707  22.918  1.00  0.00     0.147 C 
ATOM      8  C   UNL A   1      30.820  24.460  23.383  1.00  0.00     0.181 C 
ATOM      9  C   UNL A   1      30.598  25.264  25.582  1.00  0.00     0.197 C 
ATOM     10  O   UNL A   1      31.087  24.187  24.767  1.00  0.00    -0.377 OA
BRANCH   6  11
ATOM     11  C   UNL A   1      30.476  27.855  23.285  1.00  0.00     0.130 A 
ATOM     12  C   UNL A   1      26.747  28.578  23.277  1.00  0.00     0.052 C 
ATOM     13  C   UNL A   1      28.216  28.732  23.013  1.00  0.00     0.032 A 
ATOM     14  C   UNL A   1      29.099  27.761  23.504  1.00  0.00     0.057 A 
ATOM     15  C   UNL A   1      28.777  29.785  22.287  1.00  0.00     0.290 A 
ATOM     16  C   UNL A   1      30.155  29.832  22.122  1.00  0.00     0.199 A 
ATOM     17  N   UNL A   1      31.007  28.891  22.607  1.00  0.00    -0.232 NA
BRANCH  15  18
ATOM     18  N   UNL A   1      27.982  30.848  21.694  1.00  0.00     0.064 N 
ATOM     19  O   UNL A   1      27.681  31.804  22.422  1.00  0.00    -0.258 OA
ATOM     20  O   UNL A   1      27.670  30.741  20.501  1.00  0.00    -0.258 OA
ENDBRANCH  15  18
ENDBRANCH   6  11
ENDBRANCH   3   5
ENDBRANCH   2   3
ENDBRANCH   1   2
BRANCH   1  21
ATOM     21  C   UNL A   1      31.809  30.102  26.273  1.00  0.00     0.275 C 
BRANCH  21  22
ATOM     22  O   UNL A   1      33.174  30.551  26.179  1.00  0.00    -0.458 OA
BRANCH  22  23
ATOM     23  C   UNL A   1      33.573  31.394  27.155  1.00  0.00     0.338 C 
ATOM     24  O   UNL A   1      32.981  32.368  27.585  1.00  0.00    -0.246 OA
BRANCH  23  25
ATOM     25  C   UNL A   1      34.886  30.981  27.680  1.00  0.00     0.060 A 
ATOM     26  C   UNL A   1      35.144  29.644  27.995  1.00  0.00     0.016 A 
ATOM     27  C   UNL A   1      35.813  31.973  28.006  1.00  0.00     0.016 A 
ATOM     28  C   UNL A   1      36.291  29.313  28.719  1.00  0.00     0.010 A 
ATOM     29  C   UNL A   1      36.995  31.628  28.664  1.00  0.00     0.010 A 
ATOM     30  C   UNL A   1      37.223  30.303  29.070  1.00  0.00    -0.014 A 
BRANCH  30  31
ATOM     31  C   UNL A   1      38.408  29.973  29.905  1.00  0.00     0.031 A 
ATOM     32  C   UNL A   1      39.463  29.028  29.387  1.00  0.00     0.074 A 
ATOM     33  C   UNL A   1      38.546  30.521  31.127  1.00  0.00     0.049 A 
ATOM     34  N   UNL A   1      40.541  28.583  29.983  1.00  0.00    -0.248 NA
ATOM     35  C   UNL A   1      39.285  28.523  28.017  1.00  0.00     0.031 C 
ATOM     36  C   UNL A   1      37.617  31.469  31.740  1.00  0.00     0.029 A 
ATOM     37  N   UNL A   1      39.523  30.349  32.076  1.00  0.00    -0.354 N 
ATOM     38  C   UNL A   1      41.170  27.755  29.061  1.00  0.00     0.074 A 
ATOM     39  C   UNL A   1      40.346  27.741  27.873  1.00  0.00     0.031 C 
ATOM     40  C   UNL A   1      38.071  31.801  32.959  1.00  0.00     0.029 A 
ATOM     41  C   UNL A   1      39.293  31.050  33.232  1.00  0.00     0.049 A 
ATOM     42  H   UNL A   1      40.314  29.778  31.939  1.00  0.00     0.167 HD
ATOM     43  C   UNL A   1      42.330  27.069  29.190  1.00  0.00     0.037 A 
ATOM     44  C   UNL A   1      39.972  31.063  34.395  1.00  0.00     0.037 A 
ATOM     45  C   UNL A   1      43.151  27.063  30.368  1.00  0.00     0.049 A 
ATOM     46  C   UNL A   1      41.202  30.212  34.546  1.00  0.00     0.074 A 
ATOM     47  C   UNL A   1      44.346  26.400  30.587  1.00  0.00     0.029 A 
ATOM     48  N   UNL A   1      42.856  27.752  31.534  1.00  0.00    -0.354 N 
ATOM     49  N   UNL A   1      41.792  29.448  33.661  1.00  0.00    -0.248 NA
ATOM     50  C   UNL A   1      41.853  30.220  35.864  1.00  0.00     0.031 C 
ATOM     51  C   UNL A   1      44.755  26.656  31.900  1.00  0.00     0.029 A 
ATOM     52  C   UNL A   1      43.830  27.504  32.487  1.00  0.00     0.049 A 
ATOM     53  H   UNL A   1      42.070  28.330  31.666  1.00  0.00     0.167 HD
ATOM     54  C   UNL A   1      42.895  28.903  34.305  1.00  0.00     0.074 A 
ATOM     55  C   UNL A   1      42.897  29.429  35.654  1.00  0.00     0.031 C 
ATOM     56  C   UNL A   1      43.824  28.044  33.820  1.00  0.00     0.037 A 
BRANCH  43  57
ATOM     57  C   UNL A   1      42.772  26.240  28.024  1.00  0.00     0.064 A 
ATOM     58  C   UNL A   1      42.305  24.930  27.842  1.00  0.00     0.173 A 
ATOM     59  C   UNL A   1      43.634  26.776  27.057  1.00  0.00     0.173 A 
ATOM     60  F   UNL A   1      41.487  24.374  28.748  1.00  0.00    -0.203 F 
ATOM     61  C   UNL A   1      42.694  24.183  26.733  1.00  0.00     0.198 A 
ATOM     62  C   UNL A   1      44.008  26.031  25.943  1.00  0.00     0.198 A 
ATOM     63  F   UNL A   1      44.106  28.024  27.192  1.00  0.00    -0.203 F 
ATOM     64  F   UNL A   1      42.254  22.925  26.586  1.00  0.00    -0.200 F 
ATOM     65  C   UNL A   1      43.540  24.735  25.782  1.00  0.00     0.200 A 
ATOM     66  F   UNL A   1      44.823  26.567  25.023  1.00  0.00    -0.200 F 
ATOM     67  F   UNL A   1      43.909  24.016  24.712  1.00  0.00    -0.200 F 
ENDBRANCH  43  57
BRANCH  44  68
ATOM     68  C   UNL A   1      39.483  31.892  35.526  1.00  0.00     0.064 A 
ATOM     69  C   UNL A   1      39.937  33.205  35.705  1.00  0.00     0.173 A 
ATOM     70  C   UNL A   1      38.566  31.381  36.455  1.00  0.00     0.173 A 
ATOM     71  F   UNL A   1      40.835  33.725  34.856  1.00  0.00    -0.203 F 
ATOM     72  C   UNL A   1      39.497  33.975  36.780  1.00  0.00     0.198 A 
ATOM     73  C   UNL A   1      38.109  32.159  37.516  1.00  0.00     0.198 A 
ATOM     74  F   UNL A   1      38.108  30.127  36.328  1.00  0.00    -0.203 F 
ATOM     75  F   UNL A   1      39.974  35.214  36.952  1.00  0.00    -0.200 F 
ATOM     76  C   UNL A   1      38.580  33.453  37.681  1.00  0.00     0.200 A 
ATOM     77  F   UNL A   1      37.217  31.655  38.378  1.00  0.00    -0.200 F 
ATOM     78  F   UNL A   1      38.157  34.195  38.713  1.00  0.00    -0.200 F 
ENDBRANCH  44  68
BRANCH  56  79
ATOM     79  C   UNL A   1      44.936  27.646  34.741  1.00  0.00     0.064 A 
ATOM     80  C   UNL A   1      46.112  28.404  34.836  1.00  0.00     0.173 A 
ATOM     81  C   UNL A   1      44.812  26.513  35.557  1.00  0.00     0.173 A 
ATOM     82  F   UNL A   1      46.283  29.485  34.061  1.00  0.00    -0.203 F 
ATOM     83  C   UNL A   1      47.133  28.028  35.704  1.00  0.00     0.198 A 
ATOM     84  C   UNL A   1      45.825  26.153  36.440  1.00  0.00     0.198 A 
ATOM     85  F   UNL A   1      43.702  25.760  35.503  1.00  0.00    -0.203 F 
ATOM     86  F   UNL A   1      48.266  28.743  35.753  1.00  0.00    -0.200 F 
ATOM     87  C   UNL A   1      46.987  26.907  36.508  1.00  0.00     0.200 A 
ATOM     88  F   UNL A   1      45.680  25.074  37.221  1.00  0.00    -0.200 F 
ATOM     89  F   UNL A   1      47.971  26.548  37.344  1.00  0.00    -0.200 F 
ENDBRANCH  56  79
ENDBRANCH  30  31
ENDBRANCH  23  25
ENDBRANCH  22  23
ENDBRANCH  21  22
ENDBRANCH   1  21
TORSDOF 13
ENDMDL
MODEL 3
REMARK VINA RESULT:     -11.8      4.618      9.557
REMARK SMILES Cc1cc(N2CCOC[C@H]2C(=O)OCCOC(=O)c2ccc(-c3c4nc(c(-c5c(F)c(F)c(F)c(F)c5F)c5ccc([nH]5)c(-c5c(F)c(F)c(F)c(F)c5F)c5nc(c(-c6c(F)c(F)c(F)c(F)c6F)c6ccc3[nH]6)C=C5)C=C4)cc2)ncc1[N+](=O)[O-]
REMARK SMILES IDX 14 1 13 2 11 3 12 4 10 5 5 6 6 7 7 8 9 9 8 10 4 11 1 12 2 13
REMARK SMILES IDX 3 14 84 15 83 16 82 17 85 18 86 19 87 20 15 21 16 22 17 23
REMARK SMILES IDX 18 24 19 25 20 26 81 27 21 28 80 29 22 30 23 31 24 32 74 33
REMARK SMILES IDX 25 34 79 35 73 36 75 37 26 38 78 39 72 40 71 41 27 43 59 44
REMARK SMILES IDX 39 45 58 46 40 47 43 48 57 49 76 50 41 51 42 52 56 54 77 55
REMARK SMILES IDX 44 56 28 57 29 58 37 59 30 60 31 61 35 62 38 63 32 64 33 65
REMARK SMILES IDX 36 66 34 67 60 68 61 69 69 70 62 71 63 72 67 73 70 74 64 75
REMARK SMILES IDX 65 76 68 77 66 78 45 79 46 80 54 81 47 82 48 83 52 84 55 85
REMARK SMILES IDX 49 86 50 87 53 88 51 89
REMARK H PARENT 75 42 43 53
REMARK Flexibility Score: inf
ROOT
ATOM      1  C   UNL A   1      31.689  28.933  27.251  1.00  0.00     0.274 C 
ENDROOT
BRANCH   1   2
ATOM      2  O   UNL A   1      32.528  27.943  26.629  1.00  0.00    -0.460 OA
BRANCH   2   3
ATOM      3  C   UNL A   1      31.929  26.762  26.321  1.00  0.00     0.331 C 
ATOM      4  O   UNL A   1      30.825  26.412  26.735  1.00  0.00    -0.250 OA
BRANCH   3   5
ATOM      5  C   UNL A   1      32.748  25.884  25.377  1.00  0.00     0.220 C 
ATOM      6  N   UNL A   1      31.937  24.985  24.515  1.00  0.00    -0.339 N 
ATOM      7  C   UNL A   1      31.459  25.533  23.243  1.00  0.00     0.147 C 
ATOM      8  C   UNL A   1      32.532  26.374  22.548  1.00  0.00     0.181 C 
ATOM      9  C   UNL A   1      33.684  26.787  24.556  1.00  0.00     0.197 C 
ATOM     10  O   UNL A   1      33.033  27.391  23.428  1.00  0.00    -0.377 OA
BRANCH   6  11
ATOM     11  C   UNL A   1      32.239  23.637  24.568  1.00  0.00     0.130 A 
ATOM     12  C   UNL A   1      32.032  20.680  22.193  1.00  0.00     0.052 C 
ATOM     13  C   UNL A   1      32.291  21.475  23.438  1.00  0.00     0.032 A 
ATOM     14  C   UNL A   1      32.017  22.850  23.435  1.00  0.00     0.057 A 
ATOM     15  C   UNL A   1      32.781  20.934  24.629  1.00  0.00     0.290 A 
ATOM     16  C   UNL A   1      32.999  21.772  25.713  1.00  0.00     0.199 A 
ATOM     17  N   UNL A   1      32.738  23.107  25.701  1.00  0.00    -0.232 NA
BRANCH  15  18
ATOM     18  N   UNL A   1      33.083  19.520  24.788  1.00  0.00     0.064 N 
ATOM     19  O   UNL A   1      34.259  19.170  24.625  1.00  0.00    -0.258 OA
ATOM     20  O   UNL A   1      32.153  18.760  25.091  1.00  0.00    -0.258 OA
ENDBRANCH  15  18
ENDBRANCH   6  11
ENDBRANCH   3   5
ENDBRANCH   2   3
ENDBRANCH   1   2
BRANCH   1  21
ATOM     21  C   UNL A   1      31.775  30.246  26.478  1.00  0.00     0.275 C 
BRANCH  21  22
ATOM     22  O   UNL A   1      33.156  30.615  26.311  1.00  0.00    -0.458 OA
BRANCH  22  23
ATOM     23  C   UNL A   1      33.632  31.497  27.216  1.00  0.00     0.338 C 
ATOM     24  O   UNL A   1      33.107  32.528  27.598  1.00  0.00    -0.246 OA
BRANCH  23  25
ATOM     25  C   UNL A   1      34.938  31.046  27.730  1.00  0.00     0.060 A 
ATOM     26  C   UNL A   1      35.166  29.699  28.022  1.00  0.00     0.016 A 
ATOM     27  C   UNL A   1      35.887  32.012  28.068  1.00  0.00     0.016 A 
ATOM     28  C   UNL A   1      36.308  29.330  28.736  1.00  0.00     0.010 A 
ATOM     29  C   UNL A   1      37.063  31.630  28.715  1.00  0.00     0.010 A 
ATOM     30  C   UNL A   1      37.263  30.294  29.098  1.00  0.00    -0.014 A 
BRANCH  30  31
ATOM     31  C   UNL A   1      38.444  29.924  29.923  1.00  0.00     0.031 A 
ATOM     32  C   UNL A   1      39.472  28.960  29.389  1.00  0.00     0.074 A 
ATOM     33  C   UNL A   1      38.602  30.454  31.151  1.00  0.00     0.049 A 
ATOM     34  N   UNL A   1      40.541  28.480  29.974  1.00  0.00    -0.248 NA
ATOM     35  C   UNL A   1      39.275  28.475  28.014  1.00  0.00     0.031 C 
ATOM     36  C   UNL A   1      37.700  31.417  31.780  1.00  0.00     0.029 A 
ATOM     37  N   UNL A   1      39.580  30.245  32.093  1.00  0.00    -0.354 N 
ATOM     38  C   UNL A   1      41.145  27.648  29.038  1.00  0.00     0.074 A 
ATOM     39  C   UNL A   1      40.315  27.668  27.855  1.00  0.00     0.031 C 
ATOM     40  C   UNL A   1      38.169  31.723  33.001  1.00  0.00     0.029 A 
ATOM     41  C   UNL A   1      39.372  30.939  33.259  1.00  0.00     0.049 A 
ATOM     42  H   UNL A   1      40.354  29.656  31.945  1.00  0.00     0.167 HD
ATOM     43  C   UNL A   1      42.288  26.931  29.153  1.00  0.00     0.037 A 
ATOM     44  C   UNL A   1      40.057  30.920  34.418  1.00  0.00     0.037 A 
ATOM     45  C   UNL A   1      43.115  26.891  30.327  1.00  0.00     0.049 A 
ATOM     46  C   UNL A   1      41.266  30.037  34.552  1.00  0.00     0.074 A 
ATOM     47  C   UNL A   1      44.293  26.195  30.532  1.00  0.00     0.029 A 
ATOM     48  N   UNL A   1      42.843  27.572  31.502  1.00  0.00    -0.354 N 
ATOM     49  N   UNL A   1      41.833  29.269  33.656  1.00  0.00    -0.248 NA
ATOM     50  C   UNL A   1      41.924  30.012  35.867  1.00  0.00     0.031 C 
ATOM     51  C   UNL A   1      44.715  26.424  31.846  1.00  0.00     0.029 A 
ATOM     52  C   UNL A   1      43.815  27.288  32.447  1.00  0.00     0.049 A 
ATOM     53  H   UNL A   1      42.072  28.168  31.646  1.00  0.00     0.167 HD
ATOM     54  C   UNL A   1      42.925  28.689  34.286  1.00  0.00     0.074 A 
ATOM     55  C   UNL A   1      42.947  29.198  35.642  1.00  0.00     0.031 C 
ATOM     56  C   UNL A   1      43.829  27.812  33.787  1.00  0.00     0.037 A 
BRANCH  43  57
ATOM     57  C   UNL A   1      42.703  26.105  27.975  1.00  0.00     0.064 A 
ATOM     58  C   UNL A   1      43.578  26.610  27.003  1.00  0.00     0.173 A 
ATOM     59  C   UNL A   1      42.260  24.782  27.844  1.00  0.00     0.173 A 
ATOM     60  F   UNL A   1      44.019  27.874  27.084  1.00  0.00    -0.203 F 
ATOM     61  C   UNL A   1      43.987  25.819  25.933  1.00  0.00     0.198 A 
ATOM     62  C   UNL A   1      42.683  23.989  26.782  1.00  0.00     0.198 A 
ATOM     63  F   UNL A   1      41.422  24.258  28.751  1.00  0.00    -0.203 F 
ATOM     64  F   UNL A   1      44.807  26.324  25.001  1.00  0.00    -0.200 F 
ATOM     65  C   UNL A   1      43.544  24.508  25.826  1.00  0.00     0.200 A 
ATOM     66  F   UNL A   1      42.257  22.722  26.681  1.00  0.00    -0.200 F 
ATOM     67  F   UNL A   1      43.944  23.746  24.798  1.00  0.00    -0.200 F 
ENDBRANCH  43  57
BRANCH  44  68
ATOM     68  C   UNL A   1      39.596  31.747  35.562  1.00  0.00     0.064 A 
ATOM     69  C   UNL A   1      38.603  31.281  36.432  1.00  0.00     0.173 A 
ATOM     70  C   UNL A   1      40.129  33.023  35.795  1.00  0.00     0.173 A 
ATOM     71  F   UNL A   1      38.046  30.078  36.231  1.00  0.00    -0.203 F 
ATOM     72  C   UNL A   1      38.152  32.067  37.491  1.00  0.00     0.198 A 
ATOM     73  C   UNL A   1      39.694  33.798  36.868  1.00  0.00     0.198 A 
ATOM     74  F   UNL A   1      41.078  33.514  34.985  1.00  0.00    -0.203 F 
ATOM     75  F   UNL A   1      37.173  31.616  38.287  1.00  0.00    -0.200 F 
ATOM     76  C   UNL A   1      38.701  33.321  37.711  1.00  0.00     0.200 A 
ATOM     77  F   UNL A   1      40.234  35.005  37.081  1.00  0.00    -0.200 F 
ATOM     78  F   UNL A   1      38.268  34.075  38.730  1.00  0.00    -0.200 F 
ENDBRANCH  44  68
BRANCH  56  79
ATOM     79  C   UNL A   1      44.935  27.376  34.697  1.00  0.00     0.064 A 
ATOM     80  C   UNL A   1      44.820  26.224  35.487  1.00  0.00     0.173 A 
ATOM     81  C   UNL A   1      46.134  28.102  34.757  1.00  0.00     0.173 A 
ATOM     82  F   UNL A   1      43.685  25.508  35.476  1.00  0.00    -0.203 F 
ATOM     83  C   UNL A   1      45.860  25.824  36.321  1.00  0.00     0.198 A 
ATOM     84  C   UNL A   1      47.180  27.687  35.575  1.00  0.00     0.198 A 
ATOM     85  F   UNL A   1      46.291  29.209  34.016  1.00  0.00    -0.203 F 
ATOM     86  F   UNL A   1      45.716  24.742  37.098  1.00  0.00    -0.200 F 
ATOM     87  C   UNL A   1      47.040  26.553  36.361  1.00  0.00     0.200 A 
ATOM     88  F   UNL A   1      48.322  28.388  35.608  1.00  0.00    -0.200 F 
ATOM     89  F   UNL A   1      48.041  26.166  37.163  1.00  0.00    -0.200 F 
ENDBRANCH  56  79
ENDBRANCH  30  31
ENDBRANCH  23  25
ENDBRANCH  22  23
ENDBRANCH  21  22
ENDBRANCH   1  21
TORSDOF 13
ENDMDL
