MODEL 1
REMARK VINA RESULT:     -11.7      0.000      0.000
REMARK SMILES Cc1cc(N(C)C[C@H]2C[C@@H]2C)cc(C(=O)OCCOC(=O)c2ccc(-c3c4nc(c(-c5c(F)c(F)c(F)c(F)c5F)c5ccc([nH]5)c(-c5c(F)c(F)c(F)c(F)c5F)c5nc(c(-c6c(F)c(F)c(F)c(F)c6F)c6ccc3[nH]6)C=C5)C=C4)cc2)c1N
REMARK SMILES IDX 17 1 16 2 14 3 15 4 13 5 1 6 2 7 3 8 85 9 4 10 12 11 86 12
REMARK SMILES IDX 5 15 6 16 7 17 8 18 9 19 10 20 11 21 18 22 19 23 20 24 21 25
REMARK SMILES IDX 22 26 23 27 84 28 24 29 83 30 25 31 26 32 27 33 77 34 28 35
REMARK SMILES IDX 82 36 76 37 78 38 29 39 81 40 75 41 74 42 30 44 62 45 42 46
REMARK SMILES IDX 61 47 43 48 46 49 60 50 79 51 44 52 45 53 59 55 80 56 47 57
REMARK SMILES IDX 31 58 32 59 40 60 33 61 34 62 38 63 41 64 35 65 36 66 39 67
REMARK SMILES IDX 37 68 63 69 64 70 72 71 65 72 66 73 70 74 73 75 67 76 68 77
REMARK SMILES IDX 71 78 69 79 48 80 49 81 57 82 50 83 51 84 55 85 58 86 52 87
REMARK SMILES IDX 53 88 56 89 54 90
REMARK H PARENT 86 13 86 14 78 43 46 54
REMARK Flexibility Score: inf
ROOT
ATOM      1  C   UNL A   1      32.177  27.877  25.508  1.00  0.00     0.275 C 
ENDROOT
BRANCH   1   2
ATOM      2  O   UNL A   1      31.005  27.106  25.161  1.00  0.00    -0.458 OA
BRANCH   2   3
ATOM      3  C   UNL A   1      31.197  26.045  24.329  1.00  0.00     0.340 C 
ATOM      4  O   UNL A   1      31.337  26.088  23.121  1.00  0.00    -0.246 OA
BRANCH   3   5
ATOM      5  C   UNL A   1      31.358  24.806  25.140  1.00  0.00     0.085 A 
ATOM      6  C   UNL A   1      29.263  22.554  27.370  1.00  0.00     0.047 C 
ATOM      7  C   UNL A   1      30.393  23.135  26.568  1.00  0.00    -0.025 A 
ATOM      8  C   UNL A   1      31.523  22.337  26.324  1.00  0.00     0.031 A 
ATOM      9  C   UNL A   1      30.368  24.444  26.076  1.00  0.00     0.049 A 
ATOM     10  C   UNL A   1      32.675  22.822  25.689  1.00  0.00     0.038 A 
ATOM     11  C   UNL A   1      32.519  24.026  24.997  1.00  0.00     0.043 A 
BRANCH   9  12
ATOM     12  N   UNL A   1      29.312  25.295  26.404  1.00  0.00    -0.398 N 
ATOM     13  H   UNL A   1      29.364  25.856  27.211  1.00  0.00     0.156 HD
ATOM     14  H   UNL A   1      28.513  25.333  25.829  1.00  0.00     0.156 HD
ENDBRANCH   9  12
BRANCH  10  15
ATOM     15  N   UNL A   1      33.882  22.142  25.786  1.00  0.00    -0.374 N 
ATOM     16  C   UNL A   1      34.328  21.556  27.045  1.00  0.00     0.143 C 
BRANCH  15  17
ATOM     17  C   UNL A   1      34.612  21.698  24.579  1.00  0.00     0.120 C 
BRANCH  17  18
ATOM     18  C   UNL A   1      36.063  22.122  24.559  1.00  0.00     0.011 C 
ATOM     19  C   UNL A   1      36.616  22.982  23.447  1.00  0.00     0.009 C 
ATOM     20  C   UNL A   1      36.491  23.541  24.843  1.00  0.00    -0.009 C 
ATOM     21  C   UNL A   1      37.706  23.781  25.676  1.00  0.00     0.008 C 
ENDBRANCH  17  18
ENDBRANCH  15  17
ENDBRANCH  10  15
ENDBRANCH   3   5
ENDBRANCH   2   3
ENDBRANCH   1   2
BRANCH   1  22
ATOM     22  C   UNL A   1      31.887  29.372  25.358  1.00  0.00     0.275 C 
BRANCH  22  23
ATOM     23  O   UNL A   1      33.105  30.103  25.578  1.00  0.00    -0.458 OA
BRANCH  23  24
ATOM     24  C   UNL A   1      33.158  30.857  26.701  1.00  0.00     0.338 C 
ATOM     25  O   UNL A   1      32.291  31.596  27.137  1.00  0.00    -0.246 OA
BRANCH  24  26
ATOM     26  C   UNL A   1      34.470  30.654  27.354  1.00  0.00     0.060 A 
ATOM     27  C   UNL A   1      34.899  29.365  27.658  1.00  0.00     0.016 A 
ATOM     28  C   UNL A   1      35.250  31.743  27.740  1.00  0.00     0.016 A 
ATOM     29  C   UNL A   1      36.070  29.155  28.387  1.00  0.00     0.010 A 
ATOM     30  C   UNL A   1      36.469  31.529  28.402  1.00  0.00     0.010 A 
ATOM     31  C   UNL A   1      36.884  30.230  28.760  1.00  0.00    -0.014 A 
BRANCH  31  32
ATOM     32  C   UNL A   1      38.112  30.008  29.584  1.00  0.00     0.031 A 
ATOM     33  C   UNL A   1      39.238  29.169  29.036  1.00  0.00     0.074 A 
ATOM     34  C   UNL A   1      38.257  30.570  30.802  1.00  0.00     0.049 A 
ATOM     35  N   UNL A   1      40.279  28.668  29.652  1.00  0.00    -0.248 NA
ATOM     36  C   UNL A   1      39.177  28.843  27.603  1.00  0.00     0.031 C 
ATOM     37  C   UNL A   1      37.296  31.463  31.449  1.00  0.00     0.029 A 
ATOM     38  N   UNL A   1      39.284  30.476  31.715  1.00  0.00    -0.354 N 
ATOM     39  C   UNL A   1      40.952  27.906  28.704  1.00  0.00     0.074 A 
ATOM     40  C   UNL A   1      40.208  28.023  27.466  1.00  0.00     0.031 C 
ATOM     41  C   UNL A   1      37.795  31.869  32.629  1.00  0.00     0.029 A 
ATOM     42  C   UNL A   1      39.064  31.189  32.870  1.00  0.00     0.049 A 
ATOM     43  H   UNL A   1      40.098  29.946  31.557  1.00  0.00     0.167 HD
ATOM     44  C   UNL A   1      42.081  27.173  28.853  1.00  0.00     0.037 A 
ATOM     45  C   UNL A   1      39.775  31.257  34.013  1.00  0.00     0.037 A 
ATOM     46  C   UNL A   1      42.864  27.117  30.061  1.00  0.00     0.049 A 
ATOM     47  C   UNL A   1      41.021  30.425  34.161  1.00  0.00     0.074 A 
ATOM     48  C   UNL A   1      44.018  26.394  30.309  1.00  0.00     0.029 A 
ATOM     49  N   UNL A   1      42.590  27.839  31.211  1.00  0.00    -0.354 N 
ATOM     50  N   UNL A   1      41.590  29.625  33.294  1.00  0.00    -0.248 NA
ATOM     51  C   UNL A   1      41.707  30.485  35.461  1.00  0.00     0.031 C 
ATOM     52  C   UNL A   1      44.430  26.661  31.619  1.00  0.00     0.029 A 
ATOM     53  C   UNL A   1      43.554  27.579  32.172  1.00  0.00     0.049 A 
ATOM     54  H   UNL A   1      41.824  28.446  31.329  1.00  0.00     0.167 HD
ATOM     55  C   UNL A   1      42.697  29.089  33.938  1.00  0.00     0.074 A 
ATOM     56  C   UNL A   1      42.740  29.678  35.259  1.00  0.00     0.031 C 
ATOM     57  C   UNL A   1      43.589  28.178  33.480  1.00  0.00     0.037 A 
BRANCH  44  58
ATOM     58  C   UNL A   1      42.525  26.335  27.691  1.00  0.00     0.064 A 
ATOM     59  C   UNL A   1      41.967  25.077  27.423  1.00  0.00     0.173 A 
ATOM     60  C   UNL A   1      43.494  26.827  26.802  1.00  0.00     0.173 A 
ATOM     61  F   UNL A   1      41.047  24.558  28.250  1.00  0.00    -0.203 F 
ATOM     62  C   UNL A   1      42.378  24.333  26.321  1.00  0.00     0.198 A 
ATOM     63  C   UNL A   1      43.884  26.092  25.686  1.00  0.00     0.198 A 
ATOM     64  F   UNL A   1      44.055  28.028  27.009  1.00  0.00    -0.203 F 
ATOM     65  F   UNL A   1      41.861  23.115  26.105  1.00  0.00    -0.200 F 
ATOM     66  C   UNL A   1      43.330  24.843  25.449  1.00  0.00     0.200 A 
ATOM     67  F   UNL A   1      44.792  26.593  24.838  1.00  0.00    -0.200 F 
ATOM     68  F   UNL A   1      43.716  24.130  24.382  1.00  0.00    -0.200 F 
ENDBRANCH  44  58
BRANCH  45  69
ATOM     69  C   UNL A   1      39.296  32.103  35.139  1.00  0.00     0.064 A 
ATOM     70  C   UNL A   1      38.543  31.555  36.188  1.00  0.00     0.173 A 
ATOM     71  C   UNL A   1      39.566  33.479  35.183  1.00  0.00     0.173 A 
ATOM     72  F   UNL A   1      38.228  30.251  36.175  1.00  0.00    -0.203 F 
ATOM     73  C   UNL A   1      38.073  32.351  37.230  1.00  0.00     0.198 A 
ATOM     74  C   UNL A   1      39.125  34.268  36.242  1.00  0.00     0.198 A 
ATOM     75  F   UNL A   1      40.272  34.057  34.200  1.00  0.00    -0.203 F 
ATOM     76  F   UNL A   1      37.318  31.811  38.195  1.00  0.00    -0.200 F 
ATOM     77  C   UNL A   1      38.373  33.706  37.262  1.00  0.00     0.200 A 
ATOM     78  F   UNL A   1      39.427  35.574  36.274  1.00  0.00    -0.200 F 
ATOM     79  F   UNL A   1      37.928  34.469  38.269  1.00  0.00    -0.200 F 
ENDBRANCH  45  69
BRANCH  57  80
ATOM     80  C   UNL A   1      44.701  27.782  34.405  1.00  0.00     0.064 A 
ATOM     81  C   UNL A   1      45.905  28.498  34.449  1.00  0.00     0.173 A 
ATOM     82  C   UNL A   1      44.548  26.695  35.278  1.00  0.00     0.173 A 
ATOM     83  F   UNL A   1      46.104  29.536  33.623  1.00  0.00    -0.203 F 
ATOM     84  C   UNL A   1      46.927  28.126  35.320  1.00  0.00     0.198 A 
ATOM     85  C   UNL A   1      45.562  26.340  36.163  1.00  0.00     0.198 A 
ATOM     86  F   UNL A   1      43.412  25.981  35.277  1.00  0.00    -0.203 F 
ATOM     87  F   UNL A   1      48.087  28.798  35.317  1.00  0.00    -0.200 F 
ATOM     88  C   UNL A   1      46.753  27.051  36.179  1.00  0.00     0.200 A 
ATOM     89  F   UNL A   1      45.389  25.306  36.999  1.00  0.00    -0.200 F 
ATOM     90  F   UNL A   1      47.735  26.695  37.017  1.00  0.00    -0.200 F 
ENDBRANCH  57  80
ENDBRANCH  31  32
ENDBRANCH  24  26
ENDBRANCH  23  24
ENDBRANCH  22  23
ENDBRANCH   1  22
TORSDOF 15
ENDMDL
MODEL 2
REMARK VINA RESULT:     -11.6      0.884      2.033
REMARK SMILES Cc1cc(N(C)C[C@H]2C[C@@H]2C)cc(C(=O)OCCOC(=O)c2ccc(-c3c4nc(c(-c5c(F)c(F)c(F)c(F)c5F)c5ccc([nH]5)c(-c5c(F)c(F)c(F)c(F)c5F)c5nc(c(-c6c(F)c(F)c(F)c(F)c6F)c6ccc3[nH]6)C=C5)C=C4)cc2)c1N
REMARK SMILES IDX 17 1 16 2 14 3 15 4 13 5 1 6 2 7 3 8 85 9 4 10 12 11 86 12
REMARK SMILES IDX 5 15 6 16 7 17 8 18 9 19 10 20 11 21 18 22 19 23 20 24 21 25
REMARK SMILES IDX 22 26 23 27 84 28 24 29 83 30 25 31 26 32 27 33 77 34 28 35
REMARK SMILES IDX 82 36 76 37 78 38 29 39 81 40 75 41 74 42 30 44 62 45 42 46
REMARK SMILES IDX 61 47 43 48 46 49 60 50 79 51 44 52 45 53 59 55 80 56 47 57
REMARK SMILES IDX 31 58 32 59 40 60 33 61 34 62 38 63 41 64 35 65 36 66 39 67
REMARK SMILES IDX 37 68 63 69 64 70 72 71 65 72 66 73 70 74 73 75 67 76 68 77
REMARK SMILES IDX 71 78 69 79 48 80 49 81 57 82 50 83 51 84 55 85 58 86 52 87
REMARK SMILES IDX 53 88 56 89 54 90
REMARK H PARENT 86 13 86 14 78 43 46 54
REMARK Flexibility Score: inf
ROOT
ATOM      1  C   UNL A   1      31.965  27.956  25.828  1.00  0.00     0.275 C 
ENDROOT
BRANCH   1   2
ATOM      2  O   UNL A   1      30.946  27.142  25.207  1.00  0.00    -0.458 OA
BRANCH   2   3
ATOM      3  C   UNL A   1      30.731  25.913  25.753  1.00  0.00     0.340 C 
ATOM      4  O   UNL A   1      29.823  25.601  26.501  1.00  0.00    -0.246 OA
BRANCH   3   5
ATOM      5  C   UNL A   1      31.706  24.942  25.182  1.00  0.00     0.085 A 
ATOM      6  C   UNL A   1      33.084  23.931  21.790  1.00  0.00     0.047 C 
ATOM      7  C   UNL A   1      32.837  24.038  23.269  1.00  0.00    -0.025 A 
ATOM      8  C   UNL A   1      33.757  23.443  24.147  1.00  0.00     0.031 A 
ATOM      9  C   UNL A   1      31.717  24.689  23.797  1.00  0.00     0.049 A 
ATOM     10  C   UNL A   1      33.557  23.386  25.534  1.00  0.00     0.038 A 
ATOM     11  C   UNL A   1      32.583  24.252  26.038  1.00  0.00     0.043 A 
BRANCH   9  12
ATOM     12  N   UNL A   1      30.729  25.184  22.944  1.00  0.00    -0.398 N 
ATOM     13  H   UNL A   1      30.034  24.582  22.595  1.00  0.00     0.156 HD
ATOM     14  H   UNL A   1      30.729  26.136  22.691  1.00  0.00     0.156 HD
ENDBRANCH   9  12
BRANCH  10  15
ATOM     15  N   UNL A   1      34.275  22.496  26.322  1.00  0.00    -0.374 N 
ATOM     16  C   UNL A   1      33.941  22.280  27.726  1.00  0.00     0.143 C 
BRANCH  15  17
ATOM     17  C   UNL A   1      35.183  21.496  25.719  1.00  0.00     0.120 C 
BRANCH  17  18
ATOM     18  C   UNL A   1      36.637  21.907  25.744  1.00  0.00     0.011 C 
ATOM     19  C   UNL A   1      37.351  22.353  24.489  1.00  0.00     0.009 C 
ATOM     20  C   UNL A   1      37.071  23.346  25.590  1.00  0.00    -0.009 C 
ATOM     21  C   UNL A   1      38.179  23.865  26.444  1.00  0.00     0.008 C 
ENDBRANCH  17  18
ENDBRANCH  15  17
ENDBRANCH  10  15
ENDBRANCH   3   5
ENDBRANCH   2   3
ENDBRANCH   1   2
BRANCH   1  22
ATOM     22  C   UNL A   1      31.674  29.439  25.585  1.00  0.00     0.275 C 
BRANCH  22  23
ATOM     23  O   UNL A   1      32.904  30.175  25.685  1.00  0.00    -0.458 OA
BRANCH  23  24
ATOM     24  C   UNL A   1      33.018  31.014  26.741  1.00  0.00     0.338 C 
ATOM     25  O   UNL A   1      32.205  31.842  27.118  1.00  0.00    -0.246 OA
BRANCH  24  26
ATOM     26  C   UNL A   1      34.321  30.781  27.403  1.00  0.00     0.060 A 
ATOM     27  C   UNL A   1      34.742  29.479  27.661  1.00  0.00     0.016 A 
ATOM     28  C   UNL A   1      35.098  31.852  27.842  1.00  0.00     0.016 A 
ATOM     29  C   UNL A   1      35.903  29.237  28.395  1.00  0.00     0.010 A 
ATOM     30  C   UNL A   1      36.308  31.607  28.511  1.00  0.00     0.010 A 
ATOM     31  C   UNL A   1      36.715  30.294  28.822  1.00  0.00    -0.014 A 
BRANCH  31  32
ATOM     32  C   UNL A   1      37.931  30.036  29.652  1.00  0.00     0.031 A 
ATOM     33  C   UNL A   1      39.053  29.198  29.094  1.00  0.00     0.074 A 
ATOM     34  C   UNL A   1      38.071  30.564  30.886  1.00  0.00     0.049 A 
ATOM     35  N   UNL A   1      40.081  28.667  29.707  1.00  0.00    -0.248 NA
ATOM     36  C   UNL A   1      39.003  28.909  27.652  1.00  0.00     0.031 C 
ATOM     37  C   UNL A   1      37.114  31.452  31.546  1.00  0.00     0.029 A 
ATOM     38  N   UNL A   1      39.086  30.434  31.806  1.00  0.00    -0.354 N 
ATOM     39  C   UNL A   1      40.754  27.922  28.747  1.00  0.00     0.074 A 
ATOM     40  C   UNL A   1      40.025  28.079  27.505  1.00  0.00     0.031 C 
ATOM     41  C   UNL A   1      37.605  31.821  32.741  1.00  0.00     0.029 A 
ATOM     42  C   UNL A   1      38.864  31.120  32.977  1.00  0.00     0.049 A 
ATOM     43  H   UNL A   1      39.896  29.898  31.643  1.00  0.00     0.167 HD
ATOM     44  C   UNL A   1      41.873  27.171  28.888  1.00  0.00     0.037 A 
ATOM     45  C   UNL A   1      39.563  31.149  34.129  1.00  0.00     0.037 A 
ATOM     46  C   UNL A   1      42.642  27.075  30.102  1.00  0.00     0.049 A 
ATOM     47  C   UNL A   1      40.797  30.299  34.267  1.00  0.00     0.074 A 
ATOM     48  C   UNL A   1      43.785  26.331  30.343  1.00  0.00     0.029 A 
ATOM     49  N   UNL A   1      42.366  27.770  31.268  1.00  0.00    -0.354 N 
ATOM     50  N   UNL A   1      41.365  29.514  33.386  1.00  0.00    -0.248 NA
ATOM     51  C   UNL A   1      41.471  30.317  35.575  1.00  0.00     0.031 C 
ATOM     52  C   UNL A   1      44.187  26.559  31.664  1.00  0.00     0.029 A 
ATOM     53  C   UNL A   1      43.316  27.474  32.231  1.00  0.00     0.049 A 
ATOM     54  H   UNL A   1      41.606  28.383  31.394  1.00  0.00     0.167 HD
ATOM     55  C   UNL A   1      42.459  28.948  34.027  1.00  0.00     0.074 A 
ATOM     56  C   UNL A   1      42.495  29.502  35.364  1.00  0.00     0.031 C 
ATOM     57  C   UNL A   1      43.344  28.038  33.555  1.00  0.00     0.037 A 
BRANCH  44  58
ATOM     58  C   UNL A   1      42.318  26.358  27.709  1.00  0.00     0.064 A 
ATOM     59  C   UNL A   1      43.332  26.793  26.844  1.00  0.00     0.173 A 
ATOM     60  C   UNL A   1      41.749  25.097  27.472  1.00  0.00     0.173 A 
ATOM     61  F   UNL A   1      43.898  27.996  27.020  1.00  0.00    -0.203 F 
ATOM     62  C   UNL A   1      43.744  26.004  25.773  1.00  0.00     0.198 A 
ATOM     63  C   UNL A   1      42.182  24.300  26.417  1.00  0.00     0.198 A 
ATOM     64  F   UNL A   1      40.779  24.631  28.275  1.00  0.00    -0.203 F 
ATOM     65  F   UNL A   1      44.687  26.456  24.935  1.00  0.00    -0.200 F 
ATOM     66  C   UNL A   1      43.175  24.756  25.565  1.00  0.00     0.200 A 
ATOM     67  F   UNL A   1      41.641  23.088  26.227  1.00  0.00    -0.200 F 
ATOM     68  F   UNL A   1      43.582  23.994  24.540  1.00  0.00    -0.200 F 
ENDBRANCH  44  58
BRANCH  45  69
ATOM     69  C   UNL A   1      39.083  31.972  35.271  1.00  0.00     0.064 A 
ATOM     70  C   UNL A   1      39.384  33.339  35.356  1.00  0.00     0.173 A 
ATOM     71  C   UNL A   1      38.326  31.408  36.309  1.00  0.00     0.173 A 
ATOM     72  F   UNL A   1      40.135  33.919  34.407  1.00  0.00    -0.203 F 
ATOM     73  C   UNL A   1      38.956  34.106  36.438  1.00  0.00     0.198 A 
ATOM     74  C   UNL A   1      37.869  32.182  37.373  1.00  0.00     0.198 A 
ATOM     75  F   UNL A   1      38.018  30.103  36.283  1.00  0.00    -0.203 F 
ATOM     76  F   UNL A   1      39.297  35.399  36.517  1.00  0.00    -0.200 F 
ATOM     77  C   UNL A   1      38.190  33.529  37.440  1.00  0.00     0.200 A 
ATOM     78  F   UNL A   1      37.119  31.622  38.332  1.00  0.00    -0.200 F 
ATOM     79  F   UNL A   1      37.770  34.269  38.475  1.00  0.00    -0.200 F 
ENDBRANCH  45  69
BRANCH  57  80
ATOM     80  C   UNL A   1      44.442  27.604  34.481  1.00  0.00     0.064 A 
ATOM     81  C   UNL A   1      45.654  28.305  34.556  1.00  0.00     0.173 A 
ATOM     82  C   UNL A   1      44.267  26.496  35.322  1.00  0.00     0.173 A 
ATOM     83  F   UNL A   1      45.874  29.362  33.760  1.00  0.00    -0.203 F 
ATOM     84  C   UNL A   1      46.662  27.898  35.427  1.00  0.00     0.198 A 
ATOM     85  C   UNL A   1      45.268  26.106  36.209  1.00  0.00     0.198 A 
ATOM     86  F   UNL A   1      43.123  25.796  35.291  1.00  0.00    -0.203 F 
ATOM     87  F   UNL A   1      47.829  28.556  35.454  1.00  0.00    -0.200 F 
ATOM     88  C   UNL A   1      46.466  26.802  36.255  1.00  0.00     0.200 A 
ATOM     89  F   UNL A   1      45.073  25.053  37.015  1.00  0.00    -0.200 F 
ATOM     90  F   UNL A   1      47.436  26.413  37.094  1.00  0.00    -0.200 F 
ENDBRANCH  57  80
ENDBRANCH  31  32
ENDBRANCH  24  26
ENDBRANCH  23  24
ENDBRANCH  22  23
ENDBRANCH   1  22
TORSDOF 15
ENDMDL
MODEL 3
REMARK VINA RESULT:     -11.5      5.968      9.711
REMARK SMILES Cc1cc(N(C)C[C@H]2C[C@@H]2C)cc(C(=O)OCCOC(=O)c2ccc(-c3c4nc(c(-c5c(F)c(F)c(F)c(F)c5F)c5ccc([nH]5)c(-c5c(F)c(F)c(F)c(F)c5F)c5nc(c(-c6c(F)c(F)c(F)c(F)c6F)c6ccc3[nH]6)C=C5)C=C4)cc2)c1N
REMARK SMILES IDX 17 1 16 2 14 3 15 4 13 5 1 6 2 7 3 8 85 9 4 10 12 11 86 12
REMARK SMILES IDX 5 15 6 16 7 17 8 18 9 19 10 20 11 21 18 22 19 23 20 24 21 25
REMARK SMILES IDX 22 26 23 27 84 28 24 29 83 30 25 31 26 32 27 33 77 34 28 35
REMARK SMILES IDX 82 36 76 37 78 38 29 39 81 40 75 41 74 42 30 44 62 45 42 46
REMARK SMILES IDX 61 47 43 48 46 49 60 50 79 51 44 52 45 53 59 55 80 56 47 57
REMARK SMILES IDX 31 58 32 59 40 60 33 61 34 62 38 63 41 64 35 65 36 66 39 67
REMARK SMILES IDX 37 68 63 69 64 70 72 71 65 72 66 73 70 74 73 75 67 76 68 77
REMARK SMILES IDX 71 78 69 79 48 80 49 81 57 82 50 83 51 84 55 85 58 86 52 87
REMARK SMILES IDX 53 88 56 89 54 90
REMARK H PARENT 86 13 86 14 78 43 46 54
REMARK Flexibility Score: inf
ROOT
ATOM      1  C   UNL A   1      41.880  18.926  26.242  1.00  0.00     0.275 C 
ENDROOT
BRANCH   1   2
ATOM      2  O   UNL A   1      41.488  20.215  25.722  1.00  0.00    -0.458 OA
BRANCH   2   3
ATOM      3  C   UNL A   1      41.686  21.288  26.537  1.00  0.00     0.340 C 
ATOM      4  O   UNL A   1      42.738  21.625  27.047  1.00  0.00    -0.246 OA
BRANCH   3   5
ATOM      5  C   UNL A   1      40.435  22.093  26.605  1.00  0.00     0.085 A 
ATOM      6  C   UNL A   1      39.192  25.322  28.175  1.00  0.00     0.047 C 
ATOM      7  C   UNL A   1      39.280  24.049  27.380  1.00  0.00    -0.025 A 
ATOM      8  C   UNL A   1      38.275  23.777  26.437  1.00  0.00     0.031 A 
ATOM      9  C   UNL A   1      40.312  23.122  27.560  1.00  0.00     0.049 A 
ATOM     10  C   UNL A   1      38.203  22.568  25.730  1.00  0.00     0.038 A 
ATOM     11  C   UNL A   1      39.366  21.792  25.742  1.00  0.00     0.043 A 
BRANCH   9  12
ATOM     12  N   UNL A   1      41.255  23.312  28.570  1.00  0.00    -0.398 N 
ATOM     13  H   UNL A   1      40.978  23.685  29.438  1.00  0.00     0.156 HD
ATOM     14  H   UNL A   1      42.198  23.076  28.415  1.00  0.00     0.156 HD
ENDBRANCH   9  12
BRANCH  10  15
ATOM     15  N   UNL A   1      37.029  22.182  25.095  1.00  0.00    -0.374 N 
ATOM     16  C   UNL A   1      36.785  22.492  23.691  1.00  0.00     0.143 C 
BRANCH  15  17
ATOM     17  C   UNL A   1      36.127  21.175  25.695  1.00  0.00     0.120 C 
BRANCH  17  18
ATOM     18  C   UNL A   1      34.755  21.713  26.025  1.00  0.00     0.011 C 
ATOM     19  C   UNL A   1      34.219  21.690  27.438  1.00  0.00     0.009 C 
ATOM     20  C   UNL A   1      34.556  23.005  26.781  1.00  0.00    -0.009 C 
ATOM     21  C   UNL A   1      33.474  23.939  26.351  1.00  0.00     0.008 C 
ENDBRANCH  17  18
ENDBRANCH  15  17
ENDBRANCH  10  15
ENDBRANCH   3   5
ENDBRANCH   2   3
ENDBRANCH   1   2
BRANCH   1  22
ATOM     22  C   UNL A   1      43.247  18.526  25.684  1.00  0.00     0.275 C 
BRANCH  22  23
ATOM     23  O   UNL A   1      43.473  19.239  24.457  1.00  0.00    -0.458 OA
BRANCH  23  24
ATOM     24  C   UNL A   1      44.763  19.506  24.146  1.00  0.00     0.338 C 
ATOM     25  O   UNL A   1      45.584  18.736  23.673  1.00  0.00    -0.246 OA
BRANCH  24  26
ATOM     26  C   UNL A   1      45.054  20.919  24.472  1.00  0.00     0.060 A 
ATOM     27  C   UNL A   1      45.795  21.227  25.610  1.00  0.00     0.016 A 
ATOM     28  C   UNL A   1      44.529  21.952  23.697  1.00  0.00     0.016 A 
ATOM     29  C   UNL A   1      45.974  22.552  26.008  1.00  0.00     0.010 A 
ATOM     30  C   UNL A   1      44.777  23.287  24.053  1.00  0.00     0.010 A 
ATOM     31  C   UNL A   1      45.482  23.607  25.232  1.00  0.00    -0.014 A 
BRANCH  31  32
ATOM     32  C   UNL A   1      45.631  25.023  25.686  1.00  0.00     0.031 A 
ATOM     33  C   UNL A   1      46.948  25.734  25.500  1.00  0.00     0.074 A 
ATOM     34  C   UNL A   1      44.601  25.703  26.232  1.00  0.00     0.049 A 
ATOM     35  N   UNL A   1      47.364  26.865  26.012  1.00  0.00    -0.248 NA
ATOM     36  C   UNL A   1      47.933  25.074  24.628  1.00  0.00     0.031 C 
ATOM     37  C   UNL A   1      43.244  25.189  26.417  1.00  0.00     0.029 A 
ATOM     38  N   UNL A   1      44.536  26.987  26.725  1.00  0.00    -0.354 N 
ATOM     39  C   UNL A   1      48.679  27.013  25.590  1.00  0.00     0.074 A 
ATOM     40  C   UNL A   1      48.989  25.862  24.766  1.00  0.00     0.031 C 
ATOM     41  C   UNL A   1      42.473  26.157  26.942  1.00  0.00     0.029 A 
ATOM     42  C   UNL A   1      43.300  27.327  27.221  1.00  0.00     0.049 A 
ATOM     43  H   UNL A   1      45.304  27.603  26.725  1.00  0.00     0.167 HD
ATOM     44  C   UNL A   1      49.550  28.013  25.867  1.00  0.00     0.037 A 
ATOM     45  C   UNL A   1      42.884  28.433  27.870  1.00  0.00     0.037 A 
ATOM     46  C   UNL A   1      49.221  29.195  26.621  1.00  0.00     0.049 A 
ATOM     47  C   UNL A   1      43.871  29.527  28.177  1.00  0.00     0.074 A 
ATOM     48  C   UNL A   1      50.040  30.258  26.961  1.00  0.00     0.029 A 
ATOM     49  N   UNL A   1      47.962  29.485  27.122  1.00  0.00    -0.354 N 
ATOM     50  N   UNL A   1      45.141  29.608  27.865  1.00  0.00    -0.248 NA
ATOM     51  C   UNL A   1      43.372  30.671  28.955  1.00  0.00     0.031 C 
ATOM     52  C   UNL A   1      49.283  31.182  27.689  1.00  0.00     0.029 A 
ATOM     53  C   UNL A   1      47.983  30.711  27.768  1.00  0.00     0.049 A 
ATOM     54  H   UNL A   1      47.171  28.906  27.034  1.00  0.00     0.167 HD
ATOM     55  C   UNL A   1      45.591  30.806  28.403  1.00  0.00     0.074 A 
ATOM     56  C   UNL A   1      44.452  31.436  29.036  1.00  0.00     0.031 C 
ATOM     57  C   UNL A   1      46.841  31.329  28.387  1.00  0.00     0.037 A 
BRANCH  44  58
ATOM     58  C   UNL A   1      50.962  27.859  25.385  1.00  0.00     0.064 A 
ATOM     59  C   UNL A   1      51.989  27.403  26.222  1.00  0.00     0.173 A 
ATOM     60  C   UNL A   1      51.278  28.128  24.044  1.00  0.00     0.173 A 
ATOM     61  F   UNL A   1      51.741  27.145  27.515  1.00  0.00    -0.203 F 
ATOM     62  C   UNL A   1      53.286  27.243  25.740  1.00  0.00     0.198 A 
ATOM     63  C   UNL A   1      52.569  27.942  23.559  1.00  0.00     0.198 A 
ATOM     64  F   UNL A   1      50.329  28.560  23.199  1.00  0.00    -0.203 F 
ATOM     65  F   UNL A   1      54.262  26.845  26.568  1.00  0.00    -0.200 F 
ATOM     66  C   UNL A   1      53.573  27.505  24.408  1.00  0.00     0.200 A 
ATOM     67  F   UNL A   1      52.840  28.181  22.268  1.00  0.00    -0.200 F 
ATOM     68  F   UNL A   1      54.820  27.339  23.944  1.00  0.00    -0.200 F 
ENDBRANCH  44  58
BRANCH  45  69
ATOM     69  C   UNL A   1      41.473  28.541  28.328  1.00  0.00     0.064 A 
ATOM     70  C   UNL A   1      40.461  28.979  27.460  1.00  0.00     0.173 A 
ATOM     71  C   UNL A   1      41.107  28.225  29.645  1.00  0.00     0.173 A 
ATOM     72  F   UNL A   1      40.765  29.327  26.201  1.00  0.00    -0.203 F 
ATOM     73  C   UNL A   1      39.144  29.104  27.895  1.00  0.00     0.198 A 
ATOM     74  C   UNL A   1      39.784  28.317  30.069  1.00  0.00     0.198 A 
ATOM     75  F   UNL A   1      42.036  27.811  30.519  1.00  0.00    -0.203 F 
ATOM     76  F   UNL A   1      38.205  29.568  27.059  1.00  0.00    -0.200 F 
ATOM     77  C   UNL A   1      38.804  28.764  29.196  1.00  0.00     0.200 A 
ATOM     78  F   UNL A   1      39.459  27.976  31.324  1.00  0.00    -0.200 F 
ATOM     79  F   UNL A   1      37.535  28.875  29.611  1.00  0.00    -0.200 F 
ENDBRANCH  45  69
BRANCH  57  80
ATOM     80  C   UNL A   1      47.036  32.660  29.052  1.00  0.00     0.064 A 
ATOM     81  C   UNL A   1      46.852  33.861  28.352  1.00  0.00     0.173 A 
ATOM     82  C   UNL A   1      47.378  32.733  30.410  1.00  0.00     0.173 A 
ATOM     83  F   UNL A   1      46.538  33.841  27.048  1.00  0.00    -0.203 F 
ATOM     84  C   UNL A   1      47.026  35.090  28.984  1.00  0.00     0.198 A 
ATOM     85  C   UNL A   1      47.529  33.964  31.044  1.00  0.00     0.198 A 
ATOM     86  F   UNL A   1      47.560  31.612  31.124  1.00  0.00    -0.203 F 
ATOM     87  F   UNL A   1      46.887  36.226  28.286  1.00  0.00    -0.200 F 
ATOM     88  C   UNL A   1      47.360  35.140  30.329  1.00  0.00     0.200 A 
ATOM     89  F   UNL A   1      47.843  34.011  32.346  1.00  0.00    -0.200 F 
ATOM     90  F   UNL A   1      47.526  36.323  30.936  1.00  0.00    -0.200 F 
ENDBRANCH  57  80
ENDBRANCH  31  32
ENDBRANCH  24  26
ENDBRANCH  23  24
ENDBRANCH  22  23
ENDBRANCH   1  22
TORSDOF 15
ENDMDL
