MODEL 1
REMARK VINA RESULT:     -12.4      0.000      0.000
REMARK SMILES C[C@H]1CC[C@H](CNC(=O)NCc2ccc(C(=O)OCCOC(=O)c3ccc(-c4c5nc(c(-c6c(F)c(F)c(F)c(F)c6F)c6ccc([nH]6)c(-c6c(F)c(F)c(F)c(F)c6F)c6nc(c(-c7c(F)c(F)c(F)c(F)c7F)c7ccc4[nH]7)C=C6)C=C5)cc3)o2)CC1
REMARK SMILES IDX 19 1 18 2 16 3 17 4 15 5 12 6 13 7 87 8 14 9 11 10 10 11
REMARK SMILES IDX 7 12 8 13 9 15 6 17 5 18 1 19 2 20 89 21 3 22 88 23 4 24
REMARK SMILES IDX 20 25 21 26 22 27 23 28 24 29 25 30 86 31 26 32 85 33 27 34
REMARK SMILES IDX 28 35 29 36 79 37 30 38 84 39 78 40 80 41 31 42 83 43 77 44
REMARK SMILES IDX 76 45 32 47 64 48 44 49 63 50 45 51 48 52 62 53 81 54 46 55
REMARK SMILES IDX 47 56 61 58 82 59 49 60 33 61 34 62 42 63 35 64 36 65 40 66
REMARK SMILES IDX 43 67 37 68 38 69 41 70 39 71 65 72 66 73 74 74 67 75 68 76
REMARK SMILES IDX 72 77 75 78 69 79 70 80 73 81 71 82 50 83 51 84 59 85 52 86
REMARK SMILES IDX 53 87 57 88 60 89 54 90 55 91 58 92 56 93
REMARK H PARENT 7 14 10 16 80 46 48 57
REMARK Flexibility Score: inf
ROOT
ATOM      1  C   UNL A   1      31.385  29.582  24.689  1.00  0.00     0.275 C 
ENDROOT
BRANCH   1   2
ATOM      2  O   UNL A   1      30.274  30.018  23.883  1.00  0.00    -0.456 OA
BRANCH   2   3
ATOM      3  C   UNL A   1      30.014  29.279  22.763  1.00  0.00     0.374 C 
ATOM      4  O   UNL A   1      30.223  29.663  21.618  1.00  0.00    -0.242 OA
BRANCH   3   5
ATOM      5  C   UNL A   1      29.550  27.960  23.136  1.00  0.00     0.211 A 
ATOM      6  C   UNL A   1      29.849  25.832  23.682  1.00  0.00     0.124 A 
ATOM      7  C   UNL A   1      28.516  26.112  23.900  1.00  0.00     0.048 A 
ATOM      8  O   UNL A   1      30.465  26.937  23.164  1.00  0.00    -0.452 OA
ATOM      9  C   UNL A   1      28.325  27.474  23.556  1.00  0.00     0.058 A 
BRANCH   6  10
ATOM     10  C   UNL A   1      30.673  24.606  23.876  1.00  0.00     0.193 C 
BRANCH  10  11
ATOM     11  N   UNL A   1      30.311  23.941  25.107  1.00  0.00    -0.331 N 
ATOM     12  N   UNL A   1      31.746  24.760  26.792  1.00  0.00    -0.338 N 
ATOM     13  C   UNL A   1      30.633  24.140  26.387  1.00  0.00     0.315 C 
ATOM     14  H   UNL A   1      31.718  25.035  27.737  1.00  0.00     0.165 HD
ATOM     15  O   UNL A   1      29.875  23.696  27.252  1.00  0.00    -0.249 OA
ATOM     16  H   UNL A   1      29.698  23.183  24.974  1.00  0.00     0.165 HD
BRANCH  12  17
ATOM     17  C   UNL A   1      32.987  25.114  26.128  1.00  0.00     0.121 C 
BRANCH  17  18
ATOM     18  C   UNL A   1      33.734  23.853  25.658  1.00  0.00     0.008 C 
ATOM     19  C   UNL A   1      36.985  20.980  24.996  1.00  0.00     0.007 C 
ATOM     20  C   UNL A   1      36.220  22.222  25.451  1.00  0.00    -0.014 C 
ATOM     21  C   UNL A   1      35.084  21.844  26.408  1.00  0.00     0.003 C 
ATOM     22  C   UNL A   1      35.673  22.994  24.245  1.00  0.00     0.003 C 
ATOM     23  C   UNL A   1      34.295  23.074  26.855  1.00  0.00     0.006 C 
ATOM     24  C   UNL A   1      34.864  24.216  24.676  1.00  0.00     0.006 C 
ENDBRANCH  17  18
ENDBRANCH  12  17
ENDBRANCH  10  11
ENDBRANCH   6  10
ENDBRANCH   3   5
ENDBRANCH   2   3
ENDBRANCH   1   2
BRANCH   1  25
ATOM     25  C   UNL A   1      31.624  30.532  25.868  1.00  0.00     0.275 C 
BRANCH  25  26
ATOM     26  O   UNL A   1      32.994  30.501  26.310  1.00  0.00    -0.458 OA
BRANCH  26  27
ATOM     27  C   UNL A   1      33.376  31.533  27.097  1.00  0.00     0.338 C 
ATOM     28  O   UNL A   1      32.747  32.550  27.335  1.00  0.00    -0.246 OA
BRANCH  27  29
ATOM     29  C   UNL A   1      34.648  31.200  27.759  1.00  0.00     0.060 A 
ATOM     30  C   UNL A   1      34.838  29.887  28.192  1.00  0.00     0.016 A 
ATOM     31  C   UNL A   1      35.620  32.174  28.001  1.00  0.00     0.016 A 
ATOM     32  C   UNL A   1      36.001  29.541  28.872  1.00  0.00     0.010 A 
ATOM     33  C   UNL A   1      36.784  31.825  28.696  1.00  0.00     0.010 A 
ATOM     34  C   UNL A   1      36.973  30.508  29.146  1.00  0.00    -0.014 A 
BRANCH  34  35
ATOM     35  C   UNL A   1      38.150  30.146  29.971  1.00  0.00     0.031 A 
ATOM     36  C   UNL A   1      39.192  29.225  29.408  1.00  0.00     0.074 A 
ATOM     37  C   UNL A   1      38.300  30.663  31.203  1.00  0.00     0.049 A 
ATOM     38  N   UNL A   1      40.241  28.701  29.987  1.00  0.00    -0.248 NA
ATOM     39  C   UNL A   1      39.029  28.842  27.996  1.00  0.00     0.031 C 
ATOM     40  C   UNL A   1      37.397  31.627  31.828  1.00  0.00     0.029 A 
ATOM     41  N   UNL A   1      39.271  30.448  32.149  1.00  0.00    -0.354 N 
ATOM     42  C   UNL A   1      40.849  27.909  29.023  1.00  0.00     0.074 A 
ATOM     43  C   UNL A   1      40.046  28.011  27.823  1.00  0.00     0.031 C 
ATOM     44  C   UNL A   1      37.852  31.918  33.058  1.00  0.00     0.029 A 
ATOM     45  C   UNL A   1      39.052  31.128  33.321  1.00  0.00     0.049 A 
ATOM     46  H   UNL A   1      40.048  29.862  32.001  1.00  0.00     0.167 HD
ATOM     47  C   UNL A   1      41.974  27.165  29.136  1.00  0.00     0.037 A 
ATOM     48  C   UNL A   1      39.731  31.092  34.483  1.00  0.00     0.037 A 
ATOM     49  C   UNL A   1      42.778  27.083  30.327  1.00  0.00     0.049 A 
ATOM     50  C   UNL A   1      40.944  30.211  34.601  1.00  0.00     0.074 A 
ATOM     51  C   UNL A   1      43.935  26.354  30.542  1.00  0.00     0.029 A 
ATOM     52  N   UNL A   1      42.508  27.762  31.507  1.00  0.00    -0.354 N 
ATOM     53  N   UNL A   1      41.499  29.440  33.698  1.00  0.00    -0.248 NA
ATOM     54  C   UNL A   1      41.624  30.189  35.904  1.00  0.00     0.031 C 
ATOM     55  C   UNL A   1      44.344  26.562  31.865  1.00  0.00     0.029 A 
ATOM     56  C   UNL A   1      43.466  27.454  32.459  1.00  0.00     0.049 A 
ATOM     57  H   UNL A   1      41.746  28.370  31.648  1.00  0.00     0.167 HD
ATOM     58  C   UNL A   1      42.602  28.863  34.310  1.00  0.00     0.074 A 
ATOM     59  C   UNL A   1      42.645  29.379  35.663  1.00  0.00     0.031 C 
ATOM     60  C   UNL A   1      43.498  27.986  33.798  1.00  0.00     0.037 A 
BRANCH  47  61
ATOM     61  C   UNL A   1      42.385  26.350  27.946  1.00  0.00     0.064 A 
ATOM     62  C   UNL A   1      41.864  25.070  27.711  1.00  0.00     0.173 A 
ATOM     63  C   UNL A   1      43.293  26.873  27.013  1.00  0.00     0.173 A 
ATOM     64  F   UNL A   1      41.005  24.519  28.582  1.00  0.00    -0.203 F 
ATOM     65  C   UNL A   1      42.254  24.333  26.595  1.00  0.00     0.198 A 
ATOM     66  C   UNL A   1      43.662  26.144  25.886  1.00  0.00     0.198 A 
ATOM     67  F   UNL A   1      43.820  28.094  27.191  1.00  0.00    -0.203 F 
ATOM     68  F   UNL A   1      41.776  23.094  26.412  1.00  0.00    -0.200 F 
ATOM     69  C   UNL A   1      43.147  24.873  25.681  1.00  0.00     0.200 A 
ATOM     70  F   UNL A   1      44.520  26.670  25.000  1.00  0.00    -0.200 F 
ATOM     71  F   UNL A   1      43.518  24.164  24.606  1.00  0.00    -0.200 F 
ENDBRANCH  47  61
BRANCH  48  72
ATOM     72  C   UNL A   1      39.258  31.899  35.637  1.00  0.00     0.064 A 
ATOM     73  C   UNL A   1      38.370  31.364  36.581  1.00  0.00     0.173 A 
ATOM     74  C   UNL A   1      39.679  33.225  35.815  1.00  0.00     0.173 A 
ATOM     75  F   UNL A   1      37.914  30.111  36.436  1.00  0.00    -0.203 F 
ATOM     76  C   UNL A   1      37.913  32.129  37.652  1.00  0.00     0.198 A 
ATOM     77  C   UNL A   1      39.242  33.981  36.900  1.00  0.00     0.198 A 
ATOM     78  F   UNL A   1      40.521  33.787  34.935  1.00  0.00    -0.203 F 
ATOM     79  F   UNL A   1      37.030  31.609  38.515  1.00  0.00    -0.200 F 
ATOM     80  C   UNL A   1      38.354  33.434  37.814  1.00  0.00     0.200 A 
ATOM     81  F   UNL A   1      39.675  35.239  37.057  1.00  0.00    -0.200 F 
ATOM     82  F   UNL A   1      37.915  34.168  38.845  1.00  0.00    -0.200 F 
ENDBRANCH  48  72
BRANCH  60  83
ATOM     83  C   UNL A   1      44.624  27.554  34.691  1.00  0.00     0.064 A 
ATOM     84  C   UNL A   1      45.819  28.284  34.770  1.00  0.00     0.173 A 
ATOM     85  C   UNL A   1      44.486  26.423  35.509  1.00  0.00     0.173 A 
ATOM     86  F   UNL A   1      46.003  29.363  33.996  1.00  0.00    -0.203 F 
ATOM     87  C   UNL A   1      46.843  27.883  35.623  1.00  0.00     0.198 A 
ATOM     88  C   UNL A   1      45.502  26.041  36.378  1.00  0.00     0.198 A 
ATOM     89  F   UNL A   1      43.359  25.696  35.474  1.00  0.00    -0.203 F 
ATOM     90  F   UNL A   1      47.992  28.573  35.657  1.00  0.00    -0.200 F 
ATOM     91  C   UNL A   1      46.681  26.768  36.432  1.00  0.00     0.200 A 
ATOM     92  F   UNL A   1      45.340  24.969  37.167  1.00  0.00    -0.200 F 
ATOM     93  F   UNL A   1      47.666  26.390  37.259  1.00  0.00    -0.200 F 
ENDBRANCH  60  83
ENDBRANCH  34  35
ENDBRANCH  27  29
ENDBRANCH  26  27
ENDBRANCH  25  26
ENDBRANCH   1  25
TORSDOF 15
ENDMDL
MODEL 2
REMARK VINA RESULT:     -12.3      6.245     10.128
REMARK SMILES C[C@H]1CC[C@H](CNC(=O)NCc2ccc(C(=O)OCCOC(=O)c3ccc(-c4c5nc(c(-c6c(F)c(F)c(F)c(F)c6F)c6ccc([nH]6)c(-c6c(F)c(F)c(F)c(F)c6F)c6nc(c(-c7c(F)c(F)c(F)c(F)c7F)c7ccc4[nH]7)C=C6)C=C5)cc3)o2)CC1
REMARK SMILES IDX 19 1 18 2 16 3 17 4 15 5 12 6 13 7 87 8 14 9 11 10 10 11
REMARK SMILES IDX 7 12 8 13 9 15 6 17 5 18 1 19 2 20 89 21 3 22 88 23 4 24
REMARK SMILES IDX 20 25 21 26 22 27 23 28 24 29 25 30 86 31 26 32 85 33 27 34
REMARK SMILES IDX 28 35 29 36 79 37 30 38 84 39 78 40 80 41 31 42 83 43 77 44
REMARK SMILES IDX 76 45 32 47 64 48 44 49 63 50 45 51 48 52 62 53 81 54 46 55
REMARK SMILES IDX 47 56 61 58 82 59 49 60 33 61 34 62 42 63 35 64 36 65 40 66
REMARK SMILES IDX 43 67 37 68 38 69 41 70 39 71 65 72 66 73 74 74 67 75 68 76
REMARK SMILES IDX 72 77 75 78 69 79 70 80 73 81 71 82 50 83 51 84 59 85 52 86
REMARK SMILES IDX 53 87 57 88 60 89 54 90 55 91 58 92 56 93
REMARK H PARENT 7 14 10 16 80 46 48 57
REMARK Flexibility Score: inf
ROOT
ATOM      1  C   UNL A   1      41.659  19.209  26.137  1.00  0.00     0.275 C 
ENDROOT
BRANCH   1   2
ATOM      2  O   UNL A   1      41.402  20.565  25.726  1.00  0.00    -0.456 OA
BRANCH   2   3
ATOM      3  C   UNL A   1      41.340  21.498  26.723  1.00  0.00     0.374 C 
ATOM      4  O   UNL A   1      42.206  21.654  27.577  1.00  0.00    -0.242 OA
BRANCH   3   5
ATOM      5  C   UNL A   1      40.159  22.318  26.562  1.00  0.00     0.211 A 
ATOM      6  C   UNL A   1      38.043  22.660  25.998  1.00  0.00     0.124 A 
ATOM      7  C   UNL A   1      38.470  23.804  26.636  1.00  0.00     0.048 A 
ATOM      8  O   UNL A   1      39.084  21.779  25.901  1.00  0.00    -0.452 OA
ATOM      9  C   UNL A   1      39.823  23.585  27.002  1.00  0.00     0.058 A 
BRANCH   6  10
ATOM     10  C   UNL A   1      36.735  22.254  25.410  1.00  0.00     0.193 C 
BRANCH  10  11
ATOM     11  N   UNL A   1      35.665  22.464  26.360  1.00  0.00    -0.331 N 
ATOM     12  N   UNL A   1      34.120  20.704  26.072  1.00  0.00    -0.338 N 
ATOM     13  C   UNL A   1      34.648  21.708  26.780  1.00  0.00     0.315 C 
ATOM     14  H   UNL A   1      33.552  20.105  26.610  1.00  0.00     0.165 HD
ATOM     15  O   UNL A   1      34.142  21.971  27.872  1.00  0.00    -0.249 OA
ATOM     16  H   UNL A   1      35.693  23.349  26.788  1.00  0.00     0.165 HD
BRANCH  12  17
ATOM     17  C   UNL A   1      34.209  20.313  24.678  1.00  0.00     0.121 C 
BRANCH  17  18
ATOM     18  C   UNL A   1      33.776  18.848  24.492  1.00  0.00     0.008 C 
ATOM     19  C   UNL A   1      33.047  14.610  25.369  1.00  0.00     0.007 C 
ATOM     20  C   UNL A   1      33.468  16.070  25.528  1.00  0.00    -0.014 C 
ATOM     21  C   UNL A   1      32.267  17.007  25.360  1.00  0.00     0.003 C 
ATOM     22  C   UNL A   1      34.573  16.428  24.526  1.00  0.00     0.003 C 
ATOM     23  C   UNL A   1      32.676  18.473  25.494  1.00  0.00     0.006 C 
ATOM     24  C   UNL A   1      34.980  17.896  24.634  1.00  0.00     0.006 C 
ENDBRANCH  17  18
ENDBRANCH  12  17
ENDBRANCH  10  11
ENDBRANCH   6  10
ENDBRANCH   3   5
ENDBRANCH   2   3
ENDBRANCH   1   2
BRANCH   1  25
ATOM     25  C   UNL A   1      43.080  18.772  25.760  1.00  0.00     0.275 C 
BRANCH  25  26
ATOM     26  O   UNL A   1      43.447  19.233  24.446  1.00  0.00    -0.458 OA
BRANCH  26  27
ATOM     27  C   UNL A   1      44.763  19.495  24.268  1.00  0.00     0.338 C 
ATOM     28  O   UNL A   1      45.608  18.747  23.807  1.00  0.00    -0.246 OA
BRANCH  27  29
ATOM     29  C   UNL A   1      45.030  20.904  24.599  1.00  0.00     0.060 A 
ATOM     30  C   UNL A   1      45.593  21.191  25.844  1.00  0.00     0.016 A 
ATOM     31  C   UNL A   1      44.682  21.936  23.724  1.00  0.00     0.016 A 
ATOM     32  C   UNL A   1      45.809  22.513  26.220  1.00  0.00     0.010 A 
ATOM     33  C   UNL A   1      44.891  23.265  24.111  1.00  0.00     0.010 A 
ATOM     34  C   UNL A   1      45.443  23.559  25.368  1.00  0.00    -0.014 A 
BRANCH  34  35
ATOM     35  C   UNL A   1      45.576  24.959  25.835  1.00  0.00     0.031 A 
ATOM     36  C   UNL A   1      46.904  25.649  25.737  1.00  0.00     0.074 A 
ATOM     37  C   UNL A   1      44.506  25.619  26.313  1.00  0.00     0.049 A 
ATOM     38  N   UNL A   1      47.266  26.827  26.176  1.00  0.00    -0.248 NA
ATOM     39  C   UNL A   1      47.975  24.907  25.050  1.00  0.00     0.031 C 
ATOM     40  C   UNL A   1      43.148  25.083  26.385  1.00  0.00     0.029 A 
ATOM     41  N   UNL A   1      44.396  26.886  26.829  1.00  0.00    -0.354 N 
ATOM     42  C   UNL A   1      48.606  26.960  25.842  1.00  0.00     0.074 A 
ATOM     43  C   UNL A   1      49.000  25.738  25.173  1.00  0.00     0.031 C 
ATOM     44  C   UNL A   1      42.340  26.012  26.920  1.00  0.00     0.029 A 
ATOM     45  C   UNL A   1      43.132  27.190  27.267  1.00  0.00     0.049 A 
ATOM     46  H   UNL A   1      45.152  27.515  26.881  1.00  0.00     0.167 HD
ATOM     47  C   UNL A   1      49.430  28.009  26.076  1.00  0.00     0.037 A 
ATOM     48  C   UNL A   1      42.674  28.285  27.903  1.00  0.00     0.037 A 
ATOM     49  C   UNL A   1      49.027  29.229  26.725  1.00  0.00     0.049 A 
ATOM     50  C   UNL A   1      43.624  29.412  28.204  1.00  0.00     0.074 A 
ATOM     51  C   UNL A   1      49.788  30.349  27.011  1.00  0.00     0.029 A 
ATOM     52  N   UNL A   1      47.743  29.489  27.185  1.00  0.00    -0.354 N 
ATOM     53  N   UNL A   1      44.897  29.522  27.914  1.00  0.00    -0.248 NA
ATOM     54  C   UNL A   1      43.074  30.567  28.929  1.00  0.00     0.031 C 
ATOM     55  C   UNL A   1      48.974  31.272  27.679  1.00  0.00     0.029 A 
ATOM     56  C   UNL A   1      47.696  30.744  27.769  1.00  0.00     0.049 A 
ATOM     57  H   UNL A   1      46.980  28.872  27.109  1.00  0.00     0.167 HD
ATOM     58  C   UNL A   1      45.295  30.762  28.395  1.00  0.00     0.074 A 
ATOM     59  C   UNL A   1      44.125  31.373  28.990  1.00  0.00     0.031 C 
ATOM     60  C   UNL A   1      46.519  31.341  28.347  1.00  0.00     0.037 A 
BRANCH  47  61
ATOM     61  C   UNL A   1      50.863  27.868  25.657  1.00  0.00     0.064 A 
ATOM     62  C   UNL A   1      51.873  27.540  26.572  1.00  0.00     0.173 A 
ATOM     63  C   UNL A   1      51.223  28.038  24.311  1.00  0.00     0.173 A 
ATOM     64  F   UNL A   1      51.581  27.384  27.872  1.00  0.00    -0.203 F 
ATOM     65  C   UNL A   1      53.196  27.407  26.159  1.00  0.00     0.198 A 
ATOM     66  C   UNL A   1      52.543  27.881  23.898  1.00  0.00     0.198 A 
ATOM     67  F   UNL A   1      50.295  28.352  23.395  1.00  0.00    -0.203 F 
ATOM     68  F   UNL A   1      54.152  27.134  27.058  1.00  0.00    -0.200 F 
ATOM     69  C   UNL A   1      53.529  27.572  24.822  1.00  0.00     0.200 A 
ATOM     70  F   UNL A   1      52.862  28.033  22.605  1.00  0.00    -0.200 F 
ATOM     71  F   UNL A   1      54.803  27.440  24.427  1.00  0.00    -0.200 F 
ENDBRANCH  47  61
BRANCH  48  72
ATOM     72  C   UNL A   1      41.250  28.354  28.321  1.00  0.00     0.064 A 
ATOM     73  C   UNL A   1      40.280  28.936  27.493  1.00  0.00     0.173 A 
ATOM     74  C   UNL A   1      40.833  27.847  29.560  1.00  0.00     0.173 A 
ATOM     75  F   UNL A   1      40.636  29.464  26.313  1.00  0.00    -0.203 F 
ATOM     76  C   UNL A   1      38.949  29.017  27.895  1.00  0.00     0.198 A 
ATOM     77  C   UNL A   1      39.497  27.905  29.950  1.00  0.00     0.198 A 
ATOM     78  F   UNL A   1      41.724  27.289  30.392  1.00  0.00    -0.203 F 
ATOM     79  F   UNL A   1      38.048  29.618  27.106  1.00  0.00    -0.200 F 
ATOM     80  C   UNL A   1      38.557  28.496  29.119  1.00  0.00     0.200 A 
ATOM     81  F   UNL A   1      39.122  27.395  31.130  1.00  0.00    -0.200 F 
ATOM     82  F   UNL A   1      37.276  28.573  29.504  1.00  0.00    -0.200 F 
ENDBRANCH  48  72
BRANCH  60  83
ATOM     83  C   UNL A   1      46.649  32.720  28.921  1.00  0.00     0.064 A 
ATOM     84  C   UNL A   1      46.997  32.927  30.263  1.00  0.00     0.173 A 
ATOM     85  C   UNL A   1      46.466  33.847  28.105  1.00  0.00     0.173 A 
ATOM     86  F   UNL A   1      47.168  31.881  31.085  1.00  0.00    -0.203 F 
ATOM     87  C   UNL A   1      47.139  34.215  30.773  1.00  0.00     0.198 A 
ATOM     88  C   UNL A   1      46.633  35.132  28.613  1.00  0.00     0.198 A 
ATOM     89  F   UNL A   1      46.138  33.700  26.813  1.00  0.00    -0.203 F 
ATOM     90  F   UNL A   1      47.436  34.392  32.068  1.00  0.00    -0.200 F 
ATOM     91  C   UNL A   1      46.964  35.315  29.946  1.00  0.00     0.200 A 
ATOM     92  F   UNL A   1      46.474  36.194  27.810  1.00  0.00    -0.200 F 
ATOM     93  F   UNL A   1      47.109  36.554  30.438  1.00  0.00    -0.200 F 
ENDBRANCH  60  83
ENDBRANCH  34  35
ENDBRANCH  27  29
ENDBRANCH  26  27
ENDBRANCH  25  26
ENDBRANCH   1  25
TORSDOF 15
ENDMDL
MODEL 3
REMARK VINA RESULT:     -12.2      1.518      7.667
REMARK SMILES C[C@H]1CC[C@H](CNC(=O)NCc2ccc(C(=O)OCCOC(=O)c3ccc(-c4c5nc(c(-c6c(F)c(F)c(F)c(F)c6F)c6ccc([nH]6)c(-c6c(F)c(F)c(F)c(F)c6F)c6nc(c(-c7c(F)c(F)c(F)c(F)c7F)c7ccc4[nH]7)C=C6)C=C5)cc3)o2)CC1
REMARK SMILES IDX 19 1 18 2 16 3 17 4 15 5 12 6 13 7 87 8 14 9 11 10 10 11
REMARK SMILES IDX 7 12 8 13 9 15 6 17 5 18 1 19 2 20 89 21 3 22 88 23 4 24
REMARK SMILES IDX 20 25 21 26 22 27 23 28 24 29 25 30 86 31 26 32 85 33 27 34
REMARK SMILES IDX 28 35 29 36 79 37 30 38 84 39 78 40 80 41 31 42 83 43 77 44
REMARK SMILES IDX 76 45 32 47 64 48 44 49 63 50 45 51 48 52 62 53 81 54 46 55
REMARK SMILES IDX 47 56 61 58 82 59 49 60 33 61 34 62 42 63 35 64 36 65 40 66
REMARK SMILES IDX 43 67 37 68 38 69 41 70 39 71 65 72 66 73 74 74 67 75 68 76
REMARK SMILES IDX 72 77 75 78 69 79 70 80 73 81 71 82 50 83 51 84 59 85 52 86
REMARK SMILES IDX 53 87 57 88 60 89 54 90 55 91 58 92 56 93
REMARK H PARENT 7 14 10 16 80 46 48 57
REMARK Flexibility Score: inf
ROOT
ATOM      1  C   UNL A   1      31.273  31.498  26.272  1.00  0.00     0.275 C 
ENDROOT
BRANCH   1   2
ATOM      2  O   UNL A   1      31.967  30.448  26.971  1.00  0.00    -0.456 OA
BRANCH   2   3
ATOM      3  C   UNL A   1      32.696  29.588  26.199  1.00  0.00     0.374 C 
ATOM      4  O   UNL A   1      33.900  29.697  25.990  1.00  0.00    -0.242 OA
BRANCH   3   5
ATOM      5  C   UNL A   1      31.861  28.494  25.750  1.00  0.00     0.211 A 
ATOM      6  C   UNL A   1      30.924  27.224  24.194  1.00  0.00     0.124 A 
ATOM      7  C   UNL A   1      30.678  26.612  25.404  1.00  0.00     0.048 A 
ATOM      8  O   UNL A   1      31.592  28.397  24.407  1.00  0.00    -0.452 OA
ATOM      9  C   UNL A   1      31.282  27.421  26.400  1.00  0.00     0.058 A 
BRANCH   6  10
ATOM     10  C   UNL A   1      30.585  26.865  22.788  1.00  0.00     0.193 C 
BRANCH  10  11
ATOM     11  N   UNL A   1      31.781  26.803  21.978  1.00  0.00    -0.331 N 
ATOM     12  N   UNL A   1      32.445  24.540  21.884  1.00  0.00    -0.338 N 
ATOM     13  C   UNL A   1      32.469  25.798  21.432  1.00  0.00     0.315 C 
ATOM     14  H   UNL A   1      32.804  23.887  21.241  1.00  0.00     0.165 HD
ATOM     15  O   UNL A   1      33.197  26.049  20.470  1.00  0.00    -0.249 OA
ATOM     16  H   UNL A   1      32.170  27.687  21.791  1.00  0.00     0.165 HD
BRANCH  12  17
ATOM     17  C   UNL A   1      31.998  23.937  23.126  1.00  0.00     0.121 C 
BRANCH  17  18
ATOM     18  C   UNL A   1      33.195  23.607  24.035  1.00  0.00     0.008 C 
ATOM     19  C   UNL A   1      37.295  23.511  25.599  1.00  0.00     0.007 C 
ATOM     20  C   UNL A   1      36.090  23.824  24.713  1.00  0.00    -0.014 C 
ATOM     21  C   UNL A   1      35.017  24.587  25.498  1.00  0.00     0.003 C 
ATOM     22  C   UNL A   1      35.506  22.537  24.117  1.00  0.00     0.003 C 
ATOM     23  C   UNL A   1      33.795  24.888  24.632  1.00  0.00     0.006 C 
ATOM     24  C   UNL A   1      34.271  22.818  23.264  1.00  0.00     0.006 C 
ENDBRANCH  17  18
ENDBRANCH  12  17
ENDBRANCH  10  11
ENDBRANCH   6  10
ENDBRANCH   3   5
ENDBRANCH   2   3
ENDBRANCH   1   2
BRANCH   1  25
ATOM     25  C   UNL A   1      31.610  32.874  26.858  1.00  0.00     0.275 C 
BRANCH  25  26
ATOM     26  O   UNL A   1      33.029  33.119  26.862  1.00  0.00    -0.458 OA
BRANCH  26  27
ATOM     27  C   UNL A   1      33.504  33.778  27.945  1.00  0.00     0.338 C 
ATOM     28  O   UNL A   1      33.005  34.745  28.496  1.00  0.00    -0.246 OA
BRANCH  27  29
ATOM     29  C   UNL A   1      34.681  33.069  28.473  1.00  0.00     0.060 A 
ATOM     30  C   UNL A   1      34.505  31.768  28.950  1.00  0.00     0.016 A 
ATOM     31  C   UNL A   1      35.930  33.688  28.550  1.00  0.00     0.016 A 
ATOM     32  C   UNL A   1      35.578  31.083  29.509  1.00  0.00     0.010 A 
ATOM     33  C   UNL A   1      37.005  32.999  29.124  1.00  0.00     0.010 A 
ATOM     34  C   UNL A   1      36.829  31.697  29.618  1.00  0.00    -0.014 A 
BRANCH  34  35
ATOM     35  C   UNL A   1      37.928  30.992  30.320  1.00  0.00     0.031 A 
ATOM     36  C   UNL A   1      38.175  31.271  31.773  1.00  0.00     0.074 A 
ATOM     37  C   UNL A   1      38.677  30.085  29.669  1.00  0.00     0.049 A 
ATOM     38  N   UNL A   1      39.138  30.847  32.551  1.00  0.00    -0.248 NA
ATOM     39  C   UNL A   1      37.203  32.151  32.443  1.00  0.00     0.031 C 
ATOM     40  C   UNL A   1      38.483  29.673  28.281  1.00  0.00     0.029 A 
ATOM     41  N   UNL A   1      39.754  29.348  30.094  1.00  0.00    -0.354 N 
ATOM     42  C   UNL A   1      38.904  31.424  33.791  1.00  0.00     0.074 A 
ATOM     43  C   UNL A   1      37.715  32.239  33.663  1.00  0.00     0.031 C 
ATOM     44  C   UNL A   1      39.414  28.758  27.964  1.00  0.00     0.029 A 
ATOM     45  C   UNL A   1      40.294  28.555  29.112  1.00  0.00     0.049 A 
ATOM     46  H   UNL A   1      40.105  29.385  31.013  1.00  0.00     0.167 HD
ATOM     47  C   UNL A   1      39.621  31.283  34.931  1.00  0.00     0.037 A 
ATOM     48  C   UNL A   1      41.392  27.776  29.133  1.00  0.00     0.037 A 
ATOM     49  C   UNL A   1      40.793  30.456  35.057  1.00  0.00     0.049 A 
ATOM     50  C   UNL A   1      42.206  27.684  30.396  1.00  0.00     0.074 A 
ATOM     51  C   UNL A   1      41.591  30.250  36.168  1.00  0.00     0.029 A 
ATOM     52  N   UNL A   1      41.330  29.691  34.031  1.00  0.00    -0.354 N 
ATOM     53  N   UNL A   1      42.000  28.255  31.557  1.00  0.00    -0.248 NA
ATOM     54  C   UNL A   1      43.411  26.844  30.348  1.00  0.00     0.031 C 
ATOM     55  C   UNL A   1      42.634  29.390  35.805  1.00  0.00     0.029 A 
ATOM     56  C   UNL A   1      42.459  29.026  34.480  1.00  0.00     0.049 A 
ATOM     57  H   UNL A   1      40.964  29.631  33.119  1.00  0.00     0.167 HD
ATOM     58  C   UNL A   1      43.029  27.826  32.384  1.00  0.00     0.074 A 
ATOM     59  C   UNL A   1      43.857  26.939  31.592  1.00  0.00     0.031 C 
ATOM     60  C   UNL A   1      43.266  28.139  33.680  1.00  0.00     0.037 A 
BRANCH  47  61
ATOM     61  C   UNL A   1      39.178  32.072  36.127  1.00  0.00     0.064 A 
ATOM     62  C   UNL A   1      39.671  33.358  36.390  1.00  0.00     0.173 A 
ATOM     63  C   UNL A   1      38.223  31.540  37.007  1.00  0.00     0.173 A 
ATOM     64  F   UNL A   1      40.598  33.903  35.588  1.00  0.00    -0.203 F 
ATOM     65  C   UNL A   1      39.240  34.074  37.503  1.00  0.00     0.198 A 
ATOM     66  C   UNL A   1      37.775  32.269  38.105  1.00  0.00     0.198 A 
ATOM     67  F   UNL A   1      37.719  30.314  36.799  1.00  0.00    -0.203 F 
ATOM     68  F   UNL A   1      39.755  35.285  37.760  1.00  0.00    -0.200 F 
ATOM     69  C   UNL A   1      38.288  33.532  38.356  1.00  0.00     0.200 A 
ATOM     70  F   UNL A   1      36.851  31.747  38.924  1.00  0.00    -0.200 F 
ATOM     71  F   UNL A   1      37.872  34.226  39.425  1.00  0.00    -0.200 F 
ENDBRANCH  47  61
BRANCH  48  72
ATOM     72  C   UNL A   1      41.799  27.042  27.907  1.00  0.00     0.064 A 
ATOM     73  C   UNL A   1      42.670  27.619  26.973  1.00  0.00     0.173 A 
ATOM     74  C   UNL A   1      41.317  25.752  27.642  1.00  0.00     0.173 A 
ATOM     75  F   UNL A   1      43.131  28.863  27.167  1.00  0.00    -0.203 F 
ATOM     76  C   UNL A   1      43.035  26.936  25.815  1.00  0.00     0.198 A 
ATOM     77  C   UNL A   1      41.702  25.060  26.496  1.00  0.00     0.198 A 
ATOM     78  F   UNL A   1      40.474  25.160  28.500  1.00  0.00    -0.203 F 
ATOM     79  F   UNL A   1      43.833  27.526  24.915  1.00  0.00    -0.200 F 
ATOM     80  C   UNL A   1      42.556  25.656  25.580  1.00  0.00     0.200 A 
ATOM     81  F   UNL A   1      41.244  23.820  26.277  1.00  0.00    -0.200 F 
ATOM     82  F   UNL A   1      42.909  25.000  24.467  1.00  0.00    -0.200 F 
ENDBRANCH  48  72
BRANCH  60  83
ATOM     83  C   UNL A   1      44.447  27.490  34.338  1.00  0.00     0.064 A 
ATOM     84  C   UNL A   1      45.701  28.116  34.376  1.00  0.00     0.173 A 
ATOM     85  C   UNL A   1      44.309  26.248  34.976  1.00  0.00     0.173 A 
ATOM     86  F   UNL A   1      45.886  29.297  33.768  1.00  0.00    -0.203 F 
ATOM     87  C   UNL A   1      46.781  27.511  35.014  1.00  0.00     0.198 A 
ATOM     88  C   UNL A   1      45.384  25.659  35.633  1.00  0.00     0.198 A 
ATOM     89  F   UNL A   1      43.127  25.614  34.972  1.00  0.00    -0.203 F 
ATOM     90  F   UNL A   1      47.981  28.108  35.008  1.00  0.00    -0.200 F 
ATOM     91  C   UNL A   1      46.620  26.288  35.648  1.00  0.00     0.200 A 
ATOM     92  F   UNL A   1      45.224  24.482  36.255  1.00  0.00    -0.200 F 
ATOM     93  F   UNL A   1      47.659  25.711  36.268  1.00  0.00    -0.200 F 
ENDBRANCH  60  83
ENDBRANCH  34  35
ENDBRANCH  27  29
ENDBRANCH  26  27
ENDBRANCH  25  26
ENDBRANCH   1  25
TORSDOF 15
ENDMDL
