MODEL 1
REMARK VINA RESULT:     -11.6      0.000      0.000
REMARK SMILES COc1ccc(CC(=O)OCCOC(=O)c2ccc(-c3c4nc(c(-c5c(F)c(F)c(F)c(F)c5F)c5ccc([nH]5)c(-c5c(F)c(F)c(F)c(F)c5F)c5nc(c(-c6c(F)c(F)c(F)c(F)c6F)c6ccc3[nH]6)C=C5)C=C4)cc2)cc1S(=O)(=O)Nc1ccccc1Br
REMARK SMILES IDX 11 1 10 2 8 3 9 4 7 5 6 6 3 7 4 8 80 9 5 10 79 11 2 12 1 13
REMARK SMILES IDX 81 14 82 15 83 16 84 17 85 19 86 20 90 21 87 22 89 23 91 24
REMARK SMILES IDX 88 25 12 26 13 27 14 28 15 29 16 30 17 31 78 32 18 33 77 34
REMARK SMILES IDX 19 35 20 36 21 37 71 38 22 39 76 40 70 41 72 42 23 43 75 44
REMARK SMILES IDX 69 45 68 46 24 48 56 49 36 50 55 51 37 52 40 53 54 54 73 55
REMARK SMILES IDX 38 56 39 57 53 59 74 60 41 61 25 62 26 63 34 64 27 65 28 66
REMARK SMILES IDX 32 67 35 68 29 69 30 70 33 71 31 72 57 73 58 74 66 75 59 76
REMARK SMILES IDX 60 77 64 78 67 79 61 80 62 81 65 82 63 83 42 84 43 85 51 86
REMARK SMILES IDX 44 87 45 88 49 89 52 90 46 91 47 92 50 93 48 94
REMARK H PARENT 84 18 72 47 40 58
REMARK Flexibility Score: inf
ROOT
ATOM      1  C   UNL A   1      31.825  31.333  26.871  1.00  0.00     0.274 C 
ENDROOT
BRANCH   1   2
ATOM      2  O   UNL A   1      33.080  30.790  27.326  1.00  0.00    -0.462 OA
BRANCH   2   3
ATOM      3  C   UNL A   1      33.631  29.846  26.521  1.00  0.00     0.310 C 
ATOM      4  O   UNL A   1      34.733  29.331  26.696  1.00  0.00    -0.252 OA
BRANCH   3   5
ATOM      5  C   UNL A   1      32.806  29.555  25.298  1.00  0.00     0.158 C 
BRANCH   5   6
ATOM      6  C   UNL A   1      33.234  28.427  24.386  1.00  0.00    -0.035 A 
ATOM      7  C   UNL A   1      33.480  26.360  22.495  1.00  0.00     0.139 A 
ATOM      8  C   UNL A   1      33.938  27.649  22.202  1.00  0.00     0.048 A 
ATOM      9  C   UNL A   1      33.043  26.056  23.781  1.00  0.00     0.129 A 
ATOM     10  C   UNL A   1      33.806  28.676  23.136  1.00  0.00     0.008 A 
ATOM     11  C   UNL A   1      32.902  27.101  24.715  1.00  0.00     0.030 A 
BRANCH   7  12
ATOM     12  O   UNL A   1      33.556  25.440  21.493  1.00  0.00    -0.495 OA
ATOM     13  C   UNL A   1      32.542  25.638  20.507  1.00  0.00     0.278 C 
ENDBRANCH   7  12
BRANCH   9  14
ATOM     14  S   UNL A   1      32.430  24.453  24.241  1.00  0.00     0.265 S 
ATOM     15  O   UNL A   1      32.852  24.210  25.609  1.00  0.00    -0.201 OA
ATOM     16  O   UNL A   1      31.014  24.408  23.941  1.00  0.00    -0.201 OA
BRANCH  14  17
ATOM     17  N   UNL A   1      33.162  23.206  23.349  1.00  0.00    -0.278 N 
ATOM     18  H   UNL A   1      32.727  22.873  22.531  1.00  0.00     0.180 HD
BRANCH  17  19
ATOM     19  C   UNL A   1      34.406  22.635  23.780  1.00  0.00     0.063 A 
ATOM     20  C   UNL A   1      35.610  23.296  23.498  1.00  0.00     0.028 A 
ATOM     21  C   UNL A   1      34.433  21.420  24.481  1.00  0.00     0.042 A 
ATOM     22  C   UNL A   1      36.827  22.746  23.917  1.00  0.00     0.002 A 
ATOM     23  C   UNL A   1      35.650  20.877  24.899  1.00  0.00     0.018 A 
ATOM     24  Br  UNL A   1      32.847  20.439  24.848  1.00  0.00    -0.049 Br
ATOM     25  C   UNL A   1      36.845  21.541  24.618  1.00  0.00     0.001 A 
ENDBRANCH  17  19
ENDBRANCH  14  17
ENDBRANCH   9  14
ENDBRANCH   5   6
ENDBRANCH   3   5
ENDBRANCH   2   3
ENDBRANCH   1   2
BRANCH   1  26
ATOM     26  C   UNL A   1      31.729  32.830  27.153  1.00  0.00     0.275 C 
BRANCH  26  27
ATOM     27  O   UNL A   1      33.042  33.399  27.298  1.00  0.00    -0.458 OA
BRANCH  27  28
ATOM     28  C   UNL A   1      33.201  34.246  28.334  1.00  0.00     0.338 C 
ATOM     29  O   UNL A   1      32.524  35.225  28.619  1.00  0.00    -0.246 OA
BRANCH  28  30
ATOM     30  C   UNL A   1      34.355  33.837  29.144  1.00  0.00     0.060 A 
ATOM     31  C   UNL A   1      35.619  34.363  28.871  1.00  0.00     0.016 A 
ATOM     32  C   UNL A   1      34.198  32.815  30.081  1.00  0.00     0.016 A 
ATOM     33  C   UNL A   1      36.744  33.817  29.485  1.00  0.00     0.010 A 
ATOM     34  C   UNL A   1      35.320  32.316  30.746  1.00  0.00     0.010 A 
ATOM     35  C   UNL A   1      36.605  32.790  30.431  1.00  0.00    -0.014 A 
BRANCH  35  36
ATOM     36  C   UNL A   1      37.801  32.194  31.078  1.00  0.00     0.031 A 
ATOM     37  C   UNL A   1      38.591  31.127  30.373  1.00  0.00     0.074 A 
ATOM     38  C   UNL A   1      38.162  32.593  32.312  1.00  0.00     0.049 A 
ATOM     39  N   UNL A   1      39.573  30.388  30.825  1.00  0.00    -0.248 NA
ATOM     40  C   UNL A   1      38.222  30.847  28.977  1.00  0.00     0.031 C 
ATOM     41  C   UNL A   1      37.491  33.633  33.093  1.00  0.00     0.029 A 
ATOM     42  N   UNL A   1      39.174  32.161  33.130  1.00  0.00    -0.354 N 
ATOM     43  C   UNL A   1      39.914  29.533  29.786  1.00  0.00     0.074 A 
ATOM     44  C   UNL A   1      39.030  29.838  28.680  1.00  0.00     0.031 C 
ATOM     45  C   UNL A   1      38.109  33.757  34.278  1.00  0.00     0.029 A 
ATOM     46  C   UNL A   1      39.182  32.772  34.360  1.00  0.00     0.049 A 
ATOM     47  H   UNL A   1      39.833  31.479  32.862  1.00  0.00     0.167 HD
ATOM     48  C   UNL A   1      40.877  28.582  29.758  1.00  0.00     0.037 A 
ATOM     49  C   UNL A   1      39.943  32.539  35.445  1.00  0.00     0.037 A 
ATOM     50  C   UNL A   1      41.780  28.305  30.846  1.00  0.00     0.049 A 
ATOM     51  C   UNL A   1      40.991  31.463  35.395  1.00  0.00     0.074 A 
ATOM     52  C   UNL A   1      42.816  27.388  30.895  1.00  0.00     0.029 A 
ATOM     53  N   UNL A   1      41.755  28.946  32.074  1.00  0.00    -0.354 N 
ATOM     54  N   UNL A   1      41.306  30.661  34.407  1.00  0.00    -0.248 NA
ATOM     55  C   UNL A   1      41.785  31.256  36.614  1.00  0.00     0.031 C 
ATOM     56  C   UNL A   1      43.396  27.450  32.168  1.00  0.00     0.029 A 
ATOM     57  C   UNL A   1      42.747  28.433  32.896  1.00  0.00     0.049 A 
ATOM     58  H   UNL A   1      41.126  29.660  32.326  1.00  0.00     0.167 HD
ATOM     59  C   UNL A   1      42.342  29.866  34.878  1.00  0.00     0.074 A 
ATOM     60  C   UNL A   1      42.614  30.294  36.234  1.00  0.00     0.031 C 
ATOM     61  C   UNL A   1      43.005  28.870  34.243  1.00  0.00     0.037 A 
BRANCH  48  62
ATOM     62  C   UNL A   1      40.998  27.747  28.517  1.00  0.00     0.064 A 
ATOM     63  C   UNL A   1      40.235  26.586  28.332  1.00  0.00     0.173 A 
ATOM     64  C   UNL A   1      41.852  28.147  27.478  1.00  0.00     0.173 A 
ATOM     65  F   UNL A   1      39.414  26.155  29.302  1.00  0.00    -0.203 F 
ATOM     66  C   UNL A   1      40.335  25.845  27.156  1.00  0.00     0.198 A 
ATOM     67  C   UNL A   1      41.932  27.417  26.296  1.00  0.00     0.198 A 
ATOM     68  F   UNL A   1      42.599  29.254  27.606  1.00  0.00    -0.203 F 
ATOM     69  F   UNL A   1      39.622  24.719  27.013  1.00  0.00    -0.200 F 
ATOM     70  C   UNL A   1      41.177  26.265  26.137  1.00  0.00     0.200 A 
ATOM     71  F   UNL A   1      42.739  27.830  25.308  1.00  0.00    -0.200 F 
ATOM     72  F   UNL A   1      41.265  25.555  25.004  1.00  0.00    -0.200 F 
ENDBRANCH  48  62
BRANCH  49  73
ATOM     73  C   UNL A   1      39.719  33.327  36.682  1.00  0.00     0.064 A 
ATOM     74  C   UNL A   1      40.454  34.492  36.938  1.00  0.00     0.173 A 
ATOM     75  C   UNL A   1      38.762  32.934  37.629  1.00  0.00     0.173 A 
ATOM     76  F   UNL A   1      41.396  34.892  36.073  1.00  0.00    -0.203 F 
ATOM     77  C   UNL A   1      40.248  35.228  38.102  1.00  0.00     0.198 A 
ATOM     78  C   UNL A   1      38.537  33.685  38.780  1.00  0.00     0.198 A 
ATOM     79  F   UNL A   1      38.033  31.826  37.428  1.00  0.00    -0.203 F 
ATOM     80  F   UNL A   1      40.990  36.318  38.343  1.00  0.00    -0.200 F 
ATOM     81  C   UNL A   1      39.285  34.829  39.019  1.00  0.00     0.200 A 
ATOM     82  F   UNL A   1      37.600  33.302  39.657  1.00  0.00    -0.200 F 
ATOM     83  F   UNL A   1      39.085  35.541  40.136  1.00  0.00    -0.200 F 
ENDBRANCH  49  73
BRANCH  61  84
ATOM     84  C   UNL A   1      44.106  28.192  35.002  1.00  0.00     0.064 A 
ATOM     85  C   UNL A   1      45.415  28.694  34.998  1.00  0.00     0.173 A 
ATOM     86  C   UNL A   1      43.841  27.044  35.764  1.00  0.00     0.173 A 
ATOM     87  F   UNL A   1      45.719  29.779  34.270  1.00  0.00    -0.203 F 
ATOM     88  C   UNL A   1      46.425  28.058  35.714  1.00  0.00     0.198 A 
ATOM     89  C   UNL A   1      44.848  26.425  36.498  1.00  0.00     0.198 A 
ATOM     90  F   UNL A   1      42.602  26.529  35.802  1.00  0.00    -0.203 F 
ATOM     91  F   UNL A   1      47.679  28.530  35.663  1.00  0.00    -0.200 F 
ATOM     92  C   UNL A   1      46.141  26.928  36.467  1.00  0.00     0.200 A 
ATOM     93  F   UNL A   1      44.570  25.339  37.232  1.00  0.00    -0.200 F 
ATOM     94  F   UNL A   1      47.113  26.319  37.158  1.00  0.00    -0.200 F 
ENDBRANCH  61  84
ENDBRANCH  35  36
ENDBRANCH  28  30
ENDBRANCH  27  28
ENDBRANCH  26  27
ENDBRANCH   1  26
TORSDOF 16
ENDMDL
MODEL 2
REMARK VINA RESULT:     -11.5      5.254     10.861
REMARK SMILES COc1ccc(CC(=O)OCCOC(=O)c2ccc(-c3c4nc(c(-c5c(F)c(F)c(F)c(F)c5F)c5ccc([nH]5)c(-c5c(F)c(F)c(F)c(F)c5F)c5nc(c(-c6c(F)c(F)c(F)c(F)c6F)c6ccc3[nH]6)C=C5)C=C4)cc2)cc1S(=O)(=O)Nc1ccccc1Br
REMARK SMILES IDX 11 1 10 2 8 3 9 4 7 5 6 6 3 7 4 8 80 9 5 10 79 11 2 12 1 13
REMARK SMILES IDX 81 14 82 15 83 16 84 17 85 19 86 20 90 21 87 22 89 23 91 24
REMARK SMILES IDX 88 25 12 26 13 27 14 28 15 29 16 30 17 31 78 32 18 33 77 34
REMARK SMILES IDX 19 35 20 36 21 37 71 38 22 39 76 40 70 41 72 42 23 43 75 44
REMARK SMILES IDX 69 45 68 46 24 48 56 49 36 50 55 51 37 52 40 53 54 54 73 55
REMARK SMILES IDX 38 56 39 57 53 59 74 60 41 61 25 62 26 63 34 64 27 65 28 66
REMARK SMILES IDX 32 67 35 68 29 69 30 70 33 71 31 72 57 73 58 74 66 75 59 76
REMARK SMILES IDX 60 77 64 78 67 79 61 80 62 81 65 82 63 83 42 84 43 85 51 86
REMARK SMILES IDX 44 87 45 88 49 89 52 90 46 91 47 92 50 93 48 94
REMARK H PARENT 84 18 72 47 40 58
REMARK Flexibility Score: inf
ROOT
ATOM      1  C   UNL A   1      38.283  20.889  25.020  1.00  0.00     0.274 C 
ENDROOT
BRANCH   1   2
ATOM      2  O   UNL A   1      38.508  21.847  26.073  1.00  0.00    -0.462 OA
BRANCH   2   3
ATOM      3  C   UNL A   1      38.043  23.099  25.828  1.00  0.00     0.310 C 
ATOM      4  O   UNL A   1      38.445  24.118  26.384  1.00  0.00    -0.252 OA
BRANCH   3   5
ATOM      5  C   UNL A   1      36.881  23.124  24.874  1.00  0.00     0.158 C 
BRANCH   5   6
ATOM      6  C   UNL A   1      35.531  23.573  25.387  1.00  0.00    -0.035 A 
ATOM      7  C   UNL A   1      32.815  23.989  25.988  1.00  0.00     0.139 A 
ATOM      8  C   UNL A   1      33.624  23.236  26.844  1.00  0.00     0.048 A 
ATOM      9  C   UNL A   1      33.385  24.668  24.914  1.00  0.00     0.129 A 
ATOM     10  C   UNL A   1      34.969  23.021  26.541  1.00  0.00     0.008 A 
ATOM     11  C   UNL A   1      34.742  24.436  24.608  1.00  0.00     0.030 A 
BRANCH   7  12
ATOM     12  O   UNL A   1      31.492  24.068  26.305  1.00  0.00    -0.495 OA
ATOM     13  C   UNL A   1      30.806  22.844  26.043  1.00  0.00     0.278 C 
ENDBRANCH   7  12
BRANCH   9  14
ATOM     14  S   UNL A   1      32.436  25.635  23.766  1.00  0.00     0.265 S 
ATOM     15  O   UNL A   1      33.305  26.691  23.276  1.00  0.00    -0.201 OA
ATOM     16  O   UNL A   1      31.840  24.733  22.801  1.00  0.00    -0.201 OA
BRANCH  14  17
ATOM     17  N   UNL A   1      31.160  26.459  24.523  1.00  0.00    -0.278 N 
ATOM     18  H   UNL A   1      30.246  26.096  24.471  1.00  0.00     0.180 HD
BRANCH  17  19
ATOM     19  C   UNL A   1      31.402  27.681  25.237  1.00  0.00     0.063 A 
ATOM     20  C   UNL A   1      31.885  27.636  26.552  1.00  0.00     0.028 A 
ATOM     21  C   UNL A   1      31.159  28.924  24.633  1.00  0.00     0.042 A 
ATOM     22  C   UNL A   1      32.127  28.823  27.252  1.00  0.00     0.002 A 
ATOM     23  C   UNL A   1      31.404  30.107  25.336  1.00  0.00     0.018 A 
ATOM     24  Br  UNL A   1      30.448  29.064  22.876  1.00  0.00    -0.049 Br
ATOM     25  C   UNL A   1      31.888  30.055  26.643  1.00  0.00     0.001 A 
ENDBRANCH  17  19
ENDBRANCH  14  17
ENDBRANCH   9  14
ENDBRANCH   5   6
ENDBRANCH   3   5
ENDBRANCH   2   3
ENDBRANCH   1   2
BRANCH   1  26
ATOM     26  C   UNL A   1      38.972  19.561  25.317  1.00  0.00     0.275 C 
BRANCH  26  27
ATOM     27  O   UNL A   1      39.860  19.696  26.442  1.00  0.00    -0.458 OA
BRANCH  27  28
ATOM     28  C   UNL A   1      41.172  19.547  26.172  1.00  0.00     0.338 C 
ATOM     29  O   UNL A   1      41.748  18.553  25.751  1.00  0.00    -0.246 OA
BRANCH  28  30
ATOM     30  C   UNL A   1      41.887  20.797  26.457  1.00  0.00     0.060 A 
ATOM     31  C   UNL A   1      42.252  21.108  27.768  1.00  0.00     0.016 A 
ATOM     32  C   UNL A   1      42.059  21.729  25.433  1.00  0.00     0.016 A 
ATOM     33  C   UNL A   1      42.729  22.381  28.072  1.00  0.00     0.010 A 
ATOM     34  C   UNL A   1      42.601  22.981  25.728  1.00  0.00     0.010 A 
ATOM     35  C   UNL A   1      42.910  23.330  27.054  1.00  0.00    -0.014 A 
BRANCH  35  36
ATOM     36  C   UNL A   1      43.403  24.693  27.373  1.00  0.00     0.031 A 
ATOM     37  C   UNL A   1      42.473  25.716  27.962  1.00  0.00     0.074 A 
ATOM     38  C   UNL A   1      44.682  25.020  27.108  1.00  0.00     0.049 A 
ATOM     39  N   UNL A   1      42.673  26.992  28.177  1.00  0.00    -0.248 NA
ATOM     40  C   UNL A   1      41.135  25.244  28.354  1.00  0.00     0.031 C 
ATOM     41  C   UNL A   1      45.689  24.113  26.557  1.00  0.00     0.029 A 
ATOM     42  N   UNL A   1      45.349  26.210  27.256  1.00  0.00    -0.354 N 
ATOM     43  C   UNL A   1      41.481  27.483  28.691  1.00  0.00     0.074 A 
ATOM     44  C   UNL A   1      40.557  26.369  28.752  1.00  0.00     0.031 C 
ATOM     45  C   UNL A   1      46.844  24.779  26.411  1.00  0.00     0.029 A 
ATOM     46  C   UNL A   1      46.645  26.169  26.807  1.00  0.00     0.049 A 
ATOM     47  H   UNL A   1      44.937  27.016  27.646  1.00  0.00     0.167 HD
ATOM     48  C   UNL A   1      41.186  28.747  29.078  1.00  0.00     0.037 A 
ATOM     49  C   UNL A   1      47.560  27.150  26.692  1.00  0.00     0.037 A 
ATOM     50  C   UNL A   1      42.117  29.845  29.052  1.00  0.00     0.049 A 
ATOM     51  C   UNL A   1      47.200  28.547  27.109  1.00  0.00     0.074 A 
ATOM     52  C   UNL A   1      41.922  31.152  29.463  1.00  0.00     0.029 A 
ATOM     53  N   UNL A   1      43.421  29.762  28.591  1.00  0.00    -0.354 N 
ATOM     54  N   UNL A   1      46.070  29.000  27.596  1.00  0.00    -0.248 NA
ATOM     55  C   UNL A   1      48.242  29.573  26.955  1.00  0.00     0.031 C 
ATOM     56  C   UNL A   1      43.098  31.869  29.218  1.00  0.00     0.029 A 
ATOM     57  C   UNL A   1      44.038  30.999  28.691  1.00  0.00     0.049 A 
ATOM     58  H   UNL A   1      43.847  28.945  28.243  1.00  0.00     0.167 HD
ATOM     59  C   UNL A   1      46.268  30.356  27.820  1.00  0.00     0.074 A 
ATOM     60  C   UNL A   1      47.632  30.650  27.432  1.00  0.00     0.031 C 
ATOM     61  C   UNL A   1      45.396  31.274  28.301  1.00  0.00     0.037 A 
BRANCH  48  62
ATOM     62  C   UNL A   1      39.788  29.024  29.547  1.00  0.00     0.064 A 
ATOM     63  C   UNL A   1      38.782  29.439  28.663  1.00  0.00     0.173 A 
ATOM     64  C   UNL A   1      39.441  28.820  30.892  1.00  0.00     0.173 A 
ATOM     65  F   UNL A   1      39.067  29.659  27.371  1.00  0.00    -0.203 F 
ATOM     66  C   UNL A   1      37.481  29.655  29.113  1.00  0.00     0.198 A 
ATOM     67  C   UNL A   1      38.135  29.015  31.332  1.00  0.00     0.198 A 
ATOM     68  F   UNL A   1      40.367  28.419  31.775  1.00  0.00    -0.203 F 
ATOM     69  F   UNL A   1      36.541  30.084  28.259  1.00  0.00    -0.200 F 
ATOM     70  C   UNL A   1      37.157  29.436  30.444  1.00  0.00     0.200 A 
ATOM     71  F   UNL A   1      37.822  28.795  32.617  1.00  0.00    -0.200 F 
ATOM     72  F   UNL A   1      35.903  29.638  30.871  1.00  0.00    -0.200 F 
ENDBRANCH  48  62
BRANCH  49  73
ATOM     73  C   UNL A   1      48.899  26.843  26.131  1.00  0.00     0.064 A 
ATOM     74  C   UNL A   1      49.931  26.364  26.948  1.00  0.00     0.173 A 
ATOM     75  C   UNL A   1      49.171  27.018  24.766  1.00  0.00     0.173 A 
ATOM     76  F   UNL A   1      49.724  26.205  28.263  1.00  0.00    -0.203 F 
ATOM     77  C   UNL A   1      51.189  26.082  26.422  1.00  0.00     0.198 A 
ATOM     78  C   UNL A   1      50.421  26.710  24.236  1.00  0.00     0.198 A 
ATOM     79  F   UNL A   1      48.213  27.474  23.943  1.00  0.00    -0.203 F 
ATOM     80  F   UNL A   1      52.171  25.660  27.231  1.00  0.00    -0.200 F 
ATOM     81  C   UNL A   1      51.431  26.248  25.066  1.00  0.00     0.200 A 
ATOM     82  F   UNL A   1      50.648  26.862  22.924  1.00  0.00    -0.200 F 
ATOM     83  F   UNL A   1      52.641  25.972  24.561  1.00  0.00    -0.200 F 
ENDBRANCH  49  73
BRANCH  61  84
ATOM     84  C   UNL A   1      45.900  32.678  28.457  1.00  0.00     0.064 A 
ATOM     85  C   UNL A   1      46.548  33.097  29.628  1.00  0.00     0.173 A 
ATOM     86  C   UNL A   1      45.759  33.603  27.413  1.00  0.00     0.173 A 
ATOM     87  F   UNL A   1      46.691  32.251  30.660  1.00  0.00    -0.203 F 
ATOM     88  C   UNL A   1      47.019  34.400  29.755  1.00  0.00     0.198 A 
ATOM     89  C   UNL A   1      46.253  34.899  27.534  1.00  0.00     0.198 A 
ATOM     90  F   UNL A   1      45.150  33.247  26.271  1.00  0.00    -0.203 F 
ATOM     91  F   UNL A   1      47.598  34.793  30.898  1.00  0.00    -0.200 F 
ATOM     92  C   UNL A   1      46.876  35.299  28.707  1.00  0.00     0.200 A 
ATOM     93  F   UNL A   1      46.122  35.763  26.518  1.00  0.00    -0.200 F 
ATOM     94  F   UNL A   1      47.332  36.552  28.830  1.00  0.00    -0.200 F 
ENDBRANCH  61  84
ENDBRANCH  35  36
ENDBRANCH  28  30
ENDBRANCH  27  28
ENDBRANCH  26  27
ENDBRANCH   1  26
TORSDOF 16
ENDMDL
MODEL 3
REMARK VINA RESULT:     -11.5      1.994      3.289
REMARK SMILES COc1ccc(CC(=O)OCCOC(=O)c2ccc(-c3c4nc(c(-c5c(F)c(F)c(F)c(F)c5F)c5ccc([nH]5)c(-c5c(F)c(F)c(F)c(F)c5F)c5nc(c(-c6c(F)c(F)c(F)c(F)c6F)c6ccc3[nH]6)C=C5)C=C4)cc2)cc1S(=O)(=O)Nc1ccccc1Br
REMARK SMILES IDX 11 1 10 2 8 3 9 4 7 5 6 6 3 7 4 8 80 9 5 10 79 11 2 12 1 13
REMARK SMILES IDX 81 14 82 15 83 16 84 17 85 19 86 20 90 21 87 22 89 23 91 24
REMARK SMILES IDX 88 25 12 26 13 27 14 28 15 29 16 30 17 31 78 32 18 33 77 34
REMARK SMILES IDX 19 35 20 36 21 37 71 38 22 39 76 40 70 41 72 42 23 43 75 44
REMARK SMILES IDX 69 45 68 46 24 48 56 49 36 50 55 51 37 52 40 53 54 54 73 55
REMARK SMILES IDX 38 56 39 57 53 59 74 60 41 61 25 62 26 63 34 64 27 65 28 66
REMARK SMILES IDX 32 67 35 68 29 69 30 70 33 71 31 72 57 73 58 74 66 75 59 76
REMARK SMILES IDX 60 77 64 78 67 79 61 80 62 81 65 82 63 83 42 84 43 85 51 86
REMARK SMILES IDX 44 87 45 88 49 89 52 90 46 91 47 92 50 93 48 94
REMARK H PARENT 84 18 72 47 40 58
REMARK Flexibility Score: inf
ROOT
ATOM      1  C   UNL A   1      31.250  29.966  24.147  1.00  0.00     0.274 C 
ENDROOT
BRANCH   1   2
ATOM      2  O   UNL A   1      30.088  29.148  23.904  1.00  0.00    -0.462 OA
BRANCH   2   3
ATOM      3  C   UNL A   1      30.333  27.949  23.317  1.00  0.00     0.310 C 
ATOM      4  O   UNL A   1      30.613  27.792  22.132  1.00  0.00    -0.252 OA
BRANCH   3   5
ATOM      5  C   UNL A   1      30.116  26.782  24.241  1.00  0.00     0.158 C 
BRANCH   5   6
ATOM      6  C   UNL A   1      31.310  26.195  24.961  1.00  0.00    -0.035 A 
ATOM      7  C   UNL A   1      33.606  24.806  25.803  1.00  0.00     0.139 A 
ATOM      8  C   UNL A   1      33.703  26.121  25.338  1.00  0.00     0.048 A 
ATOM      9  C   UNL A   1      32.353  24.231  26.000  1.00  0.00     0.129 A 
ATOM     10  C   UNL A   1      32.565  26.807  24.910  1.00  0.00     0.008 A 
ATOM     11  C   UNL A   1      31.210  24.925  25.555  1.00  0.00     0.030 A 
BRANCH   7  12
ATOM     12  O   UNL A   1      34.774  24.175  26.107  1.00  0.00    -0.495 OA
ATOM     13  C   UNL A   1      35.639  24.077  24.976  1.00  0.00     0.278 C 
ENDBRANCH   7  12
BRANCH   9  14
ATOM     14  S   UNL A   1      32.132  22.564  26.573  1.00  0.00     0.265 S 
ATOM     15  O   UNL A   1      32.346  22.573  28.009  1.00  0.00    -0.201 OA
ATOM     16  O   UNL A   1      30.863  22.079  26.070  1.00  0.00    -0.201 OA
BRANCH  14  17
ATOM     17  N   UNL A   1      33.329  21.517  25.977  1.00  0.00    -0.278 N 
ATOM     18  H   UNL A   1      34.275  21.690  26.186  1.00  0.00     0.180 HD
BRANCH  17  19
ATOM     19  C   UNL A   1      32.971  20.384  25.172  1.00  0.00     0.063 A 
ATOM     20  C   UNL A   1      32.901  19.111  25.753  1.00  0.00     0.028 A 
ATOM     21  C   UNL A   1      32.691  20.536  23.805  1.00  0.00     0.042 A 
ATOM     22  C   UNL A   1      32.550  18.002  24.974  1.00  0.00     0.002 A 
ATOM     23  C   UNL A   1      32.339  19.426  23.032  1.00  0.00     0.018 A 
ATOM     24  Br  UNL A   1      32.824  22.220  22.935  1.00  0.00    -0.049 Br
ATOM     25  C   UNL A   1      32.268  18.161  23.618  1.00  0.00     0.001 A 
ENDBRANCH  17  19
ENDBRANCH  14  17
ENDBRANCH   9  14
ENDBRANCH   5   6
ENDBRANCH   3   5
ENDBRANCH   2   3
ENDBRANCH   1   2
BRANCH   1  26
ATOM     26  C   UNL A   1      31.363  30.355  25.618  1.00  0.00     0.275 C 
BRANCH  26  27
ATOM     27  O   UNL A   1      32.733  30.285  26.052  1.00  0.00    -0.458 OA
BRANCH  27  28
ATOM     28  C   UNL A   1      33.120  31.240  26.921  1.00  0.00     0.338 C 
ATOM     29  O   UNL A   1      32.513  32.251  27.251  1.00  0.00    -0.246 OA
BRANCH  28  30
ATOM     30  C   UNL A   1      34.441  30.913  27.470  1.00  0.00     0.060 A 
ATOM     31  C   UNL A   1      34.738  29.598  27.836  1.00  0.00     0.016 A 
ATOM     32  C   UNL A   1      35.331  31.948  27.758  1.00  0.00     0.016 A 
ATOM     33  C   UNL A   1      35.898  29.324  28.556  1.00  0.00     0.010 A 
ATOM     34  C   UNL A   1      36.527  31.661  28.419  1.00  0.00     0.010 A 
ATOM     35  C   UNL A   1      36.806  30.352  28.853  1.00  0.00    -0.014 A 
BRANCH  35  36
ATOM     36  C   UNL A   1      38.037  30.070  29.632  1.00  0.00     0.031 A 
ATOM     37  C   UNL A   1      39.089  29.149  29.079  1.00  0.00     0.074 A 
ATOM     38  C   UNL A   1      38.200  30.622  30.849  1.00  0.00     0.049 A 
ATOM     39  N   UNL A   1      40.159  28.669  29.660  1.00  0.00    -0.248 NA
ATOM     40  C   UNL A   1      38.908  28.700  27.689  1.00  0.00     0.031 C 
ATOM     41  C   UNL A   1      37.264  31.547  31.488  1.00  0.00     0.029 A 
ATOM     42  N   UNL A   1      39.205  30.472  31.771  1.00  0.00    -0.354 N 
ATOM     43  C   UNL A   1      40.758  27.835  28.725  1.00  0.00     0.074 A 
ATOM     44  C   UNL A   1      39.929  27.868  27.538  1.00  0.00     0.031 C 
ATOM     45  C   UNL A   1      37.738  31.882  32.698  1.00  0.00     0.029 A 
ATOM     46  C   UNL A   1      38.980  31.155  32.940  1.00  0.00     0.049 A 
ATOM     47  H   UNL A   1      40.010  29.928  31.609  1.00  0.00     0.167 HD
ATOM     48  C   UNL A   1      41.895  27.111  28.847  1.00  0.00     0.037 A 
ATOM     49  C   UNL A   1      39.676  31.165  34.093  1.00  0.00     0.037 A 
ATOM     50  C   UNL A   1      42.738  27.108  30.016  1.00  0.00     0.049 A 
ATOM     51  C   UNL A   1      40.923  30.335  34.209  1.00  0.00     0.074 A 
ATOM     52  C   UNL A   1      43.932  26.437  30.216  1.00  0.00     0.029 A 
ATOM     53  N   UNL A   1      42.475  27.813  31.179  1.00  0.00    -0.354 N 
ATOM     54  N   UNL A   1      41.481  29.551  33.318  1.00  0.00    -0.248 NA
ATOM     55  C   UNL A   1      41.634  30.387  35.494  1.00  0.00     0.031 C 
ATOM     56  C   UNL A   1      44.374  26.710  31.516  1.00  0.00     0.029 A 
ATOM     57  C   UNL A   1      43.475  27.580  32.109  1.00  0.00     0.049 A 
ATOM     58  H   UNL A   1      41.692  28.393  31.324  1.00  0.00     0.167 HD
ATOM     59  C   UNL A   1      42.613  29.029  33.927  1.00  0.00     0.074 A 
ATOM     60  C   UNL A   1      42.673  29.598  35.258  1.00  0.00     0.031 C 
ATOM     61  C   UNL A   1      43.521  28.155  33.428  1.00  0.00     0.037 A 
BRANCH  48  62
ATOM     62  C   UNL A   1      42.292  26.236  27.695  1.00  0.00     0.064 A 
ATOM     63  C   UNL A   1      43.262  26.637  26.764  1.00  0.00     0.173 A 
ATOM     64  C   UNL A   1      41.730  24.958  27.552  1.00  0.00     0.173 A 
ATOM     65  F   UNL A   1      43.819  27.854  26.851  1.00  0.00    -0.203 F 
ATOM     66  C   UNL A   1      43.642  25.794  25.722  1.00  0.00     0.198 A 
ATOM     67  C   UNL A   1      42.131  24.110  26.523  1.00  0.00     0.198 A 
ATOM     68  F   UNL A   1      40.802  24.527  28.419  1.00  0.00    -0.203 F 
ATOM     69  F   UNL A   1      44.546  26.209  24.824  1.00  0.00    -0.200 F 
ATOM     70  C   UNL A   1      43.082  24.530  25.607  1.00  0.00     0.200 A 
ATOM     71  F   UNL A   1      41.595  22.886  26.418  1.00  0.00    -0.200 F 
ATOM     72  F   UNL A   1      43.458  23.719  24.608  1.00  0.00    -0.200 F 
ENDBRANCH  48  62
BRANCH  49  73
ATOM     73  C   UNL A   1      39.187  31.971  35.238  1.00  0.00     0.064 A 
ATOM     74  C   UNL A   1      39.463  33.342  35.325  1.00  0.00     0.173 A 
ATOM     75  C   UNL A   1      38.431  31.388  36.266  1.00  0.00     0.173 A 
ATOM     76  F   UNL A   1      40.203  33.936  34.378  1.00  0.00    -0.203 F 
ATOM     77  C   UNL A   1      39.010  34.098  36.403  1.00  0.00     0.198 A 
ATOM     78  C   UNL A   1      37.956  32.150  37.330  1.00  0.00     0.198 A 
ATOM     79  F   UNL A   1      38.141  30.079  36.226  1.00  0.00    -0.203 F 
ATOM     80  F   UNL A   1      39.319  35.399  36.482  1.00  0.00    -0.200 F 
ATOM     81  C   UNL A   1      38.251  33.503  37.401  1.00  0.00     0.200 A 
ATOM     82  F   UNL A   1      37.214  31.575  38.286  1.00  0.00    -0.200 F 
ATOM     83  F   UNL A   1      37.812  34.233  38.436  1.00  0.00    -0.200 F 
ENDBRANCH  49  73
BRANCH  61  84
ATOM     84  C   UNL A   1      44.668  27.780  34.319  1.00  0.00     0.064 A 
ATOM     85  C   UNL A   1      44.607  26.657  35.156  1.00  0.00     0.173 A 
ATOM     86  C   UNL A   1      45.849  28.536  34.311  1.00  0.00     0.173 A 
ATOM     87  F   UNL A   1      43.492  25.914  35.209  1.00  0.00    -0.203 F 
ATOM     88  C   UNL A   1      45.683  26.317  35.970  1.00  0.00     0.198 A 
ATOM     89  C   UNL A   1      46.932  28.178  35.109  1.00  0.00     0.198 A 
ATOM     90  F   UNL A   1      45.955  29.617  33.522  1.00  0.00    -0.203 F 
ATOM     91  F   UNL A   1      45.590  25.264  36.795  1.00  0.00    -0.200 F 
ATOM     92  C   UNL A   1      46.846  27.073  35.943  1.00  0.00     0.200 A 
ATOM     93  F   UNL A   1      48.057  28.905  35.074  1.00  0.00    -0.200 F 
ATOM     94  F   UNL A   1      47.881  26.742  36.725  1.00  0.00    -0.200 F 
ENDBRANCH  61  84
ENDBRANCH  35  36
ENDBRANCH  28  30
ENDBRANCH  27  28
ENDBRANCH  26  27
ENDBRANCH   1  26
TORSDOF 16
ENDMDL
