MODEL 1
REMARK VINA RESULT:     -12.6      0.000      0.000
REMARK SMILES C[C@@H]([C@H]1CC=CS1)n1nccc1NC(=O)CC1(CC(=O)OCCOC(=O)c2ccc(-c3c4nc(c(-c5c(F)c(F)c(F)c(F)c5F)c5ccc([nH]5)c(-c5c(F)c(F)c(F)c(F)c5F)c5nc(c(-c6c(F)c(F)c(F)c(F)c6F)c6ccc3[nH]6)C=C5)C=C4)cc2)CCCCC1
REMARK SMILES IDX 19 1 20 2 18 3 17 4 90 5 94 6 91 7 93 8 92 9 16 10 14 11
REMARK SMILES IDX 13 12 15 14 12 15 8 16 9 17 10 18 11 19 2 20 1 21 3 22 4 23
REMARK SMILES IDX 7 24 5 25 6 26 21 27 22 28 23 29 24 30 25 31 26 32 27 33
REMARK SMILES IDX 28 34 89 35 29 36 88 37 30 38 31 39 32 40 82 41 33 42 87 43
REMARK SMILES IDX 81 44 83 45 34 46 86 47 80 48 79 49 35 51 67 52 47 53 66 54
REMARK SMILES IDX 48 55 51 56 65 57 84 58 49 59 50 60 64 62 85 63 52 64 36 65
REMARK SMILES IDX 37 66 45 67 38 68 39 69 43 70 46 71 40 72 41 73 44 74 42 75
REMARK SMILES IDX 68 76 69 77 77 78 70 79 71 80 75 81 78 82 72 83 73 84 76 85
REMARK SMILES IDX 74 86 53 87 54 88 62 89 55 90 56 91 60 92 63 93 57 94 58 95
REMARK SMILES IDX 61 96 59 97
REMARK H PARENT 13 13 83 50 51 61
REMARK Flexibility Score: inf
ROOT
ATOM      1  C   UNL A   1      31.815  28.643  27.030  1.00  0.00     0.306 C 
ATOM      2  O   UNL A   1      31.397  27.834  27.853  1.00  0.00    -0.252 OA
ENDROOT
BRANCH   1   3
ATOM      3  C   UNL A   1      31.302  28.653  25.595  1.00  0.00     0.130 C 
BRANCH   3   4
ATOM      4  C   UNL A   1      31.495  27.490  24.568  1.00  0.00    -0.010 C 
ATOM      5  C   UNL A   1      32.967  27.014  24.718  1.00  0.00     0.008 C 
ATOM      6  C   UNL A   1      31.322  27.925  23.080  1.00  0.00     0.008 C 
ATOM      7  C   UNL A   1      34.034  27.977  24.197  1.00  0.00     0.001 C 
ATOM      8  C   UNL A   1      32.343  28.953  22.616  1.00  0.00     0.001 C 
ATOM      9  C   UNL A   1      33.753  28.401  22.764  1.00  0.00     0.000 C 
BRANCH   4  10
ATOM     10  C   UNL A   1      30.521  26.272  24.745  1.00  0.00     0.108 C 
BRANCH  10  11
ATOM     11  C   UNL A   1      30.644  25.174  25.791  1.00  0.00     0.226 C 
ATOM     12  N   UNL A   1      31.685  24.194  25.825  1.00  0.00    -0.311 N 
ATOM     13  H   UNL A   1      32.179  24.068  26.667  1.00  0.00     0.171 HD
ATOM     14  O   UNL A   1      29.767  24.975  26.623  1.00  0.00    -0.275 OA
BRANCH  12  15
ATOM     15  C   UNL A   1      32.034  23.411  24.738  1.00  0.00     0.131 A 
ATOM     16  N   UNL A   1      33.104  22.555  24.584  1.00  0.00    -0.246 N 
ATOM     17  N   UNL A   1      33.276  22.208  23.282  1.00  0.00    -0.179 NA
ATOM     18  C   UNL A   1      32.150  22.594  22.690  1.00  0.00     0.137 A 
ATOM     19  C   UNL A   1      31.315  23.304  23.565  1.00  0.00     0.068 A 
BRANCH  16  20
ATOM     20  C   UNL A   1      34.070  21.982  25.527  1.00  0.00     0.120 C 
ATOM     21  C   UNL A   1      33.964  20.474  25.776  1.00  0.00     0.034 C 
BRANCH  20  22
ATOM     22  C   UNL A   1      35.485  22.479  25.145  1.00  0.00     0.079 C 
ATOM     23  C   UNL A   1      35.942  23.715  25.935  1.00  0.00     0.045 C 
ATOM     24  S   UNL A   1      36.857  21.264  25.334  1.00  0.00    -0.128 SA
ATOM     25  C   UNL A   1      37.440  23.703  25.936  1.00  0.00    -0.019 C 
ATOM     26  C   UNL A   1      38.004  22.524  25.652  1.00  0.00     0.037 C 
ENDBRANCH  20  22
ENDBRANCH  16  20
ENDBRANCH  12  15
ENDBRANCH  10  11
ENDBRANCH   4  10
ENDBRANCH   3   4
ENDBRANCH   1   3
BRANCH   1  27
ATOM     27  O   UNL A   1      32.705  29.622  27.303  1.00  0.00    -0.462 OA
BRANCH  27  28
ATOM     28  C   UNL A   1      34.051  29.210  27.608  1.00  0.00     0.274 C 
BRANCH  28  29
ATOM     29  C   UNL A   1      34.958  30.435  27.605  1.00  0.00     0.275 C 
BRANCH  29  30
ATOM     30  O   UNL A   1      36.346  30.125  27.404  1.00  0.00    -0.458 OA
BRANCH  30  31
ATOM     31  C   UNL A   1      37.175  30.609  28.350  1.00  0.00     0.338 C 
ATOM     32  O   UNL A   1      37.206  31.727  28.828  1.00  0.00    -0.246 OA
BRANCH  31  33
ATOM     33  C   UNL A   1      38.316  29.728  28.563  1.00  0.00     0.060 A 
ATOM     34  C   UNL A   1      39.556  30.368  28.647  1.00  0.00     0.016 A 
ATOM     35  C   UNL A   1      38.203  28.351  28.373  1.00  0.00     0.016 A 
ATOM     36  C   UNL A   1      40.695  29.656  28.369  1.00  0.00     0.010 A 
ATOM     37  C   UNL A   1      39.354  27.617  28.184  1.00  0.00     0.010 A 
ATOM     38  C   UNL A   1      40.587  28.281  28.143  1.00  0.00    -0.014 A 
BRANCH  38  39
ATOM     39  C   UNL A   1      41.829  27.525  28.226  1.00  0.00     0.031 A 
ATOM     40  C   UNL A   1      42.539  27.773  29.519  1.00  0.00     0.074 A 
ATOM     41  C   UNL A   1      42.151  26.578  27.328  1.00  0.00     0.049 A 
ATOM     42  N   UNL A   1      43.787  28.039  29.722  1.00  0.00    -0.248 NA
ATOM     43  C   UNL A   1      41.704  27.900  30.739  1.00  0.00     0.031 C 
ATOM     44  C   UNL A   1      41.337  26.143  26.190  1.00  0.00     0.029 A 
ATOM     45  N   UNL A   1      43.182  25.686  27.333  1.00  0.00    -0.354 N 
ATOM     46  C   UNL A   1      43.919  28.173  31.105  1.00  0.00     0.074 A 
ATOM     47  C   UNL A   1      42.598  28.272  31.650  1.00  0.00     0.031 C 
ATOM     48  C   UNL A   1      41.759  24.925  25.790  1.00  0.00     0.029 A 
ATOM     49  C   UNL A   1      42.923  24.551  26.574  1.00  0.00     0.049 A 
ATOM     50  H   UNL A   1      44.023  25.831  27.824  1.00  0.00     0.167 HD
ATOM     51  C   UNL A   1      45.088  27.868  31.723  1.00  0.00     0.037 A 
ATOM     52  C   UNL A   1      43.552  23.355  26.664  1.00  0.00     0.037 A 
ATOM     53  C   UNL A   1      46.189  27.957  30.805  1.00  0.00     0.049 A 
ATOM     54  C   UNL A   1      44.828  23.564  27.386  1.00  0.00     0.074 A 
ATOM     55  C   UNL A   1      46.852  28.970  30.149  1.00  0.00     0.029 A 
ATOM     56  N   UNL A   1      46.515  26.784  30.180  1.00  0.00    -0.354 N 
ATOM     57  N   UNL A   1      45.848  24.212  26.899  1.00  0.00    -0.248 NA
ATOM     58  C   UNL A   1      44.881  23.311  28.822  1.00  0.00     0.031 C 
ATOM     59  C   UNL A   1      47.381  28.384  28.961  1.00  0.00     0.029 A 
ATOM     60  C   UNL A   1      47.046  27.031  28.944  1.00  0.00     0.049 A 
ATOM     61  H   UNL A   1      46.385  25.889  30.566  1.00  0.00     0.167 HD
ATOM     62  C   UNL A   1      46.428  24.815  27.998  1.00  0.00     0.074 A 
ATOM     63  C   UNL A   1      45.925  24.076  29.147  1.00  0.00     0.031 C 
ATOM     64  C   UNL A   1      46.999  26.049  27.885  1.00  0.00     0.037 A 
BRANCH  51  65
ATOM     65  C   UNL A   1      45.153  26.991  32.964  1.00  0.00     0.064 A 
ATOM     66  C   UNL A   1      44.565  25.710  32.913  1.00  0.00     0.173 A 
ATOM     67  C   UNL A   1      45.450  27.463  34.264  1.00  0.00     0.173 A 
ATOM     68  F   UNL A   1      44.226  25.164  31.735  1.00  0.00    -0.203 F 
ATOM     69  C   UNL A   1      44.218  25.008  34.071  1.00  0.00     0.198 A 
ATOM     70  C   UNL A   1      45.149  26.737  35.414  1.00  0.00     0.198 A 
ATOM     71  F   UNL A   1      45.938  28.686  34.496  1.00  0.00    -0.203 F 
ATOM     72  F   UNL A   1      43.540  23.857  33.972  1.00  0.00    -0.200 F 
ATOM     73  C   UNL A   1      44.501  25.527  35.321  1.00  0.00     0.200 A 
ATOM     74  F   UNL A   1      45.414  27.271  36.615  1.00  0.00    -0.200 F 
ATOM     75  F   UNL A   1      44.109  24.890  36.430  1.00  0.00    -0.200 F 
ENDBRANCH  51  65
BRANCH  52  76
ATOM     76  C   UNL A   1      43.032  21.996  26.374  1.00  0.00     0.064 A 
ATOM     77  C   UNL A   1      43.699  21.154  25.469  1.00  0.00     0.173 A 
ATOM     78  C   UNL A   1      42.025  21.399  27.155  1.00  0.00     0.173 A 
ATOM     79  F   UNL A   1      44.698  21.630  24.713  1.00  0.00    -0.203 F 
ATOM     80  C   UNL A   1      43.400  19.791  25.376  1.00  0.00     0.198 A 
ATOM     81  C   UNL A   1      41.715  20.042  27.049  1.00  0.00     0.198 A 
ATOM     82  F   UNL A   1      41.383  22.092  28.107  1.00  0.00    -0.203 F 
ATOM     83  F   UNL A   1      44.110  19.007  24.553  1.00  0.00    -0.200 F 
ATOM     84  C   UNL A   1      42.414  19.235  26.172  1.00  0.00     0.200 A 
ATOM     85  F   UNL A   1      40.777  19.511  27.847  1.00  0.00    -0.200 F 
ATOM     86  F   UNL A   1      42.167  17.919  26.126  1.00  0.00    -0.200 F 
ENDBRANCH  52  76
BRANCH  64  87
ATOM     87  C   UNL A   1      47.438  26.470  26.516  1.00  0.00     0.064 A 
ATOM     88  C   UNL A   1      46.652  27.209  25.617  1.00  0.00     0.173 A 
ATOM     89  C   UNL A   1      48.746  26.153  26.125  1.00  0.00     0.173 A 
ATOM     90  F   UNL A   1      45.429  27.639  25.955  1.00  0.00    -0.203 F 
ATOM     91  C   UNL A   1      47.137  27.555  24.356  1.00  0.00     0.198 A 
ATOM     92  C   UNL A   1      49.242  26.540  24.886  1.00  0.00     0.198 A 
ATOM     93  F   UNL A   1      49.558  25.493  26.966  1.00  0.00    -0.203 F 
ATOM     94  F   UNL A   1      46.357  28.230  23.499  1.00  0.00    -0.200 F 
ATOM     95  C   UNL A   1      48.432  27.224  23.995  1.00  0.00     0.200 A 
ATOM     96  F   UNL A   1      50.513  26.264  24.563  1.00  0.00    -0.200 F 
ATOM     97  F   UNL A   1      48.909  27.585  22.796  1.00  0.00    -0.200 F 
ENDBRANCH  64  87
ENDBRANCH  38  39
ENDBRANCH  31  33
ENDBRANCH  30  31
ENDBRANCH  29  30
ENDBRANCH  28  29
ENDBRANCH  27  28
ENDBRANCH   1  27
TORSDOF 17
ENDMDL
MODEL 2
REMARK VINA RESULT:     -12.5      1.125      1.928
REMARK SMILES C[C@@H]([C@H]1CC=CS1)n1nccc1NC(=O)CC1(CC(=O)OCCOC(=O)c2ccc(-c3c4nc(c(-c5c(F)c(F)c(F)c(F)c5F)c5ccc([nH]5)c(-c5c(F)c(F)c(F)c(F)c5F)c5nc(c(-c6c(F)c(F)c(F)c(F)c6F)c6ccc3[nH]6)C=C5)C=C4)cc2)CCCCC1
REMARK SMILES IDX 19 1 20 2 18 3 17 4 90 5 94 6 91 7 93 8 92 9 16 10 14 11
REMARK SMILES IDX 13 12 15 14 12 15 8 16 9 17 10 18 11 19 2 20 1 21 3 22 4 23
REMARK SMILES IDX 7 24 5 25 6 26 21 27 22 28 23 29 24 30 25 31 26 32 27 33
REMARK SMILES IDX 28 34 89 35 29 36 88 37 30 38 31 39 32 40 82 41 33 42 87 43
REMARK SMILES IDX 81 44 83 45 34 46 86 47 80 48 79 49 35 51 67 52 47 53 66 54
REMARK SMILES IDX 48 55 51 56 65 57 84 58 49 59 50 60 64 62 85 63 52 64 36 65
REMARK SMILES IDX 37 66 45 67 38 68 39 69 43 70 46 71 40 72 41 73 44 74 42 75
REMARK SMILES IDX 68 76 69 77 77 78 70 79 71 80 75 81 78 82 72 83 73 84 76 85
REMARK SMILES IDX 74 86 53 87 54 88 62 89 55 90 56 91 60 92 63 93 57 94 58 95
REMARK SMILES IDX 61 96 59 97
REMARK H PARENT 13 13 83 50 51 61
REMARK Flexibility Score: inf
ROOT
ATOM      1  C   UNL A   1      32.177  28.458  26.763  1.00  0.00     0.306 C 
ATOM      2  O   UNL A   1      31.576  29.499  27.011  1.00  0.00    -0.252 OA
ENDROOT
BRANCH   1   3
ATOM      3  C   UNL A   1      31.582  27.397  25.843  1.00  0.00     0.130 C 
BRANCH   3   4
ATOM      4  C   UNL A   1      31.887  27.266  24.315  1.00  0.00    -0.010 C 
ATOM      5  C   UNL A   1      31.755  28.695  23.718  1.00  0.00     0.008 C 
ATOM      6  C   UNL A   1      30.872  26.370  23.542  1.00  0.00     0.008 C 
ATOM      7  C   UNL A   1      30.333  29.252  23.634  1.00  0.00     0.001 C 
ATOM      8  C   UNL A   1      29.447  26.902  23.553  1.00  0.00     0.001 C 
ATOM      9  C   UNL A   1      29.397  28.288  22.924  1.00  0.00     0.000 C 
BRANCH   4  10
ATOM     10  C   UNL A   1      33.297  26.671  23.964  1.00  0.00     0.108 C 
BRANCH  10  11
ATOM     11  C   UNL A   1      33.570  25.534  22.991  1.00  0.00     0.226 C 
ATOM     12  N   UNL A   1      33.852  24.185  23.372  1.00  0.00    -0.311 N 
ATOM     13  H   UNL A   1      33.326  23.464  22.958  1.00  0.00     0.171 HD
ATOM     14  O   UNL A   1      33.692  25.730  21.788  1.00  0.00    -0.275 OA
BRANCH  12  15
ATOM     15  C   UNL A   1      34.827  23.838  24.291  1.00  0.00     0.131 A 
ATOM     16  N   UNL A   1      34.689  23.418  25.597  1.00  0.00    -0.246 N 
ATOM     17  N   UNL A   1      35.872  23.471  26.262  1.00  0.00    -0.179 NA
ATOM     18  C   UNL A   1      36.779  23.623  25.301  1.00  0.00     0.137 A 
ATOM     19  C   UNL A   1      36.184  23.804  24.044  1.00  0.00     0.068 A 
BRANCH  16  20
ATOM     20  C   UNL A   1      33.539  22.959  26.384  1.00  0.00     0.120 C 
ATOM     21  C   UNL A   1      32.326  23.894  26.423  1.00  0.00     0.034 C 
BRANCH  20  22
ATOM     22  C   UNL A   1      33.221  21.498  25.984  1.00  0.00     0.079 C 
ATOM     23  C   UNL A   1      32.075  21.369  24.968  1.00  0.00     0.045 C 
ATOM     24  S   UNL A   1      34.608  20.528  25.258  1.00  0.00    -0.128 SA
ATOM     25  C   UNL A   1      32.282  20.076  24.239  1.00  0.00    -0.019 C 
ATOM     26  C   UNL A   1      33.517  19.567  24.315  1.00  0.00     0.037 C 
ENDBRANCH  20  22
ENDBRANCH  16  20
ENDBRANCH  12  15
ENDBRANCH  10  11
ENDBRANCH   4  10
ENDBRANCH   3   4
ENDBRANCH   1   3
BRANCH   1  27
ATOM     27  O   UNL A   1      33.417  28.164  27.210  1.00  0.00    -0.462 OA
BRANCH  27  28
ATOM     28  C   UNL A   1      34.513  28.867  26.594  1.00  0.00     0.274 C 
BRANCH  28  29
ATOM     29  C   UNL A   1      35.060  29.893  27.579  1.00  0.00     0.275 C 
BRANCH  29  30
ATOM     30  O   UNL A   1      36.437  30.234  27.352  1.00  0.00    -0.458 OA
BRANCH  30  31
ATOM     31  C   UNL A   1      37.124  30.576  28.460  1.00  0.00     0.338 C 
ATOM     32  O   UNL A   1      37.046  31.600  29.111  1.00  0.00    -0.246 OA
BRANCH  31  33
ATOM     33  C   UNL A   1      38.269  29.701  28.671  1.00  0.00     0.060 A 
ATOM     34  C   UNL A   1      39.506  30.348  28.759  1.00  0.00     0.016 A 
ATOM     35  C   UNL A   1      38.165  28.324  28.474  1.00  0.00     0.016 A 
ATOM     36  C   UNL A   1      40.649  29.643  28.480  1.00  0.00     0.010 A 
ATOM     37  C   UNL A   1      39.321  27.598  28.283  1.00  0.00     0.010 A 
ATOM     38  C   UNL A   1      40.550  28.269  28.248  1.00  0.00    -0.014 A 
BRANCH  38  39
ATOM     39  C   UNL A   1      41.796  27.521  28.329  1.00  0.00     0.031 A 
ATOM     40  C   UNL A   1      42.507  27.773  29.620  1.00  0.00     0.074 A 
ATOM     41  C   UNL A   1      42.122  26.573  27.432  1.00  0.00     0.049 A 
ATOM     42  N   UNL A   1      43.755  28.047  29.820  1.00  0.00    -0.248 NA
ATOM     43  C   UNL A   1      41.675  27.897  30.842  1.00  0.00     0.031 C 
ATOM     44  C   UNL A   1      41.307  26.133  26.295  1.00  0.00     0.029 A 
ATOM     45  N   UNL A   1      43.157  25.688  27.435  1.00  0.00    -0.354 N 
ATOM     46  C   UNL A   1      43.889  28.183  31.202  1.00  0.00     0.074 A 
ATOM     47  C   UNL A   1      42.568  28.275  31.750  1.00  0.00     0.031 C 
ATOM     48  C   UNL A   1      41.735  24.917  25.896  1.00  0.00     0.029 A 
ATOM     49  C   UNL A   1      42.903  24.550  26.678  1.00  0.00     0.049 A 
ATOM     50  H   UNL A   1      43.998  25.838  27.924  1.00  0.00     0.167 HD
ATOM     51  C   UNL A   1      45.061  27.885  31.819  1.00  0.00     0.037 A 
ATOM     52  C   UNL A   1      43.538  23.357  26.768  1.00  0.00     0.037 A 
ATOM     53  C   UNL A   1      46.159  27.979  30.899  1.00  0.00     0.049 A 
ATOM     54  C   UNL A   1      44.815  23.575  27.488  1.00  0.00     0.074 A 
ATOM     55  C   UNL A   1      46.815  28.995  30.240  1.00  0.00     0.029 A 
ATOM     56  N   UNL A   1      46.490  26.808  30.274  1.00  0.00    -0.354 N 
ATOM     57  N   UNL A   1      45.830  24.228  26.998  1.00  0.00    -0.248 NA
ATOM     58  C   UNL A   1      44.872  23.323  28.924  1.00  0.00     0.031 C 
ATOM     59  C   UNL A   1      47.345  28.411  29.051  1.00  0.00     0.029 A 
ATOM     60  C   UNL A   1      47.017  27.056  29.037  1.00  0.00     0.049 A 
ATOM     61  H   UNL A   1      46.365  25.912  30.661  1.00  0.00     0.167 HD
ATOM     62  C   UNL A   1      46.410  24.835  28.095  1.00  0.00     0.074 A 
ATOM     63  C   UNL A   1      45.913  24.094  29.245  1.00  0.00     0.031 C 
ATOM     64  C   UNL A   1      46.973  26.072  27.979  1.00  0.00     0.037 A 
BRANCH  51  65
ATOM     65  C   UNL A   1      45.133  27.010  33.060  1.00  0.00     0.064 A 
ATOM     66  C   UNL A   1      44.517  25.742  33.025  1.00  0.00     0.173 A 
ATOM     67  C   UNL A   1      45.467  27.479  34.353  1.00  0.00     0.173 A 
ATOM     68  F   UNL A   1      44.142  25.200  31.857  1.00  0.00    -0.203 F 
ATOM     69  C   UNL A   1      44.180  25.050  34.193  1.00  0.00     0.198 A 
ATOM     70  C   UNL A   1      45.174  26.762  35.511  1.00  0.00     0.198 A 
ATOM     71  F   UNL A   1      45.985  28.692  34.571  1.00  0.00    -0.203 F 
ATOM     72  F   UNL A   1      43.475  23.913  34.111  1.00  0.00    -0.200 F 
ATOM     73  C   UNL A   1      44.499  25.566  35.435  1.00  0.00     0.200 A 
ATOM     74  F   UNL A   1      45.475  27.293  36.704  1.00  0.00    -0.200 F 
ATOM     75  F   UNL A   1      44.117  24.940  36.554  1.00  0.00    -0.200 F 
ENDBRANCH  51  65
BRANCH  52  76
ATOM     76  C   UNL A   1      43.025  21.996  26.481  1.00  0.00     0.064 A 
ATOM     77  C   UNL A   1      43.649  21.185  25.518  1.00  0.00     0.173 A 
ATOM     78  C   UNL A   1      42.081  21.363  27.310  1.00  0.00     0.173 A 
ATOM     79  F   UNL A   1      44.591  21.697  24.711  1.00  0.00    -0.203 F 
ATOM     80  C   UNL A   1      43.369  19.820  25.412  1.00  0.00     0.198 A 
ATOM     81  C   UNL A   1      41.788  20.003  27.192  1.00  0.00     0.198 A 
ATOM     82  F   UNL A   1      41.487  22.023  28.315  1.00  0.00    -0.203 F 
ATOM     83  F   UNL A   1      44.040  19.067  24.529  1.00  0.00    -0.200 F 
ATOM     84  C   UNL A   1      42.445  19.228  26.256  1.00  0.00     0.200 A 
ATOM     85  F   UNL A   1      40.912  19.438  28.036  1.00  0.00    -0.200 F 
ATOM     86  F   UNL A   1      42.219  17.909  26.196  1.00  0.00    -0.200 F 
ENDBRANCH  52  76
BRANCH  64  87
ATOM     87  C   UNL A   1      47.407  26.494  26.609  1.00  0.00     0.064 A 
ATOM     88  C   UNL A   1      46.612  27.220  25.707  1.00  0.00     0.173 A 
ATOM     89  C   UNL A   1      48.719  26.192  26.219  1.00  0.00     0.173 A 
ATOM     90  F   UNL A   1      45.384  27.636  26.044  1.00  0.00    -0.203 F 
ATOM     91  C   UNL A   1      47.093  27.568  24.445  1.00  0.00     0.198 A 
ATOM     92  C   UNL A   1      49.211  26.581  24.978  1.00  0.00     0.198 A 
ATOM     93  F   UNL A   1      49.540  25.546  27.062  1.00  0.00    -0.203 F 
ATOM     94  F   UNL A   1      46.305  28.229  23.586  1.00  0.00    -0.200 F 
ATOM     95  C   UNL A   1      48.392  27.251  24.085  1.00  0.00     0.200 A 
ATOM     96  F   UNL A   1      50.485  26.319  24.657  1.00  0.00    -0.200 F 
ATOM     97  F   UNL A   1      48.865  27.615  22.885  1.00  0.00    -0.200 F 
ENDBRANCH  64  87
ENDBRANCH  38  39
ENDBRANCH  31  33
ENDBRANCH  30  31
ENDBRANCH  29  30
ENDBRANCH  28  29
ENDBRANCH  27  28
ENDBRANCH   1  27
TORSDOF 17
ENDMDL
MODEL 3
REMARK VINA RESULT:     -12.5      5.974     10.793
REMARK SMILES C[C@@H]([C@H]1CC=CS1)n1nccc1NC(=O)CC1(CC(=O)OCCOC(=O)c2ccc(-c3c4nc(c(-c5c(F)c(F)c(F)c(F)c5F)c5ccc([nH]5)c(-c5c(F)c(F)c(F)c(F)c5F)c5nc(c(-c6c(F)c(F)c(F)c(F)c6F)c6ccc3[nH]6)C=C5)C=C4)cc2)CCCCC1
REMARK SMILES IDX 19 1 20 2 18 3 17 4 90 5 94 6 91 7 93 8 92 9 16 10 14 11
REMARK SMILES IDX 13 12 15 14 12 15 8 16 9 17 10 18 11 19 2 20 1 21 3 22 4 23
REMARK SMILES IDX 7 24 5 25 6 26 21 27 22 28 23 29 24 30 25 31 26 32 27 33
REMARK SMILES IDX 28 34 89 35 29 36 88 37 30 38 31 39 32 40 82 41 33 42 87 43
REMARK SMILES IDX 81 44 83 45 34 46 86 47 80 48 79 49 35 51 67 52 47 53 66 54
REMARK SMILES IDX 48 55 51 56 65 57 84 58 49 59 50 60 64 62 85 63 52 64 36 65
REMARK SMILES IDX 37 66 45 67 38 68 39 69 43 70 46 71 40 72 41 73 44 74 42 75
REMARK SMILES IDX 68 76 69 77 77 78 70 79 71 80 75 81 78 82 72 83 73 84 76 85
REMARK SMILES IDX 74 86 53 87 54 88 62 89 55 90 56 91 60 92 63 93 57 94 58 95
REMARK SMILES IDX 61 96 59 97
REMARK H PARENT 13 13 83 50 51 61
REMARK Flexibility Score: inf
ROOT
ATOM      1  C   UNL A   1      36.107  23.344  23.840  1.00  0.00     0.306 C 
ATOM      2  O   UNL A   1      35.929  23.032  22.667  1.00  0.00    -0.252 OA
ENDROOT
BRANCH   1   3
ATOM      3  C   UNL A   1      34.948  23.768  24.735  1.00  0.00     0.130 C 
BRANCH   3   4
ATOM      4  C   UNL A   1      33.438  23.492  24.432  1.00  0.00    -0.010 C 
ATOM      5  C   UNL A   1      32.733  23.354  25.810  1.00  0.00     0.008 C 
ATOM      6  C   UNL A   1      33.181  22.156  23.670  1.00  0.00     0.008 C 
ATOM      7  C   UNL A   1      33.059  22.086  26.600  1.00  0.00     0.001 C 
ATOM      8  C   UNL A   1      33.598  20.914  24.444  1.00  0.00     0.001 C 
ATOM      9  C   UNL A   1      32.842  20.836  25.763  1.00  0.00     0.000 C 
BRANCH   4  10
ATOM     10  C   UNL A   1      32.717  24.589  23.572  1.00  0.00     0.108 C 
BRANCH  10  11
ATOM     11  C   UNL A   1      33.390  25.756  22.864  1.00  0.00     0.226 C 
ATOM     12  N   UNL A   1      33.193  27.133  23.195  1.00  0.00    -0.311 N 
ATOM     13  H   UNL A   1      33.988  27.693  23.349  1.00  0.00     0.171 HD
ATOM     14  O   UNL A   1      34.067  25.595  21.856  1.00  0.00    -0.275 OA
BRANCH  12  15
ATOM     15  C   UNL A   1      31.946  27.722  23.309  1.00  0.00     0.131 A 
ATOM     16  N   UNL A   1      31.236  28.057  24.443  1.00  0.00    -0.246 N 
ATOM     17  N   UNL A   1      29.937  28.327  24.152  1.00  0.00    -0.179 NA
ATOM     18  C   UNL A   1      29.919  28.457  22.829  1.00  0.00     0.137 A 
ATOM     19  C   UNL A   1      31.159  28.141  22.256  1.00  0.00     0.068 A 
BRANCH  16  20
ATOM     20  C   UNL A   1      31.604  28.157  25.859  1.00  0.00     0.120 C 
ATOM     21  C   UNL A   1      31.941  26.841  26.568  1.00  0.00     0.034 C 
BRANCH  20  22
ATOM     22  C   UNL A   1      32.669  29.269  26.015  1.00  0.00     0.079 C 
ATOM     23  C   UNL A   1      32.215  30.445  26.893  1.00  0.00     0.045 C 
ATOM     24  S   UNL A   1      34.293  28.754  26.718  1.00  0.00    -0.128 SA
ATOM     25  C   UNL A   1      33.453  31.082  27.445  1.00  0.00    -0.019 C 
ATOM     26  C   UNL A   1      34.553  30.322  27.410  1.00  0.00     0.037 C 
ENDBRANCH  20  22
ENDBRANCH  16  20
ENDBRANCH  12  15
ENDBRANCH  10  11
ENDBRANCH   4  10
ENDBRANCH   3   4
ENDBRANCH   1   3
BRANCH   1  27
ATOM     27  O   UNL A   1      37.300  23.294  24.474  1.00  0.00    -0.462 OA
BRANCH  27  28
ATOM     28  C   UNL A   1      37.315  23.684  25.861  1.00  0.00     0.274 C 
BRANCH  28  29
ATOM     29  C   UNL A   1      38.706  23.436  26.431  1.00  0.00     0.275 C 
BRANCH  29  30
ATOM     30  O   UNL A   1      38.960  24.137  27.658  1.00  0.00    -0.458 OA
BRANCH  30  31
ATOM     31  C   UNL A   1      40.208  24.632  27.778  1.00  0.00     0.338 C 
ATOM     32  O   UNL A   1      41.262  24.026  27.808  1.00  0.00    -0.246 OA
BRANCH  31  33
ATOM     33  C   UNL A   1      40.193  26.025  28.206  1.00  0.00     0.060 A 
ATOM     34  C   UNL A   1      40.996  26.317  29.312  1.00  0.00     0.016 A 
ATOM     35  C   UNL A   1      39.212  26.904  27.749  1.00  0.00     0.016 A 
ATOM     36  C   UNL A   1      40.708  27.421  30.074  1.00  0.00     0.010 A 
ATOM     37  C   UNL A   1      38.982  28.061  28.462  1.00  0.00     0.010 A 
ATOM     38  C   UNL A   1      39.703  28.290  29.641  1.00  0.00    -0.014 A 
BRANCH  38  39
ATOM     39  C   UNL A   1      39.692  29.607  30.261  1.00  0.00     0.031 A 
ATOM     40  C   UNL A   1      41.022  30.281  30.146  1.00  0.00     0.074 A 
ATOM     41  C   UNL A   1      38.556  30.190  30.683  1.00  0.00     0.049 A 
ATOM     42  N   UNL A   1      41.704  30.894  31.058  1.00  0.00    -0.248 NA
ATOM     43  C   UNL A   1      41.766  30.104  28.875  1.00  0.00     0.031 C 
ATOM     44  C   UNL A   1      37.201  29.643  30.568  1.00  0.00     0.029 A 
ATOM     45  N   UNL A   1      38.344  31.455  31.143  1.00  0.00    -0.354 N 
ATOM     46  C   UNL A   1      42.862  31.339  30.420  1.00  0.00     0.074 A 
ATOM     47  C   UNL A   1      42.937  30.667  29.157  1.00  0.00     0.031 C 
ATOM     48  C   UNL A   1      36.311  30.650  30.689  1.00  0.00     0.029 A 
ATOM     49  C   UNL A   1      37.028  31.877  30.987  1.00  0.00     0.049 A 
ATOM     50  H   UNL A   1      39.049  32.012  31.545  1.00  0.00     0.167 HD
ATOM     51  C   UNL A   1      43.497  32.463  30.839  1.00  0.00     0.037 A 
ATOM     52  C   UNL A   1      36.582  33.156  30.992  1.00  0.00     0.037 A 
ATOM     53  C   UNL A   1      43.187  32.742  32.213  1.00  0.00     0.049 A 
ATOM     54  C   UNL A   1      37.629  34.002  31.611  1.00  0.00     0.074 A 
ATOM     55  C   UNL A   1      43.485  32.173  33.431  1.00  0.00     0.029 A 
ATOM     56  N   UNL A   1      42.125  33.583  32.405  1.00  0.00    -0.354 N 
ATOM     57  N   UNL A   1      37.947  33.968  32.874  1.00  0.00    -0.248 NA
ATOM     58  C   UNL A   1      38.577  34.701  30.750  1.00  0.00     0.031 C 
ATOM     59  C   UNL A   1      42.405  32.516  34.297  1.00  0.00     0.029 A 
ATOM     60  C   UNL A   1      41.498  33.302  33.588  1.00  0.00     0.049 A 
ATOM     61  H   UNL A   1      41.851  34.291  31.780  1.00  0.00     0.167 HD
ATOM     62  C   UNL A   1      39.301  34.240  32.895  1.00  0.00     0.074 A 
ATOM     63  C   UNL A   1      39.581  34.869  31.612  1.00  0.00     0.031 C 
ATOM     64  C   UNL A   1      40.110  33.637  33.812  1.00  0.00     0.037 A 
BRANCH  51  65
ATOM     65  C   UNL A   1      43.935  33.560  29.882  1.00  0.00     0.064 A 
ATOM     66  C   UNL A   1      45.297  33.927  29.857  1.00  0.00     0.173 A 
ATOM     67  C   UNL A   1      43.056  34.476  29.257  1.00  0.00     0.173 A 
ATOM     68  F   UNL A   1      46.223  33.144  30.430  1.00  0.00    -0.203 F 
ATOM     69  C   UNL A   1      45.724  35.152  29.335  1.00  0.00     0.198 A 
ATOM     70  C   UNL A   1      43.493  35.672  28.694  1.00  0.00     0.198 A 
ATOM     71  F   UNL A   1      41.728  34.320  29.259  1.00  0.00    -0.203 F 
ATOM     72  F   UNL A   1      47.009  35.514  29.457  1.00  0.00    -0.200 F 
ATOM     73  C   UNL A   1      44.821  36.028  28.764  1.00  0.00     0.200 A 
ATOM     74  F   UNL A   1      42.595  36.515  28.164  1.00  0.00    -0.200 F 
ATOM     75  F   UNL A   1      45.216  37.230  28.327  1.00  0.00    -0.200 F 
ENDBRANCH  51  65
BRANCH  52  76
ATOM     76  C   UNL A   1      35.411  33.745  30.298  1.00  0.00     0.064 A 
ATOM     77  C   UNL A   1      34.349  34.300  31.031  1.00  0.00     0.173 A 
ATOM     78  C   UNL A   1      35.416  34.006  28.915  1.00  0.00     0.173 A 
ATOM     79  F   UNL A   1      34.287  34.134  32.360  1.00  0.00    -0.203 F 
ATOM     80  C   UNL A   1      33.372  35.095  30.425  1.00  0.00     0.198 A 
ATOM     81  C   UNL A   1      34.430  34.785  28.307  1.00  0.00     0.198 A 
ATOM     82  F   UNL A   1      36.426  33.594  28.135  1.00  0.00    -0.203 F 
ATOM     83  F   UNL A   1      32.418  35.666  31.172  1.00  0.00    -0.200 F 
ATOM     84  C   UNL A   1      33.419  35.344  29.064  1.00  0.00     0.200 A 
ATOM     85  F   UNL A   1      34.504  35.041  26.992  1.00  0.00    -0.200 F 
ATOM     86  F   UNL A   1      32.518  36.152  28.490  1.00  0.00    -0.200 F 
ENDBRANCH  52  76
BRANCH  64  87
ATOM     87  C   UNL A   1      39.458  33.129  35.061  1.00  0.00     0.064 A 
ATOM     88  C   UNL A   1      38.959  31.827  35.230  1.00  0.00     0.173 A 
ATOM     89  C   UNL A   1      39.390  33.996  36.160  1.00  0.00     0.173 A 
ATOM     90  F   UNL A   1      39.079  30.907  34.263  1.00  0.00    -0.203 F 
ATOM     91  C   UNL A   1      38.360  31.437  36.426  1.00  0.00     0.198 A 
ATOM     92  C   UNL A   1      38.834  33.589  37.368  1.00  0.00     0.198 A 
ATOM     93  F   UNL A   1      39.899  35.235  36.072  1.00  0.00    -0.203 F 
ATOM     94  F   UNL A   1      37.858  30.200  36.554  1.00  0.00    -0.200 F 
ATOM     95  C   UNL A   1      38.302  32.317  37.494  1.00  0.00     0.200 A 
ATOM     96  F   UNL A   1      38.829  34.427  38.413  1.00  0.00    -0.200 F 
ATOM     97  F   UNL A   1      37.755  31.931  38.655  1.00  0.00    -0.200 F 
ENDBRANCH  64  87
ENDBRANCH  38  39
ENDBRANCH  31  33
ENDBRANCH  30  31
ENDBRANCH  29  30
ENDBRANCH  28  29
ENDBRANCH  27  28
ENDBRANCH   1  27
TORSDOF 17
ENDMDL
