MODEL 1
REMARK VINA RESULT:     -12.5      0.000      0.000
REMARK SMILES COc1cccc(/C=C2/C(=O)N(c3cccc(C(=O)OCCOC(=O)c4ccc(-c5c6nc(c(-c7c(F)c(F)c(F)c(F)c7F)c7ccc([nH]7)c(-c7c(F)c(F)c(F)c(F)c7F)c7nc(c(-c8c(F)c(F)c(F)c(F)c8F)c8ccc5[nH]8)C=C7)C=C6)cc4)c3)N=C2C)c1
REMARK SMILES IDX 21 1 20 2 18 3 19 4 17 5 13 6 14 7 89 8 15 9 16 10 12 11
REMARK SMILES IDX 8 12 9 13 10 14 91 15 11 16 90 17 92 18 7 19 3 20 4 21 93 22
REMARK SMILES IDX 5 23 6 24 2 25 1 26 22 27 23 28 24 29 25 30 26 31 27 32
REMARK SMILES IDX 88 33 28 34 87 35 29 36 30 37 31 38 81 39 32 40 86 41 80 42
REMARK SMILES IDX 82 43 33 44 85 45 79 46 78 47 34 49 66 50 46 51 65 52 47 53
REMARK SMILES IDX 50 54 64 55 83 56 48 57 49 58 63 60 84 61 51 62 35 63 36 64
REMARK SMILES IDX 44 65 37 66 38 67 42 68 45 69 39 70 40 71 43 72 41 73 67 74
REMARK SMILES IDX 68 75 76 76 69 77 70 78 74 79 77 80 71 81 72 82 75 83 73 84
REMARK SMILES IDX 52 85 53 86 61 87 54 88 55 89 59 90 62 91 56 92 57 93 60 94
REMARK SMILES IDX 58 95
REMARK H PARENT 82 48 50 59
REMARK Flexibility Score: inf
ROOT
ATOM      1  C   UNL A   1      33.966  35.484  28.596  1.00  0.00     0.275 C 
ENDROOT
BRANCH   1   2
ATOM      2  O   UNL A   1      33.973  34.077  28.911  1.00  0.00    -0.458 OA
BRANCH   2   3
ATOM      3  C   UNL A   1      33.292  33.246  28.079  1.00  0.00     0.338 C 
ATOM      4  O   UNL A   1      32.225  33.467  27.533  1.00  0.00    -0.246 OA
BRANCH   3   5
ATOM      5  C   UNL A   1      34.127  32.052  27.800  1.00  0.00     0.062 A 
ATOM      6  C   UNL A   1      34.296  29.730  27.170  1.00  0.00     0.070 A 
ATOM      7  C   UNL A   1      35.640  29.711  27.553  1.00  0.00     0.028 A 
ATOM      8  C   UNL A   1      33.532  30.888  27.336  1.00  0.00     0.044 A 
ATOM      9  C   UNL A   1      36.258  30.897  27.936  1.00  0.00     0.003 A 
ATOM     10  C   UNL A   1      35.512  32.073  28.004  1.00  0.00     0.016 A 
BRANCH   6  11
ATOM     11  N   UNL A   1      33.719  28.617  26.556  1.00  0.00    -0.196 N 
ATOM     12  C   UNL A   1      31.414  26.005  26.156  1.00  0.00     0.024 C 
ATOM     13  C   UNL A   1      32.441  26.854  26.049  1.00  0.00     0.065 C 
ATOM     14  C   UNL A   1      32.594  27.940  27.035  1.00  0.00     0.280 C 
ATOM     15  C   UNL A   1      33.578  27.033  25.122  1.00  0.00     0.071 C 
ATOM     16  O   UNL A   1      31.874  28.152  27.989  1.00  0.00    -0.267 OA
ATOM     17  N   UNL A   1      34.282  28.098  25.408  1.00  0.00    -0.169 NA
ATOM     18  C   UNL A   1      33.944  26.110  24.010  1.00  0.00     0.069 C 
BRANCH  12  19
ATOM     19  C   UNL A   1      31.221  24.862  25.283  1.00  0.00    -0.021 A 
ATOM     20  C   UNL A   1      31.696  22.541  24.799  1.00  0.00     0.119 A 
ATOM     21  C   UNL A   1      31.076  22.696  23.558  1.00  0.00     0.046 A 
ATOM     22  C   UNL A   1      31.743  23.623  25.671  1.00  0.00     0.054 A 
ATOM     23  C   UNL A   1      30.498  23.916  23.192  1.00  0.00     0.004 A 
ATOM     24  C   UNL A   1      30.575  25.006  24.055  1.00  0.00     0.008 A 
BRANCH  20  25
ATOM     25  O   UNL A   1      32.254  21.314  25.031  1.00  0.00    -0.497 OA
ATOM     26  C   UNL A   1      32.409  20.458  23.904  1.00  0.00     0.278 C 
ENDBRANCH  20  25
ENDBRANCH  12  19
ENDBRANCH   6  11
ENDBRANCH   3   5
ENDBRANCH   2   3
ENDBRANCH   1   2
BRANCH   1  27
ATOM     27  C   UNL A   1      33.064  36.264  29.555  1.00  0.00     0.275 C 
BRANCH  27  28
ATOM     28  O   UNL A   1      32.501  35.382  30.543  1.00  0.00    -0.458 OA
BRANCH  28  29
ATOM     29  C   UNL A   1      32.599  35.812  31.821  1.00  0.00     0.338 C 
ATOM     30  O   UNL A   1      31.877  36.601  32.405  1.00  0.00    -0.246 OA
BRANCH  29  31
ATOM     31  C   UNL A   1      33.671  35.078  32.505  1.00  0.00     0.060 A 
ATOM     32  C   UNL A   1      34.924  35.672  32.531  1.00  0.00     0.016 A 
ATOM     33  C   UNL A   1      33.515  33.769  32.942  1.00  0.00     0.016 A 
ATOM     34  C   UNL A   1      36.054  34.941  32.866  1.00  0.00     0.010 A 
ATOM     35  C   UNL A   1      34.638  33.068  33.408  1.00  0.00     0.010 A 
ATOM     36  C   UNL A   1      35.928  33.631  33.337  1.00  0.00    -0.014 A 
BRANCH  36  37
ATOM     37  C   UNL A   1      37.146  32.856  33.718  1.00  0.00     0.031 A 
ATOM     38  C   UNL A   1      37.803  33.088  35.053  1.00  0.00     0.074 A 
ATOM     39  C   UNL A   1      37.654  31.928  32.881  1.00  0.00     0.049 A 
ATOM     40  N   UNL A   1      38.960  32.663  35.495  1.00  0.00    -0.248 NA
ATOM     41  C   UNL A   1      37.067  33.923  36.016  1.00  0.00     0.031 C 
ATOM     42  C   UNL A   1      37.090  31.551  31.584  1.00  0.00     0.029 A 
ATOM     43  N   UNL A   1      38.767  31.127  32.997  1.00  0.00    -0.354 N 
ATOM     44  C   UNL A   1      39.116  33.225  36.756  1.00  0.00     0.074 A 
ATOM     45  C   UNL A   1      37.941  34.031  37.006  1.00  0.00     0.031 C 
ATOM     46  C   UNL A   1      37.831  30.574  31.043  1.00  0.00     0.029 A 
ATOM     47  C   UNL A   1      38.986  30.331  31.899  1.00  0.00     0.049 A 
ATOM     48  H   UNL A   1      39.350  31.125  33.791  1.00  0.00     0.167 HD
ATOM     49  C   UNL A   1      40.148  33.079  37.624  1.00  0.00     0.037 A 
ATOM     50  C   UNL A   1      40.025  29.537  31.580  1.00  0.00     0.037 A 
ATOM     51  C   UNL A   1      41.292  32.236  37.385  1.00  0.00     0.049 A 
ATOM     52  C   UNL A   1      41.186  29.443  32.529  1.00  0.00     0.074 A 
ATOM     53  C   UNL A   1      42.381  32.005  38.208  1.00  0.00     0.029 A 
ATOM     54  N   UNL A   1      41.490  31.477  36.240  1.00  0.00    -0.354 N 
ATOM     55  N   UNL A   1      41.347  30.012  33.699  1.00  0.00    -0.248 NA
ATOM     56  C   UNL A   1      42.319  28.610  32.105  1.00  0.00     0.031 C 
ATOM     57  C   UNL A   1      43.264  31.153  37.537  1.00  0.00     0.029 A 
ATOM     58  C   UNL A   1      42.696  30.799  36.325  1.00  0.00     0.049 A 
ATOM     59  H   UNL A   1      40.867  31.428  35.479  1.00  0.00     0.167 HD
ATOM     60  C   UNL A   1      42.585  29.587  34.163  1.00  0.00     0.074 A 
ATOM     61  C   UNL A   1      43.124  28.697  33.155  1.00  0.00     0.031 C 
ATOM     62  C   UNL A   1      43.217  29.908  35.318  1.00  0.00     0.037 A 
BRANCH  49  63
ATOM     63  C   UNL A   1      40.113  33.883  38.894  1.00  0.00     0.064 A 
ATOM     64  C   UNL A   1      39.473  33.422  40.055  1.00  0.00     0.173 A 
ATOM     65  C   UNL A   1      40.765  35.125  38.959  1.00  0.00     0.173 A 
ATOM     66  F   UNL A   1      38.825  32.247  40.048  1.00  0.00    -0.203 F 
ATOM     67  C   UNL A   1      39.459  34.187  41.219  1.00  0.00     0.198 A 
ATOM     68  C   UNL A   1      40.779  35.871  40.135  1.00  0.00     0.198 A 
ATOM     69  F   UNL A   1      41.401  35.612  37.883  1.00  0.00    -0.203 F 
ATOM     70  F   UNL A   1      38.794  33.750  42.298  1.00  0.00    -0.200 F 
ATOM     71  C   UNL A   1      40.118  35.407  41.261  1.00  0.00     0.200 A 
ATOM     72  F   UNL A   1      41.431  37.041  40.176  1.00  0.00    -0.200 F 
ATOM     73  F   UNL A   1      40.111  36.137  42.384  1.00  0.00    -0.200 F 
ENDBRANCH  49  63
BRANCH  50  74
ATOM     74  C   UNL A   1      40.037  28.811  30.281  1.00  0.00     0.064 A 
ATOM     75  C   UNL A   1      39.443  27.549  30.152  1.00  0.00     0.173 A 
ATOM     76  C   UNL A   1      40.647  29.364  29.142  1.00  0.00     0.173 A 
ATOM     77  F   UNL A   1      38.871  26.967  31.215  1.00  0.00    -0.203 F 
ATOM     78  C   UNL A   1      39.472  26.859  28.940  1.00  0.00     0.198 A 
ATOM     79  C   UNL A   1      40.641  28.690  27.922  1.00  0.00     0.198 A 
ATOM     80  F   UNL A   1      41.232  30.568  29.209  1.00  0.00    -0.203 F 
ATOM     81  F   UNL A   1      38.941  25.632  28.859  1.00  0.00    -0.200 F 
ATOM     82  C   UNL A   1      40.063  27.435  27.825  1.00  0.00     0.200 A 
ATOM     83  F   UNL A   1      41.197  29.258  26.843  1.00  0.00    -0.200 F 
ATOM     84  F   UNL A   1      40.083  26.774  26.659  1.00  0.00    -0.200 F 
ENDBRANCH  50  74
BRANCH  62  85
ATOM     85  C   UNL A   1      44.543  29.253  35.578  1.00  0.00     0.064 A 
ATOM     86  C   UNL A   1      45.752  29.849  35.193  1.00  0.00     0.173 A 
ATOM     87  C   UNL A   1      44.603  28.023  36.252  1.00  0.00     0.173 A 
ATOM     88  F   UNL A   1      45.748  31.016  34.530  1.00  0.00    -0.203 F 
ATOM     89  C   UNL A   1      46.970  29.225  35.446  1.00  0.00     0.198 A 
ATOM     90  C   UNL A   1      45.824  27.419  36.535  1.00  0.00     0.198 A 
ATOM     91  F   UNL A   1      43.475  27.412  36.649  1.00  0.00    -0.203 F 
ATOM     92  F   UNL A   1      48.110  29.786  35.019  1.00  0.00    -0.200 F 
ATOM     93  C   UNL A   1      47.006  28.015  36.124  1.00  0.00     0.200 A 
ATOM     94  F   UNL A   1      45.856  26.259  37.205  1.00  0.00    -0.200 F 
ATOM     95  F   UNL A   1      48.181  27.420  36.375  1.00  0.00    -0.200 F 
ENDBRANCH  62  85
ENDBRANCH  36  37
ENDBRANCH  29  31
ENDBRANCH  28  29
ENDBRANCH  27  28
ENDBRANCH   1  27
TORSDOF 14
ENDMDL
MODEL 2
REMARK VINA RESULT:     -12.3      7.013     12.669
REMARK SMILES COc1cccc(/C=C2/C(=O)N(c3cccc(C(=O)OCCOC(=O)c4ccc(-c5c6nc(c(-c7c(F)c(F)c(F)c(F)c7F)c7ccc([nH]7)c(-c7c(F)c(F)c(F)c(F)c7F)c7nc(c(-c8c(F)c(F)c(F)c(F)c8F)c8ccc5[nH]8)C=C7)C=C6)cc4)c3)N=C2C)c1
REMARK SMILES IDX 21 1 20 2 18 3 19 4 17 5 13 6 14 7 89 8 15 9 16 10 12 11
REMARK SMILES IDX 8 12 9 13 10 14 91 15 11 16 90 17 92 18 7 19 3 20 4 21 93 22
REMARK SMILES IDX 5 23 6 24 2 25 1 26 22 27 23 28 24 29 25 30 26 31 27 32
REMARK SMILES IDX 88 33 28 34 87 35 29 36 30 37 31 38 81 39 32 40 86 41 80 42
REMARK SMILES IDX 82 43 33 44 85 45 79 46 78 47 34 49 66 50 46 51 65 52 47 53
REMARK SMILES IDX 50 54 64 55 83 56 48 57 49 58 63 60 84 61 51 62 35 63 36 64
REMARK SMILES IDX 44 65 37 66 38 67 42 68 45 69 39 70 40 71 43 72 41 73 67 74
REMARK SMILES IDX 68 75 76 76 69 77 70 78 74 79 77 80 71 81 72 82 75 83 73 84
REMARK SMILES IDX 52 85 53 86 61 87 54 88 55 89 59 90 62 91 56 92 57 93 60 94
REMARK SMILES IDX 58 95
REMARK H PARENT 82 48 50 59
REMARK Flexibility Score: inf
ROOT
ATOM      1  C   UNL A   1      42.295  18.821  26.956  1.00  0.00     0.275 C 
ENDROOT
BRANCH   1   2
ATOM      2  O   UNL A   1      41.711  20.097  26.626  1.00  0.00    -0.458 OA
BRANCH   2   3
ATOM      3  C   UNL A   1      40.448  20.096  26.125  1.00  0.00     0.338 C 
ATOM      4  O   UNL A   1      39.850  19.149  25.644  1.00  0.00    -0.246 OA
BRANCH   3   5
ATOM      5  C   UNL A   1      39.824  21.416  26.385  1.00  0.00     0.062 A 
ATOM      6  C   UNL A   1      38.078  23.019  25.939  1.00  0.00     0.070 A 
ATOM      7  C   UNL A   1      38.786  24.003  26.633  1.00  0.00     0.028 A 
ATOM      8  C   UNL A   1      38.619  21.741  25.779  1.00  0.00     0.044 A 
ATOM      9  C   UNL A   1      39.950  23.656  27.313  1.00  0.00     0.003 A 
ATOM     10  C   UNL A   1      40.433  22.350  27.232  1.00  0.00     0.016 A 
BRANCH   6  11
ATOM     11  N   UNL A   1      36.795  23.279  25.455  1.00  0.00    -0.196 N 
ATOM     12  C   UNL A   1      34.270  23.564  23.038  1.00  0.00     0.024 C 
ATOM     13  C   UNL A   1      35.000  23.585  24.158  1.00  0.00     0.065 C 
ATOM     14  C   UNL A   1      36.414  23.173  24.114  1.00  0.00     0.280 C 
ATOM     15  C   UNL A   1      34.760  23.933  25.574  1.00  0.00     0.071 C 
ATOM     16  O   UNL A   1      37.030  22.819  23.130  1.00  0.00    -0.267 OA
ATOM     17  N   UNL A   1      35.807  23.700  26.322  1.00  0.00    -0.169 NA
ATOM     18  C   UNL A   1      33.506  24.528  26.120  1.00  0.00     0.069 C 
BRANCH  12  19
ATOM     19  C   UNL A   1      32.895  24.021  22.964  1.00  0.00    -0.021 A 
ATOM     20  C   UNL A   1      31.352  25.843  22.577  1.00  0.00     0.119 A 
ATOM     21  C   UNL A   1      30.310  25.022  23.012  1.00  0.00     0.046 A 
ATOM     22  C   UNL A   1      32.643  25.327  22.530  1.00  0.00     0.054 A 
ATOM     23  C   UNL A   1      30.549  23.697  23.388  1.00  0.00     0.004 A 
ATOM     24  C   UNL A   1      31.847  23.194  23.369  1.00  0.00     0.008 A 
BRANCH  20  25
ATOM     25  O   UNL A   1      31.002  27.128  22.269  1.00  0.00    -0.497 OA
ATOM     26  C   UNL A   1      29.999  27.730  23.080  1.00  0.00     0.278 C 
ENDBRANCH  20  25
ENDBRANCH  12  19
ENDBRANCH   6  11
ENDBRANCH   3   5
ENDBRANCH   2   3
ENDBRANCH   1   2
BRANCH   1  27
ATOM     27  C   UNL A   1      43.359  18.416  25.933  1.00  0.00     0.275 C 
BRANCH  27  28
ATOM     28  O   UNL A   1      43.402  19.365  24.851  1.00  0.00    -0.458 OA
BRANCH  28  29
ATOM     29  C   UNL A   1      44.625  19.570  24.314  1.00  0.00     0.338 C 
ATOM     30  O   UNL A   1      45.294  18.795  23.654  1.00  0.00    -0.246 OA
BRANCH  29  31
ATOM     31  C   UNL A   1      45.026  20.966  24.527  1.00  0.00     0.060 A 
ATOM     32  C   UNL A   1      45.605  21.277  25.748  1.00  0.00     0.016 A 
ATOM     33  C   UNL A   1      44.681  21.982  23.645  1.00  0.00     0.016 A 
ATOM     34  C   UNL A   1      45.729  22.594  26.166  1.00  0.00     0.010 A 
ATOM     35  C   UNL A   1      44.928  23.314  24.010  1.00  0.00     0.010 A 
ATOM     36  C   UNL A   1      45.417  23.639  25.292  1.00  0.00    -0.014 A 
BRANCH  36  37
ATOM     37  C   UNL A   1      45.574  25.054  25.738  1.00  0.00     0.031 A 
ATOM     38  C   UNL A   1      46.903  25.749  25.597  1.00  0.00     0.074 A 
ATOM     39  C   UNL A   1      44.525  25.730  26.249  1.00  0.00     0.049 A 
ATOM     40  N   UNL A   1      47.297  26.898  26.087  1.00  0.00    -0.248 NA
ATOM     41  C   UNL A   1      47.933  25.052  24.810  1.00  0.00     0.031 C 
ATOM     42  C   UNL A   1      43.163  25.209  26.389  1.00  0.00     0.029 A 
ATOM     43  N   UNL A   1      44.436  27.008  26.749  1.00  0.00    -0.354 N 
ATOM     44  C   UNL A   1      48.632  27.030  25.722  1.00  0.00     0.074 A 
ATOM     45  C   UNL A   1      48.985  25.841  24.978  1.00  0.00     0.031 C 
ATOM     46  C   UNL A   1      42.373  26.163  26.900  1.00  0.00     0.029 A 
ATOM     47  C   UNL A   1      43.188  27.324  27.229  1.00  0.00     0.049 A 
ATOM     48  H   UNL A   1      45.195  27.637  26.762  1.00  0.00     0.167 HD
ATOM     49  C   UNL A   1      49.481  28.054  25.986  1.00  0.00     0.037 A 
ATOM     50  C   UNL A   1      42.754  28.401  27.912  1.00  0.00     0.037 A 
ATOM     51  C   UNL A   1      49.106  29.255  26.687  1.00  0.00     0.049 A 
ATOM     52  C   UNL A   1      43.731  29.492  28.248  1.00  0.00     0.074 A 
ATOM     53  C   UNL A   1      49.887  30.358  26.988  1.00  0.00     0.029 A 
ATOM     54  N   UNL A   1      47.838  29.516  27.190  1.00  0.00    -0.354 N 
ATOM     55  N   UNL A   1      45.000  29.590  27.938  1.00  0.00    -0.248 NA
ATOM     56  C   UNL A   1      43.218  30.614  29.045  1.00  0.00     0.031 C 
ATOM     57  C   UNL A   1      49.109  31.259  27.723  1.00  0.00     0.029 A 
ATOM     58  C   UNL A   1      47.824  30.749  27.822  1.00  0.00     0.049 A 
ATOM     59  H   UNL A   1      47.064  28.912  27.110  1.00  0.00     0.167 HD
ATOM     60  C   UNL A   1      45.433  30.793  28.479  1.00  0.00     0.074 A 
ATOM     61  C   UNL A   1      44.284  31.398  29.121  1.00  0.00     0.031 C 
ATOM     62  C   UNL A   1      46.671  31.344  28.448  1.00  0.00     0.037 A 
BRANCH  49  63
ATOM     63  C   UNL A   1      50.914  27.902  25.555  1.00  0.00     0.064 A 
ATOM     64  C   UNL A   1      51.920  27.476  26.435  1.00  0.00     0.173 A 
ATOM     65  C   UNL A   1      51.278  28.156  24.222  1.00  0.00     0.173 A 
ATOM     66  F   UNL A   1      51.632  27.229  27.721  1.00  0.00    -0.203 F 
ATOM     67  C   UNL A   1      53.239  27.342  26.006  1.00  0.00     0.198 A 
ATOM     68  C   UNL A   1      52.590  27.987  23.788  1.00  0.00     0.198 A 
ATOM     69  F   UNL A   1      50.356  28.557  23.334  1.00  0.00    -0.203 F 
ATOM     70  F   UNL A   1      54.192  26.986  26.879  1.00  0.00    -0.200 F 
ATOM     71  C   UNL A   1      53.571  27.589  24.682  1.00  0.00     0.200 A 
ATOM     72  F   UNL A   1      52.904  28.210  22.505  1.00  0.00    -0.200 F 
ATOM     73  F   UNL A   1      54.839  27.451  24.270  1.00  0.00    -0.200 F 
ENDBRANCH  49  63
BRANCH  50  74
ATOM     74  C   UNL A   1      41.339  28.472  28.368  1.00  0.00     0.064 A 
ATOM     75  C   UNL A   1      40.974  28.070  29.660  1.00  0.00     0.173 A 
ATOM     76  C   UNL A   1      40.321  28.941  27.521  1.00  0.00     0.173 A 
ATOM     77  F   UNL A   1      41.904  27.590  30.499  1.00  0.00    -0.203 F 
ATOM     78  C   UNL A   1      39.646  28.116  30.081  1.00  0.00     0.198 A 
ATOM     79  C   UNL A   1      39.000  29.023  27.956  1.00  0.00     0.198 A 
ATOM     80  F   UNL A   1      40.613  29.337  26.274  1.00  0.00    -0.203 F 
ATOM     81  F   UNL A   1      39.318  27.677  31.304  1.00  0.00    -0.200 F 
ATOM     82  C   UNL A   1      38.662  28.602  29.232  1.00  0.00     0.200 A 
ATOM     83  F   UNL A   1      38.057  29.510  27.139  1.00  0.00    -0.200 F 
ATOM     84  F   UNL A   1      37.387  28.654  29.641  1.00  0.00    -0.200 F 
ENDBRANCH  50  74
BRANCH  62  85
ATOM     85  C   UNL A   1      46.835  32.695  29.085  1.00  0.00     0.064 A 
ATOM     86  C   UNL A   1      47.224  32.840  30.424  1.00  0.00     0.173 A 
ATOM     87  C   UNL A   1      46.630  33.860  28.330  1.00  0.00     0.173 A 
ATOM     88  F   UNL A   1      47.417  31.757  31.192  1.00  0.00    -0.203 F 
ATOM     89  C   UNL A   1      47.373  34.102  30.993  1.00  0.00     0.198 A 
ATOM     90  C   UNL A   1      46.814  35.120  28.892  1.00  0.00     0.198 A 
ATOM     91  F   UNL A   1      46.262  33.778  27.042  1.00  0.00    -0.203 F 
ATOM     92  F   UNL A   1      47.692  34.217  32.290  1.00  0.00    -0.200 F 
ATOM     93  C   UNL A   1      47.177  35.240  30.225  1.00  0.00     0.200 A 
ATOM     94  F   UNL A   1      46.638  36.218  28.144  1.00  0.00    -0.200 F 
ATOM     95  F   UNL A   1      47.329  36.454  30.773  1.00  0.00    -0.200 F 
ENDBRANCH  62  85
ENDBRANCH  36  37
ENDBRANCH  29  31
ENDBRANCH  28  29
ENDBRANCH  27  28
ENDBRANCH   1  27
TORSDOF 14
ENDMDL
MODEL 3
REMARK VINA RESULT:     -12.2      4.355      9.546
REMARK SMILES COc1cccc(/C=C2/C(=O)N(c3cccc(C(=O)OCCOC(=O)c4ccc(-c5c6nc(c(-c7c(F)c(F)c(F)c(F)c7F)c7ccc([nH]7)c(-c7c(F)c(F)c(F)c(F)c7F)c7nc(c(-c8c(F)c(F)c(F)c(F)c8F)c8ccc5[nH]8)C=C7)C=C6)cc4)c3)N=C2C)c1
REMARK SMILES IDX 21 1 20 2 18 3 19 4 17 5 13 6 14 7 89 8 15 9 16 10 12 11
REMARK SMILES IDX 8 12 9 13 10 14 91 15 11 16 90 17 92 18 7 19 3 20 4 21 93 22
REMARK SMILES IDX 5 23 6 24 2 25 1 26 22 27 23 28 24 29 25 30 26 31 27 32
REMARK SMILES IDX 88 33 28 34 87 35 29 36 30 37 31 38 81 39 32 40 86 41 80 42
REMARK SMILES IDX 82 43 33 44 85 45 79 46 78 47 34 49 66 50 46 51 65 52 47 53
REMARK SMILES IDX 50 54 64 55 83 56 48 57 49 58 63 60 84 61 51 62 35 63 36 64
REMARK SMILES IDX 44 65 37 66 38 67 42 68 45 69 39 70 40 71 43 72 41 73 67 74
REMARK SMILES IDX 68 75 76 76 69 77 70 78 74 79 77 80 71 81 72 82 75 83 73 84
REMARK SMILES IDX 52 85 53 86 61 87 54 88 55 89 59 90 62 91 56 92 57 93 60 94
REMARK SMILES IDX 58 95
REMARK H PARENT 82 48 50 59
REMARK Flexibility Score: inf
ROOT
ATOM      1  C   UNL A   1      45.292  21.582  24.579  1.00  0.00     0.275 C 
ENDROOT
BRANCH   1   2
ATOM      2  O   UNL A   1      44.540  21.247  25.763  1.00  0.00    -0.458 OA
BRANCH   2   3
ATOM      3  C   UNL A   1      43.391  20.541  25.596  1.00  0.00     0.338 C 
ATOM      4  O   UNL A   1      43.249  19.511  24.961  1.00  0.00    -0.246 OA
BRANCH   3   5
ATOM      5  C   UNL A   1      42.329  21.139  26.442  1.00  0.00     0.062 A 
ATOM      6  C   UNL A   1      40.119  22.080  26.656  1.00  0.00     0.070 A 
ATOM      7  C   UNL A   1      40.422  22.531  27.944  1.00  0.00     0.028 A 
ATOM      8  C   UNL A   1      41.088  21.424  25.893  1.00  0.00     0.044 A 
ATOM      9  C   UNL A   1      41.633  22.172  28.527  1.00  0.00     0.003 A 
ATOM     10  C   UNL A   1      42.559  21.429  27.793  1.00  0.00     0.016 A 
BRANCH   6  11
ATOM     11  N   UNL A   1      38.828  22.218  26.143  1.00  0.00    -0.196 N 
ATOM     12  C   UNL A   1      35.883  23.910  25.271  1.00  0.00     0.024 C 
ATOM     13  C   UNL A   1      36.831  22.998  25.512  1.00  0.00     0.065 C 
ATOM     14  C   UNL A   1      38.113  23.418  26.105  1.00  0.00     0.280 C 
ATOM     15  C   UNL A   1      36.970  21.538  25.325  1.00  0.00     0.071 C 
ATOM     16  O   UNL A   1      38.417  24.546  26.435  1.00  0.00    -0.267 OA
ATOM     17  N   UNL A   1      38.162  21.112  25.654  1.00  0.00    -0.169 NA
ATOM     18  C   UNL A   1      35.893  20.616  24.865  1.00  0.00     0.069 C 
BRANCH  12  19
ATOM     19  C   UNL A   1      34.564  23.585  24.762  1.00  0.00    -0.021 A 
ATOM     20  C   UNL A   1      32.322  22.800  25.214  1.00  0.00     0.119 A 
ATOM     21  C   UNL A   1      32.089  22.743  23.839  1.00  0.00     0.046 A 
ATOM     22  C   UNL A   1      33.555  23.248  25.672  1.00  0.00     0.054 A 
ATOM     23  C   UNL A   1      33.073  23.138  22.928  1.00  0.00     0.004 A 
ATOM     24  C   UNL A   1      34.318  23.556  23.390  1.00  0.00     0.008 A 
BRANCH  20  25
ATOM     25  O   UNL A   1      31.298  22.356  26.005  1.00  0.00    -0.497 OA
ATOM     26  C   UNL A   1      30.454  23.350  26.577  1.00  0.00     0.278 C 
ENDBRANCH  20  25
ENDBRANCH  12  19
ENDBRANCH   6  11
ENDBRANCH   3   5
ENDBRANCH   2   3
ENDBRANCH   1   2
BRANCH   1  27
ATOM     27  C   UNL A   1      44.597  22.681  23.772  1.00  0.00     0.275 C 
BRANCH  27  28
ATOM     28  O   UNL A   1      43.919  23.597  24.652  1.00  0.00    -0.458 OA
BRANCH  28  29
ATOM     29  C   UNL A   1      44.628  24.696  24.995  1.00  0.00     0.338 C 
ATOM     30  O   UNL A   1      45.698  25.068  24.548  1.00  0.00    -0.246 OA
BRANCH  29  31
ATOM     31  C   UNL A   1      43.850  25.506  25.941  1.00  0.00     0.060 A 
ATOM     32  C   UNL A   1      44.114  26.867  25.971  1.00  0.00     0.016 A 
ATOM     33  C   UNL A   1      43.025  24.938  26.903  1.00  0.00     0.016 A 
ATOM     34  C   UNL A   1      43.673  27.657  27.022  1.00  0.00     0.010 A 
ATOM     35  C   UNL A   1      42.468  25.761  27.894  1.00  0.00     0.010 A 
ATOM     36  C   UNL A   1      42.819  27.123  27.991  1.00  0.00    -0.014 A 
BRANCH  36  37
ATOM     37  C   UNL A   1      42.329  27.983  29.108  1.00  0.00     0.031 A 
ATOM     38  C   UNL A   1      43.118  28.085  30.387  1.00  0.00     0.074 A 
ATOM     39  C   UNL A   1      41.190  28.693  28.974  1.00  0.00     0.049 A 
ATOM     40  N   UNL A   1      42.778  28.620  31.533  1.00  0.00    -0.248 NA
ATOM     41  C   UNL A   1      44.465  27.492  30.381  1.00  0.00     0.031 C 
ATOM     42  C   UNL A   1      40.354  28.744  27.772  1.00  0.00     0.029 A 
ATOM     43  N   UNL A   1      40.534  29.515  29.861  1.00  0.00    -0.354 N 
ATOM     44  C   UNL A   1      43.839  28.375  32.397  1.00  0.00     0.074 A 
ATOM     45  C   UNL A   1      44.830  27.635  31.648  1.00  0.00     0.031 C 
ATOM     46  C   UNL A   1      39.324  29.574  27.982  1.00  0.00     0.029 A 
ATOM     47  C   UNL A   1      39.360  30.030  29.365  1.00  0.00     0.049 A 
ATOM     48  H   UNL A   1      40.872  29.714  30.764  1.00  0.00     0.167 HD
ATOM     49  C   UNL A   1      43.969  28.738  33.697  1.00  0.00     0.037 A 
ATOM     50  C   UNL A   1      38.388  30.741  29.966  1.00  0.00     0.037 A 
ATOM     51  C   UNL A   1      42.997  29.516  34.421  1.00  0.00     0.049 A 
ATOM     52  C   UNL A   1      38.526  31.075  31.425  1.00  0.00     0.074 A 
ATOM     53  C   UNL A   1      43.044  29.952  35.734  1.00  0.00     0.029 A 
ATOM     54  N   UNL A   1      41.803  29.985  33.888  1.00  0.00    -0.354 N 
ATOM     55  N   UNL A   1      39.510  30.802  32.246  1.00  0.00    -0.248 NA
ATOM     56  C   UNL A   1      37.409  31.799  32.045  1.00  0.00     0.031 C 
ATOM     57  C   UNL A   1      41.854  30.633  36.013  1.00  0.00     0.029 A 
ATOM     58  C   UNL A   1      41.094  30.681  34.855  1.00  0.00     0.049 A 
ATOM     59  H   UNL A   1      41.503  29.842  32.961  1.00  0.00     0.167 HD
ATOM     60  C   UNL A   1      39.145  31.343  33.472  1.00  0.00     0.074 A 
ATOM     61  C   UNL A   1      37.856  31.975  33.280  1.00  0.00     0.031 C 
ATOM     62  C   UNL A   1      39.817  31.315  34.649  1.00  0.00     0.037 A 
BRANCH  49  63
ATOM     63  C   UNL A   1      45.187  28.259  34.438  1.00  0.00     0.064 A 
ATOM     64  C   UNL A   1      46.359  29.025  34.528  1.00  0.00     0.173 A 
ATOM     65  C   UNL A   1      45.165  27.020  35.101  1.00  0.00     0.173 A 
ATOM     66  F   UNL A   1      46.440  30.211  33.906  1.00  0.00    -0.203 F 
ATOM     67  C   UNL A   1      47.472  28.556  35.224  1.00  0.00     0.198 A 
ATOM     68  C   UNL A   1      46.266  26.571  35.826  1.00  0.00     0.198 A 
ATOM     69  F   UNL A   1      44.068  26.249  35.057  1.00  0.00    -0.203 F 
ATOM     70  F   UNL A   1      48.598  29.282  35.250  1.00  0.00    -0.200 F 
ATOM     71  C   UNL A   1      47.421  27.334  35.878  1.00  0.00     0.200 A 
ATOM     72  F   UNL A   1      46.208  25.398  36.470  1.00  0.00    -0.200 F 
ATOM     73  F   UNL A   1      48.489  26.889  36.555  1.00  0.00    -0.200 F 
ENDBRANCH  49  63
BRANCH  50  74
ATOM     74  C   UNL A   1      37.174  31.137  29.202  1.00  0.00     0.064 A 
ATOM     75  C   UNL A   1      36.166  30.208  28.912  1.00  0.00     0.173 A 
ATOM     76  C   UNL A   1      36.997  32.453  28.742  1.00  0.00     0.173 A 
ATOM     77  F   UNL A   1      36.298  28.933  29.305  1.00  0.00    -0.203 F 
ATOM     78  C   UNL A   1      35.038  30.573  28.178  1.00  0.00     0.198 A 
ATOM     79  C   UNL A   1      35.852  32.826  28.042  1.00  0.00     0.198 A 
ATOM     80  F   UNL A   1      37.930  33.383  28.990  1.00  0.00    -0.203 F 
ATOM     81  F   UNL A   1      34.115  29.652  27.870  1.00  0.00    -0.200 F 
ATOM     82  C   UNL A   1      34.878  31.884  27.752  1.00  0.00     0.200 A 
ATOM     83  F   UNL A   1      35.693  34.097  27.649  1.00  0.00    -0.200 F 
ATOM     84  F   UNL A   1      33.790  32.235  27.053  1.00  0.00    -0.200 F 
ENDBRANCH  50  74
BRANCH  62  85
ATOM     85  C   UNL A   1      39.192  32.032  35.811  1.00  0.00     0.064 A 
ATOM     86  C   UNL A   1      38.347  31.377  36.718  1.00  0.00     0.173 A 
ATOM     87  C   UNL A   1      39.471  33.389  36.036  1.00  0.00     0.173 A 
ATOM     88  F   UNL A   1      38.036  30.084  36.539  1.00  0.00    -0.203 F 
ATOM     89  C   UNL A   1      37.781  32.061  37.790  1.00  0.00     0.198 A 
ATOM     90  C   UNL A   1      38.931  34.061  37.128  1.00  0.00     0.198 A 
ATOM     91  F   UNL A   1      40.278  34.062  35.201  1.00  0.00    -0.203 F 
ATOM     92  F   UNL A   1      36.932  31.429  38.613  1.00  0.00    -0.200 F 
ATOM     93  C   UNL A   1      38.080  33.399  37.999  1.00  0.00     0.200 A 
ATOM     94  F   UNL A   1      39.234  35.349  37.337  1.00  0.00    -0.200 F 
ATOM     95  F   UNL A   1      37.540  34.054  39.037  1.00  0.00    -0.200 F 
ENDBRANCH  62  85
ENDBRANCH  36  37
ENDBRANCH  29  31
ENDBRANCH  28  29
ENDBRANCH  27  28
ENDBRANCH   1  27
TORSDOF 14
ENDMDL
