MODEL 1
REMARK VINA RESULT:     -13.9      0.000      0.000
REMARK SMILES C[C@]1(C(=O)OCCOC(=O)c2ccc(-c3c4nc(c(-c5c(F)c(F)c(F)c(F)c5F)c5ccc([nH]5)c(-c5c(F)c(F)c(F)c(F)c5F)c5nc(c(-c6c(F)c(F)c(F)c(F)c6F)c6ccc3[nH]6)C=C5)C=C4)cc2)[NH2+]C2(C(=O)c3ccccc3C2=O)[C@@H]2C(=O)N(c3ccccc3)C(=O)[C@H]21
REMARK SMILES IDX 7 1 6 2 5 3 3 4 4 5 2 6 1 7 74 8 98 9 75 10 86 13 96 14
REMARK SMILES IDX 76 15 84 16 87 17 89 18 97 19 77 20 78 21 83 22 85 23 88 24
REMARK SMILES IDX 79 25 82 26 80 27 81 28 90 29 91 30 95 31 92 32 94 33 93 34
REMARK SMILES IDX 8 35 9 36 10 37 11 38 12 39 73 40 13 41 72 42 14 43 15 44
REMARK SMILES IDX 16 45 66 46 17 47 71 48 65 49 67 50 18 51 70 52 64 53 63 54
REMARK SMILES IDX 19 56 51 57 31 58 50 59 32 60 35 61 49 62 68 63 33 64 34 65
REMARK SMILES IDX 48 67 69 68 36 69 20 70 21 71 29 72 22 73 23 74 27 75 30 76
REMARK SMILES IDX 24 77 25 78 28 79 26 80 52 81 53 82 61 83 54 84 55 85 59 86
REMARK SMILES IDX 62 87 56 88 57 89 60 90 58 91 37 92 38 93 46 94 39 95 40 96
REMARK SMILES IDX 44 97 47 98 41 99 42 100 45 101 43 102
REMARK H PARENT 74 11 74 12 67 55 35 66
REMARK Flexibility Score: inf
ROOT
ATOM      1  C   UNL A   1      39.018  20.095  25.440  1.00  0.00     0.275 C 
ENDROOT
BRANCH   1   2
ATOM      2  C   UNL A   1      38.017  20.633  24.419  1.00  0.00     0.274 C 
BRANCH   2   3
ATOM      3  O   UNL A   1      37.722  22.025  24.648  1.00  0.00    -0.457 OA
BRANCH   3   4
ATOM      4  C   UNL A   1      36.705  22.584  23.933  1.00  0.00     0.368 C 
ATOM      5  O   UNL A   1      36.647  22.578  22.710  1.00  0.00    -0.245 OA
BRANCH   4   6
ATOM      6  C   UNL A   1      35.681  23.336  24.845  1.00  0.00     0.205 C 
ATOM      7  C   UNL A   1      36.339  23.860  26.126  1.00  0.00     0.093 C 
ATOM      8  N   UNL A   1      34.992  24.482  24.133  1.00  0.00    -0.313 N 
ATOM      9  C   UNL A   1      34.531  22.419  25.164  1.00  0.00     0.172 C 
ATOM     10  C   UNL A   1      33.545  24.090  23.905  1.00  0.00     0.237 C 
ATOM     11  H   UNL A   1      35.448  24.659  23.239  1.00  0.00     0.348 HD
ATOM     12  H   UNL A   1      35.045  25.332  24.696  1.00  0.00     0.348 HD
ATOM     13  C   UNL A   1      33.644  22.603  23.949  1.00  0.00     0.177 C 
ATOM     14  C   UNL A   1      34.611  20.940  25.253  1.00  0.00     0.244 C 
ATOM     15  C   UNL A   1      32.645  24.774  24.936  1.00  0.00     0.232 C 
ATOM     16  C   UNL A   1      33.053  24.667  22.578  1.00  0.00     0.232 C 
ATOM     17  C   UNL A   1      32.645  21.532  24.202  1.00  0.00     0.245 C 
ATOM     18  N   UNL A   1      33.404  20.485  24.735  1.00  0.00    -0.250 N 
ATOM     19  O   UNL A   1      35.542  20.332  25.751  1.00  0.00    -0.273 OA
ATOM     20  O   UNL A   1      32.665  24.639  26.146  1.00  0.00    -0.286 OA
ATOM     21  C   UNL A   1      31.802  25.741  24.241  1.00  0.00     0.036 A 
ATOM     22  C   UNL A   1      32.049  25.696  22.875  1.00  0.00     0.036 A 
ATOM     23  O   UNL A   1      33.393  24.358  21.450  1.00  0.00    -0.286 OA
ATOM     24  O   UNL A   1      31.474  21.580  23.872  1.00  0.00    -0.273 OA
ATOM     25  C   UNL A   1      30.903  26.634  24.796  1.00  0.00     0.013 A 
ATOM     26  C   UNL A   1      31.403  26.549  22.001  1.00  0.00     0.013 A 
ATOM     27  C   UNL A   1      30.239  27.500  23.927  1.00  0.00     0.001 A 
ATOM     28  C   UNL A   1      30.488  27.460  22.541  1.00  0.00     0.001 A 
BRANCH  18  29
ATOM     29  C   UNL A   1      33.104  19.111  24.626  1.00  0.00     0.052 A 
ATOM     30  C   UNL A   1      32.677  18.380  25.743  1.00  0.00     0.027 A 
ATOM     31  C   UNL A   1      33.375  18.426  23.435  1.00  0.00     0.027 A 
ATOM     32  C   UNL A   1      32.546  16.992  25.684  1.00  0.00     0.002 A 
ATOM     33  C   UNL A   1      33.282  17.031  23.389  1.00  0.00     0.002 A 
ATOM     34  C   UNL A   1      32.868  16.318  24.511  1.00  0.00     0.000 A 
ENDBRANCH  18  29
ENDBRANCH   4   6
ENDBRANCH   3   4
ENDBRANCH   2   3
ENDBRANCH   1   2
BRANCH   1  35
ATOM     35  O   UNL A   1      39.234  21.054  26.490  1.00  0.00    -0.458 OA
BRANCH  35  36
ATOM     36  C   UNL A   1      40.403  20.919  27.157  1.00  0.00     0.338 C 
ATOM     37  O   UNL A   1      41.049  19.907  27.352  1.00  0.00    -0.246 OA
BRANCH  36  38
ATOM     38  C   UNL A   1      40.901  22.258  27.487  1.00  0.00     0.060 A 
ATOM     39  C   UNL A   1      41.841  22.471  28.487  1.00  0.00     0.016 A 
ATOM     40  C   UNL A   1      40.440  23.318  26.712  1.00  0.00     0.016 A 
ATOM     41  C   UNL A   1      42.292  23.775  28.715  1.00  0.00     0.010 A 
ATOM     42  C   UNL A   1      40.906  24.607  26.911  1.00  0.00     0.010 A 
ATOM     43  C   UNL A   1      41.826  24.849  27.928  1.00  0.00    -0.014 A 
BRANCH  43  44
ATOM     44  C   UNL A   1      42.340  26.222  28.122  1.00  0.00     0.031 A 
ATOM     45  C   UNL A   1      43.661  26.641  27.546  1.00  0.00     0.074 A 
ATOM     46  C   UNL A   1      41.617  27.070  28.876  1.00  0.00     0.049 A 
ATOM     47  N   UNL A   1      44.217  27.826  27.545  1.00  0.00    -0.248 NA
ATOM     48  C   UNL A   1      44.481  25.594  26.915  1.00  0.00     0.031 C 
ATOM     49  C   UNL A   1      40.382  26.721  29.580  1.00  0.00     0.029 A 
ATOM     50  N   UNL A   1      41.805  28.396  29.164  1.00  0.00    -0.354 N 
ATOM     51  C   UNL A   1      45.439  27.669  26.905  1.00  0.00     0.074 A 
ATOM     52  C   UNL A   1      45.582  26.264  26.599  1.00  0.00     0.031 C 
ATOM     53  C   UNL A   1      39.884  27.823  30.161  1.00  0.00     0.029 A 
ATOM     54  C   UNL A   1      40.775  28.946  29.888  1.00  0.00     0.049 A 
ATOM     55  H   UNL A   1      42.599  28.904  28.881  1.00  0.00     0.167 HD
ATOM     56  C   UNL A   1      46.338  28.624  26.570  1.00  0.00     0.037 A 
ATOM     57  C   UNL A   1      40.563  30.221  30.258  1.00  0.00     0.037 A 
ATOM     58  C   UNL A   1      46.169  30.022  26.869  1.00  0.00     0.049 A 
ATOM     59  C   UNL A   1      41.554  31.270  29.838  1.00  0.00     0.074 A 
ATOM     60  C   UNL A   1      46.982  31.084  26.521  1.00  0.00     0.029 A 
ATOM     61  N   UNL A   1      45.107  30.547  27.594  1.00  0.00    -0.354 N 
ATOM     62  N   UNL A   1      42.654  31.132  29.139  1.00  0.00    -0.248 NA
ATOM     63  C   UNL A   1      41.271  32.651  30.249  1.00  0.00     0.031 C 
ATOM     64  C   UNL A   1      46.434  32.249  27.067  1.00  0.00     0.029 A 
ATOM     65  C   UNL A   1      45.254  31.919  27.716  1.00  0.00     0.049 A 
ATOM     66  H   UNL A   1      44.362  30.023  27.965  1.00  0.00     0.167 HD
ATOM     67  C   UNL A   1      43.188  32.406  29.010  1.00  0.00     0.074 A 
ATOM     68  C   UNL A   1      42.276  33.308  29.686  1.00  0.00     0.031 C 
ATOM     69  C   UNL A   1      44.331  32.794  28.394  1.00  0.00     0.037 A 
BRANCH  56  70
ATOM     70  C   UNL A   1      47.562  28.203  25.807  1.00  0.00     0.064 A 
ATOM     71  C   UNL A   1      48.790  28.000  26.457  1.00  0.00     0.173 A 
ATOM     72  C   UNL A   1      47.496  27.927  24.434  1.00  0.00     0.173 A 
ATOM     73  F   UNL A   1      48.909  28.251  27.769  1.00  0.00    -0.203 F 
ATOM     74  C   UNL A   1      49.909  27.555  25.757  1.00  0.00     0.198 A 
ATOM     75  C   UNL A   1      48.610  27.454  23.742  1.00  0.00     0.198 A 
ATOM     76  F   UNL A   1      46.346  28.094  23.762  1.00  0.00    -0.203 F 
ATOM     77  F   UNL A   1      51.077  27.400  26.395  1.00  0.00    -0.200 F 
ATOM     78  C   UNL A   1      49.816  27.273  24.403  1.00  0.00     0.200 A 
ATOM     79  F   UNL A   1      48.515  27.165  22.438  1.00  0.00    -0.200 F 
ATOM     80  F   UNL A   1      50.888  26.825  23.736  1.00  0.00    -0.200 F 
ENDBRANCH  56  70
BRANCH  57  81
ATOM     81  C   UNL A   1      39.316  30.572  30.983  1.00  0.00     0.064 A 
ATOM     82  C   UNL A   1      39.267  30.527  32.383  1.00  0.00     0.173 A 
ATOM     83  C   UNL A   1      38.170  31.011  30.303  1.00  0.00     0.173 A 
ATOM     84  F   UNL A   1      40.334  30.104  33.077  1.00  0.00    -0.203 F 
ATOM     85  C   UNL A   1      38.117  30.899  33.076  1.00  0.00     0.198 A 
ATOM     86  C   UNL A   1      37.030  31.409  30.998  1.00  0.00     0.198 A 
ATOM     87  F   UNL A   1      38.171  31.085  28.964  1.00  0.00    -0.203 F 
ATOM     88  F   UNL A   1      38.089  30.821  34.413  1.00  0.00    -0.200 F 
ATOM     89  C   UNL A   1      37.003  31.348  32.383  1.00  0.00     0.200 A 
ATOM     90  F   UNL A   1      35.962  31.861  30.326  1.00  0.00    -0.200 F 
ATOM     91  F   UNL A   1      35.902  31.723  33.051  1.00  0.00    -0.200 F 
ENDBRANCH  57  81
BRANCH  69  92
ATOM     92  C   UNL A   1      44.662  34.257  28.416  1.00  0.00     0.064 A 
ATOM     93  C   UNL A   1      44.128  35.139  27.467  1.00  0.00     0.173 A 
ATOM     94  C   UNL A   1      45.458  34.791  29.440  1.00  0.00     0.173 A 
ATOM     95  F   UNL A   1      43.371  34.674  26.462  1.00  0.00    -0.203 F 
ATOM     96  C   UNL A   1      44.390  36.505  27.535  1.00  0.00     0.198 A 
ATOM     97  C   UNL A   1      45.694  36.159  29.522  1.00  0.00     0.198 A 
ATOM     98  F   UNL A   1      45.985  33.988  30.377  1.00  0.00    -0.203 F 
ATOM     99  F   UNL A   1      43.897  37.325  26.598  1.00  0.00    -0.200 F 
ATOM    100  C   UNL A   1      45.163  37.014  28.568  1.00  0.00     0.200 A 
ATOM    101  F   UNL A   1      46.428  36.653  30.528  1.00  0.00    -0.200 F 
ATOM    102  F   UNL A   1      45.399  38.331  28.641  1.00  0.00    -0.200 F 
ENDBRANCH  69  92
ENDBRANCH  43  44
ENDBRANCH  36  38
ENDBRANCH  35  36
ENDBRANCH   1  35
TORSDOF 12
ENDMDL
MODEL 2
REMARK VINA RESULT:     -13.8      4.420     10.437
REMARK SMILES C[C@]1(C(=O)OCCOC(=O)c2ccc(-c3c4nc(c(-c5c(F)c(F)c(F)c(F)c5F)c5ccc([nH]5)c(-c5c(F)c(F)c(F)c(F)c5F)c5nc(c(-c6c(F)c(F)c(F)c(F)c6F)c6ccc3[nH]6)C=C5)C=C4)cc2)[NH2+]C2(C(=O)c3ccccc3C2=O)[C@@H]2C(=O)N(c3ccccc3)C(=O)[C@H]21
REMARK SMILES IDX 7 1 6 2 5 3 3 4 4 5 2 6 1 7 74 8 98 9 75 10 86 13 96 14
REMARK SMILES IDX 76 15 84 16 87 17 89 18 97 19 77 20 78 21 83 22 85 23 88 24
REMARK SMILES IDX 79 25 82 26 80 27 81 28 90 29 91 30 95 31 92 32 94 33 93 34
REMARK SMILES IDX 8 35 9 36 10 37 11 38 12 39 73 40 13 41 72 42 14 43 15 44
REMARK SMILES IDX 16 45 66 46 17 47 71 48 65 49 67 50 18 51 70 52 64 53 63 54
REMARK SMILES IDX 19 56 51 57 31 58 50 59 32 60 35 61 49 62 68 63 33 64 34 65
REMARK SMILES IDX 48 67 69 68 36 69 20 70 21 71 29 72 22 73 23 74 27 75 30 76
REMARK SMILES IDX 24 77 25 78 28 79 26 80 52 81 53 82 61 83 54 84 55 85 59 86
REMARK SMILES IDX 62 87 56 88 57 89 60 90 58 91 37 92 38 93 46 94 39 95 40 96
REMARK SMILES IDX 44 97 47 98 41 99 42 100 45 101 43 102
REMARK H PARENT 74 11 74 12 67 55 35 66
REMARK Flexibility Score: inf
ROOT
ATOM      1  C   UNL A   1      31.957  32.004  26.881  1.00  0.00     0.275 C 
ENDROOT
BRANCH   1   2
ATOM      2  C   UNL A   1      31.406  30.631  27.262  1.00  0.00     0.274 C 
BRANCH   2   3
ATOM      3  O   UNL A   1      32.440  29.626  27.263  1.00  0.00    -0.457 OA
BRANCH   3   4
ATOM      4  C   UNL A   1      32.057  28.321  27.180  1.00  0.00     0.368 C 
ATOM      5  O   UNL A   1      31.161  27.829  27.854  1.00  0.00    -0.245 OA
BRANCH   4   6
ATOM      6  C   UNL A   1      32.966  27.495  26.213  1.00  0.00     0.205 C 
ATOM      7  C   UNL A   1      34.412  28.003  26.221  1.00  0.00     0.093 C 
ATOM      8  N   UNL A   1      32.957  26.012  26.521  1.00  0.00    -0.313 N 
ATOM      9  C   UNL A   1      32.387  27.537  24.825  1.00  0.00     0.172 C 
ATOM     10  C   UNL A   1      32.208  25.306  25.407  1.00  0.00     0.237 C 
ATOM     11  H   UNL A   1      32.490  25.846  27.412  1.00  0.00     0.348 HD
ATOM     12  H   UNL A   1      33.912  25.658  26.587  1.00  0.00     0.348 HD
ATOM     13  C   UNL A   1      31.366  26.419  24.883  1.00  0.00     0.177 C 
ATOM     14  C   UNL A   1      31.579  28.650  24.265  1.00  0.00     0.244 C 
ATOM     15  C   UNL A   1      33.196  24.648  24.443  1.00  0.00     0.232 C 
ATOM     16  C   UNL A   1      31.432  24.118  25.974  1.00  0.00     0.232 C 
ATOM     17  C   UNL A   1      30.677  26.638  23.584  1.00  0.00     0.245 C 
ATOM     18  N   UNL A   1      30.628  28.031  23.463  1.00  0.00    -0.250 N 
ATOM     19  O   UNL A   1      31.808  29.830  24.461  1.00  0.00    -0.273 OA
ATOM     20  O   UNL A   1      34.041  25.193  23.756  1.00  0.00    -0.286 OA
ATOM     21  C   UNL A   1      33.056  23.200  24.558  1.00  0.00     0.036 A 
ATOM     22  C   UNL A   1      32.046  22.888  25.459  1.00  0.00     0.036 A 
ATOM     23  O   UNL A   1      30.466  24.134  26.715  1.00  0.00    -0.286 OA
ATOM     24  O   UNL A   1      30.182  25.760  22.902  1.00  0.00    -0.273 OA
ATOM     25  C   UNL A   1      33.809  22.223  23.931  1.00  0.00     0.013 A 
ATOM     26  C   UNL A   1      31.745  21.577  25.773  1.00  0.00     0.013 A 
ATOM     27  C   UNL A   1      33.515  20.893  24.234  1.00  0.00     0.001 A 
ATOM     28  C   UNL A   1      32.494  20.572  25.149  1.00  0.00     0.001 A 
BRANCH  18  29
ATOM     29  C   UNL A   1      29.643  28.763  22.765  1.00  0.00     0.052 A 
ATOM     30  C   UNL A   1      30.007  29.742  21.831  1.00  0.00     0.027 A 
ATOM     31  C   UNL A   1      28.292  28.626  23.108  1.00  0.00     0.027 A 
ATOM     32  C   UNL A   1      29.048  30.586  21.268  1.00  0.00     0.002 A 
ATOM     33  C   UNL A   1      27.339  29.498  22.574  1.00  0.00     0.002 A 
ATOM     34  C   UNL A   1      27.717  30.475  21.656  1.00  0.00     0.000 A 
ENDBRANCH  18  29
ENDBRANCH   4   6
ENDBRANCH   3   4
ENDBRANCH   2   3
ENDBRANCH   1   2
BRANCH   1  35
ATOM     35  O   UNL A   1      33.395  32.000  26.917  1.00  0.00    -0.458 OA
BRANCH  35  36
ATOM     36  C   UNL A   1      33.952  32.992  27.648  1.00  0.00     0.338 C 
ATOM     37  O   UNL A   1      33.492  34.088  27.909  1.00  0.00    -0.246 OA
BRANCH  36  38
ATOM     38  C   UNL A   1      35.181  32.477  28.259  1.00  0.00     0.060 A 
ATOM     39  C   UNL A   1      36.335  33.244  28.357  1.00  0.00     0.016 A 
ATOM     40  C   UNL A   1      35.135  31.197  28.804  1.00  0.00     0.016 A 
ATOM     41  C   UNL A   1      37.455  32.692  28.986  1.00  0.00     0.010 A 
ATOM     42  C   UNL A   1      36.229  30.656  29.458  1.00  0.00     0.010 A 
ATOM     43  C   UNL A   1      37.407  31.395  29.541  1.00  0.00    -0.014 A 
BRANCH  43  44
ATOM     44  C   UNL A   1      38.565  30.825  30.260  1.00  0.00     0.031 A 
ATOM     45  C   UNL A   1      38.832  31.175  31.695  1.00  0.00     0.074 A 
ATOM     46  C   UNL A   1      39.406  30.026  29.579  1.00  0.00     0.049 A 
ATOM     47  N   UNL A   1      39.747  30.697  32.499  1.00  0.00    -0.248 NA
ATOM     48  C   UNL A   1      37.985  32.215  32.301  1.00  0.00     0.031 C 
ATOM     49  C   UNL A   1      39.301  29.723  28.150  1.00  0.00     0.029 A 
ATOM     50  N   UNL A   1      40.500  29.313  29.993  1.00  0.00    -0.354 N 
ATOM     51  C   UNL A   1      39.577  31.366  33.704  1.00  0.00     0.074 A 
ATOM     52  C   UNL A   1      38.525  32.338  33.507  1.00  0.00     0.031 C 
ATOM     53  C   UNL A   1      40.248  28.831  27.822  1.00  0.00     0.029 A 
ATOM     54  C   UNL A   1      41.036  28.519  29.010  1.00  0.00     0.049 A 
ATOM     55  H   UNL A   1      40.866  29.365  30.906  1.00  0.00     0.167 HD
ATOM     56  C   UNL A   1      40.218  31.156  34.878  1.00  0.00     0.037 A 
ATOM     57  C   UNL A   1      42.031  27.616  29.073  1.00  0.00     0.037 A 
ATOM     58  C   UNL A   1      41.253  30.171  35.058  1.00  0.00     0.049 A 
ATOM     59  C   UNL A   1      42.699  27.370  30.396  1.00  0.00     0.074 A 
ATOM     60  C   UNL A   1      41.924  29.826  36.216  1.00  0.00     0.029 A 
ATOM     61  N   UNL A   1      41.764  29.374  34.043  1.00  0.00    -0.354 N 
ATOM     62  N   UNL A   1      42.460  27.928  31.558  1.00  0.00    -0.248 NA
ATOM     63  C   UNL A   1      43.767  26.362  30.422  1.00  0.00     0.031 C 
ATOM     64  C   UNL A   1      42.869  28.846  35.896  1.00  0.00     0.029 A 
ATOM     65  C   UNL A   1      42.755  28.547  34.546  1.00  0.00     0.049 A 
ATOM     66  H   UNL A   1      41.467  29.393  33.105  1.00  0.00     0.167 HD
ATOM     67  C   UNL A   1      43.332  27.332  32.456  1.00  0.00     0.074 A 
ATOM     68  C   UNL A   1      44.092  26.350  31.708  1.00  0.00     0.031 C 
ATOM     69  C   UNL A   1      43.496  27.578  33.779  1.00  0.00     0.037 A 
BRANCH  56  70
ATOM     70  C   UNL A   1      39.795  31.969  36.068  1.00  0.00     0.064 A 
ATOM     71  C   UNL A   1      40.478  33.144  36.425  1.00  0.00     0.173 A 
ATOM     72  C   UNL A   1      38.660  31.621  36.813  1.00  0.00     0.173 A 
ATOM     73  F   UNL A   1      41.572  33.522  35.747  1.00  0.00    -0.203 F 
ATOM     74  C   UNL A   1      40.050  33.927  37.494  1.00  0.00     0.198 A 
ATOM     75  C   UNL A   1      38.218  32.423  37.865  1.00  0.00     0.198 A 
ATOM     76  F   UNL A   1      37.964  30.515  36.512  1.00  0.00    -0.203 F 
ATOM     77  F   UNL A   1      40.738  35.026  37.834  1.00  0.00    -0.200 F 
ATOM     78  C   UNL A   1      38.915  33.572  38.207  1.00  0.00     0.200 A 
ATOM     79  F   UNL A   1      37.111  32.088  38.541  1.00  0.00    -0.200 F 
ATOM     80  F   UNL A   1      38.493  34.338  39.222  1.00  0.00    -0.200 F 
ENDBRANCH  56  70
BRANCH  57  81
ATOM     81  C   UNL A   1      42.375  26.824  27.866  1.00  0.00     0.064 A 
ATOM     82  C   UNL A   1      43.335  27.289  26.956  1.00  0.00     0.173 A 
ATOM     83  C   UNL A   1      41.800  25.568  27.624  1.00  0.00     0.173 A 
ATOM     84  F   UNL A   1      43.905  28.489  27.140  1.00  0.00    -0.203 F 
ATOM     85  C   UNL A   1      43.700  26.533  25.845  1.00  0.00     0.198 A 
ATOM     86  C   UNL A   1      42.186  24.800  26.526  1.00  0.00     0.198 A 
ATOM     87  F   UNL A   1      40.887  25.073  28.472  1.00  0.00    -0.203 F 
ATOM     88  F   UNL A   1      44.600  27.013  24.977  1.00  0.00    -0.200 F 
ATOM     89  C   UNL A   1      43.131  25.285  25.636  1.00  0.00     0.200 A 
ATOM     90  F   UNL A   1      41.649  23.586  26.339  1.00  0.00    -0.200 F 
ATOM     91  F   UNL A   1      43.496  24.549  24.576  1.00  0.00    -0.200 F 
ENDBRANCH  57  81
BRANCH  69  92
ATOM     92  C   UNL A   1      44.530  26.772  34.507  1.00  0.00     0.064 A 
ATOM     93  C   UNL A   1      45.838  27.246  34.676  1.00  0.00     0.173 A 
ATOM     94  C   UNL A   1      44.187  25.551  35.108  1.00  0.00     0.173 A 
ATOM     95  F   UNL A   1      46.215  28.403  34.110  1.00  0.00    -0.203 F 
ATOM     96  C   UNL A   1      46.772  26.520  35.409  1.00  0.00     0.198 A 
ATOM     97  C   UNL A   1      45.115  24.842  35.864  1.00  0.00     0.198 A 
ATOM     98  F   UNL A   1      42.945  25.059  34.983  1.00  0.00    -0.203 F 
ATOM     99  F   UNL A   1      48.026  26.975  35.528  1.00  0.00    -0.200 F 
ATOM    100  C   UNL A   1      46.406  25.325  36.011  1.00  0.00     0.200 A 
ATOM    101  F   UNL A   1      44.757  23.696  36.459  1.00  0.00    -0.200 F 
ATOM    102  F   UNL A   1      47.303  24.636  36.731  1.00  0.00    -0.200 F 
ENDBRANCH  69  92
ENDBRANCH  43  44
ENDBRANCH  36  38
ENDBRANCH  35  36
ENDBRANCH   1  35
TORSDOF 12
ENDMDL
MODEL 3
REMARK VINA RESULT:     -13.7      4.736     10.597
REMARK SMILES C[C@]1(C(=O)OCCOC(=O)c2ccc(-c3c4nc(c(-c5c(F)c(F)c(F)c(F)c5F)c5ccc([nH]5)c(-c5c(F)c(F)c(F)c(F)c5F)c5nc(c(-c6c(F)c(F)c(F)c(F)c6F)c6ccc3[nH]6)C=C5)C=C4)cc2)[NH2+]C2(C(=O)c3ccccc3C2=O)[C@@H]2C(=O)N(c3ccccc3)C(=O)[C@H]21
REMARK SMILES IDX 7 1 6 2 5 3 3 4 4 5 2 6 1 7 74 8 98 9 75 10 86 13 96 14
REMARK SMILES IDX 76 15 84 16 87 17 89 18 97 19 77 20 78 21 83 22 85 23 88 24
REMARK SMILES IDX 79 25 82 26 80 27 81 28 90 29 91 30 95 31 92 32 94 33 93 34
REMARK SMILES IDX 8 35 9 36 10 37 11 38 12 39 73 40 13 41 72 42 14 43 15 44
REMARK SMILES IDX 16 45 66 46 17 47 71 48 65 49 67 50 18 51 70 52 64 53 63 54
REMARK SMILES IDX 19 56 51 57 31 58 50 59 32 60 35 61 49 62 68 63 33 64 34 65
REMARK SMILES IDX 48 67 69 68 36 69 20 70 21 71 29 72 22 73 23 74 27 75 30 76
REMARK SMILES IDX 24 77 25 78 28 79 26 80 52 81 53 82 61 83 54 84 55 85 59 86
REMARK SMILES IDX 62 87 56 88 57 89 60 90 58 91 37 92 38 93 46 94 39 95 40 96
REMARK SMILES IDX 44 97 47 98 41 99 42 100 45 101 43 102
REMARK H PARENT 74 11 74 12 67 55 35 66
REMARK Flexibility Score: inf
ROOT
ATOM      1  C   UNL A   1      33.106  32.138  27.458  1.00  0.00     0.275 C 
ENDROOT
BRANCH   1   2
ATOM      2  C   UNL A   1      32.161  30.955  27.252  1.00  0.00     0.274 C 
BRANCH   2   3
ATOM      3  O   UNL A   1      32.793  29.705  27.592  1.00  0.00    -0.457 OA
BRANCH   3   4
ATOM      4  C   UNL A   1      32.162  28.554  27.226  1.00  0.00     0.368 C 
ATOM      5  O   UNL A   1      31.098  28.179  27.702  1.00  0.00    -0.245 OA
BRANCH   4   6
ATOM      6  C   UNL A   1      33.006  27.708  26.217  1.00  0.00     0.205 C 
ATOM      7  C   UNL A   1      34.467  28.169  26.174  1.00  0.00     0.093 C 
ATOM      8  N   UNL A   1      32.959  26.224  26.513  1.00  0.00    -0.313 N 
ATOM      9  C   UNL A   1      32.375  27.784  24.854  1.00  0.00     0.172 C 
ATOM     10  C   UNL A   1      32.145  25.554  25.422  1.00  0.00     0.237 C 
ATOM     11  H   UNL A   1      32.521  26.064  27.420  1.00  0.00     0.348 HD
ATOM     12  H   UNL A   1      33.904  25.838  26.539  1.00  0.00     0.348 HD
ATOM     13  C   UNL A   1      31.320  26.699  24.941  1.00  0.00     0.177 C 
ATOM     14  C   UNL A   1      31.583  28.928  24.335  1.00  0.00     0.244 C 
ATOM     15  C   UNL A   1      33.073  24.873  24.415  1.00  0.00     0.232 C 
ATOM     16  C   UNL A   1      31.353  24.386  26.008  1.00  0.00     0.232 C 
ATOM     17  C   UNL A   1      30.590  26.954  23.672  1.00  0.00     0.245 C 
ATOM     18  N   UNL A   1      30.582  28.349  23.565  1.00  0.00    -0.250 N 
ATOM     19  O   UNL A   1      31.858  30.098  24.532  1.00  0.00    -0.273 OA
ATOM     20  O   UNL A   1      33.908  25.397  23.701  1.00  0.00    -0.286 OA
ATOM     21  C   UNL A   1      32.889  23.429  24.522  1.00  0.00     0.036 A 
ATOM     22  C   UNL A   1      31.905  23.142  25.459  1.00  0.00     0.036 A 
ATOM     23  O   UNL A   1      30.417  24.426  26.786  1.00  0.00    -0.286 OA
ATOM     24  O   UNL A   1      30.040  26.099  23.002  1.00  0.00    -0.273 OA
ATOM     25  C   UNL A   1      33.585  22.436  23.858  1.00  0.00     0.013 A 
ATOM     26  C   UNL A   1      31.573  21.838  25.773  1.00  0.00     0.013 A 
ATOM     27  C   UNL A   1      33.259  21.112  24.161  1.00  0.00     0.001 A 
ATOM     28  C   UNL A   1      32.264  20.815  25.112  1.00  0.00     0.001 A 
BRANCH  18  29
ATOM     29  C   UNL A   1      29.596  29.119  22.912  1.00  0.00     0.052 A 
ATOM     30  C   UNL A   1      29.923  29.907  21.800  1.00  0.00     0.027 A 
ATOM     31  C   UNL A   1      28.311  29.224  23.459  1.00  0.00     0.027 A 
ATOM     32  C   UNL A   1      28.998  30.801  21.259  1.00  0.00     0.002 A 
ATOM     33  C   UNL A   1      27.399  30.149  22.942  1.00  0.00     0.002 A 
ATOM     34  C   UNL A   1      27.743  30.934  21.843  1.00  0.00     0.000 A 
ENDBRANCH  18  29
ENDBRANCH   4   6
ENDBRANCH   3   4
ENDBRANCH   2   3
ENDBRANCH   1   2
BRANCH   1  35
ATOM     35  O   UNL A   1      32.362  33.358  27.619  1.00  0.00    -0.458 OA
BRANCH  35  36
ATOM     36  C   UNL A   1      32.960  34.296  28.388  1.00  0.00     0.338 C 
ATOM     37  O   UNL A   1      32.523  35.375  28.740  1.00  0.00    -0.246 OA
BRANCH  36  38
ATOM     38  C   UNL A   1      34.211  33.734  28.908  1.00  0.00     0.060 A 
ATOM     39  C   UNL A   1      35.455  34.193  28.497  1.00  0.00     0.016 A 
ATOM     40  C   UNL A   1      34.109  32.754  29.891  1.00  0.00     0.016 A 
ATOM     41  C   UNL A   1      36.599  33.629  29.068  1.00  0.00     0.010 A 
ATOM     42  C   UNL A   1      35.237  32.214  30.485  1.00  0.00     0.010 A 
ATOM     43  C   UNL A   1      36.496  32.637  30.066  1.00  0.00    -0.014 A 
BRANCH  43  44
ATOM     44  C   UNL A   1      37.698  32.076  30.719  1.00  0.00     0.031 A 
ATOM     45  C   UNL A   1      38.115  32.528  32.088  1.00  0.00     0.074 A 
ATOM     46  C   UNL A   1      38.440  31.190  30.031  1.00  0.00     0.049 A 
ATOM     47  N   UNL A   1      39.086  32.078  32.840  1.00  0.00    -0.248 NA
ATOM     48  C   UNL A   1      37.368  33.650  32.682  1.00  0.00     0.031 C 
ATOM     49  C   UNL A   1      38.186  30.778  28.649  1.00  0.00     0.029 A 
ATOM     50  N   UNL A   1      39.542  30.466  30.400  1.00  0.00    -0.354 N 
ATOM     51  C   UNL A   1      39.057  32.848  33.995  1.00  0.00     0.074 A 
ATOM     52  C   UNL A   1      38.026  33.844  33.817  1.00  0.00     0.031 C 
ATOM     53  C   UNL A   1      39.065  29.823  28.309  1.00  0.00     0.029 A 
ATOM     54  C   UNL A   1      39.953  29.573  29.440  1.00  0.00     0.049 A 
ATOM     55  H   UNL A   1      39.997  30.575  31.266  1.00  0.00     0.167 HD
ATOM     56  C   UNL A   1      39.802  32.704  35.117  1.00  0.00     0.037 A 
ATOM     57  C   UNL A   1      40.916  28.636  29.486  1.00  0.00     0.037 A 
ATOM     58  C   UNL A   1      40.813  31.693  35.282  1.00  0.00     0.049 A 
ATOM     59  C   UNL A   1      41.700  28.468  30.756  1.00  0.00     0.074 A 
ATOM     60  C   UNL A   1      41.581  31.413  36.397  1.00  0.00     0.029 A 
ATOM     61  N   UNL A   1      41.195  30.796  34.293  1.00  0.00    -0.354 N 
ATOM     62  N   UNL A   1      41.595  29.127  31.884  1.00  0.00    -0.248 NA
ATOM     63  C   UNL A   1      42.729  27.420  30.766  1.00  0.00     0.031 C 
ATOM     64  C   UNL A   1      42.455  30.371  36.072  1.00  0.00     0.029 A 
ATOM     65  C   UNL A   1      42.200  29.970  34.769  1.00  0.00     0.049 A 
ATOM     66  H   UNL A   1      40.809  30.753  33.390  1.00  0.00     0.167 HD
ATOM     67  C   UNL A   1      42.529  28.567  32.744  1.00  0.00     0.074 A 
ATOM     68  C   UNL A   1      43.177  27.497  32.012  1.00  0.00     0.031 C 
ATOM     69  C   UNL A   1      42.828  28.911  34.020  1.00  0.00     0.037 A 
BRANCH  56  70
ATOM     70  C   UNL A   1      39.525  33.628  36.269  1.00  0.00     0.064 A 
ATOM     71  C   UNL A   1      38.724  33.222  37.350  1.00  0.00     0.173 A 
ATOM     72  C   UNL A   1      40.120  34.896  36.336  1.00  0.00     0.173 A 
ATOM     73  F   UNL A   1      38.129  32.021  37.335  1.00  0.00    -0.203 F 
ATOM     74  C   UNL A   1      38.516  34.059  38.443  1.00  0.00     0.198 A 
ATOM     75  C   UNL A   1      39.933  35.719  37.446  1.00  0.00     0.198 A 
ATOM     76  F   UNL A   1      40.903  35.332  35.338  1.00  0.00    -0.203 F 
ATOM     77  F   UNL A   1      37.721  33.661  39.446  1.00  0.00    -0.200 F 
ATOM     78  C   UNL A   1      39.128  35.302  38.496  1.00  0.00     0.200 A 
ATOM     79  F   UNL A   1      40.539  36.912  37.503  1.00  0.00    -0.200 F 
ATOM     80  F   UNL A   1      38.942  36.097  39.558  1.00  0.00    -0.200 F 
ENDBRANCH  56  70
BRANCH  57  81
ATOM     81  C   UNL A   1      41.114  27.736  28.322  1.00  0.00     0.064 A 
ATOM     82  C   UNL A   1      40.384  26.545  28.207  1.00  0.00     0.173 A 
ATOM     83  C   UNL A   1      41.988  28.069  27.277  1.00  0.00     0.173 A 
ATOM     84  F   UNL A   1      39.543  26.178  29.185  1.00  0.00    -0.203 F 
ATOM     85  C   UNL A   1      40.527  25.716  27.096  1.00  0.00     0.198 A 
ATOM     86  C   UNL A   1      42.110  27.254  26.154  1.00  0.00     0.198 A 
ATOM     87  F   UNL A   1      42.699  29.205  27.333  1.00  0.00    -0.203 F 
ATOM     88  F   UNL A   1      39.837  24.570  27.025  1.00  0.00    -0.200 F 
ATOM     89  C   UNL A   1      41.384  26.076  26.067  1.00  0.00     0.200 A 
ATOM     90  F   UNL A   1      42.924  27.615  25.152  1.00  0.00    -0.200 F 
ATOM     91  F   UNL A   1      41.508  25.288  24.990  1.00  0.00    -0.200 F 
ENDBRANCH  57  81
BRANCH  69  92
ATOM     92  C   UNL A   1      43.899  28.122  34.713  1.00  0.00     0.064 A 
ATOM     93  C   UNL A   1      45.230  28.560  34.732  1.00  0.00     0.173 A 
ATOM     94  C   UNL A   1      43.575  26.960  35.429  1.00  0.00     0.173 A 
ATOM     95  F   UNL A   1      45.590  29.659  34.051  1.00  0.00    -0.203 F 
ATOM     96  C   UNL A   1      46.204  27.854  35.432  1.00  0.00     0.198 A 
ATOM     97  C   UNL A   1      44.545  26.274  36.152  1.00  0.00     0.198 A 
ATOM     98  F   UNL A   1      42.313  26.506  35.449  1.00  0.00    -0.203 F 
ATOM     99  F   UNL A   1      47.477  28.271  35.408  1.00  0.00    -0.200 F 
ATOM    100  C   UNL A   1      45.859  26.719  36.150  1.00  0.00     0.200 A 
ATOM    101  F   UNL A   1      44.208  25.186  36.858  1.00  0.00    -0.200 F 
ATOM    102  F   UNL A   1      46.795  26.051  36.838  1.00  0.00    -0.200 F 
ENDBRANCH  69  92
ENDBRANCH  43  44
ENDBRANCH  36  38
ENDBRANCH  35  36
ENDBRANCH   1  35
TORSDOF 12
ENDMDL
