MODEL 1
REMARK VINA RESULT:     -11.8      0.000      0.000
REMARK SMILES O=C(NC[C@@H]1CCCO1)C(=O)N/N=C/c1ccc(C(=O)OCCOC(=O)c2ccc(-c3c4nc(c(-c5c(F)c(F)c(F)c(F)c5F)c5ccc([nH]5)c(-c5c(F)c(F)c(F)c(F)c5F)c5nc(c(-c6c(F)c(F)c(F)c(F)c6F)c6ccc3[nH]6)C=C5)C=C4)cc2)cc1
REMARK SMILES IDX 21 1 19 2 20 3 18 4 15 5 16 6 91 7 17 8 90 9 14 10 13 11
REMARK SMILES IDX 12 12 10 13 11 14 2 16 1 17 3 18 4 20 5 21 6 22 9 23 7 24
REMARK SMILES IDX 8 25 22 26 23 27 24 28 25 29 26 30 27 31 28 32 89 33 29 34
REMARK SMILES IDX 88 35 30 36 31 37 32 38 82 39 33 40 87 41 81 42 83 43 34 44
REMARK SMILES IDX 86 45 80 46 79 47 35 49 67 50 47 51 66 52 48 53 51 54 65 55
REMARK SMILES IDX 84 56 49 57 50 58 64 60 85 61 52 62 36 63 37 64 45 65 38 66
REMARK SMILES IDX 39 67 43 68 46 69 40 70 41 71 44 72 42 73 68 74 69 75 77 76
REMARK SMILES IDX 70 77 71 78 75 79 78 80 72 81 73 82 76 83 74 84 53 85 54 86
REMARK SMILES IDX 62 87 55 88 56 89 60 90 63 91 57 92 58 93 61 94 59 95
REMARK H PARENT 12 15 3 19 83 48 51 59
REMARK Flexibility Score: inf
ROOT
ATOM      1  O   UNL A   1      40.866  20.216  27.029  1.00  0.00    -0.458 OA
ENDROOT
BRANCH   1   2
ATOM      2  C   UNL A   1      40.994  21.529  26.724  1.00  0.00     0.338 C 
ATOM      3  O   UNL A   1      42.041  22.146  26.584  1.00  0.00    -0.246 OA
BRANCH   2   4
ATOM      4  C   UNL A   1      39.690  22.197  26.522  1.00  0.00     0.060 A 
ATOM      5  C   UNL A   1      37.317  23.479  25.781  1.00  0.00    -0.005 A 
ATOM      6  C   UNL A   1      37.542  22.169  25.378  1.00  0.00     0.010 A 
ATOM      7  C   UNL A   1      38.267  24.154  26.564  1.00  0.00     0.010 A 
ATOM      8  C   UNL A   1      38.716  21.536  25.762  1.00  0.00     0.016 A 
ATOM      9  C   UNL A   1      39.467  23.516  26.923  1.00  0.00     0.016 A 
BRANCH   5  10
ATOM     10  C   UNL A   1      35.954  23.994  25.548  1.00  0.00     0.141 C 
ATOM     11  N   UNL A   1      35.006  23.174  25.236  1.00  0.00    -0.180 NA
BRANCH  11  12
ATOM     12  N   UNL A   1      33.871  23.717  24.709  1.00  0.00    -0.239 N 
ATOM     13  C   UNL A   1      32.670  23.891  25.390  1.00  0.00     0.329 C 
ATOM     14  O   UNL A   1      31.928  24.836  25.126  1.00  0.00    -0.262 OA
ATOM     15  H   UNL A   1      33.905  24.010  23.770  1.00  0.00     0.194 HD
BRANCH  13  16
ATOM     16  C   UNL A   1      32.176  22.857  26.409  1.00  0.00     0.311 C 
ATOM     17  O   UNL A   1      31.428  23.213  27.313  1.00  0.00    -0.264 OA
ATOM     18  N   UNL A   1      32.727  21.585  26.397  1.00  0.00    -0.345 N 
ATOM     19  H   UNL A   1      33.370  21.321  27.095  1.00  0.00     0.164 HD
BRANCH  18  20
ATOM     20  C   UNL A   1      32.359  20.646  25.363  1.00  0.00     0.148 C 
BRANCH  20  21
ATOM     21  C   UNL A   1      32.941  19.242  25.433  1.00  0.00     0.137 C 
ATOM     22  C   UNL A   1      34.245  19.114  24.650  1.00  0.00     0.036 C 
ATOM     23  O   UNL A   1      31.985  18.358  24.796  1.00  0.00    -0.376 OA
ATOM     24  C   UNL A   1      34.069  17.815  23.901  1.00  0.00     0.031 C 
ATOM     25  C   UNL A   1      32.587  17.821  23.614  1.00  0.00     0.160 C 
ENDBRANCH  20  21
ENDBRANCH  18  20
ENDBRANCH  13  16
ENDBRANCH  11  12
ENDBRANCH   5  10
ENDBRANCH   2   4
ENDBRANCH   1   2
BRANCH   1  26
ATOM     26  C   UNL A   1      42.114  19.521  27.266  1.00  0.00     0.275 C 
BRANCH  26  27
ATOM     27  C   UNL A   1      42.533  18.619  26.101  1.00  0.00     0.275 C 
BRANCH  27  28
ATOM     28  O   UNL A   1      42.888  19.403  24.949  1.00  0.00    -0.458 OA
BRANCH  28  29
ATOM     29  C   UNL A   1      44.210  19.456  24.670  1.00  0.00     0.338 C 
ATOM     30  O   UNL A   1      44.930  18.548  24.294  1.00  0.00    -0.246 OA
BRANCH  29  31
ATOM     31  C   UNL A   1      44.707  20.835  24.798  1.00  0.00     0.060 A 
ATOM     32  C   UNL A   1      45.425  21.163  25.938  1.00  0.00     0.016 A 
ATOM     33  C   UNL A   1      44.287  21.842  23.935  1.00  0.00     0.016 A 
ATOM     34  C   UNL A   1      45.569  22.491  26.325  1.00  0.00     0.010 A 
ATOM     35  C   UNL A   1      44.578  23.179  24.242  1.00  0.00     0.010 A 
ATOM     36  C   UNL A   1      45.168  23.529  25.472  1.00  0.00    -0.014 A 
BRANCH  36  37
ATOM     37  C   UNL A   1      45.337  24.957  25.886  1.00  0.00     0.031 A 
ATOM     38  C   UNL A   1      46.663  25.656  25.704  1.00  0.00     0.074 A 
ATOM     39  C   UNL A   1      44.299  25.650  26.402  1.00  0.00     0.049 A 
ATOM     40  N   UNL A   1      47.060  26.819  26.162  1.00  0.00    -0.248 NA
ATOM     41  C   UNL A   1      47.685  24.950  24.915  1.00  0.00     0.031 C 
ATOM     42  C   UNL A   1      42.943  25.132  26.596  1.00  0.00     0.029 A 
ATOM     43  N   UNL A   1      44.216  26.948  26.849  1.00  0.00    -0.354 N 
ATOM     44  C   UNL A   1      48.389  26.950  25.775  1.00  0.00     0.074 A 
ATOM     45  C   UNL A   1      48.735  25.748  25.047  1.00  0.00     0.031 C 
ATOM     46  C   UNL A   1      42.155  26.109  27.063  1.00  0.00     0.029 A 
ATOM     47  C   UNL A   1      42.969  27.291  27.316  1.00  0.00     0.049 A 
ATOM     48  H   UNL A   1      44.978  27.572  26.837  1.00  0.00     0.167 HD
ATOM     49  C   UNL A   1      49.242  27.980  26.005  1.00  0.00     0.037 A 
ATOM     50  C   UNL A   1      42.532  28.407  27.929  1.00  0.00     0.037 A 
ATOM     51  C   UNL A   1      48.878  29.202  26.675  1.00  0.00     0.049 A 
ATOM     52  C   UNL A   1      43.505  29.518  28.206  1.00  0.00     0.074 A 
ATOM     53  C   UNL A   1      49.666  30.308  26.947  1.00  0.00     0.029 A 
ATOM     54  N   UNL A   1      47.610  29.490  27.160  1.00  0.00    -0.354 N 
ATOM     55  N   UNL A   1      44.774  29.601  27.895  1.00  0.00    -0.248 NA
ATOM     56  C   UNL A   1      42.987  30.680  28.941  1.00  0.00     0.031 C 
ATOM     57  C   UNL A   1      48.887  31.246  27.632  1.00  0.00     0.029 A 
ATOM     58  C   UNL A   1      47.600  30.748  27.742  1.00  0.00     0.049 A 
ATOM     59  H   UNL A   1      46.833  28.890  27.101  1.00  0.00     0.167 HD
ATOM     60  C   UNL A   1      45.206  30.827  28.381  1.00  0.00     0.074 A 
ATOM     61  C   UNL A   1      44.055  31.464  28.989  1.00  0.00     0.031 C 
ATOM     62  C   UNL A   1      46.445  31.372  28.336  1.00  0.00     0.037 A 
BRANCH  49  63
ATOM     63  C   UNL A   1      50.669  27.820  25.560  1.00  0.00     0.064 A 
ATOM     64  C   UNL A   1      51.066  28.036  24.233  1.00  0.00     0.173 A 
ATOM     65  C   UNL A   1      51.662  27.479  26.493  1.00  0.00     0.173 A 
ATOM     66  F   UNL A   1      50.157  28.351  23.299  1.00  0.00    -0.203 F 
ATOM     67  C   UNL A   1      52.399  27.891  23.851  1.00  0.00     0.198 A 
ATOM     68  C   UNL A   1      52.998  27.365  26.113  1.00  0.00     0.198 A 
ATOM     69  F   UNL A   1      51.341  27.268  27.778  1.00  0.00    -0.203 F 
ATOM     70  F   UNL A   1      52.748  28.057  22.568  1.00  0.00    -0.200 F 
ATOM     71  C   UNL A   1      53.364  27.563  24.792  1.00  0.00     0.200 A 
ATOM     72  F   UNL A   1      53.930  27.061  27.028  1.00  0.00    -0.200 F 
ATOM     73  F   UNL A   1      54.646  27.431  24.423  1.00  0.00    -0.200 F 
ENDBRANCH  49  63
BRANCH  50  74
ATOM     74  C   UNL A   1      41.114  28.504  28.373  1.00  0.00     0.064 A 
ATOM     75  C   UNL A   1      40.730  28.095  29.657  1.00  0.00     0.173 A 
ATOM     76  C   UNL A   1      40.118  29.012  27.524  1.00  0.00     0.173 A 
ATOM     77  F   UNL A   1      41.639  27.577  30.495  1.00  0.00    -0.203 F 
ATOM     78  C   UNL A   1      39.401  28.179  30.069  1.00  0.00     0.198 A 
ATOM     79  C   UNL A   1      38.798  29.128  27.951  1.00  0.00     0.198 A 
ATOM     80  F   UNL A   1      40.432  29.416  26.285  1.00  0.00    -0.203 F 
ATOM     81  F   UNL A   1      39.052  27.739  31.286  1.00  0.00    -0.200 F 
ATOM     82  C   UNL A   1      38.438  28.704  29.221  1.00  0.00     0.200 A 
ATOM     83  F   UNL A   1      37.876  29.654  27.133  1.00  0.00    -0.200 F 
ATOM     84  F   UNL A   1      37.163  28.795  29.623  1.00  0.00    -0.200 F 
ENDBRANCH  50  74
BRANCH  62  85
ATOM     85  C   UNL A   1      46.609  32.740  28.926  1.00  0.00     0.064 A 
ATOM     86  C   UNL A   1      46.976  32.924  30.268  1.00  0.00     0.173 A 
ATOM     87  C   UNL A   1      46.416  33.882  28.135  1.00  0.00     0.173 A 
ATOM     88  F   UNL A   1      47.153  31.863  31.071  1.00  0.00    -0.203 F 
ATOM     89  C   UNL A   1      47.117  34.202  30.802  1.00  0.00     0.198 A 
ATOM     90  C   UNL A   1      46.587  35.158  28.664  1.00  0.00     0.198 A 
ATOM     91  F   UNL A   1      46.068  33.760  26.845  1.00  0.00    -0.203 F 
ATOM     92  F   UNL A   1      47.418  34.354  32.099  1.00  0.00    -0.200 F 
ATOM     93  C   UNL A   1      46.928  35.317  29.998  1.00  0.00     0.200 A 
ATOM     94  F   UNL A   1      46.414  36.234  27.885  1.00  0.00    -0.200 F 
ATOM     95  F   UNL A   1      47.067  36.546  30.514  1.00  0.00    -0.200 F 
ENDBRANCH  62  85
ENDBRANCH  36  37
ENDBRANCH  29  31
ENDBRANCH  28  29
ENDBRANCH  27  28
ENDBRANCH  26  27
ENDBRANCH   1  26
TORSDOF 16
ENDMDL
MODEL 2
REMARK VINA RESULT:     -11.7      7.420     12.878
REMARK SMILES O=C(NC[C@@H]1CCCO1)C(=O)N/N=C/c1ccc(C(=O)OCCOC(=O)c2ccc(-c3c4nc(c(-c5c(F)c(F)c(F)c(F)c5F)c5ccc([nH]5)c(-c5c(F)c(F)c(F)c(F)c5F)c5nc(c(-c6c(F)c(F)c(F)c(F)c6F)c6ccc3[nH]6)C=C5)C=C4)cc2)cc1
REMARK SMILES IDX 21 1 19 2 20 3 18 4 15 5 16 6 91 7 17 8 90 9 14 10 13 11
REMARK SMILES IDX 12 12 10 13 11 14 2 16 1 17 3 18 4 20 5 21 6 22 9 23 7 24
REMARK SMILES IDX 8 25 22 26 23 27 24 28 25 29 26 30 27 31 28 32 89 33 29 34
REMARK SMILES IDX 88 35 30 36 31 37 32 38 82 39 33 40 87 41 81 42 83 43 34 44
REMARK SMILES IDX 86 45 80 46 79 47 35 49 67 50 47 51 66 52 48 53 51 54 65 55
REMARK SMILES IDX 84 56 49 57 50 58 64 60 85 61 52 62 36 63 37 64 45 65 38 66
REMARK SMILES IDX 39 67 43 68 46 69 40 70 41 71 44 72 42 73 68 74 69 75 77 76
REMARK SMILES IDX 70 77 71 78 75 79 78 80 72 81 73 82 76 83 74 84 53 85 54 86
REMARK SMILES IDX 62 87 55 88 56 89 60 90 63 91 57 92 58 93 61 94 59 95
REMARK H PARENT 12 15 3 19 83 48 51 59
REMARK Flexibility Score: inf
ROOT
ATOM      1  O   UNL A   1      34.241  33.239  29.083  1.00  0.00    -0.458 OA
ENDROOT
BRANCH   1   2
ATOM      2  C   UNL A   1      35.137  32.566  28.323  1.00  0.00     0.338 C 
ATOM      3  O   UNL A   1      36.303  32.877  28.122  1.00  0.00    -0.246 OA
BRANCH   2   4
ATOM      4  C   UNL A   1      34.576  31.325  27.746  1.00  0.00     0.060 A 
ATOM      5  C   UNL A   1      33.325  28.947  26.970  1.00  0.00    -0.005 A 
ATOM      6  C   UNL A   1      32.576  30.111  27.076  1.00  0.00     0.010 A 
ATOM      7  C   UNL A   1      34.702  28.963  27.240  1.00  0.00     0.010 A 
ATOM      8  C   UNL A   1      33.208  31.290  27.448  1.00  0.00     0.016 A 
ATOM      9  C   UNL A   1      35.329  30.154  27.645  1.00  0.00     0.016 A 
BRANCH   5  10
ATOM     10  C   UNL A   1      32.641  27.803  26.337  1.00  0.00     0.141 C 
ATOM     11  N   UNL A   1      31.663  28.016  25.520  1.00  0.00    -0.180 NA
BRANCH  11  12
ATOM     12  N   UNL A   1      30.860  26.952  25.231  1.00  0.00    -0.239 N 
ATOM     13  C   UNL A   1      30.590  26.471  23.953  1.00  0.00     0.329 C 
ATOM     14  O   UNL A   1      30.384  25.273  23.762  1.00  0.00    -0.262 OA
ATOM     15  H   UNL A   1      30.438  26.487  25.988  1.00  0.00     0.194 HD
BRANCH  13  16
ATOM     16  C   UNL A   1      30.428  27.423  22.762  1.00  0.00     0.311 C 
ATOM     17  O   UNL A   1      31.024  27.186  21.718  1.00  0.00    -0.264 OA
ATOM     18  N   UNL A   1      29.760  28.624  22.947  1.00  0.00    -0.345 N 
ATOM     19  H   UNL A   1      30.267  29.467  22.992  1.00  0.00     0.164 HD
BRANCH  18  20
ATOM     20  C   UNL A   1      28.321  28.641  23.073  1.00  0.00     0.148 C 
BRANCH  20  21
ATOM     21  C   UNL A   1      27.562  29.799  22.444  1.00  0.00     0.137 C 
ATOM     22  C   UNL A   1      28.391  30.538  21.398  1.00  0.00     0.036 C 
ATOM     23  O   UNL A   1      27.289  30.749  23.505  1.00  0.00    -0.376 OA
ATOM     24  C   UNL A   1      28.140  31.990  21.724  1.00  0.00     0.031 C 
ATOM     25  C   UNL A   1      28.012  31.953  23.227  1.00  0.00     0.160 C 
ENDBRANCH  20  21
ENDBRANCH  18  20
ENDBRANCH  13  16
ENDBRANCH  11  12
ENDBRANCH   5  10
ENDBRANCH   2   4
ENDBRANCH   1   2
BRANCH   1  26
ATOM     26  C   UNL A   1      34.202  34.669  28.856  1.00  0.00     0.275 C 
BRANCH  26  27
ATOM     27  C   UNL A   1      32.916  35.326  29.368  1.00  0.00     0.275 C 
BRANCH  27  28
ATOM     28  O   UNL A   1      33.193  36.186  30.487  1.00  0.00    -0.458 OA
BRANCH  28  29
ATOM     29  C   UNL A   1      32.723  35.755  31.679  1.00  0.00     0.338 C 
ATOM     30  O   UNL A   1      31.582  35.823  32.100  1.00  0.00    -0.246 OA
BRANCH  29  31
ATOM     31  C   UNL A   1      33.787  35.076  32.436  1.00  0.00     0.060 A 
ATOM     32  C   UNL A   1      35.028  35.691  32.505  1.00  0.00     0.016 A 
ATOM     33  C   UNL A   1      33.643  33.764  32.873  1.00  0.00     0.016 A 
ATOM     34  C   UNL A   1      36.163  34.957  32.830  1.00  0.00     0.010 A 
ATOM     35  C   UNL A   1      34.761  33.073  33.360  1.00  0.00     0.010 A 
ATOM     36  C   UNL A   1      36.050  33.636  33.287  1.00  0.00    -0.014 A 
BRANCH  36  37
ATOM     37  C   UNL A   1      37.274  32.853  33.649  1.00  0.00     0.031 A 
ATOM     38  C   UNL A   1      37.938  33.047  34.992  1.00  0.00     0.074 A 
ATOM     39  C   UNL A   1      37.785  31.943  32.793  1.00  0.00     0.049 A 
ATOM     40  N   UNL A   1      39.097  32.605  35.418  1.00  0.00    -0.248 NA
ATOM     41  C   UNL A   1      37.212  33.856  35.983  1.00  0.00     0.031 C 
ATOM     42  C   UNL A   1      37.231  31.605  31.480  1.00  0.00     0.029 A 
ATOM     43  N   UNL A   1      38.882  31.121  32.902  1.00  0.00    -0.354 N 
ATOM     44  C   UNL A   1      39.264  33.135  36.692  1.00  0.00     0.074 A 
ATOM     45  C   UNL A   1      38.091  33.935  36.972  1.00  0.00     0.031 C 
ATOM     46  C   UNL A   1      37.949  30.615  30.934  1.00  0.00     0.029 A 
ATOM     47  C   UNL A   1      39.085  30.324  31.800  1.00  0.00     0.049 A 
ATOM     48  H   UNL A   1      39.467  31.105  33.694  1.00  0.00     0.167 HD
ATOM     49  C   UNL A   1      40.302  32.969  37.551  1.00  0.00     0.037 A 
ATOM     50  C   UNL A   1      40.095  29.491  31.486  1.00  0.00     0.037 A 
ATOM     51  C   UNL A   1      41.439  32.122  37.296  1.00  0.00     0.049 A 
ATOM     52  C   UNL A   1      41.250  29.353  32.437  1.00  0.00     0.074 A 
ATOM     53  C   UNL A   1      42.536  31.879  38.106  1.00  0.00     0.029 A 
ATOM     54  N   UNL A   1      41.616  31.360  36.149  1.00  0.00    -0.354 N 
ATOM     55  N   UNL A   1      41.428  29.912  33.608  1.00  0.00    -0.248 NA
ATOM     56  C   UNL A   1      42.356  28.485  32.009  1.00  0.00     0.031 C 
ATOM     57  C   UNL A   1      43.394  31.003  37.433  1.00  0.00     0.029 A 
ATOM     58  C   UNL A   1      42.810  30.660  36.225  1.00  0.00     0.049 A 
ATOM     59  H   UNL A   1      40.987  31.323  35.393  1.00  0.00     0.167 HD
ATOM     60  C   UNL A   1      42.656  29.454  34.065  1.00  0.00     0.074 A 
ATOM     61  C   UNL A   1      43.169  28.553  33.053  1.00  0.00     0.031 C 
ATOM     62  C   UNL A   1      43.304  29.760  35.215  1.00  0.00     0.037 A 
BRANCH  49  63
ATOM     63  C   UNL A   1      40.277  33.745  38.838  1.00  0.00     0.064 A 
ATOM     64  C   UNL A   1      39.578  33.297  39.967  1.00  0.00     0.173 A 
ATOM     65  C   UNL A   1      41.001  34.944  38.949  1.00  0.00     0.173 A 
ATOM     66  F   UNL A   1      38.860  32.165  39.911  1.00  0.00    -0.203 F 
ATOM     67  C   UNL A   1      39.582  34.032  41.151  1.00  0.00     0.198 A 
ATOM     68  C   UNL A   1      41.027  35.660  40.144  1.00  0.00     0.198 A 
ATOM     69  F   UNL A   1      41.694  35.416  37.903  1.00  0.00    -0.203 F 
ATOM     70  F   UNL A   1      38.867  33.608  42.203  1.00  0.00    -0.200 F 
ATOM     71  C   UNL A   1      40.311  35.208  41.241  1.00  0.00     0.200 A 
ATOM     72  F   UNL A   1      41.744  36.789  40.232  1.00  0.00    -0.200 F 
ATOM     73  F   UNL A   1      40.319  35.910  42.383  1.00  0.00    -0.200 F 
ENDBRANCH  49  63
BRANCH  50  74
ATOM     74  C   UNL A   1      40.083  28.765  30.187  1.00  0.00     0.064 A 
ATOM     75  C   UNL A   1      39.444  27.525  30.059  1.00  0.00     0.173 A 
ATOM     76  C   UNL A   1      40.706  29.298  29.048  1.00  0.00     0.173 A 
ATOM     77  F   UNL A   1      38.858  26.960  31.125  1.00  0.00    -0.203 F 
ATOM     78  C   UNL A   1      39.439  26.841  28.844  1.00  0.00     0.198 A 
ATOM     79  C   UNL A   1      40.669  28.631  27.827  1.00  0.00     0.198 A 
ATOM     80  F   UNL A   1      41.333  30.481  29.115  1.00  0.00    -0.203 F 
ATOM     81  F   UNL A   1      38.859  25.636  28.760  1.00  0.00    -0.200 F 
ATOM     82  C   UNL A   1      40.043  27.398  27.727  1.00  0.00     0.200 A 
ATOM     83  F   UNL A   1      41.238  29.182  26.746  1.00  0.00    -0.200 F 
ATOM     84  F   UNL A   1      40.027  26.744  26.558  1.00  0.00    -0.200 F 
ENDBRANCH  50  74
BRANCH  62  85
ATOM     85  C   UNL A   1      44.620  29.084  35.455  1.00  0.00     0.064 A 
ATOM     86  C   UNL A   1      45.831  29.663  35.047  1.00  0.00     0.173 A 
ATOM     87  C   UNL A   1      44.672  27.851  36.122  1.00  0.00     0.173 A 
ATOM     88  F   UNL A   1      45.832  30.832  34.388  1.00  0.00    -0.203 F 
ATOM     89  C   UNL A   1      47.043  29.017  35.271  1.00  0.00     0.198 A 
ATOM     90  C   UNL A   1      45.888  27.222  36.371  1.00  0.00     0.198 A 
ATOM     91  F   UNL A   1      43.543  27.258  36.536  1.00  0.00    -0.203 F 
ATOM     92  F   UNL A   1      48.183  29.563  34.826  1.00  0.00    -0.200 F 
ATOM     93  C   UNL A   1      47.071  27.802  35.939  1.00  0.00     0.200 A 
ATOM     94  F   UNL A   1      45.916  26.053  37.025  1.00  0.00    -0.200 F 
ATOM     95  F   UNL A   1      48.240  27.183  36.157  1.00  0.00    -0.200 F 
ENDBRANCH  62  85
ENDBRANCH  36  37
ENDBRANCH  29  31
ENDBRANCH  28  29
ENDBRANCH  27  28
ENDBRANCH  26  27
ENDBRANCH   1  26
TORSDOF 16
ENDMDL
MODEL 3
REMARK VINA RESULT:     -11.7      0.337      1.622
REMARK SMILES O=C(NC[C@@H]1CCCO1)C(=O)N/N=C/c1ccc(C(=O)OCCOC(=O)c2ccc(-c3c4nc(c(-c5c(F)c(F)c(F)c(F)c5F)c5ccc([nH]5)c(-c5c(F)c(F)c(F)c(F)c5F)c5nc(c(-c6c(F)c(F)c(F)c(F)c6F)c6ccc3[nH]6)C=C5)C=C4)cc2)cc1
REMARK SMILES IDX 21 1 19 2 20 3 18 4 15 5 16 6 91 7 17 8 90 9 14 10 13 11
REMARK SMILES IDX 12 12 10 13 11 14 2 16 1 17 3 18 4 20 5 21 6 22 9 23 7 24
REMARK SMILES IDX 8 25 22 26 23 27 24 28 25 29 26 30 27 31 28 32 89 33 29 34
REMARK SMILES IDX 88 35 30 36 31 37 32 38 82 39 33 40 87 41 81 42 83 43 34 44
REMARK SMILES IDX 86 45 80 46 79 47 35 49 67 50 47 51 66 52 48 53 51 54 65 55
REMARK SMILES IDX 84 56 49 57 50 58 64 60 85 61 52 62 36 63 37 64 45 65 38 66
REMARK SMILES IDX 39 67 43 68 46 69 40 70 41 71 44 72 42 73 68 74 69 75 77 76
REMARK SMILES IDX 70 77 71 78 75 79 78 80 72 81 73 82 76 83 74 84 53 85 54 86
REMARK SMILES IDX 62 87 55 88 56 89 60 90 63 91 57 92 58 93 61 94 59 95
REMARK H PARENT 12 15 3 19 83 48 51 59
REMARK Flexibility Score: inf
ROOT
ATOM      1  O   UNL A   1      40.793  20.086  26.780  1.00  0.00    -0.458 OA
ENDROOT
BRANCH   1   2
ATOM      2  C   UNL A   1      40.952  21.424  26.652  1.00  0.00     0.338 C 
ATOM      3  O   UNL A   1      42.012  22.035  26.639  1.00  0.00    -0.246 OA
BRANCH   2   4
ATOM      4  C   UNL A   1      39.668  22.137  26.479  1.00  0.00     0.060 A 
ATOM      5  C   UNL A   1      37.324  23.499  25.791  1.00  0.00    -0.005 A 
ATOM      6  C   UNL A   1      37.491  22.180  25.392  1.00  0.00     0.010 A 
ATOM      7  C   UNL A   1      38.318  24.144  26.543  1.00  0.00     0.010 A 
ATOM      8  C   UNL A   1      38.651  21.507  25.750  1.00  0.00     0.016 A 
ATOM      9  C   UNL A   1      39.503  23.466  26.876  1.00  0.00     0.016 A 
BRANCH   5  10
ATOM     10  C   UNL A   1      35.975  24.062  25.589  1.00  0.00     0.141 C 
ATOM     11  N   UNL A   1      34.973  23.268  25.401  1.00  0.00    -0.180 NA
BRANCH  11  12
ATOM     12  N   UNL A   1      33.836  23.822  24.892  1.00  0.00    -0.239 N 
ATOM     13  C   UNL A   1      32.633  23.965  25.579  1.00  0.00     0.329 C 
ATOM     14  O   UNL A   1      31.886  24.914  25.346  1.00  0.00    -0.262 OA
ATOM     15  H   UNL A   1      33.868  24.148  23.964  1.00  0.00     0.194 HD
BRANCH  13  16
ATOM     16  C   UNL A   1      32.145  22.894  26.561  1.00  0.00     0.311 C 
ATOM     17  O   UNL A   1      31.469  23.228  27.528  1.00  0.00    -0.264 OA
ATOM     18  N   UNL A   1      32.628  21.600  26.439  1.00  0.00    -0.345 N 
ATOM     19  H   UNL A   1      33.294  21.262  27.081  1.00  0.00     0.164 HD
BRANCH  18  20
ATOM     20  C   UNL A   1      32.154  20.747  25.375  1.00  0.00     0.148 C 
BRANCH  20  21
ATOM     21  C   UNL A   1      33.090  19.668  24.853  1.00  0.00     0.137 C 
ATOM     22  C   UNL A   1      32.690  19.172  23.467  1.00  0.00     0.036 C 
ATOM     23  O   UNL A   1      32.969  18.536  25.751  1.00  0.00    -0.376 OA
ATOM     24  C   UNL A   1      32.813  17.672  23.591  1.00  0.00     0.031 C 
ATOM     25  C   UNL A   1      32.397  17.445  25.023  1.00  0.00     0.160 C 
ENDBRANCH  20  21
ENDBRANCH  18  20
ENDBRANCH  13  16
ENDBRANCH  11  12
ENDBRANCH   5  10
ENDBRANCH   2   4
ENDBRANCH   1   2
BRANCH   1  26
ATOM     26  C   UNL A   1      41.961  19.376  27.257  1.00  0.00     0.275 C 
BRANCH  26  27
ATOM     27  C   UNL A   1      42.621  18.508  26.182  1.00  0.00     0.275 C 
BRANCH  27  28
ATOM     28  O   UNL A   1      42.878  19.275  24.993  1.00  0.00    -0.458 OA
BRANCH  28  29
ATOM     29  C   UNL A   1      44.174  19.339  24.614  1.00  0.00     0.338 C 
ATOM     30  O   UNL A   1      44.868  18.441  24.170  1.00  0.00    -0.246 OA
BRANCH  29  31
ATOM     31  C   UNL A   1      44.674  20.719  24.726  1.00  0.00     0.060 A 
ATOM     32  C   UNL A   1      45.426  21.049  25.842  1.00  0.00     0.016 A 
ATOM     33  C   UNL A   1      44.227  21.724  23.874  1.00  0.00     0.016 A 
ATOM     34  C   UNL A   1      45.581  22.377  26.223  1.00  0.00     0.010 A 
ATOM     35  C   UNL A   1      44.526  23.062  24.171  1.00  0.00     0.010 A 
ATOM     36  C   UNL A   1      45.153  23.414  25.382  1.00  0.00    -0.014 A 
BRANCH  36  37
ATOM     37  C   UNL A   1      45.333  24.843  25.789  1.00  0.00     0.031 A 
ATOM     38  C   UNL A   1      46.657  25.538  25.579  1.00  0.00     0.074 A 
ATOM     39  C   UNL A   1      44.307  25.539  26.324  1.00  0.00     0.049 A 
ATOM     40  N   UNL A   1      47.066  26.701  26.027  1.00  0.00    -0.248 NA
ATOM     41  C   UNL A   1      47.662  24.828  24.772  1.00  0.00     0.031 C 
ATOM     42  C   UNL A   1      42.955  25.025  26.546  1.00  0.00     0.029 A 
ATOM     43  N   UNL A   1      44.236  26.838  26.769  1.00  0.00    -0.354 N 
ATOM     44  C   UNL A   1      48.387  26.829  25.613  1.00  0.00     0.074 A 
ATOM     45  C   UNL A   1      48.716  25.624  24.882  1.00  0.00     0.031 C 
ATOM     46  C   UNL A   1      42.178  26.005  27.026  1.00  0.00     0.029 A 
ATOM     47  C   UNL A   1      42.999  27.186  27.259  1.00  0.00     0.049 A 
ATOM     48  H   UNL A   1      44.999  27.460  26.740  1.00  0.00     0.167 HD
ATOM     49  C   UNL A   1      49.247  27.857  25.823  1.00  0.00     0.037 A 
ATOM     50  C   UNL A   1      42.577  28.304  27.878  1.00  0.00     0.037 A 
ATOM     51  C   UNL A   1      48.899  29.082  26.497  1.00  0.00     0.049 A 
ATOM     52  C   UNL A   1      43.558  29.413  28.133  1.00  0.00     0.074 A 
ATOM     53  C   UNL A   1      49.695  30.186  26.751  1.00  0.00     0.029 A 
ATOM     54  N   UNL A   1      47.641  29.373  27.006  1.00  0.00    -0.354 N 
ATOM     55  N   UNL A   1      44.821  29.493  27.797  1.00  0.00    -0.248 NA
ATOM     56  C   UNL A   1      43.058  30.578  28.875  1.00  0.00     0.031 C 
ATOM     57  C   UNL A   1      48.932  31.128  27.449  1.00  0.00     0.029 A 
ATOM     58  C   UNL A   1      47.645  30.632  27.586  1.00  0.00     0.049 A 
ATOM     59  H   UNL A   1      46.862  28.775  26.964  1.00  0.00     0.167 HD
ATOM     60  C   UNL A   1      45.265  30.719  28.272  1.00  0.00     0.074 A 
ATOM     61  C   UNL A   1      44.128  31.360  28.900  1.00  0.00     0.031 C 
ATOM     62  C   UNL A   1      46.504  31.261  28.201  1.00  0.00     0.037 A 
BRANCH  49  63
ATOM     63  C   UNL A   1      50.665  27.692  25.351  1.00  0.00     0.064 A 
ATOM     64  C   UNL A   1      51.703  27.323  26.218  1.00  0.00     0.173 A 
ATOM     65  C   UNL A   1      50.978  27.871  23.993  1.00  0.00     0.173 A 
ATOM     66  F   UNL A   1      51.461  27.151  27.526  1.00  0.00    -0.203 F 
ATOM     67  C   UNL A   1      53.007  27.167  25.749  1.00  0.00     0.198 A 
ATOM     68  C   UNL A   1      52.276  27.685  23.524  1.00  0.00     0.198 A 
ATOM     69  F   UNL A   1      50.023  28.217  23.118  1.00  0.00    -0.203 F 
ATOM     70  F   UNL A   1      53.991  26.860  26.605  1.00  0.00    -0.200 F 
ATOM     71  C   UNL A   1      53.291  27.340  24.403  1.00  0.00     0.200 A 
ATOM     72  F   UNL A   1      52.545  27.839  22.220  1.00  0.00    -0.200 F 
ATOM     73  F   UNL A   1      54.544  27.183  23.954  1.00  0.00    -0.200 F 
ENDBRANCH  49  63
BRANCH  50  74
ATOM     74  C   UNL A   1      41.169  28.406  28.349  1.00  0.00     0.064 A 
ATOM     75  C   UNL A   1      40.163  28.912  27.515  1.00  0.00     0.173 A 
ATOM     76  C   UNL A   1      40.800  27.995  29.640  1.00  0.00     0.173 A 
ATOM     77  F   UNL A   1      40.470  29.343  26.283  1.00  0.00    -0.203 F 
ATOM     78  C   UNL A   1      38.846  29.015  27.958  1.00  0.00     0.198 A 
ATOM     79  C   UNL A   1      39.477  28.066  30.069  1.00  0.00     0.198 A 
ATOM     80  F   UNL A   1      41.723  27.505  30.480  1.00  0.00    -0.203 F 
ATOM     81  F   UNL A   1      37.912  29.544  27.156  1.00  0.00    -0.200 F 
ATOM     82  C   UNL A   1      38.501  28.583  29.230  1.00  0.00     0.200 A 
ATOM     83  F   UNL A   1      39.147  27.630  31.291  1.00  0.00    -0.200 F 
ATOM     84  F   UNL A   1      37.232  28.672  29.650  1.00  0.00    -0.200 F 
ENDBRANCH  50  74
BRANCH  62  85
ATOM     85  C   UNL A   1      46.683  32.630  28.784  1.00  0.00     0.064 A 
ATOM     86  C   UNL A   1      47.078  32.817  30.117  1.00  0.00     0.173 A 
ATOM     87  C   UNL A   1      46.477  33.771  27.994  1.00  0.00     0.173 A 
ATOM     88  F   UNL A   1      47.268  31.757  30.919  1.00  0.00    -0.203 F 
ATOM     89  C   UNL A   1      47.232  34.095  30.645  1.00  0.00     0.198 A 
ATOM     90  C   UNL A   1      46.661  35.047  28.516  1.00  0.00     0.198 A 
ATOM     91  F   UNL A   1      46.103  33.646  26.712  1.00  0.00    -0.203 F 
ATOM     92  F   UNL A   1      47.559  34.250  31.936  1.00  0.00    -0.200 F 
ATOM     93  C   UNL A   1      47.029  35.209  29.843  1.00  0.00     0.200 A 
ATOM     94  F   UNL A   1      46.475  36.122  27.738  1.00  0.00    -0.200 F 
ATOM     95  F   UNL A   1      47.181  36.439  30.353  1.00  0.00    -0.200 F 
ENDBRANCH  62  85
ENDBRANCH  36  37
ENDBRANCH  29  31
ENDBRANCH  28  29
ENDBRANCH  27  28
ENDBRANCH  26  27
ENDBRANCH   1  26
TORSDOF 16
ENDMDL
