MODEL 1
REMARK VINA RESULT:     -11.1      0.000      0.000
REMARK SMILES [NH3+][C@H](Cc1cc(Br)c(O)c(Br)c1)C(=O)OCCOC(=O)c1ccc(-c2c3nc(c(-c4c(F)c(F)c(F)c(F)c4F)c4ccc([nH]4)c(-c4c(F)c(F)c(F)c(F)c4F)c4nc(c(-c5c(F)c(F)c(F)c(F)c5F)c5ccc2[nH]5)C=C4)C=C3)cc1
REMARK SMILES IDX 16 1 15 2 13 3 14 4 2 5 1 6 3 10 4 11 5 12 12 13 6 14 10 15
REMARK SMILES IDX 7 16 8 17 11 18 9 19 17 21 18 22 19 23 20 24 21 25 22 26
REMARK SMILES IDX 83 27 23 28 82 29 24 30 25 31 26 32 76 33 27 34 81 35 75 36
REMARK SMILES IDX 77 37 28 38 80 39 74 40 73 41 29 43 61 44 41 45 60 46 42 47
REMARK SMILES IDX 45 48 59 49 78 50 43 51 44 52 58 54 79 55 46 56 30 57 31 58
REMARK SMILES IDX 39 59 32 60 33 61 37 62 40 63 34 64 35 65 38 66 36 67 62 68
REMARK SMILES IDX 63 69 71 70 64 71 65 72 69 73 72 74 66 75 67 76 70 77 68 78
REMARK SMILES IDX 47 79 48 80 56 81 49 82 50 83 54 84 57 85 51 86 52 87 55 88
REMARK SMILES IDX 53 89
REMARK H PARENT 1 7 1 8 1 9 9 20 77 42 45 53
REMARK Flexibility Score: inf
ROOT
ATOM      1  C   UNL A   1      43.453  21.370  25.619  1.00  0.00     0.274 C 
ENDROOT
BRANCH   1   2
ATOM      2  O   UNL A   1      43.371  20.020  25.122  1.00  0.00    -0.458 OA
BRANCH   2   3
ATOM      3  C   UNL A   1      42.553  19.141  25.748  1.00  0.00     0.365 C 
ATOM      4  O   UNL A   1      42.707  17.924  25.723  1.00  0.00    -0.245 OA
BRANCH   3   5
ATOM      5  C   UNL A   1      41.387  19.831  26.500  1.00  0.00     0.296 C 
BRANCH   5   6
ATOM      6  N   UNL A   1      41.358  19.448  27.930  1.00  0.00    -0.346 N 
ATOM      7  H   UNL A   1      40.812  18.592  28.042  1.00  0.00     0.345 HD
ATOM      8  H   UNL A   1      40.931  20.196  28.475  1.00  0.00     0.345 HD
ATOM      9  H   UNL A   1      42.310  19.288  28.259  1.00  0.00     0.345 HD
ENDBRANCH   5   6
BRANCH   5  10
ATOM     10  C   UNL A   1      39.992  19.811  25.831  1.00  0.00     0.113 C 
BRANCH  10  11
ATOM     11  C   UNL A   1      39.108  21.041  25.772  1.00  0.00    -0.039 A 
ATOM     12  C   UNL A   1      39.459  22.291  26.297  1.00  0.00     0.023 A 
ATOM     13  C   UNL A   1      37.829  20.899  25.202  1.00  0.00     0.023 A 
ATOM     14  C   UNL A   1      38.523  23.328  26.354  1.00  0.00     0.061 A 
ATOM     15  C   UNL A   1      36.903  21.947  25.230  1.00  0.00     0.061 A 
ATOM     16  Br  UNL A   1      39.018  24.946  27.210  1.00  0.00    -0.047 Br
ATOM     17  C   UNL A   1      37.240  23.158  25.833  1.00  0.00     0.143 A 
ATOM     18  Br  UNL A   1      35.188  21.657  24.475  1.00  0.00    -0.047 Br
BRANCH  17  19
ATOM     19  O   UNL A   1      36.306  24.154  25.928  1.00  0.00    -0.506 OA
ATOM     20  H   UNL A   1      35.537  24.027  26.449  1.00  0.00     0.293 HD
ENDBRANCH  17  19
ENDBRANCH  10  11
ENDBRANCH   5  10
ENDBRANCH   3   5
ENDBRANCH   2   3
ENDBRANCH   1   2
BRANCH   1  21
ATOM     21  C   UNL A   1      44.163  22.268  24.603  1.00  0.00     0.275 C 
BRANCH  21  22
ATOM     22  O   UNL A   1      43.601  23.592  24.625  1.00  0.00    -0.458 OA
BRANCH  22  23
ATOM     23  C   UNL A   1      44.421  24.549  25.112  1.00  0.00     0.338 C 
ATOM     24  O   UNL A   1      45.493  24.915  24.651  1.00  0.00    -0.246 OA
BRANCH  23  25
ATOM     25  C   UNL A   1      43.743  25.266  26.200  1.00  0.00     0.060 A 
ATOM     26  C   UNL A   1      44.014  26.630  26.328  1.00  0.00     0.016 A 
ATOM     27  C   UNL A   1      42.891  24.622  27.099  1.00  0.00     0.016 A 
ATOM     28  C   UNL A   1      43.443  27.361  27.360  1.00  0.00     0.010 A 
ATOM     29  C   UNL A   1      42.319  25.355  28.142  1.00  0.00     0.010 A 
ATOM     30  C   UNL A   1      42.603  26.726  28.284  1.00  0.00    -0.014 A 
BRANCH  30  31
ATOM     31  C   UNL A   1      42.091  27.509  29.431  1.00  0.00     0.031 A 
ATOM     32  C   UNL A   1      42.829  27.481  30.737  1.00  0.00     0.074 A 
ATOM     33  C   UNL A   1      41.017  28.300  29.268  1.00  0.00     0.049 A 
ATOM     34  N   UNL A   1      42.566  28.112  31.853  1.00  0.00    -0.248 NA
ATOM     35  C   UNL A   1      44.030  26.631  30.794  1.00  0.00     0.031 C 
ATOM     36  C   UNL A   1      40.246  28.429  28.032  1.00  0.00     0.029 A 
ATOM     37  N   UNL A   1      40.395  29.153  30.144  1.00  0.00    -0.354 N 
ATOM     38  C   UNL A   1      43.564  27.738  32.743  1.00  0.00     0.074 A 
ATOM     39  C   UNL A   1      44.419  26.798  32.051  1.00  0.00     0.031 C 
ATOM     40  C   UNL A   1      39.257  29.316  28.224  1.00  0.00     0.029 A 
ATOM     41  C   UNL A   1      39.305  29.791  29.604  1.00  0.00     0.049 A 
ATOM     42  H   UNL A   1      40.700  29.296  31.068  1.00  0.00     0.167 HD
ATOM     43  C   UNL A   1      43.752  28.153  34.018  1.00  0.00     0.037 A 
ATOM     44  C   UNL A   1      38.436  30.649  30.170  1.00  0.00     0.037 A 
ATOM     45  C   UNL A   1      42.893  29.086  34.700  1.00  0.00     0.049 A 
ATOM     46  C   UNL A   1      38.645  31.060  31.602  1.00  0.00     0.074 A 
ATOM     47  C   UNL A   1      42.983  29.556  35.998  1.00  0.00     0.029 A 
ATOM     48  N   UNL A   1      41.780  29.692  34.132  1.00  0.00    -0.354 N 
ATOM     49  N   UNL A   1      39.589  30.698  32.439  1.00  0.00    -0.248 NA
ATOM     50  C   UNL A   1      37.673  32.004  32.168  1.00  0.00     0.031 C 
ATOM     51  C   UNL A   1      41.904  30.419  36.228  1.00  0.00     0.029 A 
ATOM     52  C   UNL A   1      41.170  30.524  35.058  1.00  0.00     0.049 A 
ATOM     53  H   UNL A   1      41.472  29.552  33.209  1.00  0.00     0.167 HD
ATOM     54  C   UNL A   1      39.334  31.379  33.621  1.00  0.00     0.074 A 
ATOM     55  C   UNL A   1      38.164  32.199  33.384  1.00  0.00     0.031 C 
ATOM     56  C   UNL A   1      40.001  31.327  34.800  1.00  0.00     0.037 A 
BRANCH  43  57
ATOM     57  C   UNL A   1      44.923  27.584  34.762  1.00  0.00     0.064 A 
ATOM     58  C   UNL A   1      46.177  28.214  34.753  1.00  0.00     0.173 A 
ATOM     59  C   UNL A   1      44.787  26.408  35.514  1.00  0.00     0.173 A 
ATOM     60  F   UNL A   1      46.365  29.332  34.035  1.00  0.00    -0.203 F 
ATOM     61  C   UNL A   1      47.256  27.676  35.451  1.00  0.00     0.198 A 
ATOM     62  C   UNL A   1      45.860  25.887  36.233  1.00  0.00     0.198 A 
ATOM     63  F   UNL A   1      43.611  25.765  35.557  1.00  0.00    -0.203 F 
ATOM     64  F   UNL A   1      48.455  28.273  35.392  1.00  0.00    -0.200 F 
ATOM     65  C   UNL A   1      47.095  26.518  36.197  1.00  0.00     0.200 A 
ATOM     66  F   UNL A   1      45.701  24.772  36.960  1.00  0.00    -0.200 F 
ATOM     67  F   UNL A   1      48.132  26.004  36.872  1.00  0.00    -0.200 F 
ENDBRANCH  43  57
BRANCH  44  68
ATOM     68  C   UNL A   1      37.284  31.165  29.385  1.00  0.00     0.064 A 
ATOM     69  C   UNL A   1      37.247  32.488  28.926  1.00  0.00     0.173 A 
ATOM     70  C   UNL A   1      36.186  30.341  29.091  1.00  0.00     0.173 A 
ATOM     71  F   UNL A   1      38.261  33.322  29.202  1.00  0.00    -0.203 F 
ATOM     72  C   UNL A   1      36.147  32.974  28.221  1.00  0.00     0.198 A 
ATOM     73  C   UNL A   1      35.102  30.820  28.359  1.00  0.00     0.198 A 
ATOM     74  F   UNL A   1      36.171  29.067  29.508  1.00  0.00    -0.203 F 
ATOM     75  F   UNL A   1      36.114  34.258  27.838  1.00  0.00    -0.200 F 
ATOM     76  C   UNL A   1      35.079  32.139  27.933  1.00  0.00     0.200 A 
ATOM     77  F   UNL A   1      34.077  30.005  28.074  1.00  0.00    -0.200 F 
ATOM     78  F   UNL A   1      34.023  32.607  27.254  1.00  0.00    -0.200 F 
ENDBRANCH  44  68
BRANCH  56  79
ATOM     79  C   UNL A   1      39.485  32.195  35.911  1.00  0.00     0.064 A 
ATOM     80  C   UNL A   1      38.496  31.744  36.797  1.00  0.00     0.173 A 
ATOM     81  C   UNL A   1      39.993  33.490  36.096  1.00  0.00     0.173 A 
ATOM     82  F   UNL A   1      37.967  30.519  36.652  1.00  0.00    -0.203 F 
ATOM     83  C   UNL A   1      38.005  32.571  37.803  1.00  0.00     0.198 A 
ATOM     84  C   UNL A   1      39.522  34.303  37.124  1.00  0.00     0.198 A 
ATOM     85  F   UNL A   1      40.946  33.966  35.282  1.00  0.00    -0.203 F 
ATOM     86  F   UNL A   1      37.016  32.140  38.600  1.00  0.00    -0.200 F 
ATOM     87  C   UNL A   1      38.522  33.847  37.969  1.00  0.00     0.200 A 
ATOM     88  F   UNL A   1      40.031  35.531  37.291  1.00  0.00    -0.200 F 
ATOM     89  F   UNL A   1      38.047  34.643  38.937  1.00  0.00    -0.200 F 
ENDBRANCH  56  79
ENDBRANCH  30  31
ENDBRANCH  23  25
ENDBRANCH  22  23
ENDBRANCH  21  22
ENDBRANCH   1  21
TORSDOF 15
ENDMDL
MODEL 2
REMARK VINA RESULT:     -10.9      6.041     12.216
REMARK SMILES [NH3+][C@H](Cc1cc(Br)c(O)c(Br)c1)C(=O)OCCOC(=O)c1ccc(-c2c3nc(c(-c4c(F)c(F)c(F)c(F)c4F)c4ccc([nH]4)c(-c4c(F)c(F)c(F)c(F)c4F)c4nc(c(-c5c(F)c(F)c(F)c(F)c5F)c5ccc2[nH]5)C=C4)C=C3)cc1
REMARK SMILES IDX 16 1 15 2 13 3 14 4 2 5 1 6 3 10 4 11 5 12 12 13 6 14 10 15
REMARK SMILES IDX 7 16 8 17 11 18 9 19 17 21 18 22 19 23 20 24 21 25 22 26
REMARK SMILES IDX 83 27 23 28 82 29 24 30 25 31 26 32 76 33 27 34 81 35 75 36
REMARK SMILES IDX 77 37 28 38 80 39 74 40 73 41 29 43 61 44 41 45 60 46 42 47
REMARK SMILES IDX 45 48 59 49 78 50 43 51 44 52 58 54 79 55 46 56 30 57 31 58
REMARK SMILES IDX 39 59 32 60 33 61 37 62 40 63 34 64 35 65 38 66 36 67 62 68
REMARK SMILES IDX 63 69 71 70 64 71 65 72 69 73 72 74 66 75 67 76 70 77 68 78
REMARK SMILES IDX 47 79 48 80 56 81 49 82 50 83 54 84 57 85 51 86 52 87 55 88
REMARK SMILES IDX 53 89
REMARK H PARENT 1 7 1 8 1 9 9 20 77 42 45 53
REMARK Flexibility Score: inf
ROOT
ATOM      1  C   UNL A   1      34.252  34.543  32.683  1.00  0.00     0.274 C 
ENDROOT
BRANCH   1   2
ATOM      2  O   UNL A   1      32.947  34.929  32.210  1.00  0.00    -0.458 OA
BRANCH   2   3
ATOM      3  C   UNL A   1      32.747  36.209  31.816  1.00  0.00     0.365 C 
ATOM      4  O   UNL A   1      32.166  37.052  32.493  1.00  0.00    -0.245 OA
BRANCH   3   5
ATOM      5  C   UNL A   1      33.323  36.506  30.409  1.00  0.00     0.296 C 
BRANCH   5   6
ATOM      6  N   UNL A   1      33.278  37.953  30.095  1.00  0.00    -0.346 N 
ATOM      7  H   UNL A   1      34.225  38.291  29.916  1.00  0.00     0.345 HD
ATOM      8  H   UNL A   1      32.881  38.460  30.886  1.00  0.00     0.345 HD
ATOM      9  H   UNL A   1      32.701  38.105  29.269  1.00  0.00     0.345 HD
ENDBRANCH   5   6
BRANCH   5  10
ATOM     10  C   UNL A   1      32.852  35.609  29.239  1.00  0.00     0.113 C 
BRANCH  10  11
ATOM     11  C   UNL A   1      33.701  34.475  28.700  1.00  0.00    -0.039 A 
ATOM     12  C   UNL A   1      33.185  33.308  28.123  1.00  0.00     0.023 A 
ATOM     13  C   UNL A   1      35.098  34.582  28.841  1.00  0.00     0.023 A 
ATOM     14  C   UNL A   1      34.027  32.238  27.806  1.00  0.00     0.061 A 
ATOM     15  C   UNL A   1      35.943  33.523  28.493  1.00  0.00     0.061 A 
ATOM     16  Br  UNL A   1      33.246  30.633  27.165  1.00  0.00    -0.047 Br
ATOM     17  C   UNL A   1      35.406  32.336  28.000  1.00  0.00     0.143 A 
ATOM     18  Br  UNL A   1      37.809  33.736  28.753  1.00  0.00    -0.047 Br
BRANCH  17  19
ATOM     19  O   UNL A   1      36.229  31.274  27.735  1.00  0.00    -0.506 OA
ATOM     20  H   UNL A   1      35.916  30.398  27.849  1.00  0.00     0.293 HD
ENDBRANCH  17  19
ENDBRANCH  10  11
ENDBRANCH   5  10
ENDBRANCH   3   5
ENDBRANCH   2   3
ENDBRANCH   1   2
BRANCH   1  21
ATOM     21  C   UNL A   1      34.218  33.111  33.224  1.00  0.00     0.275 C 
BRANCH  21  22
ATOM     22  O   UNL A   1      35.218  32.307  32.574  1.00  0.00    -0.458 OA
BRANCH  22  23
ATOM     23  C   UNL A   1      36.365  32.154  33.272  1.00  0.00     0.338 C 
ATOM     24  O   UNL A   1      36.531  32.303  34.474  1.00  0.00    -0.246 OA
BRANCH  23  25
ATOM     25  C   UNL A   1      37.392  31.566  32.401  1.00  0.00     0.060 A 
ATOM     26  C   UNL A   1      38.699  31.529  32.894  1.00  0.00     0.016 A 
ATOM     27  C   UNL A   1      37.101  31.094  31.120  1.00  0.00     0.016 A 
ATOM     28  C   UNL A   1      39.726  31.028  32.108  1.00  0.00     0.010 A 
ATOM     29  C   UNL A   1      38.136  30.593  30.325  1.00  0.00     0.010 A 
ATOM     30  C   UNL A   1      39.456  30.571  30.812  1.00  0.00    -0.014 A 
BRANCH  30  31
ATOM     31  C   UNL A   1      40.588  30.137  29.963  1.00  0.00     0.031 A 
ATOM     32  C   UNL A   1      41.717  31.086  29.691  1.00  0.00     0.074 A 
ATOM     33  C   UNL A   1      40.632  28.872  29.510  1.00  0.00     0.049 A 
ATOM     34  N   UNL A   1      42.811  30.898  28.998  1.00  0.00    -0.248 NA
ATOM     35  C   UNL A   1      41.603  32.429  30.283  1.00  0.00     0.031 C 
ATOM     36  C   UNL A   1      39.605  27.857  29.745  1.00  0.00     0.029 A 
ATOM     37  N   UNL A   1      41.585  28.221  28.768  1.00  0.00    -0.354 N 
ATOM     38  C   UNL A   1      43.514  32.093  29.069  1.00  0.00     0.074 A 
ATOM     39  C   UNL A   1      42.709  33.013  29.843  1.00  0.00     0.031 C 
ATOM     40  C   UNL A   1      39.986  26.708  29.165  1.00  0.00     0.029 A 
ATOM     41  C   UNL A   1      41.265  26.916  28.491  1.00  0.00     0.049 A 
ATOM     42  H   UNL A   1      42.418  28.648  28.465  1.00  0.00     0.167 HD
ATOM     43  C   UNL A   1      44.727  32.388  28.545  1.00  0.00     0.037 A 
ATOM     44  C   UNL A   1      41.926  25.998  27.761  1.00  0.00     0.037 A 
ATOM     45  C   UNL A   1      45.520  31.467  27.772  1.00  0.00     0.049 A 
ATOM     46  C   UNL A   1      43.252  26.367  27.154  1.00  0.00     0.074 A 
ATOM     47  C   UNL A   1      46.753  31.673  27.178  1.00  0.00     0.029 A 
ATOM     48  N   UNL A   1      45.152  30.159  27.487  1.00  0.00    -0.354 N 
ATOM     49  N   UNL A   1      43.908  27.501  27.223  1.00  0.00    -0.248 NA
ATOM     50  C   UNL A   1      43.934  25.327  26.373  1.00  0.00     0.031 C 
ATOM     51  C   UNL A   1      47.114  30.501  26.502  1.00  0.00     0.029 A 
ATOM     52  C   UNL A   1      46.130  29.550  26.716  1.00  0.00     0.049 A 
ATOM     53  H   UNL A   1      44.320  29.728  27.788  1.00  0.00     0.167 HD
ATOM     54  C   UNL A   1      45.083  27.307  26.509  1.00  0.00     0.074 A 
ATOM     55  C   UNL A   1      45.063  25.937  26.041  1.00  0.00     0.031 C 
ATOM     56  C   UNL A   1      46.085  28.184  26.256  1.00  0.00     0.037 A 
BRANCH  43  57
ATOM     57  C   UNL A   1      45.260  33.771  28.776  1.00  0.00     0.064 A 
ATOM     58  C   UNL A   1      44.999  34.819  27.880  1.00  0.00     0.173 A 
ATOM     59  C   UNL A   1      46.018  34.061  29.920  1.00  0.00     0.173 A 
ATOM     60  F   UNL A   1      44.294  34.591  26.762  1.00  0.00    -0.203 F 
ATOM     61  C   UNL A   1      45.497  36.100  28.109  1.00  0.00     0.198 A 
ATOM     62  C   UNL A   1      46.492  35.348  30.160  1.00  0.00     0.198 A 
ATOM     63  F   UNL A   1      46.296  33.096  30.809  1.00  0.00    -0.203 F 
ATOM     64  F   UNL A   1      45.272  37.074  27.216  1.00  0.00    -0.200 F 
ATOM     65  C   UNL A   1      46.236  36.365  29.252  1.00  0.00     0.200 A 
ATOM     66  F   UNL A   1      47.199  35.606  31.269  1.00  0.00    -0.200 F 
ATOM     67  F   UNL A   1      46.710  37.599  29.473  1.00  0.00    -0.200 F 
ENDBRANCH  43  57
BRANCH  44  68
ATOM     68  C   UNL A   1      41.336  24.649  27.553  1.00  0.00     0.064 A 
ATOM     69  C   UNL A   1      41.886  23.512  28.158  1.00  0.00     0.173 A 
ATOM     70  C   UNL A   1      40.214  24.472  26.729  1.00  0.00     0.173 A 
ATOM     71  F   UNL A   1      42.973  23.625  28.936  1.00  0.00    -0.203 F 
ATOM     72  C   UNL A   1      41.348  22.245  27.930  1.00  0.00     0.198 A 
ATOM     73  C   UNL A   1      39.660  23.210  26.528  1.00  0.00     0.198 A 
ATOM     74  F   UNL A   1      39.650  25.529  26.125  1.00  0.00    -0.203 F 
ATOM     75  F   UNL A   1      41.925  21.168  28.480  1.00  0.00    -0.200 F 
ATOM     76  C   UNL A   1      40.234  22.097  27.121  1.00  0.00     0.200 A 
ATOM     77  F   UNL A   1      38.574  23.074  25.753  1.00  0.00    -0.200 F 
ATOM     78  F   UNL A   1      39.717  20.879  26.904  1.00  0.00    -0.200 F 
ENDBRANCH  44  68
BRANCH  56  79
ATOM     79  C   UNL A   1      47.246  27.675  25.452  1.00  0.00     0.064 A 
ATOM     80  C   UNL A   1      48.339  27.041  26.061  1.00  0.00     0.173 A 
ATOM     81  C   UNL A   1      47.261  27.816  24.056  1.00  0.00     0.173 A 
ATOM     82  F   UNL A   1      48.380  26.897  27.394  1.00  0.00    -0.203 F 
ATOM     83  C   UNL A   1      49.424  26.602  25.306  1.00  0.00     0.198 A 
ATOM     84  C   UNL A   1      48.332  27.346  23.300  1.00  0.00     0.198 A 
ATOM     85  F   UNL A   1      46.236  28.407  23.424  1.00  0.00    -0.203 F 
ATOM     86  F   UNL A   1      50.484  26.054  25.915  1.00  0.00    -0.200 F 
ATOM     87  C   UNL A   1      49.417  26.750  23.927  1.00  0.00     0.200 A 
ATOM     88  F   UNL A   1      48.319  27.479  21.968  1.00  0.00    -0.200 F 
ATOM     89  F   UNL A   1      50.462  26.328  23.202  1.00  0.00    -0.200 F 
ENDBRANCH  56  79
ENDBRANCH  30  31
ENDBRANCH  23  25
ENDBRANCH  22  23
ENDBRANCH  21  22
ENDBRANCH   1  21
TORSDOF 15
ENDMDL
MODEL 3
REMARK VINA RESULT:     -10.6      4.542      9.586
REMARK SMILES [NH3+][C@H](Cc1cc(Br)c(O)c(Br)c1)C(=O)OCCOC(=O)c1ccc(-c2c3nc(c(-c4c(F)c(F)c(F)c(F)c4F)c4ccc([nH]4)c(-c4c(F)c(F)c(F)c(F)c4F)c4nc(c(-c5c(F)c(F)c(F)c(F)c5F)c5ccc2[nH]5)C=C4)C=C3)cc1
REMARK SMILES IDX 16 1 15 2 13 3 14 4 2 5 1 6 3 10 4 11 5 12 12 13 6 14 10 15
REMARK SMILES IDX 7 16 8 17 11 18 9 19 17 21 18 22 19 23 20 24 21 25 22 26
REMARK SMILES IDX 83 27 23 28 82 29 24 30 25 31 26 32 76 33 27 34 81 35 75 36
REMARK SMILES IDX 77 37 28 38 80 39 74 40 73 41 29 43 61 44 41 45 60 46 42 47
REMARK SMILES IDX 45 48 59 49 78 50 43 51 44 52 58 54 79 55 46 56 30 57 31 58
REMARK SMILES IDX 39 59 32 60 33 61 37 62 40 63 34 64 35 65 38 66 36 67 62 68
REMARK SMILES IDX 63 69 71 70 64 71 65 72 69 73 72 74 66 75 67 76 70 77 68 78
REMARK SMILES IDX 47 79 48 80 56 81 49 82 50 83 54 84 57 85 51 86 52 87 55 88
REMARK SMILES IDX 53 89
REMARK H PARENT 1 7 1 8 1 9 9 20 77 42 45 53
REMARK Flexibility Score: inf
ROOT
ATOM      1  C   UNL A   1      31.411  30.611  25.614  1.00  0.00     0.274 C 
ENDROOT
BRANCH   1   2
ATOM      2  O   UNL A   1      32.641  29.918  25.329  1.00  0.00    -0.458 OA
BRANCH   2   3
ATOM      3  C   UNL A   1      32.597  28.592  25.054  1.00  0.00     0.365 C 
ATOM      4  O   UNL A   1      32.118  27.752  25.809  1.00  0.00    -0.245 OA
BRANCH   3   5
ATOM      5  C   UNL A   1      33.224  28.238  23.682  1.00  0.00     0.296 C 
BRANCH   5   6
ATOM      6  N   UNL A   1      34.286  29.198  23.305  1.00  0.00    -0.346 N 
ATOM      7  H   UNL A   1      34.070  30.116  23.695  1.00  0.00     0.345 HD
ATOM      8  H   UNL A   1      34.339  29.266  22.288  1.00  0.00     0.345 HD
ATOM      9  H   UNL A   1      35.182  28.877  23.671  1.00  0.00     0.345 HD
ENDBRANCH   5   6
BRANCH   5  10
ATOM     10  C   UNL A   1      32.260  27.901  22.520  1.00  0.00     0.113 C 
BRANCH  10  11
ATOM     11  C   UNL A   1      30.813  28.353  22.516  1.00  0.00    -0.039 A 
ATOM     12  C   UNL A   1      30.377  29.599  22.046  1.00  0.00     0.023 A 
ATOM     13  C   UNL A   1      29.856  27.484  23.072  1.00  0.00     0.023 A 
ATOM     14  C   UNL A   1      29.053  30.006  22.232  1.00  0.00     0.061 A 
ATOM     15  C   UNL A   1      28.523  27.880  23.229  1.00  0.00     0.061 A 
ATOM     16  Br  UNL A   1      28.565  31.761  21.704  1.00  0.00    -0.047 Br
ATOM     17  C   UNL A   1      28.124  29.156  22.833  1.00  0.00     0.143 A 
ATOM     18  Br  UNL A   1      27.308  26.662  24.026  1.00  0.00    -0.047 Br
BRANCH  17  19
ATOM     19  O   UNL A   1      26.839  29.567  23.060  1.00  0.00    -0.506 OA
ATOM     20  H   UNL A   1      26.551  29.748  23.934  1.00  0.00     0.293 HD
ENDBRANCH  17  19
ENDBRANCH  10  11
ENDBRANCH   5  10
ENDBRANCH   3   5
ENDBRANCH   2   3
ENDBRANCH   1   2
BRANCH   1  21
ATOM     21  C   UNL A   1      31.684  31.843  26.480  1.00  0.00     0.275 C 
BRANCH  21  22
ATOM     22  O   UNL A   1      32.768  31.586  27.390  1.00  0.00    -0.458 OA
BRANCH  22  23
ATOM     23  C   UNL A   1      33.587  32.637  27.609  1.00  0.00     0.338 C 
ATOM     24  O   UNL A   1      33.308  33.825  27.538  1.00  0.00    -0.246 OA
BRANCH  23  25
ATOM     25  C   UNL A   1      34.860  32.158  28.162  1.00  0.00     0.060 A 
ATOM     26  C   UNL A   1      34.888  30.850  28.654  1.00  0.00     0.016 A 
ATOM     27  C   UNL A   1      35.994  32.969  28.234  1.00  0.00     0.016 A 
ATOM     28  C   UNL A   1      36.045  30.346  29.230  1.00  0.00     0.010 A 
ATOM     29  C   UNL A   1      37.159  32.464  28.819  1.00  0.00     0.010 A 
ATOM     30  C   UNL A   1      37.185  31.154  29.331  1.00  0.00    -0.014 A 
BRANCH  30  31
ATOM     31  C   UNL A   1      38.370  30.622  30.041  1.00  0.00     0.031 A 
ATOM     32  C   UNL A   1      38.616  31.013  31.468  1.00  0.00     0.074 A 
ATOM     33  C   UNL A   1      39.168  29.732  29.426  1.00  0.00     0.049 A 
ATOM     34  N   UNL A   1      39.576  30.642  32.276  1.00  0.00    -0.248 NA
ATOM     35  C   UNL A   1      37.650  31.946  32.070  1.00  0.00     0.031 C 
ATOM     36  C   UNL A   1      38.999  29.257  28.054  1.00  0.00     0.029 A 
ATOM     37  N   UNL A   1      40.274  29.060  29.882  1.00  0.00    -0.354 N 
ATOM     38  C   UNL A   1      39.331  31.292  33.478  1.00  0.00     0.074 A 
ATOM     39  C   UNL A   1      38.153  32.109  33.286  1.00  0.00     0.031 C 
ATOM     40  C   UNL A   1      39.962  28.363  27.779  1.00  0.00     0.029 A 
ATOM     41  C   UNL A   1      40.833  28.230  28.943  1.00  0.00     0.049 A 
ATOM     42  H   UNL A   1      40.630  29.162  30.793  1.00  0.00     0.167 HD
ATOM     43  C   UNL A   1      40.023  31.202  34.639  1.00  0.00     0.037 A 
ATOM     44  C   UNL A   1      41.936  27.460  29.014  1.00  0.00     0.037 A 
ATOM     45  C   UNL A   1      41.197  30.389  34.820  1.00  0.00     0.049 A 
ATOM     46  C   UNL A   1      42.710  27.414  30.305  1.00  0.00     0.074 A 
ATOM     47  C   UNL A   1      41.984  30.244  35.949  1.00  0.00     0.029 A 
ATOM     48  N   UNL A   1      41.754  29.581  33.839  1.00  0.00    -0.354 N 
ATOM     49  N   UNL A   1      42.473  28.035  31.436  1.00  0.00    -0.248 NA
ATOM     50  C   UNL A   1      43.900  26.554  30.330  1.00  0.00     0.031 C 
ATOM     51  C   UNL A   1      43.038  29.376  35.640  1.00  0.00     0.029 A 
ATOM     52  C   UNL A   1      42.880  28.942  34.334  1.00  0.00     0.049 A 
ATOM     53  H   UNL A   1      41.401  29.476  32.927  1.00  0.00     0.167 HD
ATOM     54  C   UNL A   1      43.473  27.631  32.310  1.00  0.00     0.074 A 
ATOM     55  C   UNL A   1      44.301  26.688  31.586  1.00  0.00     0.031 C 
ATOM     56  C   UNL A   1      43.693  28.011  33.592  1.00  0.00     0.037 A 
BRANCH  43  57
ATOM     57  C   UNL A   1      39.534  32.021  35.797  1.00  0.00     0.064 A 
ATOM     58  C   UNL A   1      40.055  33.296  36.068  1.00  0.00     0.173 A 
ATOM     59  C   UNL A   1      38.515  31.539  36.631  1.00  0.00     0.173 A 
ATOM     60  F   UNL A   1      41.043  33.797  35.310  1.00  0.00    -0.203 F 
ATOM     61  C   UNL A   1      39.589  34.048  37.145  1.00  0.00     0.198 A 
ATOM     62  C   UNL A   1      38.033  32.304  37.691  1.00  0.00     0.198 A 
ATOM     63  F   UNL A   1      37.982  30.328  36.417  1.00  0.00    -0.203 F 
ATOM     64  F   UNL A   1      40.132  35.244  37.410  1.00  0.00    -0.200 F 
ATOM     65  C   UNL A   1      38.573  33.555  37.950  1.00  0.00     0.200 A 
ATOM     66  F   UNL A   1      37.045  31.830  38.463  1.00  0.00    -0.200 F 
ATOM     67  F   UNL A   1      38.123  34.281  38.982  1.00  0.00    -0.200 F 
ENDBRANCH  43  57
BRANCH  44  68
ATOM     68  C   UNL A   1      42.379  26.685  27.826  1.00  0.00     0.064 A 
ATOM     69  C   UNL A   1      43.309  27.209  26.919  1.00  0.00     0.173 A 
ATOM     70  C   UNL A   1      41.865  25.405  27.568  1.00  0.00     0.173 A 
ATOM     71  F   UNL A   1      43.811  28.438  27.108  1.00  0.00    -0.203 F 
ATOM     72  C   UNL A   1      43.693  26.490  25.787  1.00  0.00     0.198 A 
ATOM     73  C   UNL A   1      42.274  24.676  26.454  1.00  0.00     0.198 A 
ATOM     74  F   UNL A   1      40.971  24.858  28.405  1.00  0.00    -0.203 F 
ATOM     75  F   UNL A   1      44.545  27.036  24.908  1.00  0.00    -0.200 F 
ATOM     76  C   UNL A   1      43.180  25.223  25.559  1.00  0.00     0.200 A 
ATOM     77  F   UNL A   1      41.784  23.446  26.245  1.00  0.00    -0.200 F 
ATOM     78  F   UNL A   1      43.552  24.533  24.473  1.00  0.00    -0.200 F 
ENDBRANCH  44  68
BRANCH  56  79
ATOM     79  C   UNL A   1      44.866  27.388  34.293  1.00  0.00     0.064 A 
ATOM     80  C   UNL A   1      44.745  26.179  34.993  1.00  0.00     0.173 A 
ATOM     81  C   UNL A   1      46.126  28.004  34.257  1.00  0.00     0.173 A 
ATOM     82  F   UNL A   1      43.557  25.558  35.070  1.00  0.00    -0.203 F 
ATOM     83  C   UNL A   1      45.833  25.628  35.665  1.00  0.00     0.198 A 
ATOM     84  C   UNL A   1      47.220  27.434  34.903  1.00  0.00     0.198 A 
ATOM     85  F   UNL A   1      46.297  29.157  33.594  1.00  0.00    -0.203 F 
ATOM     86  F   UNL A   1      45.679  24.503  36.378  1.00  0.00    -0.200 F 
ATOM     87  C   UNL A   1      47.070  26.253  35.615  1.00  0.00     0.200 A 
ATOM     88  F   UNL A   1      48.417  28.033  34.844  1.00  0.00    -0.200 F 
ATOM     89  F   UNL A   1      48.116  25.723  36.264  1.00  0.00    -0.200 F 
ENDBRANCH  56  79
ENDBRANCH  30  31
ENDBRANCH  23  25
ENDBRANCH  22  23
ENDBRANCH  21  22
ENDBRANCH   1  21
TORSDOF 15
ENDMDL
