MODEL 1
REMARK VINA RESULT:     -11.5      0.000      0.000
REMARK SMILES O=C(C[C@H]1C[N@@H+](Cc2ccncc2)CCO1)OCCOC(=O)c1ccc(-c2c3nc(c(-c4c(F)c(F)c(F)c(F)c4F)c4ccc([nH]4)c(-c4c(F)c(F)c(F)c(F)c4F)c4nc(c(-c5c(F)c(F)c(F)c(F)c5F)c5ccc2[nH]5)C=C4)C=C3)cc1
REMARK SMILES IDX 18 1 17 2 2 3 1 4 3 5 4 6 5 7 16 8 6 9 15 10 14 11 7 13 8 14
REMARK SMILES IDX 9 15 13 16 10 17 12 18 11 19 19 20 20 21 21 22 22 23 23 24
REMARK SMILES IDX 24 25 85 26 25 27 84 28 26 29 27 30 28 31 78 32 29 33 83 34
REMARK SMILES IDX 77 35 79 36 30 37 82 38 76 39 75 40 31 42 63 43 43 44 62 45
REMARK SMILES IDX 44 46 47 47 61 48 80 49 45 50 46 51 60 53 81 54 48 55 32 56
REMARK SMILES IDX 33 57 41 58 34 59 35 60 39 61 42 62 36 63 37 64 40 65 38 66
REMARK SMILES IDX 64 67 65 68 73 69 66 70 67 71 71 72 74 73 68 74 69 75 72 76
REMARK SMILES IDX 70 77 49 78 50 79 58 80 51 81 52 82 56 83 59 84 53 85 54 86
REMARK SMILES IDX 57 87 55 88
REMARK H PARENT 6 12 79 41 47 52
REMARK Flexibility Score: inf
ROOT
ATOM      1  C   UNL A   1      31.725  30.683  26.294  1.00  0.00     0.274 C 
ENDROOT
BRANCH   1   2
ATOM      2  O   UNL A   1      32.232  29.751  27.269  1.00  0.00    -0.462 OA
BRANCH   2   3
ATOM      3  C   UNL A   1      31.778  28.463  27.112  1.00  0.00     0.308 C 
ATOM      4  O   UNL A   1      31.163  27.851  27.971  1.00  0.00    -0.252 OA
BRANCH   3   5
ATOM      5  C   UNL A   1      32.204  27.895  25.782  1.00  0.00     0.160 C 
BRANCH   5   6
ATOM      6  C   UNL A   1      31.405  26.702  25.279  1.00  0.00     0.184 C 
ATOM      7  C   UNL A   1      30.187  27.121  24.418  1.00  0.00     0.295 C 
ATOM      8  O   UNL A   1      32.218  25.767  24.532  1.00  0.00    -0.366 OA
ATOM      9  N   UNL A   1      30.509  27.615  23.072  1.00  0.00    -0.327 N 
ATOM     10  C   UNL A   1      32.545  26.192  23.199  1.00  0.00     0.222 C 
ATOM     11  C   UNL A   1      31.324  26.631  22.374  1.00  0.00     0.291 C 
ATOM     12  H   UNL A   1      29.615  27.685  22.587  1.00  0.00     0.348 HD
BRANCH   9  13
ATOM     13  C   UNL A   1      30.819  29.034  22.871  1.00  0.00     0.299 C 
BRANCH  13  14
ATOM     14  C   UNL A   1      29.742  30.098  22.654  1.00  0.00     0.009 A 
ATOM     15  C   UNL A   1      29.182  30.351  21.410  1.00  0.00     0.029 A 
ATOM     16  C   UNL A   1      29.201  30.847  23.715  1.00  0.00     0.029 A 
ATOM     17  C   UNL A   1      28.146  31.275  21.287  1.00  0.00     0.111 A 
ATOM     18  C   UNL A   1      28.193  31.777  23.505  1.00  0.00     0.111 A 
ATOM     19  N   UNL A   1      27.642  31.995  22.305  1.00  0.00    -0.265 NA
ENDBRANCH  13  14
ENDBRANCH   9  13
ENDBRANCH   5   6
ENDBRANCH   3   5
ENDBRANCH   2   3
ENDBRANCH   1   2
BRANCH   1  20
ATOM     20  C   UNL A   1      31.610  32.120  26.860  1.00  0.00     0.275 C 
BRANCH  20  21
ATOM     21  O   UNL A   1      32.853  32.870  26.753  1.00  0.00    -0.458 OA
BRANCH  21  22
ATOM     22  C   UNL A   1      33.262  33.521  27.885  1.00  0.00     0.338 C 
ATOM     23  O   UNL A   1      32.591  34.314  28.528  1.00  0.00    -0.246 OA
BRANCH  22  24
ATOM     24  C   UNL A   1      34.567  32.979  28.383  1.00  0.00     0.060 A 
ATOM     25  C   UNL A   1      34.566  31.707  28.973  1.00  0.00     0.016 A 
ATOM     26  C   UNL A   1      35.789  33.647  28.243  1.00  0.00     0.016 A 
ATOM     27  C   UNL A   1      35.775  31.078  29.329  1.00  0.00     0.010 A 
ATOM     28  C   UNL A   1      37.003  33.025  28.637  1.00  0.00     0.010 A 
ATOM     29  C   UNL A   1      37.016  31.724  29.171  1.00  0.00    -0.014 A 
BRANCH  29  30
ATOM     30  C   UNL A   1      38.238  31.093  29.788  1.00  0.00     0.031 A 
ATOM     31  C   UNL A   1      38.523  31.403  31.226  1.00  0.00     0.074 A 
ATOM     32  C   UNL A   1      39.065  30.220  29.174  1.00  0.00     0.049 A 
ATOM     33  N   UNL A   1      39.401  30.869  32.035  1.00  0.00    -0.248 NA
ATOM     34  C   UNL A   1      37.726  32.487  31.816  1.00  0.00     0.031 C 
ATOM     35  C   UNL A   1      39.028  29.900  27.765  1.00  0.00     0.029 A 
ATOM     36  N   UNL A   1      40.085  29.418  29.651  1.00  0.00    -0.354 N 
ATOM     37  C   UNL A   1      39.245  31.533  33.239  1.00  0.00     0.074 A 
ATOM     38  C   UNL A   1      38.210  32.530  33.046  1.00  0.00     0.031 C 
ATOM     39  C   UNL A   1      39.864  28.882  27.497  1.00  0.00     0.029 A 
ATOM     40  C   UNL A   1      40.587  28.532  28.717  1.00  0.00     0.049 A 
ATOM     41  H   UNL A   1      40.423  29.474  30.574  1.00  0.00     0.167 HD
ATOM     42  C   UNL A   1      39.905  31.348  34.404  1.00  0.00     0.037 A 
ATOM     43  C   UNL A   1      41.530  27.568  28.822  1.00  0.00     0.037 A 
ATOM     44  C   UNL A   1      41.003  30.445  34.600  1.00  0.00     0.049 A 
ATOM     45  C   UNL A   1      42.280  27.409  30.125  1.00  0.00     0.074 A 
ATOM     46  C   UNL A   1      41.787  30.273  35.728  1.00  0.00     0.029 A 
ATOM     47  N   UNL A   1      41.494  29.578  33.636  1.00  0.00    -0.354 N 
ATOM     48  N   UNL A   1      42.089  28.016  31.270  1.00  0.00    -0.248 NA
ATOM     49  C   UNL A   1      43.409  26.461  30.137  1.00  0.00     0.031 C 
ATOM     50  C   UNL A   1      42.776  29.328  35.436  1.00  0.00     0.029 A 
ATOM     51  C   UNL A   1      42.579  28.877  34.142  1.00  0.00     0.049 A 
ATOM     52  H   UNL A   1      41.128  29.475  32.729  1.00  0.00     0.167 HD
ATOM     53  C   UNL A   1      43.063  27.526  32.130  1.00  0.00     0.074 A 
ATOM     54  C   UNL A   1      43.823  26.540  31.394  1.00  0.00     0.031 C 
ATOM     55  C   UNL A   1      43.320  27.882  33.412  1.00  0.00     0.037 A 
BRANCH  42  56
ATOM     56  C   UNL A   1      39.458  32.206  35.542  1.00  0.00     0.064 A 
ATOM     57  C   UNL A   1      40.033  33.467  35.761  1.00  0.00     0.173 A 
ATOM     58  C   UNL A   1      38.510  31.736  36.459  1.00  0.00     0.173 A 
ATOM     59  F   UNL A   1      40.973  33.934  34.925  1.00  0.00    -0.203 F 
ATOM     60  C   UNL A   1      39.695  34.215  36.884  1.00  0.00     0.198 A 
ATOM     61  C   UNL A   1      38.158  32.498  37.567  1.00  0.00     0.198 A 
ATOM     62  F   UNL A   1      37.950  30.528  36.295  1.00  0.00    -0.203 F 
ATOM     63  F   UNL A   1      40.304  35.386  37.113  1.00  0.00    -0.200 F 
ATOM     64  C   UNL A   1      38.758  33.731  37.784  1.00  0.00     0.200 A 
ATOM     65  F   UNL A   1      37.256  32.029  38.441  1.00  0.00    -0.200 F 
ATOM     66  F   UNL A   1      38.448  34.444  38.876  1.00  0.00    -0.200 F 
ENDBRANCH  42  56
BRANCH  43  67
ATOM     67  C   UNL A   1      41.889  26.682  27.671  1.00  0.00     0.064 A 
ATOM     68  C   UNL A   1      41.297  25.415  27.524  1.00  0.00     0.173 A 
ATOM     69  C   UNL A   1      42.906  27.022  26.768  1.00  0.00     0.173 A 
ATOM     70  F   UNL A   1      40.349  25.015  28.384  1.00  0.00    -0.203 F 
ATOM     71  C   UNL A   1      41.729  24.518  26.546  1.00  0.00     0.198 A 
ATOM     72  C   UNL A   1      43.314  26.137  25.767  1.00  0.00     0.198 A 
ATOM     73  F   UNL A   1      43.523  28.208  26.865  1.00  0.00    -0.203 F 
ATOM     74  F   UNL A   1      41.201  23.288  26.483  1.00  0.00    -0.200 F 
ATOM     75  C   UNL A   1      42.737  24.882  25.666  1.00  0.00     0.200 A 
ATOM     76  F   UNL A   1      44.285  26.497  24.916  1.00  0.00    -0.200 F 
ATOM     77  F   UNL A   1      43.166  24.016  24.737  1.00  0.00    -0.200 F 
ENDBRANCH  43  67
BRANCH  55  78
ATOM     78  C   UNL A   1      44.448  27.187  34.118  1.00  0.00     0.064 A 
ATOM     79  C   UNL A   1      45.749  27.710  34.125  1.00  0.00     0.173 A 
ATOM     80  C   UNL A   1      44.212  26.007  34.841  1.00  0.00     0.173 A 
ATOM     81  F   UNL A   1      46.031  28.827  33.437  1.00  0.00    -0.203 F 
ATOM     82  C   UNL A   1      46.776  27.070  34.814  1.00  0.00     0.198 A 
ATOM     83  C   UNL A   1      45.234  25.383  35.551  1.00  0.00     0.198 A 
ATOM     84  F   UNL A   1      42.985  25.466  34.870  1.00  0.00    -0.203 F 
ATOM     85  F   UNL A   1      48.020  27.568  34.775  1.00  0.00    -0.200 F 
ATOM     86  C   UNL A   1      46.516  25.912  35.533  1.00  0.00     0.200 A 
ATOM     87  F   UNL A   1      44.980  24.271  36.253  1.00  0.00    -0.200 F 
ATOM     88  F   UNL A   1      47.503  25.302  36.204  1.00  0.00    -0.200 F 
ENDBRANCH  55  78
ENDBRANCH  29  30
ENDBRANCH  22  24
ENDBRANCH  21  22
ENDBRANCH  20  21
ENDBRANCH   1  20
TORSDOF 14
ENDMDL
MODEL 2
REMARK VINA RESULT:     -11.4      0.946      1.546
REMARK SMILES O=C(C[C@H]1C[N@@H+](Cc2ccncc2)CCO1)OCCOC(=O)c1ccc(-c2c3nc(c(-c4c(F)c(F)c(F)c(F)c4F)c4ccc([nH]4)c(-c4c(F)c(F)c(F)c(F)c4F)c4nc(c(-c5c(F)c(F)c(F)c(F)c5F)c5ccc2[nH]5)C=C4)C=C3)cc1
REMARK SMILES IDX 18 1 17 2 2 3 1 4 3 5 4 6 5 7 16 8 6 9 15 10 14 11 7 13 8 14
REMARK SMILES IDX 9 15 13 16 10 17 12 18 11 19 19 20 20 21 21 22 22 23 23 24
REMARK SMILES IDX 24 25 85 26 25 27 84 28 26 29 27 30 28 31 78 32 29 33 83 34
REMARK SMILES IDX 77 35 79 36 30 37 82 38 76 39 75 40 31 42 63 43 43 44 62 45
REMARK SMILES IDX 44 46 47 47 61 48 80 49 45 50 46 51 60 53 81 54 48 55 32 56
REMARK SMILES IDX 33 57 41 58 34 59 35 60 39 61 42 62 36 63 37 64 40 65 38 66
REMARK SMILES IDX 64 67 65 68 73 69 66 70 67 71 71 72 74 73 68 74 69 75 72 76
REMARK SMILES IDX 70 77 49 78 50 79 58 80 51 81 52 82 56 83 59 84 53 85 54 86
REMARK SMILES IDX 57 87 55 88
REMARK H PARENT 6 12 79 41 47 52
REMARK Flexibility Score: inf
ROOT
ATOM      1  C   UNL A   1      31.461  29.737  25.564  1.00  0.00     0.274 C 
ENDROOT
BRANCH   1   2
ATOM      2  O   UNL A   1      32.471  28.882  26.133  1.00  0.00    -0.462 OA
BRANCH   2   3
ATOM      3  C   UNL A   1      31.975  27.793  26.811  1.00  0.00     0.308 C 
ATOM      4  O   UNL A   1      31.407  27.865  27.889  1.00  0.00    -0.252 OA
BRANCH   3   5
ATOM      5  C   UNL A   1      32.292  26.510  26.084  1.00  0.00     0.160 C 
BRANCH   5   6
ATOM      6  C   UNL A   1      31.213  25.438  26.120  1.00  0.00     0.184 C 
ATOM      7  C   UNL A   1      29.931  25.859  25.360  1.00  0.00     0.295 C 
ATOM      8  O   UNL A   1      31.678  24.168  25.606  1.00  0.00    -0.366 OA
ATOM      9  N   UNL A   1      30.039  25.858  23.895  1.00  0.00    -0.327 N 
ATOM     10  C   UNL A   1      31.783  24.106  24.174  1.00  0.00     0.222 C 
ATOM     11  C   UNL A   1      30.508  24.556  23.442  1.00  0.00     0.291 C 
ATOM     12  H   UNL A   1      29.088  25.988  23.551  1.00  0.00     0.348 HD
BRANCH   9  13
ATOM     13  C   UNL A   1      30.537  27.049  23.200  1.00  0.00     0.299 C 
BRANCH  13  14
ATOM     14  C   UNL A   1      29.640  28.232  22.829  1.00  0.00     0.009 A 
ATOM     15  C   UNL A   1      30.104  29.326  22.114  1.00  0.00     0.029 A 
ATOM     16  C   UNL A   1      28.267  28.257  23.134  1.00  0.00     0.029 A 
ATOM     17  C   UNL A   1      29.222  30.335  21.734  1.00  0.00     0.111 A 
ATOM     18  C   UNL A   1      27.460  29.319  22.751  1.00  0.00     0.111 A 
ATOM     19  N   UNL A   1      27.913  30.358  22.039  1.00  0.00    -0.265 NA
ENDBRANCH  13  14
ENDBRANCH   9  13
ENDBRANCH   5   6
ENDBRANCH   3   5
ENDBRANCH   2   3
ENDBRANCH   1   2
BRANCH   1  20
ATOM     20  C   UNL A   1      31.587  31.201  26.056  1.00  0.00     0.275 C 
BRANCH  20  21
ATOM     21  O   UNL A   1      32.267  31.308  27.339  1.00  0.00    -0.458 OA
BRANCH  21  22
ATOM     22  C   UNL A   1      33.084  32.394  27.498  1.00  0.00     0.338 C 
ATOM     23  O   UNL A   1      32.739  33.561  27.398  1.00  0.00    -0.246 OA
BRANCH  22  24
ATOM     24  C   UNL A   1      34.423  31.993  28.036  1.00  0.00     0.060 A 
ATOM     25  C   UNL A   1      34.616  30.647  28.378  1.00  0.00     0.016 A 
ATOM     26  C   UNL A   1      35.504  32.874  28.164  1.00  0.00     0.016 A 
ATOM     27  C   UNL A   1      35.889  30.174  28.751  1.00  0.00     0.010 A 
ATOM     28  C   UNL A   1      36.778  32.401  28.575  1.00  0.00     0.010 A 
ATOM     29  C   UNL A   1      36.994  31.041  28.859  1.00  0.00    -0.014 A 
BRANCH  29  30
ATOM     30  C   UNL A   1      38.260  30.517  29.487  1.00  0.00     0.031 A 
ATOM     31  C   UNL A   1      38.526  30.886  30.915  1.00  0.00     0.074 A 
ATOM     32  C   UNL A   1      39.146  29.687  28.894  1.00  0.00     0.049 A 
ATOM     33  N   UNL A   1      39.443  30.439  31.734  1.00  0.00    -0.248 NA
ATOM     34  C   UNL A   1      37.656  31.927  31.478  1.00  0.00     0.031 C 
ATOM     35  C   UNL A   1      39.127  29.326  27.494  1.00  0.00     0.029 A 
ATOM     36  N   UNL A   1      40.222  28.974  29.388  1.00  0.00    -0.354 N 
ATOM     37  C   UNL A   1      39.243  31.124  32.919  1.00  0.00     0.074 A 
ATOM     38  C   UNL A   1      38.139  32.038  32.704  1.00  0.00     0.031 C 
ATOM     39  C   UNL A   1      40.033  28.363  27.251  1.00  0.00     0.029 A 
ATOM     40  C   UNL A   1      40.782  28.100  28.476  1.00  0.00     0.049 A 
ATOM     41  H   UNL A   1      40.558  29.079  30.307  1.00  0.00     0.167 HD
ATOM     42  C   UNL A   1      39.919  31.019  34.086  1.00  0.00     0.037 A 
ATOM     43  C   UNL A   1      41.793  27.209  28.603  1.00  0.00     0.037 A 
ATOM     44  C   UNL A   1      41.079  30.203  34.301  1.00  0.00     0.049 A 
ATOM     45  C   UNL A   1      42.556  27.141  29.907  1.00  0.00     0.074 A 
ATOM     46  C   UNL A   1      41.876  30.119  35.430  1.00  0.00     0.029 A 
ATOM     47  N   UNL A   1      41.627  29.346  33.360  1.00  0.00    -0.354 N 
ATOM     48  N   UNL A   1      42.325  27.764  31.035  1.00  0.00    -0.248 NA
ATOM     49  C   UNL A   1      43.750  26.277  29.940  1.00  0.00     0.031 C 
ATOM     50  C   UNL A   1      42.929  29.239  35.159  1.00  0.00     0.029 A 
ATOM     51  C   UNL A   1      42.761  28.739  33.879  1.00  0.00     0.049 A 
ATOM     52  H   UNL A   1      41.267  29.192  32.457  1.00  0.00     0.167 HD
ATOM     53  C   UNL A   1      43.335  27.369  31.904  1.00  0.00     0.074 A 
ATOM     54  C   UNL A   1      44.160  26.420  31.191  1.00  0.00     0.031 C 
ATOM     55  C   UNL A   1      43.569  27.778  33.174  1.00  0.00     0.037 A 
BRANCH  42  56
ATOM     56  C   UNL A   1      39.415  31.875  35.202  1.00  0.00     0.064 A 
ATOM     57  C   UNL A   1      39.852  33.200  35.346  1.00  0.00     0.173 A 
ATOM     58  C   UNL A   1      38.554  31.347  36.172  1.00  0.00     0.173 A 
ATOM     59  F   UNL A   1      40.708  33.729  34.457  1.00  0.00    -0.203 F 
ATOM     60  C   UNL A   1      39.469  33.958  36.447  1.00  0.00     0.198 A 
ATOM     61  C   UNL A   1      38.154  32.116  37.259  1.00  0.00     0.198 A 
ATOM     62  F   UNL A   1      38.127  30.079  36.080  1.00  0.00    -0.203 F 
ATOM     63  F   UNL A   1      39.951  35.198  36.604  1.00  0.00    -0.200 F 
ATOM     64  C   UNL A   1      38.620  33.417  37.401  1.00  0.00     0.200 A 
ATOM     65  F   UNL A   1      37.339  31.592  38.184  1.00  0.00    -0.200 F 
ATOM     66  F   UNL A   1      38.268  34.141  38.472  1.00  0.00    -0.200 F 
ENDBRANCH  42  56
BRANCH  43  67
ATOM     67  C   UNL A   1      42.210  26.319  27.476  1.00  0.00     0.064 A 
ATOM     68  C   UNL A   1      41.646  25.040  27.319  1.00  0.00     0.173 A 
ATOM     69  C   UNL A   1      43.256  26.667  26.610  1.00  0.00     0.173 A 
ATOM     70  F   UNL A   1      40.672  24.632  28.146  1.00  0.00    -0.203 F 
ATOM     71  C   UNL A   1      42.131  24.142  26.367  1.00  0.00     0.198 A 
ATOM     72  C   UNL A   1      43.717  25.781  25.634  1.00  0.00     0.198 A 
ATOM     73  F   UNL A   1      43.848  27.865  26.719  1.00  0.00    -0.203 F 
ATOM     74  F   UNL A   1      41.625  22.903  26.295  1.00  0.00    -0.200 F 
ATOM     75  C   UNL A   1      43.165  24.515  25.523  1.00  0.00     0.200 A 
ATOM     76  F   UNL A   1      44.713  26.149  24.817  1.00  0.00    -0.200 F 
ATOM     77  F   UNL A   1      43.644  23.648  24.620  1.00  0.00    -0.200 F 
ENDBRANCH  43  67
BRANCH  55  78
ATOM     78  C   UNL A   1      44.746  27.186  33.894  1.00  0.00     0.064 A 
ATOM     79  C   UNL A   1      44.642  25.993  34.624  1.00  0.00     0.173 A 
ATOM     80  C   UNL A   1      46.008  27.794  33.808  1.00  0.00     0.173 A 
ATOM     81  F   UNL A   1      43.454  25.381  34.750  1.00  0.00    -0.203 F 
ATOM     82  C   UNL A   1      45.752  25.440  35.257  1.00  0.00     0.198 A 
ATOM     83  C   UNL A   1      47.122  27.224  34.419  1.00  0.00     0.198 A 
ATOM     84  F   UNL A   1      46.164  28.934  33.118  1.00  0.00    -0.203 F 
ATOM     85  F   UNL A   1      45.620  24.320  35.981  1.00  0.00    -0.200 F 
ATOM     86  C   UNL A   1      46.992  26.051  35.146  1.00  0.00     0.200 A 
ATOM     87  F   UNL A   1      48.322  27.810  34.302  1.00  0.00    -0.200 F 
ATOM     88  F   UNL A   1      48.063  25.512  35.747  1.00  0.00    -0.200 F 
ENDBRANCH  55  78
ENDBRANCH  29  30
ENDBRANCH  22  24
ENDBRANCH  21  22
ENDBRANCH  20  21
ENDBRANCH   1  20
TORSDOF 14
ENDMDL
MODEL 3
REMARK VINA RESULT:     -11.3      5.413     10.657
REMARK SMILES O=C(C[C@H]1C[N@@H+](Cc2ccncc2)CCO1)OCCOC(=O)c1ccc(-c2c3nc(c(-c4c(F)c(F)c(F)c(F)c4F)c4ccc([nH]4)c(-c4c(F)c(F)c(F)c(F)c4F)c4nc(c(-c5c(F)c(F)c(F)c(F)c5F)c5ccc2[nH]5)C=C4)C=C3)cc1
REMARK SMILES IDX 18 1 17 2 2 3 1 4 3 5 4 6 5 7 16 8 6 9 15 10 14 11 7 13 8 14
REMARK SMILES IDX 9 15 13 16 10 17 12 18 11 19 19 20 20 21 21 22 22 23 23 24
REMARK SMILES IDX 24 25 85 26 25 27 84 28 26 29 27 30 28 31 78 32 29 33 83 34
REMARK SMILES IDX 77 35 79 36 30 37 82 38 76 39 75 40 31 42 63 43 43 44 62 45
REMARK SMILES IDX 44 46 47 47 61 48 80 49 45 50 46 51 60 53 81 54 48 55 32 56
REMARK SMILES IDX 33 57 41 58 34 59 35 60 39 61 42 62 36 63 37 64 40 65 38 66
REMARK SMILES IDX 64 67 65 68 73 69 66 70 67 71 71 72 74 73 68 74 69 75 72 76
REMARK SMILES IDX 70 77 49 78 50 79 58 80 51 81 52 82 56 83 59 84 53 85 54 86
REMARK SMILES IDX 57 87 55 88
REMARK H PARENT 6 12 79 41 47 52
REMARK Flexibility Score: inf
ROOT
ATOM      1  C   UNL A   1      36.702  22.689  23.459  1.00  0.00     0.274 C 
ENDROOT
BRANCH   1   2
ATOM      2  O   UNL A   1      35.807  23.624  24.092  1.00  0.00    -0.462 OA
BRANCH   2   3
ATOM      3  C   UNL A   1      34.624  23.821  23.419  1.00  0.00     0.308 C 
ATOM      4  O   UNL A   1      34.339  24.857  22.838  1.00  0.00    -0.252 OA
BRANCH   3   5
ATOM      5  C   UNL A   1      33.714  22.628  23.558  1.00  0.00     0.160 C 
BRANCH   5   6
ATOM      6  C   UNL A   1      32.702  22.688  24.692  1.00  0.00     0.184 C 
ATOM      7  C   UNL A   1      31.930  21.357  24.872  1.00  0.00     0.295 C 
ATOM      8  O   UNL A   1      33.304  23.065  25.952  1.00  0.00    -0.366 OA
ATOM      9  N   UNL A   1      32.701  20.259  25.471  1.00  0.00    -0.327 N 
ATOM     10  C   UNL A   1      34.055  22.020  26.592  1.00  0.00     0.222 C 
ATOM     11  C   UNL A   1      33.278  20.701  26.732  1.00  0.00     0.291 C 
ATOM     12  H   UNL A   1      32.021  19.528  25.673  1.00  0.00     0.348 HD
BRANCH   9  13
ATOM     13  C   UNL A   1      33.507  19.383  24.614  1.00  0.00     0.299 C 
BRANCH  13  14
ATOM     14  C   UNL A   1      33.609  17.872  24.832  1.00  0.00     0.009 A 
ATOM     15  C   UNL A   1      34.787  17.167  24.634  1.00  0.00     0.029 A 
ATOM     16  C   UNL A   1      32.530  17.108  25.312  1.00  0.00     0.029 A 
ATOM     17  C   UNL A   1      34.843  15.806  24.927  1.00  0.00     0.111 A 
ATOM     18  C   UNL A   1      32.655  15.746  25.546  1.00  0.00     0.111 A 
ATOM     19  N   UNL A   1      33.803  15.080  25.375  1.00  0.00    -0.265 NA
ENDBRANCH  13  14
ENDBRANCH   9  13
ENDBRANCH   5   6
ENDBRANCH   3   5
ENDBRANCH   2   3
ENDBRANCH   1   2
BRANCH   1  20
ATOM     20  C   UNL A   1      36.976  21.449  24.346  1.00  0.00     0.275 C 
BRANCH  20  21
ATOM     21  O   UNL A   1      37.406  21.801  25.691  1.00  0.00    -0.458 OA
BRANCH  21  22
ATOM     22  C   UNL A   1      38.712  21.530  25.996  1.00  0.00     0.338 C 
ATOM     23  O   UNL A   1      39.319  20.519  25.678  1.00  0.00    -0.246 OA
BRANCH  22  24
ATOM     24  C   UNL A   1      39.394  22.729  26.581  1.00  0.00     0.060 A 
ATOM     25  C   UNL A   1      38.956  23.997  26.173  1.00  0.00     0.016 A 
ATOM     26  C   UNL A   1      40.402  22.653  27.549  1.00  0.00     0.016 A 
ATOM     27  C   UNL A   1      39.451  25.162  26.789  1.00  0.00     0.010 A 
ATOM     28  C   UNL A   1      40.925  23.832  28.143  1.00  0.00     0.010 A 
ATOM     29  C   UNL A   1      40.446  25.104  27.783  1.00  0.00    -0.014 A 
BRANCH  29  30
ATOM     30  C   UNL A   1      41.095  26.390  28.227  1.00  0.00     0.031 A 
ATOM     31  C   UNL A   1      42.507  26.637  27.789  1.00  0.00     0.074 A 
ATOM     32  C   UNL A   1      40.492  27.371  28.933  1.00  0.00     0.049 A 
ATOM     33  N   UNL A   1      43.233  27.721  27.890  1.00  0.00    -0.248 NA
ATOM     34  C   UNL A   1      43.198  25.490  27.185  1.00  0.00     0.031 C 
ATOM     35  C   UNL A   1      39.188  27.262  29.548  1.00  0.00     0.029 A 
ATOM     36  N   UNL A   1      40.876  28.663  29.237  1.00  0.00    -0.354 N 
ATOM     37  C   UNL A   1      44.459  27.395  27.338  1.00  0.00     0.074 A 
ATOM     38  C   UNL A   1      44.389  26.005  26.933  1.00  0.00     0.031 C 
ATOM     39  C   UNL A   1      38.802  28.455  30.032  1.00  0.00     0.029 A 
ATOM     40  C   UNL A   1      39.890  29.413  29.851  1.00  0.00     0.049 A 
ATOM     41  H   UNL A   1      41.771  29.018  29.035  1.00  0.00     0.167 HD
ATOM     42  C   UNL A   1      45.556  28.171  27.187  1.00  0.00     0.037 A 
ATOM     43  C   UNL A   1      39.870  30.708  30.241  1.00  0.00     0.037 A 
ATOM     44  C   UNL A   1      45.693  29.515  27.670  1.00  0.00     0.049 A 
ATOM     45  C   UNL A   1      41.123  31.541  30.096  1.00  0.00     0.074 A 
ATOM     46  C   UNL A   1      46.811  30.332  27.640  1.00  0.00     0.029 A 
ATOM     47  N   UNL A   1      44.688  30.236  28.297  1.00  0.00    -0.354 N 
ATOM     48  N   UNL A   1      42.263  31.231  29.529  1.00  0.00    -0.248 NA
ATOM     49  C   UNL A   1      41.102  32.891  30.687  1.00  0.00     0.031 C 
ATOM     50  C   UNL A   1      46.494  31.533  28.282  1.00  0.00     0.029 A 
ATOM     51  C   UNL A   1      45.165  31.484  28.669  1.00  0.00     0.049 A 
ATOM     52  H   UNL A   1      43.773  29.911  28.455  1.00  0.00     0.167 HD
ATOM     53  C   UNL A   1      43.085  32.339  29.693  1.00  0.00     0.074 A 
ATOM     54  C   UNL A   1      42.306  33.349  30.375  1.00  0.00     0.031 C 
ATOM     55  C   UNL A   1      44.381  32.494  29.329  1.00  0.00     0.037 A 
BRANCH  42  56
ATOM     56  C   UNL A   1      46.714  27.524  26.500  1.00  0.00     0.064 A 
ATOM     57  C   UNL A   1      47.729  26.898  27.238  1.00  0.00     0.173 A 
ATOM     58  C   UNL A   1      46.848  27.596  25.108  1.00  0.00     0.173 A 
ATOM     59  F   UNL A   1      47.654  26.843  28.577  1.00  0.00    -0.203 F 
ATOM     60  C   UNL A   1      48.860  26.395  26.604  1.00  0.00     0.198 A 
ATOM     61  C   UNL A   1      47.968  27.071  24.476  1.00  0.00     0.198 A 
ATOM     62  F   UNL A   1      45.907  28.202  24.368  1.00  0.00    -0.203 F 
ATOM     63  F   UNL A   1      49.851  25.862  27.331  1.00  0.00    -0.200 F 
ATOM     64  C   UNL A   1      48.978  26.480  25.225  1.00  0.00     0.200 A 
ATOM     65  F   UNL A   1      48.086  27.158  23.144  1.00  0.00    -0.200 F 
ATOM     66  F   UNL A   1      50.077  26.013  24.617  1.00  0.00    -0.200 F 
ENDBRANCH  42  56
BRANCH  43  67
ATOM     67  C   UNL A   1      38.657  31.331  30.856  1.00  0.00     0.064 A 
ATOM     68  C   UNL A   1      38.441  31.274  32.244  1.00  0.00     0.173 A 
ATOM     69  C   UNL A   1      37.636  31.887  30.072  1.00  0.00     0.173 A 
ATOM     70  F   UNL A   1      39.362  30.713  33.042  1.00  0.00    -0.203 F 
ATOM     71  C   UNL A   1      37.246  31.716  32.815  1.00  0.00     0.198 A 
ATOM     72  C   UNL A   1      36.455  32.361  30.648  1.00  0.00     0.198 A 
ATOM     73  F   UNL A   1      37.772  31.956  28.740  1.00  0.00    -0.203 F 
ATOM     74  F   UNL A   1      37.039  31.573  34.131  1.00  0.00    -0.200 F 
ATOM     75  C   UNL A   1      36.255  32.262  32.015  1.00  0.00     0.200 A 
ATOM     76  F   UNL A   1      35.503  32.894  29.870  1.00  0.00    -0.200 F 
ATOM     77  F   UNL A   1      35.100  32.671  32.558  1.00  0.00    -0.200 F 
ENDBRANCH  43  67
BRANCH  55  78
ATOM     78  C   UNL A   1      45.039  33.809  29.632  1.00  0.00     0.064 A 
ATOM     79  C   UNL A   1      45.725  34.033  30.834  1.00  0.00     0.173 A 
ATOM     80  C   UNL A   1      45.026  34.843  28.682  1.00  0.00     0.173 A 
ATOM     81  F   UNL A   1      45.754  33.083  31.782  1.00  0.00    -0.203 F 
ATOM     82  C   UNL A   1      46.358  35.248  31.084  1.00  0.00     0.198 A 
ATOM     83  C   UNL A   1      45.683  36.047  28.923  1.00  0.00     0.198 A 
ATOM     84  F   UNL A   1      44.388  34.680  27.514  1.00  0.00    -0.203 F 
ATOM     85  F   UNL A   1      46.975  35.453  32.256  1.00  0.00    -0.200 F 
ATOM     86  C   UNL A   1      46.344  36.250  30.125  1.00  0.00     0.200 A 
ATOM     87  F   UNL A   1      45.677  37.010  27.991  1.00  0.00    -0.200 F 
ATOM     88  F   UNL A   1      46.963  37.416  30.361  1.00  0.00    -0.200 F 
ENDBRANCH  55  78
ENDBRANCH  29  30
ENDBRANCH  22  24
ENDBRANCH  21  22
ENDBRANCH  20  21
ENDBRANCH   1  20
TORSDOF 14
ENDMDL
