MODEL 1
REMARK VINA RESULT:     -12.8      0.000      0.000
REMARK SMILES Cc1ccc(S(=O)(=O)Nc2ccccn2)cc1C(=O)OCCOC(=O)c1ccc(-c2c3nc(c(-c4c(F)c(F)c(F)c(F)c4F)c4ccc([nH]4)c(-c4c(F)c(F)c(F)c(F)c4F)c4nc(c(-c5c(F)c(F)c(F)c(F)c5F)c5ccc2[nH]5)C=C4)C=C3)cc1
REMARK SMILES IDX 21 1 20 2 18 3 19 4 17 5 1 6 2 7 3 8 4 9 16 10 5 11 6 12
REMARK SMILES IDX 7 13 8 14 9 15 10 17 11 18 15 19 12 20 14 21 13 22 22 23
REMARK SMILES IDX 23 24 24 25 25 26 26 27 27 28 88 29 28 30 87 31 29 32 30 33
REMARK SMILES IDX 31 34 81 35 32 36 86 37 80 38 82 39 33 40 85 41 79 42 78 43
REMARK SMILES IDX 34 45 66 46 46 47 65 48 47 49 50 50 64 51 83 52 48 53 49 54
REMARK SMILES IDX 63 56 84 57 51 58 35 59 36 60 44 61 37 62 38 63 42 64 45 65
REMARK SMILES IDX 39 66 40 67 43 68 41 69 67 70 68 71 76 72 69 73 70 74 74 75
REMARK SMILES IDX 77 76 71 77 72 78 75 79 73 80 52 81 53 82 61 83 54 84 55 85
REMARK SMILES IDX 59 86 62 87 56 88 57 89 60 90 58 91
REMARK H PARENT 9 16 82 44 50 55
REMARK Flexibility Score: inf
ROOT
ATOM      1  C   UNL A   1      43.008  19.126  25.692  1.00  0.00     0.275 C 
ENDROOT
BRANCH   1   2
ATOM      2  O   UNL A   1      42.310  20.387  25.815  1.00  0.00    -0.458 OA
BRANCH   2   3
ATOM      3  C   UNL A   1      41.476  20.388  26.892  1.00  0.00     0.338 C 
ATOM      4  O   UNL A   1      41.510  19.551  27.783  1.00  0.00    -0.246 OA
BRANCH   3   5
ATOM      5  C   UNL A   1      40.402  21.411  26.926  1.00  0.00     0.064 A 
ATOM      6  C   UNL A   1      41.841  22.769  28.571  1.00  0.00     0.045 C 
ATOM      7  C   UNL A   1      40.673  22.602  27.634  1.00  0.00    -0.036 A 
ATOM      8  C   UNL A   1      39.801  23.691  27.492  1.00  0.00     0.006 A 
ATOM      9  C   UNL A   1      38.704  23.622  26.636  1.00  0.00     0.022 A 
ATOM     10  C   UNL A   1      39.271  21.331  26.085  1.00  0.00     0.038 A 
ATOM     11  C   UNL A   1      38.430  22.446  25.930  1.00  0.00     0.088 A 
BRANCH  11  12
ATOM     12  S   UNL A   1      36.981  22.459  24.868  1.00  0.00     0.263 S 
ATOM     13  O   UNL A   1      36.552  23.828  24.758  1.00  0.00    -0.201 OA
ATOM     14  O   UNL A   1      37.350  21.691  23.686  1.00  0.00    -0.201 OA
BRANCH  12  15
ATOM     15  N   UNL A   1      35.837  21.513  25.626  1.00  0.00    -0.263 N 
ATOM     16  H   UNL A   1      35.903  21.351  26.595  1.00  0.00     0.182 HD
BRANCH  15  17
ATOM     17  C   UNL A   1      34.774  20.939  24.894  1.00  0.00     0.139 A 
ATOM     18  C   UNL A   1      33.624  21.621  24.538  1.00  0.00     0.048 A 
ATOM     19  N   UNL A   1      34.877  19.593  24.869  1.00  0.00    -0.239 NA
ATOM     20  C   UNL A   1      32.503  20.885  24.175  1.00  0.00     0.005 A 
ATOM     21  C   UNL A   1      33.778  18.904  24.481  1.00  0.00     0.113 A 
ATOM     22  C   UNL A   1      32.574  19.499  24.150  1.00  0.00     0.020 A 
ENDBRANCH  15  17
ENDBRANCH  12  15
ENDBRANCH  11  12
ENDBRANCH   3   5
ENDBRANCH   2   3
ENDBRANCH   1   2
BRANCH   1  23
ATOM     23  C   UNL A   1      44.159  19.083  24.674  1.00  0.00     0.275 C 
BRANCH  23  24
ATOM     24  O   UNL A   1      44.729  20.303  24.136  1.00  0.00    -0.458 OA
BRANCH  24  25
ATOM     25  C   UNL A   1      45.832  20.902  24.628  1.00  0.00     0.338 C 
ATOM     26  O   UNL A   1      46.943  20.399  24.567  1.00  0.00    -0.246 OA
BRANCH  25  27
ATOM     27  C   UNL A   1      45.596  22.208  25.271  1.00  0.00     0.060 A 
ATOM     28  C   UNL A   1      45.819  23.366  24.513  1.00  0.00     0.016 A 
ATOM     29  C   UNL A   1      45.036  22.278  26.542  1.00  0.00     0.016 A 
ATOM     30  C   UNL A   1      45.369  24.598  24.958  1.00  0.00     0.010 A 
ATOM     31  C   UNL A   1      44.520  23.478  26.958  1.00  0.00     0.010 A 
ATOM     32  C   UNL A   1      44.721  24.633  26.181  1.00  0.00    -0.014 A 
BRANCH  32  33
ATOM     33  C   UNL A   1      44.447  25.866  26.885  1.00  0.00     0.031 A 
ATOM     34  C   UNL A   1      43.132  26.520  26.809  1.00  0.00     0.074 A 
ATOM     35  C   UNL A   1      45.456  26.159  27.736  1.00  0.00     0.049 A 
ATOM     36  N   UNL A   1      42.908  27.723  27.199  1.00  0.00    -0.248 NA
ATOM     37  C   UNL A   1      41.942  25.915  26.218  1.00  0.00     0.031 C 
ATOM     38  C   UNL A   1      45.473  26.950  28.947  1.00  0.00     0.029 A 
ATOM     39  N   UNL A   1      46.794  25.746  27.583  1.00  0.00    -0.354 N 
ATOM     40  C   UNL A   1      41.536  27.891  27.271  1.00  0.00     0.074 A 
ATOM     41  C   UNL A   1      40.995  26.821  26.481  1.00  0.00     0.031 C 
ATOM     42  C   UNL A   1      46.755  27.208  29.276  1.00  0.00     0.029 A 
ATOM     43  C   UNL A   1      47.600  26.714  28.198  1.00  0.00     0.049 A 
ATOM     44  H   UNL A   1      47.106  24.931  27.129  1.00  0.00     0.167 HD
ATOM     45  C   UNL A   1      41.057  28.805  28.164  1.00  0.00     0.037 A 
ATOM     46  C   UNL A   1      48.394  27.494  27.400  1.00  0.00     0.037 A 
ATOM     47  C   UNL A   1      42.195  29.520  28.743  1.00  0.00     0.049 A 
ATOM     48  C   UNL A   1      47.844  28.893  27.305  1.00  0.00     0.074 A 
ATOM     49  C   UNL A   1      42.919  29.303  29.903  1.00  0.00     0.029 A 
ATOM     50  N   UNL A   1      42.992  30.299  27.912  1.00  0.00    -0.354 N 
ATOM     51  N   UNL A   1      46.591  29.200  27.497  1.00  0.00    -0.248 NA
ATOM     52  C   UNL A   1      48.686  30.051  27.049  1.00  0.00     0.031 C 
ATOM     53  C   UNL A   1      44.207  29.873  29.715  1.00  0.00     0.029 A 
ATOM     54  C   UNL A   1      44.256  30.443  28.452  1.00  0.00     0.049 A 
ATOM     55  H   UNL A   1      42.697  30.692  27.060  1.00  0.00     0.167 HD
ATOM     56  C   UNL A   1      46.457  30.559  27.482  1.00  0.00     0.074 A 
ATOM     57  C   UNL A   1      47.795  31.046  27.187  1.00  0.00     0.031 C 
ATOM     58  C   UNL A   1      45.278  31.195  27.740  1.00  0.00     0.037 A 
BRANCH  45  59
ATOM     59  C   UNL A   1      39.662  28.879  28.761  1.00  0.00     0.064 A 
ATOM     60  C   UNL A   1      38.598  29.388  27.974  1.00  0.00     0.173 A 
ATOM     61  C   UNL A   1      39.294  28.550  30.080  1.00  0.00     0.173 A 
ATOM     62  F   UNL A   1      38.770  29.696  26.681  1.00  0.00    -0.203 F 
ATOM     63  C   UNL A   1      37.313  29.608  28.478  1.00  0.00     0.198 A 
ATOM     64  C   UNL A   1      38.004  28.771  30.586  1.00  0.00     0.198 A 
ATOM     65  F   UNL A   1      40.147  27.985  30.937  1.00  0.00    -0.203 F 
ATOM     66  F   UNL A   1      36.366  30.123  27.682  1.00  0.00    -0.200 F 
ATOM     67  C   UNL A   1      37.017  29.309  29.790  1.00  0.00     0.200 A 
ATOM     68  F   UNL A   1      37.730  28.457  31.861  1.00  0.00    -0.200 F 
ATOM     69  F   UNL A   1      35.788  29.525  30.278  1.00  0.00    -0.200 F 
ENDBRANCH  45  59
BRANCH  46  70
ATOM     70  C   UNL A   1      48.982  26.715  26.266  1.00  0.00     0.064 A 
ATOM     71  C   UNL A   1      48.460  26.987  24.983  1.00  0.00     0.173 A 
ATOM     72  C   UNL A   1      50.291  26.235  26.347  1.00  0.00     0.173 A 
ATOM     73  F   UNL A   1      47.189  27.398  24.851  1.00  0.00    -0.203 F 
ATOM     74  C   UNL A   1      49.287  27.032  23.867  1.00  0.00     0.198 A 
ATOM     75  C   UNL A   1      51.111  26.275  25.224  1.00  0.00     0.198 A 
ATOM     76  F   UNL A   1      50.832  25.902  27.527  1.00  0.00    -0.203 F 
ATOM     77  F   UNL A   1      48.819  27.484  22.695  1.00  0.00    -0.200 F 
ATOM     78  C   UNL A   1      50.629  26.738  24.005  1.00  0.00     0.200 A 
ATOM     79  F   UNL A   1      52.411  26.003  25.368  1.00  0.00    -0.200 F 
ATOM     80  F   UNL A   1      51.458  26.976  22.982  1.00  0.00    -0.200 F 
ENDBRANCH  46  70
BRANCH  58  81
ATOM     81  C   UNL A   1      45.027  32.647  27.445  1.00  0.00     0.064 A 
ATOM     82  C   UNL A   1      44.293  33.087  26.334  1.00  0.00     0.173 A 
ATOM     83  C   UNL A   1      45.412  33.648  28.366  1.00  0.00     0.173 A 
ATOM     84  F   UNL A   1      43.721  32.224  25.485  1.00  0.00    -0.203 F 
ATOM     85  C   UNL A   1      44.079  34.442  26.090  1.00  0.00     0.198 A 
ATOM     86  C   UNL A   1      45.115  34.990  28.166  1.00  0.00     0.198 A 
ATOM     87  F   UNL A   1      46.064  33.354  29.502  1.00  0.00    -0.203 F 
ATOM     88  F   UNL A   1      43.459  34.819  24.964  1.00  0.00    -0.200 F 
ATOM     89  C   UNL A   1      44.483  35.392  27.009  1.00  0.00     0.200 A 
ATOM     90  F   UNL A   1      45.434  35.888  29.108  1.00  0.00    -0.200 F 
ATOM     91  F   UNL A   1      44.242  36.690  26.789  1.00  0.00    -0.200 F 
ENDBRANCH  58  81
ENDBRANCH  32  33
ENDBRANCH  25  27
ENDBRANCH  24  25
ENDBRANCH  23  24
ENDBRANCH   1  23
TORSDOF 14
ENDMDL
MODEL 2
REMARK VINA RESULT:     -12.7      6.662     12.471
REMARK SMILES Cc1ccc(S(=O)(=O)Nc2ccccn2)cc1C(=O)OCCOC(=O)c1ccc(-c2c3nc(c(-c4c(F)c(F)c(F)c(F)c4F)c4ccc([nH]4)c(-c4c(F)c(F)c(F)c(F)c4F)c4nc(c(-c5c(F)c(F)c(F)c(F)c5F)c5ccc2[nH]5)C=C4)C=C3)cc1
REMARK SMILES IDX 21 1 20 2 18 3 19 4 17 5 1 6 2 7 3 8 4 9 16 10 5 11 6 12
REMARK SMILES IDX 7 13 8 14 9 15 10 17 11 18 15 19 12 20 14 21 13 22 22 23
REMARK SMILES IDX 23 24 24 25 25 26 26 27 27 28 88 29 28 30 87 31 29 32 30 33
REMARK SMILES IDX 31 34 81 35 32 36 86 37 80 38 82 39 33 40 85 41 79 42 78 43
REMARK SMILES IDX 34 45 66 46 46 47 65 48 47 49 50 50 64 51 83 52 48 53 49 54
REMARK SMILES IDX 63 56 84 57 51 58 35 59 36 60 44 61 37 62 38 63 42 64 45 65
REMARK SMILES IDX 39 66 40 67 43 68 41 69 67 70 68 71 76 72 69 73 70 74 74 75
REMARK SMILES IDX 77 76 71 77 72 78 75 79 73 80 52 81 53 82 61 83 54 84 55 85
REMARK SMILES IDX 59 86 62 87 56 88 57 89 60 90 58 91
REMARK H PARENT 9 16 82 44 50 55
REMARK Flexibility Score: inf
ROOT
ATOM      1  C   UNL A   1      33.380  35.426  30.159  1.00  0.00     0.275 C 
ENDROOT
BRANCH   1   2
ATOM      2  O   UNL A   1      33.733  34.079  29.766  1.00  0.00    -0.458 OA
BRANCH   2   3
ATOM      3  C   UNL A   1      34.298  34.058  28.527  1.00  0.00     0.338 C 
ATOM      4  O   UNL A   1      34.457  35.052  27.831  1.00  0.00    -0.246 OA
BRANCH   3   5
ATOM      5  C   UNL A   1      34.645  32.735  27.954  1.00  0.00     0.064 A 
ATOM      6  C   UNL A   1      37.083  33.141  28.668  1.00  0.00     0.045 C 
ATOM      7  C   UNL A   1      35.962  32.270  28.164  1.00  0.00    -0.036 A 
ATOM      8  C   UNL A   1      36.268  30.935  27.864  1.00  0.00     0.006 A 
ATOM      9  C   UNL A   1      35.284  30.061  27.404  1.00  0.00     0.022 A 
ATOM     10  C   UNL A   1      33.657  31.857  27.455  1.00  0.00     0.038 A 
ATOM     11  C   UNL A   1      33.978  30.514  27.195  1.00  0.00     0.088 A 
BRANCH  11  12
ATOM     12  S   UNL A   1      32.792  29.309  26.583  1.00  0.00     0.263 S 
ATOM     13  O   UNL A   1      33.518  28.090  26.345  1.00  0.00    -0.201 OA
ATOM     14  O   UNL A   1      31.673  29.347  27.515  1.00  0.00    -0.201 OA
BRANCH  12  15
ATOM     15  N   UNL A   1      32.168  29.943  25.173  1.00  0.00    -0.263 N 
ATOM     16  H   UNL A   1      32.616  30.706  24.742  1.00  0.00     0.182 HD
BRANCH  15  17
ATOM     17  C   UNL A   1      31.003  29.396  24.590  1.00  0.00     0.139 A 
ATOM     18  C   UNL A   1      30.851  28.057  24.279  1.00  0.00     0.048 A 
ATOM     19  N   UNL A   1      30.212  30.369  24.092  1.00  0.00    -0.239 NA
ATOM     20  C   UNL A   1      29.857  27.696  23.377  1.00  0.00     0.005 A 
ATOM     21  C   UNL A   1      29.233  29.984  23.239  1.00  0.00     0.113 A 
ATOM     22  C   UNL A   1      29.035  28.675  22.838  1.00  0.00     0.020 A 
ENDBRANCH  15  17
ENDBRANCH  12  15
ENDBRANCH  11  12
ENDBRANCH   3   5
ENDBRANCH   2   3
ENDBRANCH   1   2
BRANCH   1  23
ATOM     23  C   UNL A   1      32.574  35.564  31.462  1.00  0.00     0.275 C 
BRANCH  23  24
ATOM     24  O   UNL A   1      33.077  35.031  32.712  1.00  0.00    -0.458 OA
BRANCH  24  25
ATOM     25  C   UNL A   1      34.183  35.483  33.336  1.00  0.00     0.338 C 
ATOM     26  O   UNL A   1      34.218  36.546  33.936  1.00  0.00    -0.246 OA
BRANCH  25  27
ATOM     27  C   UNL A   1      35.364  34.608  33.222  1.00  0.00     0.060 A 
ATOM     28  C   UNL A   1      35.402  33.446  34.006  1.00  0.00     0.016 A 
ATOM     29  C   UNL A   1      36.338  34.859  32.262  1.00  0.00     0.016 A 
ATOM     30  C   UNL A   1      36.339  32.457  33.757  1.00  0.00     0.010 A 
ATOM     31  C   UNL A   1      37.222  33.856  31.957  1.00  0.00     0.010 A 
ATOM     32  C   UNL A   1      37.238  32.680  32.728  1.00  0.00    -0.014 A 
BRANCH  32  33
ATOM     33  C   UNL A   1      38.423  31.873  32.539  1.00  0.00     0.031 A 
ATOM     34  C   UNL A   1      38.383  30.615  31.776  1.00  0.00     0.074 A 
ATOM     35  C   UNL A   1      39.522  32.541  32.952  1.00  0.00     0.049 A 
ATOM     36  N   UNL A   1      39.327  29.744  31.786  1.00  0.00    -0.248 NA
ATOM     37  C   UNL A   1      37.245  30.168  30.979  1.00  0.00     0.031 C 
ATOM     38  C   UNL A   1      40.911  32.411  32.568  1.00  0.00     0.029 A 
ATOM     39  N   UNL A   1      39.538  33.550  33.935  1.00  0.00    -0.354 N 
ATOM     40  C   UNL A   1      39.096  28.866  30.741  1.00  0.00     0.074 A 
ATOM     41  C   UNL A   1      37.715  29.058  30.400  1.00  0.00     0.031 C 
ATOM     42  C   UNL A   1      41.671  33.070  33.465  1.00  0.00     0.029 A 
ATOM     43  C   UNL A   1      40.800  33.520  34.542  1.00  0.00     0.049 A 
ATOM     44  H   UNL A   1      38.800  34.163  34.156  1.00  0.00     0.167 HD
ATOM     45  C   UNL A   1      40.178  28.247  30.185  1.00  0.00     0.037 A 
ATOM     46  C   UNL A   1      40.881  33.105  35.844  1.00  0.00     0.037 A 
ATOM     47  C   UNL A   1      41.357  28.579  30.985  1.00  0.00     0.049 A 
ATOM     48  C   UNL A   1      41.482  31.727  35.929  1.00  0.00     0.074 A 
ATOM     49  C   UNL A   1      42.309  29.574  30.844  1.00  0.00     0.029 A 
ATOM     50  N   UNL A   1      41.413  28.154  32.308  1.00  0.00    -0.354 N 
ATOM     51  N   UNL A   1      41.458  30.858  34.956  1.00  0.00    -0.248 NA
ATOM     52  C   UNL A   1      42.209  31.259  37.099  1.00  0.00     0.031 C 
ATOM     53  C   UNL A   1      42.865  29.817  32.129  1.00  0.00     0.029 A 
ATOM     54  C   UNL A   1      42.261  28.964  33.040  1.00  0.00     0.049 A 
ATOM     55  H   UNL A   1      40.918  27.385  32.671  1.00  0.00     0.167 HD
ATOM     56  C   UNL A   1      42.212  29.775  35.306  1.00  0.00     0.074 A 
ATOM     57  C   UNL A   1      42.652  30.070  36.661  1.00  0.00     0.031 C 
ATOM     58  C   UNL A   1      42.453  28.731  34.462  1.00  0.00     0.037 A 
BRANCH  45  59
ATOM     59  C   UNL A   1      40.282  27.617  28.807  1.00  0.00     0.064 A 
ATOM     60  C   UNL A   1      39.717  26.336  28.586  1.00  0.00     0.173 A 
ATOM     61  C   UNL A   1      40.958  28.146  27.690  1.00  0.00     0.173 A 
ATOM     62  F   UNL A   1      38.994  25.718  29.530  1.00  0.00    -0.203 F 
ATOM     63  C   UNL A   1      39.872  25.628  27.389  1.00  0.00     0.198 A 
ATOM     64  C   UNL A   1      41.113  27.437  26.490  1.00  0.00     0.198 A 
ATOM     65  F   UNL A   1      41.483  29.373  27.691  1.00  0.00    -0.203 F 
ATOM     66  F   UNL A   1      39.336  24.406  27.266  1.00  0.00    -0.200 F 
ATOM     67  C   UNL A   1      40.581  26.175  26.342  1.00  0.00     0.200 A 
ATOM     68  F   UNL A   1      41.792  27.992  25.474  1.00  0.00    -0.200 F 
ATOM     69  F   UNL A   1      40.737  25.497  25.198  1.00  0.00    -0.200 F 
ENDBRANCH  45  59
BRANCH  46  70
ATOM     70  C   UNL A   1      39.728  33.599  36.659  1.00  0.00     0.064 A 
ATOM     71  C   UNL A   1      38.757  32.638  37.017  1.00  0.00     0.173 A 
ATOM     72  C   UNL A   1      39.879  34.710  37.492  1.00  0.00     0.173 A 
ATOM     73  F   UNL A   1      38.537  31.581  36.220  1.00  0.00    -0.203 F 
ATOM     74  C   UNL A   1      38.163  32.653  38.273  1.00  0.00     0.198 A 
ATOM     75  C   UNL A   1      39.274  34.722  38.744  1.00  0.00     0.198 A 
ATOM     76  F   UNL A   1      40.741  35.690  37.185  1.00  0.00    -0.203 F 
ATOM     77  F   UNL A   1      37.396  31.628  38.671  1.00  0.00    -0.200 F 
ATOM     78  C   UNL A   1      38.475  33.664  39.159  1.00  0.00     0.200 A 
ATOM     79  F   UNL A   1      39.592  35.696  39.603  1.00  0.00    -0.200 F 
ATOM     80  F   UNL A   1      38.063  33.568  40.430  1.00  0.00    -0.200 F 
ENDBRANCH  46  70
BRANCH  58  81
ATOM     81  C   UNL A   1      43.018  27.410  34.904  1.00  0.00     0.064 A 
ATOM     82  C   UNL A   1      44.359  27.237  35.278  1.00  0.00     0.173 A 
ATOM     83  C   UNL A   1      42.175  26.291  35.093  1.00  0.00     0.173 A 
ATOM     84  F   UNL A   1      45.216  28.266  35.314  1.00  0.00    -0.203 F 
ATOM     85  C   UNL A   1      44.851  25.998  35.682  1.00  0.00     0.198 A 
ATOM     86  C   UNL A   1      42.651  25.083  35.586  1.00  0.00     0.198 A 
ATOM     87  F   UNL A   1      40.860  26.342  34.833  1.00  0.00    -0.203 F 
ATOM     88  F   UNL A   1      46.158  25.858  35.935  1.00  0.00    -0.200 F 
ATOM     89  C   UNL A   1      43.996  24.924  35.843  1.00  0.00     0.200 A 
ATOM     90  F   UNL A   1      41.795  24.078  35.821  1.00  0.00    -0.200 F 
ATOM     91  F   UNL A   1      44.466  23.745  36.268  1.00  0.00    -0.200 F 
ENDBRANCH  58  81
ENDBRANCH  32  33
ENDBRANCH  25  27
ENDBRANCH  24  25
ENDBRANCH  23  24
ENDBRANCH   1  23
TORSDOF 14
ENDMDL
MODEL 3
REMARK VINA RESULT:     -12.4      3.973      5.882
REMARK SMILES Cc1ccc(S(=O)(=O)Nc2ccccn2)cc1C(=O)OCCOC(=O)c1ccc(-c2c3nc(c(-c4c(F)c(F)c(F)c(F)c4F)c4ccc([nH]4)c(-c4c(F)c(F)c(F)c(F)c4F)c4nc(c(-c5c(F)c(F)c(F)c(F)c5F)c5ccc2[nH]5)C=C4)C=C3)cc1
REMARK SMILES IDX 21 1 20 2 18 3 19 4 17 5 1 6 2 7 3 8 4 9 16 10 5 11 6 12
REMARK SMILES IDX 7 13 8 14 9 15 10 17 11 18 15 19 12 20 14 21 13 22 22 23
REMARK SMILES IDX 23 24 24 25 25 26 26 27 27 28 88 29 28 30 87 31 29 32 30 33
REMARK SMILES IDX 31 34 81 35 32 36 86 37 80 38 82 39 33 40 85 41 79 42 78 43
REMARK SMILES IDX 34 45 66 46 46 47 65 48 47 49 50 50 64 51 83 52 48 53 49 54
REMARK SMILES IDX 63 56 84 57 51 58 35 59 36 60 44 61 37 62 38 63 42 64 45 65
REMARK SMILES IDX 39 66 40 67 43 68 41 69 67 70 68 71 76 72 69 73 70 74 74 75
REMARK SMILES IDX 77 76 71 77 72 78 75 79 73 80 52 81 53 82 61 83 54 84 55 85
REMARK SMILES IDX 59 86 62 87 56 88 57 89 60 90 58 91
REMARK H PARENT 9 16 82 44 50 55
REMARK Flexibility Score: inf
ROOT
ATOM      1  C   UNL A   1      36.302  21.710  24.621  1.00  0.00     0.275 C 
ENDROOT
BRANCH   1   2
ATOM      2  O   UNL A   1      35.810  22.880  23.927  1.00  0.00    -0.458 OA
BRANCH   2   3
ATOM      3  C   UNL A   1      34.449  22.920  23.929  1.00  0.00     0.338 C 
ATOM      4  O   UNL A   1      33.737  21.999  23.553  1.00  0.00    -0.246 OA
BRANCH   3   5
ATOM      5  C   UNL A   1      33.801  24.197  24.316  1.00  0.00     0.064 A 
ATOM      6  C   UNL A   1      33.769  23.364  26.750  1.00  0.00     0.045 C 
ATOM      7  C   UNL A   1      33.617  24.431  25.697  1.00  0.00    -0.036 A 
ATOM      8  C   UNL A   1      33.242  25.712  26.126  1.00  0.00     0.006 A 
ATOM      9  C   UNL A   1      33.092  26.756  25.216  1.00  0.00     0.022 A 
ATOM     10  C   UNL A   1      33.616  25.248  23.392  1.00  0.00     0.038 A 
ATOM     11  C   UNL A   1      33.275  26.533  23.848  1.00  0.00     0.088 A 
BRANCH  11  12
ATOM     12  S   UNL A   1      33.039  27.945  22.760  1.00  0.00     0.263 S 
ATOM     13  O   UNL A   1      33.019  29.118  23.593  1.00  0.00    -0.201 OA
ATOM     14  O   UNL A   1      34.026  27.795  21.698  1.00  0.00    -0.201 OA
BRANCH  12  15
ATOM     15  N   UNL A   1      31.578  27.705  21.994  1.00  0.00    -0.263 N 
ATOM     16  H   UNL A   1      31.510  27.043  21.269  1.00  0.00     0.182 HD
BRANCH  15  17
ATOM     17  C   UNL A   1      30.434  28.442  22.375  1.00  0.00     0.139 A 
ATOM     18  C   UNL A   1      29.403  27.926  23.139  1.00  0.00     0.048 A 
ATOM     19  N   UNL A   1      30.326  29.574  21.648  1.00  0.00    -0.239 NA
ATOM     20  C   UNL A   1      28.178  28.584  23.129  1.00  0.00     0.005 A 
ATOM     21  C   UNL A   1      29.131  30.209  21.682  1.00  0.00     0.113 A 
ATOM     22  C   UNL A   1      28.032  29.744  22.382  1.00  0.00     0.020 A 
ENDBRANCH  15  17
ENDBRANCH  12  15
ENDBRANCH  11  12
ENDBRANCH   3   5
ENDBRANCH   2   3
ENDBRANCH   1   2
BRANCH   1  23
ATOM     23  C   UNL A   1      37.777  21.747  25.054  1.00  0.00     0.275 C 
BRANCH  23  24
ATOM     24  O   UNL A   1      38.229  22.650  26.094  1.00  0.00    -0.458 OA
BRANCH  24  25
ATOM     25  C   UNL A   1      39.527  22.884  26.380  1.00  0.00     0.338 C 
ATOM     26  O   UNL A   1      40.415  22.088  26.123  1.00  0.00    -0.246 OA
BRANCH  25  27
ATOM     27  C   UNL A   1      39.793  24.168  27.051  1.00  0.00     0.060 A 
ATOM     28  C   UNL A   1      40.450  25.170  26.322  1.00  0.00     0.016 A 
ATOM     29  C   UNL A   1      39.282  24.422  28.320  1.00  0.00     0.016 A 
ATOM     30  C   UNL A   1      40.495  26.472  26.793  1.00  0.00     0.010 A 
ATOM     31  C   UNL A   1      39.254  25.720  28.760  1.00  0.00     0.010 A 
ATOM     32  C   UNL A   1      39.890  26.727  28.012  1.00  0.00    -0.014 A 
BRANCH  32  33
ATOM     33  C   UNL A   1      40.094  27.958  28.743  1.00  0.00     0.031 A 
ATOM     34  C   UNL A   1      39.136  29.071  28.656  1.00  0.00     0.074 A 
ATOM     35  C   UNL A   1      41.111  27.823  29.622  1.00  0.00     0.049 A 
ATOM     36  N   UNL A   1      39.384  30.261  29.074  1.00  0.00    -0.248 NA
ATOM     37  C   UNL A   1      37.824  28.985  28.024  1.00  0.00     0.031 C 
ATOM     38  C   UNL A   1      41.397  28.525  30.855  1.00  0.00     0.029 A 
ATOM     39  N   UNL A   1      42.189  26.927  29.487  1.00  0.00    -0.354 N 
ATOM     40  C   UNL A   1      38.183  30.946  29.120  1.00  0.00     0.074 A 
ATOM     41  C   UNL A   1      37.293  30.183  28.291  1.00  0.00     0.031 C 
ATOM     42  C   UNL A   1      42.668  28.260  31.217  1.00  0.00     0.029 A 
ATOM     43  C   UNL A   1      43.287  27.496  30.145  1.00  0.00     0.049 A 
ATOM     44  H   UNL A   1      42.175  26.061  29.018  1.00  0.00     0.167 HD
ATOM     45  C   UNL A   1      38.068  31.959  30.028  1.00  0.00     0.037 A 
ATOM     46  C   UNL A   1      44.345  27.920  29.386  1.00  0.00     0.037 A 
ATOM     47  C   UNL A   1      39.376  32.168  30.650  1.00  0.00     0.049 A 
ATOM     48  C   UNL A   1      44.383  29.424  29.316  1.00  0.00     0.074 A 
ATOM     49  C   UNL A   1      39.924  31.669  31.818  1.00  0.00     0.029 A 
ATOM     50  N   UNL A   1      40.437  32.590  29.857  1.00  0.00    -0.354 N 
ATOM     51  N   UNL A   1      43.341  30.190  29.490  1.00  0.00    -0.248 NA
ATOM     52  C   UNL A   1      45.615  30.170  29.109  1.00  0.00     0.031 C 
ATOM     53  C   UNL A   1      41.338  31.698  31.673  1.00  0.00     0.029 A 
ATOM     54  C   UNL A   1      41.642  32.225  30.428  1.00  0.00     0.049 A 
ATOM     55  H   UNL A   1      40.343  33.082  29.009  1.00  0.00     0.167 HD
ATOM     56  C   UNL A   1      43.744  31.494  29.508  1.00  0.00     0.074 A 
ATOM     57  C   UNL A   1      45.174  31.429  29.255  1.00  0.00     0.031 C 
ATOM     58  C   UNL A   1      42.896  32.533  29.758  1.00  0.00     0.037 A 
BRANCH  45  59
ATOM     59  C   UNL A   1      36.793  32.558  30.596  1.00  0.00     0.064 A 
ATOM     60  C   UNL A   1      36.077  33.515  29.834  1.00  0.00     0.173 A 
ATOM     61  C   UNL A   1      36.248  32.317  31.872  1.00  0.00     0.173 A 
ATOM     62  F   UNL A   1      36.434  33.818  28.577  1.00  0.00    -0.203 F 
ATOM     63  C   UNL A   1      34.967  34.208  30.326  1.00  0.00     0.198 A 
ATOM     64  C   UNL A   1      35.134  33.012  32.365  1.00  0.00     0.198 A 
ATOM     65  F   UNL A   1      36.744  31.391  32.695  1.00  0.00    -0.203 F 
ATOM     66  F   UNL A   1      34.360  35.123  29.557  1.00  0.00    -0.200 F 
ATOM     67  C   UNL A   1      34.500  33.965  31.598  1.00  0.00     0.200 A 
ATOM     68  F   UNL A   1      34.682  32.749  33.601  1.00  0.00    -0.200 F 
ATOM     69  F   UNL A   1      33.441  34.632  32.075  1.00  0.00    -0.200 F 
ENDBRANCH  45  59
BRANCH  46  70
ATOM     70  C   UNL A   1      44.620  26.993  28.244  1.00  0.00     0.064 A 
ATOM     71  C   UNL A   1      44.308  27.478  26.955  1.00  0.00     0.173 A 
ATOM     72  C   UNL A   1      45.621  26.025  28.349  1.00  0.00     0.173 A 
ATOM     73  F   UNL A   1      43.317  28.369  26.797  1.00  0.00    -0.203 F 
ATOM     74  C   UNL A   1      45.132  27.208  25.869  1.00  0.00     0.198 A 
ATOM     75  C   UNL A   1      46.436  25.753  27.255  1.00  0.00     0.198 A 
ATOM     76  F   UNL A   1      45.930  25.479  29.533  1.00  0.00    -0.203 F 
ATOM     77  F   UNL A   1      44.936  27.833  24.699  1.00  0.00    -0.200 F 
ATOM     78  C   UNL A   1      46.234  26.395  26.039  1.00  0.00     0.200 A 
ATOM     79  F   UNL A   1      47.510  24.978  27.431  1.00  0.00    -0.200 F 
ATOM     80  F   UNL A   1      47.134  26.299  25.052  1.00  0.00    -0.200 F 
ENDBRANCH  46  70
BRANCH  58  81
ATOM     81  C   UNL A   1      43.235  33.974  29.497  1.00  0.00     0.064 A 
ATOM     82  C   UNL A   1      43.409  34.499  28.208  1.00  0.00     0.173 A 
ATOM     83  C   UNL A   1      43.262  34.912  30.554  1.00  0.00     0.173 A 
ATOM     84  F   UNL A   1      43.230  33.746  27.114  1.00  0.00    -0.203 F 
ATOM     85  C   UNL A   1      43.724  35.840  28.001  1.00  0.00     0.198 A 
ATOM     86  C   UNL A   1      43.483  36.266  30.335  1.00  0.00     0.198 A 
ATOM     87  F   UNL A   1      43.047  34.552  31.829  1.00  0.00    -0.203 F 
ATOM     88  F   UNL A   1      43.978  36.273  26.760  1.00  0.00    -0.200 F 
ATOM     89  C   UNL A   1      43.753  36.724  29.063  1.00  0.00     0.200 A 
ATOM     90  F   UNL A   1      43.420  37.124  31.362  1.00  0.00    -0.200 F 
ATOM     91  F   UNL A   1      44.018  38.019  28.856  1.00  0.00    -0.200 F 
ENDBRANCH  58  81
ENDBRANCH  32  33
ENDBRANCH  25  27
ENDBRANCH  24  25
ENDBRANCH  23  24
ENDBRANCH   1  23
TORSDOF 14
ENDMDL
