MODEL 1
REMARK VINA RESULT:     -11.3      0.000      0.000
REMARK SMILES Cc1cc2c(c(C)c1Cl)C=C(C(=O)OCCOC(=O)c1ccc(-c3c4nc(c(-c5c(F)c(F)c(F)c(F)c5F)c5ccc([nH]5)c(-c5c(F)c(F)c(F)c(F)c5F)c5nc(c(-c6c(F)c(F)c(F)c(F)c6F)c6ccc3[nH]6)C=C5)C=C4)cc1)[C@@H](C(F)(F)F)O2
REMARK SMILES IDX 16 1 15 2 14 3 12 4 13 5 11 6 1 7 2 8 3 9 8 10 4 11 6 12
REMARK SMILES IDX 9 13 5 14 88 15 7 16 10 17 83 18 84 19 85 20 86 21 87 22
REMARK SMILES IDX 17 23 18 24 19 25 20 26 21 27 82 28 22 29 81 30 23 31 24 32
REMARK SMILES IDX 25 33 75 34 26 35 80 36 74 37 76 38 27 39 79 40 73 41 72 42
REMARK SMILES IDX 28 44 60 45 40 46 59 47 41 48 44 49 58 50 77 51 42 52 43 53
REMARK SMILES IDX 57 55 78 56 45 57 29 58 30 59 38 60 31 61 32 62 36 63 39 64
REMARK SMILES IDX 33 65 34 66 37 67 35 68 61 69 62 70 70 71 63 72 64 73 68 74
REMARK SMILES IDX 71 75 65 76 66 77 69 78 67 79 46 80 47 81 55 82 48 83 49 84
REMARK SMILES IDX 53 85 56 86 50 87 51 88 54 89 52 90
REMARK H PARENT 76 43 44 54
REMARK Flexibility Score: inf
ROOT
ATOM      1  C   UNL A   1      33.279  33.929  28.301  1.00  0.00     0.275 C 
ENDROOT
BRANCH   1   2
ATOM      2  C   UNL A   1      34.127  34.972  29.028  1.00  0.00     0.275 C 
BRANCH   2   3
ATOM      3  O   UNL A   1      34.028  34.816  30.461  1.00  0.00    -0.459 OA
BRANCH   3   4
ATOM      4  C   UNL A   1      34.695  33.759  30.979  1.00  0.00     0.338 C 
ATOM      5  O   UNL A   1      34.394  32.580  30.872  1.00  0.00    -0.246 OA
BRANCH   4   6
ATOM      6  C   UNL A   1      35.897  34.212  31.703  1.00  0.00     0.087 C 
ATOM      7  C   UNL A   1      41.796  35.030  34.264  1.00  0.00     0.046 C 
ATOM      8  C   UNL A   1      40.610  34.867  33.350  1.00  0.00    -0.028 A 
ATOM      9  C   UNL A   1      39.329  35.034  33.896  1.00  0.00     0.052 A 
ATOM     10  C   UNL A   1      40.732  34.483  32.002  1.00  0.00     0.047 A 
ATOM     11  C   UNL A   1      38.187  34.816  33.130  1.00  0.00     0.128 A 
ATOM     12  C   UNL A   1      39.585  34.288  31.197  1.00  0.00    -0.021 A 
ATOM     13  Cl  UNL A   1      42.320  34.222  31.346  1.00  0.00    -0.084 Cl
ATOM     14  C   UNL A   1      38.303  34.433  31.791  1.00  0.00     0.022 A 
ATOM     15  O   UNL A   1      37.000  35.017  33.777  1.00  0.00    -0.475 OA
ATOM     16  C   UNL A   1      39.700  33.924  29.734  1.00  0.00     0.047 C 
ATOM     17  C   UNL A   1      37.070  34.150  31.062  1.00  0.00     0.027 C 
ATOM     18  C   UNL A   1      35.767  34.574  33.150  1.00  0.00     0.316 C 
BRANCH  18  19
ATOM     19  C   UNL A   1      35.176  33.415  33.969  1.00  0.00     0.430 C 
ATOM     20  F   UNL A   1      35.447  33.554  35.289  1.00  0.00    -0.167 F 
ATOM     21  F   UNL A   1      33.827  33.364  33.855  1.00  0.00    -0.167 F 
ATOM     22  F   UNL A   1      35.661  32.215  33.578  1.00  0.00    -0.167 F 
ENDBRANCH  18  19
ENDBRANCH   4   6
ENDBRANCH   3   4
ENDBRANCH   2   3
ENDBRANCH   1   2
BRANCH   1  23
ATOM     23  O   UNL A   1      34.101  33.172  27.394  1.00  0.00    -0.458 OA
BRANCH  23  24
ATOM     24  C   UNL A   1      34.006  31.829  27.500  1.00  0.00     0.338 C 
ATOM     25  O   UNL A   1      33.034  31.130  27.268  1.00  0.00    -0.246 OA
BRANCH  24  26
ATOM     26  C   UNL A   1      35.308  31.261  27.890  1.00  0.00     0.060 A 
ATOM     27  C   UNL A   1      35.368  29.934  28.295  1.00  0.00     0.016 A 
ATOM     28  C   UNL A   1      36.425  32.081  28.033  1.00  0.00     0.016 A 
ATOM     29  C   UNL A   1      36.483  29.467  28.984  1.00  0.00     0.010 A 
ATOM     30  C   UNL A   1      37.598  31.562  28.600  1.00  0.00     0.010 A 
ATOM     31  C   UNL A   1      37.625  30.264  29.142  1.00  0.00    -0.014 A 
BRANCH  31  32
ATOM     32  C   UNL A   1      38.805  29.756  29.909  1.00  0.00     0.031 A 
ATOM     33  C   UNL A   1      39.822  28.856  29.246  1.00  0.00     0.074 A 
ATOM     34  C   UNL A   1      39.015  30.135  31.188  1.00  0.00     0.049 A 
ATOM     35  N   UNL A   1      40.797  28.166  29.786  1.00  0.00    -0.248 NA
ATOM     36  C   UNL A   1      39.722  28.696  27.786  1.00  0.00     0.031 C 
ATOM     37  C   UNL A   1      38.165  31.049  31.953  1.00  0.00     0.029 A 
ATOM     38  N   UNL A   1      40.024  29.820  32.069  1.00  0.00    -0.354 N 
ATOM     39  C   UNL A   1      41.376  27.443  28.750  1.00  0.00     0.074 A 
ATOM     40  C   UNL A   1      40.645  27.774  27.546  1.00  0.00     0.031 C 
ATOM     41  C   UNL A   1      38.729  31.289  33.144  1.00  0.00     0.029 A 
ATOM     42  C   UNL A   1      39.909  30.446  33.287  1.00  0.00     0.049 A 
ATOM     43  H   UNL A   1      40.759  29.204  31.847  1.00  0.00     0.167 HD
ATOM     44  C   UNL A   1      42.423  26.583  28.798  1.00  0.00     0.037 A 
ATOM     45  C   UNL A   1      40.634  30.325  34.417  1.00  0.00     0.037 A 
ATOM     46  C   UNL A   1      43.200  26.316  29.981  1.00  0.00     0.049 A 
ATOM     47  C   UNL A   1      41.760  29.332  34.461  1.00  0.00     0.074 A 
ATOM     48  C   UNL A   1      44.279  25.461  30.129  1.00  0.00     0.029 A 
ATOM     49  N   UNL A   1      43.003  26.924  31.211  1.00  0.00    -0.354 N 
ATOM     50  N   UNL A   1      42.229  28.574  33.501  1.00  0.00    -0.248 NA
ATOM     51  C   UNL A   1      42.433  29.150  35.755  1.00  0.00     0.031 C 
ATOM     52  C   UNL A   1      44.711  25.524  31.456  1.00  0.00     0.029 A 
ATOM     53  C   UNL A   1      43.932  26.453  32.125  1.00  0.00     0.049 A 
ATOM     54  H   UNL A   1      42.305  27.592  31.407  1.00  0.00     0.167 HD
ATOM     55  C   UNL A   1      43.251  27.829  34.071  1.00  0.00     0.074 A 
ATOM     56  C   UNL A   1      43.352  28.243  35.455  1.00  0.00     0.031 C 
ATOM     57  C   UNL A   1      44.026  26.877  33.498  1.00  0.00     0.037 A 
BRANCH  44  58
ATOM     58  C   UNL A   1      42.787  25.839  27.545  1.00  0.00     0.064 A 
ATOM     59  C   UNL A   1      43.798  26.284  26.682  1.00  0.00     0.173 A 
ATOM     60  C   UNL A   1      42.163  24.616  27.247  1.00  0.00     0.173 A 
ATOM     61  F   UNL A   1      44.419  27.450  26.914  1.00  0.00    -0.203 F 
ATOM     62  C   UNL A   1      44.160  25.541  25.560  1.00  0.00     0.198 A 
ATOM     63  C   UNL A   1      42.548  23.862  26.142  1.00  0.00     0.198 A 
ATOM     64  F   UNL A   1      41.196  24.139  28.045  1.00  0.00    -0.203 F 
ATOM     65  F   UNL A   1      45.107  26.002  24.730  1.00  0.00    -0.200 F 
ATOM     66  C   UNL A   1      43.543  24.327  25.297  1.00  0.00     0.200 A 
ATOM     67  F   UNL A   1      41.960  22.681  25.899  1.00  0.00    -0.200 F 
ATOM     68  F   UNL A   1      43.907  23.605  24.228  1.00  0.00    -0.200 F 
ENDBRANCH  44  58
BRANCH  45  69
ATOM     69  C   UNL A   1      40.278  31.137  35.612  1.00  0.00     0.064 A 
ATOM     70  C   UNL A   1      41.159  32.106  36.110  1.00  0.00     0.173 A 
ATOM     71  C   UNL A   1      39.041  30.988  36.259  1.00  0.00     0.173 A 
ATOM     72  F   UNL A   1      42.366  32.266  35.549  1.00  0.00    -0.203 F 
ATOM     73  C   UNL A   1      40.813  32.898  37.205  1.00  0.00     0.198 A 
ATOM     74  C   UNL A   1      38.682  31.804  37.328  1.00  0.00     0.198 A 
ATOM     75  F   UNL A   1      38.163  30.071  35.825  1.00  0.00    -0.203 F 
ATOM     76  F   UNL A   1      41.685  33.797  37.681  1.00  0.00    -0.200 F 
ATOM     77  C   UNL A   1      39.570  32.756  37.803  1.00  0.00     0.200 A 
ATOM     78  F   UNL A   1      37.472  31.674  37.889  1.00  0.00    -0.200 F 
ATOM     79  F   UNL A   1      39.229  33.534  38.839  1.00  0.00    -0.200 F 
ENDBRANCH  45  69
BRANCH  57  80
ATOM     80  C   UNL A   1      45.068  26.224  34.356  1.00  0.00     0.064 A 
ATOM     81  C   UNL A   1      46.345  26.783  34.506  1.00  0.00     0.173 A 
ATOM     82  C   UNL A   1      44.762  25.068  35.089  1.00  0.00     0.173 A 
ATOM     83  F   UNL A   1      46.688  27.879  33.814  1.00  0.00    -0.203 F 
ATOM     84  C   UNL A   1      47.284  26.201  35.354  1.00  0.00     0.198 A 
ATOM     85  C   UNL A   1      45.694  24.504  35.956  1.00  0.00     0.198 A 
ATOM     86  F   UNL A   1      43.552  24.500  34.984  1.00  0.00    -0.203 F 
ATOM     87  F   UNL A   1      48.509  26.734  35.460  1.00  0.00    -0.200 F 
ATOM     88  C   UNL A   1      46.955  25.069  36.085  1.00  0.00     0.200 A 
ATOM     89  F   UNL A   1      45.371  23.418  36.672  1.00  0.00    -0.200 F 
ATOM     90  F   UNL A   1      47.854  24.520  36.912  1.00  0.00    -0.200 F 
ENDBRANCH  57  80
ENDBRANCH  31  32
ENDBRANCH  24  26
ENDBRANCH  23  24
ENDBRANCH   1  23
TORSDOF 12
ENDMDL
MODEL 2
REMARK VINA RESULT:     -11.3      4.312      7.102
REMARK SMILES Cc1cc2c(c(C)c1Cl)C=C(C(=O)OCCOC(=O)c1ccc(-c3c4nc(c(-c5c(F)c(F)c(F)c(F)c5F)c5ccc([nH]5)c(-c5c(F)c(F)c(F)c(F)c5F)c5nc(c(-c6c(F)c(F)c(F)c(F)c6F)c6ccc3[nH]6)C=C5)C=C4)cc1)[C@@H](C(F)(F)F)O2
REMARK SMILES IDX 16 1 15 2 14 3 12 4 13 5 11 6 1 7 2 8 3 9 8 10 4 11 6 12
REMARK SMILES IDX 9 13 5 14 88 15 7 16 10 17 83 18 84 19 85 20 86 21 87 22
REMARK SMILES IDX 17 23 18 24 19 25 20 26 21 27 82 28 22 29 81 30 23 31 24 32
REMARK SMILES IDX 25 33 75 34 26 35 80 36 74 37 76 38 27 39 79 40 73 41 72 42
REMARK SMILES IDX 28 44 60 45 40 46 59 47 41 48 44 49 58 50 77 51 42 52 43 53
REMARK SMILES IDX 57 55 78 56 45 57 29 58 30 59 38 60 31 61 32 62 36 63 39 64
REMARK SMILES IDX 33 65 34 66 37 67 35 68 61 69 62 70 70 71 63 72 64 73 68 74
REMARK SMILES IDX 71 75 65 76 66 77 69 78 67 79 46 80 47 81 55 82 48 83 49 84
REMARK SMILES IDX 53 85 56 86 50 87 51 88 54 89 52 90
REMARK H PARENT 76 43 44 54
REMARK Flexibility Score: inf
ROOT
ATOM      1  C   UNL A   1      31.772  30.066  25.425  1.00  0.00     0.275 C 
ENDROOT
BRANCH   1   2
ATOM      2  C   UNL A   1      31.430  28.630  25.031  1.00  0.00     0.275 C 
BRANCH   2   3
ATOM      3  O   UNL A   1      32.474  27.717  25.434  1.00  0.00    -0.459 OA
BRANCH   3   4
ATOM      4  C   UNL A   1      33.122  27.090  24.425  1.00  0.00     0.338 C 
ATOM      5  O   UNL A   1      33.642  27.615  23.453  1.00  0.00    -0.246 OA
BRANCH   4   6
ATOM      6  C   UNL A   1      33.148  25.634  24.653  1.00  0.00     0.087 C 
ATOM      7  C   UNL A   1      34.397  19.273  24.736  1.00  0.00     0.046 C 
ATOM      8  C   UNL A   1      34.454  20.775  24.841  1.00  0.00    -0.028 A 
ATOM      9  C   UNL A   1      33.243  21.483  24.820  1.00  0.00     0.052 A 
ATOM     10  C   UNL A   1      35.664  21.492  24.883  1.00  0.00     0.047 A 
ATOM     11  C   UNL A   1      33.226  22.875  24.828  1.00  0.00     0.128 A 
ATOM     12  C   UNL A   1      35.668  22.906  24.925  1.00  0.00    -0.021 A 
ATOM     13  Cl  UNL A   1      37.161  20.610  24.852  1.00  0.00    -0.084 Cl
ATOM     14  C   UNL A   1      34.425  23.593  24.868  1.00  0.00     0.022 A 
ATOM     15  O   UNL A   1      31.984  23.446  24.810  1.00  0.00    -0.475 OA
ATOM     16  C   UNL A   1      36.957  23.690  25.021  1.00  0.00     0.047 C 
ATOM     17  C   UNL A   1      34.342  25.048  24.803  1.00  0.00     0.027 C 
ATOM     18  C   UNL A   1      31.862  24.871  24.561  1.00  0.00     0.316 C 
BRANCH  18  19
ATOM     19  C   UNL A   1      31.177  25.086  23.201  1.00  0.00     0.430 C 
ATOM     20  F   UNL A   1      30.554  26.288  23.147  1.00  0.00    -0.167 F 
ATOM     21  F   UNL A   1      32.073  25.069  22.185  1.00  0.00    -0.167 F 
ATOM     22  F   UNL A   1      30.252  24.135  22.941  1.00  0.00    -0.167 F 
ENDBRANCH  18  19
ENDBRANCH   4   6
ENDBRANCH   3   4
ENDBRANCH   2   3
ENDBRANCH   1   2
BRANCH   1  23
ATOM     23  O   UNL A   1      32.360  30.089  26.739  1.00  0.00    -0.458 OA
BRANCH  23  24
ATOM     24  C   UNL A   1      32.954  31.249  27.094  1.00  0.00     0.338 C 
ATOM     25  O   UNL A   1      32.458  32.363  27.121  1.00  0.00    -0.246 OA
BRANCH  24  26
ATOM     26  C   UNL A   1      34.336  30.992  27.533  1.00  0.00     0.060 A 
ATOM     27  C   UNL A   1      34.743  29.681  27.740  1.00  0.00     0.016 A 
ATOM     28  C   UNL A   1      35.165  32.044  27.918  1.00  0.00     0.016 A 
ATOM     29  C   UNL A   1      35.899  29.418  28.467  1.00  0.00     0.010 A 
ATOM     30  C   UNL A   1      36.398  31.769  28.525  1.00  0.00     0.010 A 
ATOM     31  C   UNL A   1      36.758  30.452  28.866  1.00  0.00    -0.014 A 
BRANCH  31  32
ATOM     32  C   UNL A   1      37.983  30.155  29.672  1.00  0.00     0.031 A 
ATOM     33  C   UNL A   1      39.115  29.348  29.078  1.00  0.00     0.074 A 
ATOM     34  C   UNL A   1      38.126  30.644  30.922  1.00  0.00     0.049 A 
ATOM     35  N   UNL A   1      40.163  28.828  29.669  1.00  0.00    -0.248 NA
ATOM     36  C   UNL A   1      39.055  29.076  27.633  1.00  0.00     0.031 C 
ATOM     37  C   UNL A   1      37.156  31.493  31.617  1.00  0.00     0.029 A 
ATOM     38  N   UNL A   1      39.155  30.524  31.827  1.00  0.00    -0.354 N 
ATOM     39  C   UNL A   1      40.843  28.115  28.689  1.00  0.00     0.074 A 
ATOM     40  C   UNL A   1      40.092  28.266  27.462  1.00  0.00     0.031 C 
ATOM     41  C   UNL A   1      37.670  31.886  32.791  1.00  0.00     0.029 A 
ATOM     42  C   UNL A   1      38.946  31.213  32.998  1.00  0.00     0.049 A 
ATOM     43  H   UNL A   1      39.966  29.993  31.652  1.00  0.00     0.167 HD
ATOM     44  C   UNL A   1      41.990  27.402  28.803  1.00  0.00     0.037 A 
ATOM     45  C   UNL A   1      39.664  31.265  34.136  1.00  0.00     0.037 A 
ATOM     46  C   UNL A   1      42.780  27.319  30.005  1.00  0.00     0.049 A 
ATOM     47  C   UNL A   1      40.908  30.430  34.255  1.00  0.00     0.074 A 
ATOM     48  C   UNL A   1      43.957  26.622  30.217  1.00  0.00     0.029 A 
ATOM     49  N   UNL A   1      42.490  27.981  31.188  1.00  0.00    -0.354 N 
ATOM     50  N   UNL A   1      41.482  29.674  33.353  1.00  0.00    -0.248 NA
ATOM     51  C   UNL A   1      41.582  30.426  35.561  1.00  0.00     0.031 C 
ATOM     52  C   UNL A   1      44.360  26.832  31.538  1.00  0.00     0.029 A 
ATOM     53  C   UNL A   1      43.460  27.698  32.137  1.00  0.00     0.049 A 
ATOM     54  H   UNL A   1      41.711  28.566  31.333  1.00  0.00     0.167 HD
ATOM     55  C   UNL A   1      42.583  29.107  33.978  1.00  0.00     0.074 A 
ATOM     56  C   UNL A   1      42.613  29.626  35.330  1.00  0.00     0.031 C 
ATOM     57  C   UNL A   1      43.481  28.225  33.476  1.00  0.00     0.037 A 
BRANCH  44  58
ATOM     58  C   UNL A   1      42.463  26.625  27.607  1.00  0.00     0.064 A 
ATOM     59  C   UNL A   1      43.433  27.128  26.728  1.00  0.00     0.173 A 
ATOM     60  C   UNL A   1      41.989  25.322  27.383  1.00  0.00     0.173 A 
ATOM     61  F   UNL A   1      43.911  28.371  26.890  1.00  0.00    -0.203 F 
ATOM     62  C   UNL A   1      43.901  26.361  25.663  1.00  0.00     0.198 A 
ATOM     63  C   UNL A   1      42.481  24.548  26.335  1.00  0.00     0.198 A 
ATOM     64  F   UNL A   1      41.068  24.789  28.198  1.00  0.00    -0.203 F 
ATOM     65  F   UNL A   1      44.805  26.874  24.817  1.00  0.00    -0.200 F 
ATOM     66  C   UNL A   1      43.433  25.069  25.474  1.00  0.00     0.200 A 
ATOM     67  F   UNL A   1      42.038  23.294  26.165  1.00  0.00    -0.200 F 
ATOM     68  F   UNL A   1      43.899  24.326  24.460  1.00  0.00    -0.200 F 
ENDBRANCH  44  58
BRANCH  45  69
ATOM     69  C   UNL A   1      39.192  32.106  35.269  1.00  0.00     0.064 A 
ATOM     70  C   UNL A   1      38.432  31.550  36.308  1.00  0.00     0.173 A 
ATOM     71  C   UNL A   1      39.517  33.468  35.357  1.00  0.00     0.173 A 
ATOM     72  F   UNL A   1      38.067  30.261  36.255  1.00  0.00    -0.203 F 
ATOM     73  C   UNL A   1      38.022  32.324  37.393  1.00  0.00     0.198 A 
ATOM     74  C   UNL A   1      39.139  34.231  36.458  1.00  0.00     0.198 A 
ATOM     75  F   UNL A   1      40.238  34.050  34.387  1.00  0.00    -0.203 F 
ATOM     76  F   UNL A   1      37.271  31.777  38.358  1.00  0.00    -0.200 F 
ATOM     77  C   UNL A   1      38.388  33.660  37.474  1.00  0.00     0.200 A 
ATOM     78  F   UNL A   1      39.511  35.516  36.540  1.00  0.00    -0.200 F 
ATOM     79  F   UNL A   1      38.014  34.397  38.529  1.00  0.00    -0.200 F 
ENDBRANCH  45  69
BRANCH  57  80
ATOM     80  C   UNL A   1      44.587  27.772  34.382  1.00  0.00     0.064 A 
ATOM     81  C   UNL A   1      44.478  26.593  35.134  1.00  0.00     0.173 A 
ATOM     82  C   UNL A   1      45.793  28.487  34.444  1.00  0.00     0.173 A 
ATOM     83  F   UNL A   1      43.340  25.885  35.117  1.00  0.00    -0.203 F 
ATOM     84  C   UNL A   1      45.536  26.151  35.924  1.00  0.00     0.198 A 
ATOM     85  C   UNL A   1      46.857  28.027  35.215  1.00  0.00     0.198 A 
ATOM     86  F   UNL A   1      45.946  29.617  33.739  1.00  0.00    -0.203 F 
ATOM     87  F   UNL A   1      45.400  25.037  36.658  1.00  0.00    -0.200 F 
ATOM     88  C   UNL A   1      46.726  26.861  35.956  1.00  0.00     0.200 A 
ATOM     89  F   UNL A   1      48.011  28.708  35.235  1.00  0.00    -0.200 F 
ATOM     90  F   UNL A   1      47.748  26.425  36.705  1.00  0.00    -0.200 F 
ENDBRANCH  57  80
ENDBRANCH  31  32
ENDBRANCH  24  26
ENDBRANCH  23  24
ENDBRANCH   1  23
TORSDOF 12
ENDMDL
MODEL 3
REMARK VINA RESULT:     -11.3      4.214      6.793
REMARK SMILES Cc1cc2c(c(C)c1Cl)C=C(C(=O)OCCOC(=O)c1ccc(-c3c4nc(c(-c5c(F)c(F)c(F)c(F)c5F)c5ccc([nH]5)c(-c5c(F)c(F)c(F)c(F)c5F)c5nc(c(-c6c(F)c(F)c(F)c(F)c6F)c6ccc3[nH]6)C=C5)C=C4)cc1)[C@@H](C(F)(F)F)O2
REMARK SMILES IDX 16 1 15 2 14 3 12 4 13 5 11 6 1 7 2 8 3 9 8 10 4 11 6 12
REMARK SMILES IDX 9 13 5 14 88 15 7 16 10 17 83 18 84 19 85 20 86 21 87 22
REMARK SMILES IDX 17 23 18 24 19 25 20 26 21 27 82 28 22 29 81 30 23 31 24 32
REMARK SMILES IDX 25 33 75 34 26 35 80 36 74 37 76 38 27 39 79 40 73 41 72 42
REMARK SMILES IDX 28 44 60 45 40 46 59 47 41 48 44 49 58 50 77 51 42 52 43 53
REMARK SMILES IDX 57 55 78 56 45 57 29 58 30 59 38 60 31 61 32 62 36 63 39 64
REMARK SMILES IDX 33 65 34 66 37 67 35 68 61 69 62 70 70 71 63 72 64 73 68 74
REMARK SMILES IDX 71 75 65 76 66 77 69 78 67 79 46 80 47 81 55 82 48 83 49 84
REMARK SMILES IDX 53 85 56 86 50 87 51 88 54 89 52 90
REMARK H PARENT 76 43 44 54
REMARK Flexibility Score: inf
ROOT
ATOM      1  C   UNL A   1      31.621  30.285  25.705  1.00  0.00     0.275 C 
ENDROOT
BRANCH   1   2
ATOM      2  C   UNL A   1      31.480  28.941  24.991  1.00  0.00     0.275 C 
BRANCH   2   3
ATOM      3  O   UNL A   1      32.326  27.939  25.596  1.00  0.00    -0.459 OA
BRANCH   3   4
ATOM      4  C   UNL A   1      33.217  27.350  24.766  1.00  0.00     0.338 C 
ATOM      5  O   UNL A   1      33.996  27.911  24.012  1.00  0.00    -0.246 OA
BRANCH   4   6
ATOM      6  C   UNL A   1      33.152  25.882  24.897  1.00  0.00     0.087 C 
ATOM      7  C   UNL A   1      34.060  19.469  24.625  1.00  0.00     0.046 C 
ATOM      8  C   UNL A   1      34.188  20.955  24.835  1.00  0.00    -0.028 A 
ATOM      9  C   UNL A   1      33.020  21.730  24.787  1.00  0.00     0.052 A 
ATOM     10  C   UNL A   1      35.428  21.599  24.999  1.00  0.00     0.047 A 
ATOM     11  C   UNL A   1      33.075  23.118  24.889  1.00  0.00     0.128 A 
ATOM     12  C   UNL A   1      35.503  23.005  25.138  1.00  0.00    -0.021 A 
ATOM     13  Cl  UNL A   1      36.877  20.638  25.001  1.00  0.00    -0.084 Cl
ATOM     14  C   UNL A   1      34.304  23.763  25.051  1.00  0.00     0.022 A 
ATOM     15  O   UNL A   1      31.868  23.758  24.833  1.00  0.00    -0.475 OA
ATOM     16  C   UNL A   1      36.822  23.707  25.365  1.00  0.00     0.047 C 
ATOM     17  C   UNL A   1      34.302  25.222  25.079  1.00  0.00     0.027 C 
ATOM     18  C   UNL A   1      31.837  25.201  24.674  1.00  0.00     0.316 C 
BRANCH  18  19
ATOM     19  C   UNL A   1      31.254  25.541  23.293  1.00  0.00     0.430 C 
ATOM     20  F   UNL A   1      30.592  24.485  22.762  1.00  0.00    -0.167 F 
ATOM     21  F   UNL A   1      30.363  26.558  23.367  1.00  0.00    -0.167 F 
ATOM     22  F   UNL A   1      32.212  25.906  22.411  1.00  0.00    -0.167 F 
ENDBRANCH  18  19
ENDBRANCH   4   6
ENDBRANCH   3   4
ENDBRANCH   2   3
ENDBRANCH   1   2
BRANCH   1  23
ATOM     23  O   UNL A   1      32.514  30.154  26.826  1.00  0.00    -0.458 OA
BRANCH  23  24
ATOM     24  C   UNL A   1      33.154  31.284  27.200  1.00  0.00     0.338 C 
ATOM     25  O   UNL A   1      32.701  32.415  27.252  1.00  0.00    -0.246 OA
BRANCH  24  26
ATOM     26  C   UNL A   1      34.528  30.967  27.624  1.00  0.00     0.060 A 
ATOM     27  C   UNL A   1      34.879  29.639  27.828  1.00  0.00     0.016 A 
ATOM     28  C   UNL A   1      35.407  31.982  27.997  1.00  0.00     0.016 A 
ATOM     29  C   UNL A   1      36.031  29.326  28.543  1.00  0.00     0.010 A 
ATOM     30  C   UNL A   1      36.634  31.653  28.591  1.00  0.00     0.010 A 
ATOM     31  C   UNL A   1      36.939  30.322  28.930  1.00  0.00    -0.014 A 
BRANCH  31  32
ATOM     32  C   UNL A   1      38.158  29.971  29.722  1.00  0.00     0.031 A 
ATOM     33  C   UNL A   1      39.255  29.130  29.111  1.00  0.00     0.074 A 
ATOM     34  C   UNL A   1      38.329  30.442  30.977  1.00  0.00     0.049 A 
ATOM     35  N   UNL A   1      40.288  28.566  29.688  1.00  0.00    -0.248 NA
ATOM     36  C   UNL A   1      39.174  28.875  27.664  1.00  0.00     0.031 C 
ATOM     37  C   UNL A   1      37.397  31.319  31.688  1.00  0.00     0.029 A 
ATOM     38  N   UNL A   1      39.360  30.275  31.871  1.00  0.00    -0.354 N 
ATOM     39  C   UNL A   1      40.934  27.839  28.695  1.00  0.00     0.074 A 
ATOM     40  C   UNL A   1      40.178  28.030  27.476  1.00  0.00     0.031 C 
ATOM     41  C   UNL A   1      37.934  31.681  32.861  1.00  0.00     0.029 A 
ATOM     42  C   UNL A   1      39.186  30.959  33.050  1.00  0.00     0.049 A 
ATOM     43  H   UNL A   1      40.150  29.717  31.684  1.00  0.00     0.167 HD
ATOM     44  C   UNL A   1      42.055  27.083  28.792  1.00  0.00     0.037 A 
ATOM     45  C   UNL A   1      39.915  30.973  34.183  1.00  0.00     0.037 A 
ATOM     46  C   UNL A   1      42.850  26.959  29.986  1.00  0.00     0.049 A 
ATOM     47  C   UNL A   1      41.128  30.092  34.283  1.00  0.00     0.074 A 
ATOM     48  C   UNL A   1      44.003  26.217  30.181  1.00  0.00     0.029 A 
ATOM     49  N   UNL A   1      42.595  27.619  31.179  1.00  0.00    -0.354 N 
ATOM     50  N   UNL A   1      41.666  29.324  33.369  1.00  0.00    -0.248 NA
ATOM     51  C   UNL A   1      41.812  30.050  35.583  1.00  0.00     0.031 C 
ATOM     52  C   UNL A   1      44.423  26.398  31.501  1.00  0.00     0.029 A 
ATOM     53  C   UNL A   1      43.561  27.291  32.116  1.00  0.00     0.049 A 
ATOM     54  H   UNL A   1      41.838  28.230  31.336  1.00  0.00     0.167 HD
ATOM     55  C   UNL A   1      42.752  28.711  33.979  1.00  0.00     0.074 A 
ATOM     56  C   UNL A   1      42.811  29.214  35.335  1.00  0.00     0.031 C 
ATOM     57  C   UNL A   1      43.612  27.802  33.461  1.00  0.00     0.037 A 
BRANCH  44  58
ATOM     58  C   UNL A   1      42.489  26.302  27.584  1.00  0.00     0.064 A 
ATOM     59  C   UNL A   1      43.445  26.793  26.684  1.00  0.00     0.173 A 
ATOM     60  C   UNL A   1      41.993  25.005  27.370  1.00  0.00     0.173 A 
ATOM     61  F   UNL A   1      43.942  28.029  26.835  1.00  0.00    -0.203 F 
ATOM     62  C   UNL A   1      43.877  26.021  25.607  1.00  0.00     0.198 A 
ATOM     63  C   UNL A   1      42.450  24.226  26.310  1.00  0.00     0.198 A 
ATOM     64  F   UNL A   1      41.084  24.483  28.206  1.00  0.00    -0.203 F 
ATOM     65  F   UNL A   1      44.768  26.524  24.740  1.00  0.00    -0.200 F 
ATOM     66  C   UNL A   1      43.388  24.736  25.427  1.00  0.00     0.200 A 
ATOM     67  F   UNL A   1      41.987  22.978  26.149  1.00  0.00    -0.200 F 
ATOM     68  F   UNL A   1      43.821  23.989  24.402  1.00  0.00    -0.200 F 
ENDBRANCH  44  58
BRANCH  45  69
ATOM     69  C   UNL A   1      39.483  31.818  35.329  1.00  0.00     0.064 A 
ATOM     70  C   UNL A   1      39.930  33.141  35.455  1.00  0.00     0.173 A 
ATOM     71  C   UNL A   1      38.591  31.337  36.300  1.00  0.00     0.173 A 
ATOM     72  F   UNL A   1      40.809  33.637  34.572  1.00  0.00    -0.203 F 
ATOM     73  C   UNL A   1      39.496  33.950  36.504  1.00  0.00     0.198 A 
ATOM     74  C   UNL A   1      38.130  32.158  37.326  1.00  0.00     0.198 A 
ATOM     75  F   UNL A   1      38.137  30.077  36.229  1.00  0.00    -0.203 F 
ATOM     76  F   UNL A   1      39.962  35.201  36.618  1.00  0.00    -0.200 F 
ATOM     77  C   UNL A   1      38.586  33.463  37.429  1.00  0.00     0.200 A 
ATOM     78  F   UNL A   1      37.236  31.687  38.206  1.00  0.00    -0.200 F 
ATOM     79  F   UNL A   1      38.150  34.249  38.424  1.00  0.00    -0.200 F 
ENDBRANCH  45  69
BRANCH  57  80
ATOM     80  C   UNL A   1      44.708  27.300  34.353  1.00  0.00     0.064 A 
ATOM     81  C   UNL A   1      45.921  27.990  34.479  1.00  0.00     0.173 A 
ATOM     82  C   UNL A   1      44.513  26.156  35.142  1.00  0.00     0.173 A 
ATOM     83  F   UNL A   1      46.158  29.080  33.734  1.00  0.00    -0.203 F 
ATOM     84  C   UNL A   1      46.907  27.547  35.358  1.00  0.00     0.198 A 
ATOM     85  C   UNL A   1      45.490  25.731  36.038  1.00  0.00     0.198 A 
ATOM     86  F   UNL A   1      43.366  25.465  35.062  1.00  0.00    -0.203 F 
ATOM     87  F   UNL A   1      48.072  28.205  35.440  1.00  0.00    -0.200 F 
ATOM     88  C   UNL A   1      46.687  26.426  36.143  1.00  0.00     0.200 A 
ATOM     89  F   UNL A   1      45.271  24.655  36.806  1.00  0.00    -0.200 F 
ATOM     90  F   UNL A   1      47.630  26.011  36.999  1.00  0.00    -0.200 F 
ENDBRANCH  57  80
ENDBRANCH  31  32
ENDBRANCH  24  26
ENDBRANCH  23  24
ENDBRANCH   1  23
TORSDOF 12
ENDMDL
