MODEL 1
REMARK VINA RESULT:     -11.9      0.000      0.000
REMARK SMILES Cc1cccc(C[N@H+]2CC[C@@](C)(C(=O)OCCOC(=O)c3ccc(-c4c5nc(c(-c6c(F)c(F)c(F)c(F)c6F)c6ccc([nH]6)c(-c6c(F)c(F)c(F)c(F)c6F)c6nc(c(-c7c(F)c(F)c(F)c(F)c7F)c7ccc4[nH]7)C=C6)C=C5)cc3)C2)n1
REMARK SMILES IDX 16 1 15 2 13 3 14 4 11 5 8 6 9 7 84 8 10 10 12 11 7 12 6 13
REMARK SMILES IDX 1 14 2 15 3 16 85 17 4 18 5 19 17 20 18 21 19 22 20 23 21 24
REMARK SMILES IDX 22 25 83 26 23 27 82 28 24 29 25 30 26 31 76 32 27 33 81 34
REMARK SMILES IDX 75 35 77 36 28 37 80 38 74 39 73 40 29 42 61 43 41 44 60 45
REMARK SMILES IDX 42 46 45 47 59 48 78 49 43 50 44 51 58 53 79 54 46 55 30 56
REMARK SMILES IDX 31 57 39 58 32 59 33 60 37 61 40 62 34 63 35 64 38 65 36 66
REMARK SMILES IDX 62 67 63 68 71 69 64 70 65 71 69 72 72 73 66 74 67 75 70 76
REMARK SMILES IDX 68 77 47 78 48 79 56 80 49 81 50 82 54 83 57 84 51 85 52 86
REMARK SMILES IDX 55 87 53 88
REMARK H PARENT 8 9 77 41 45 52
REMARK Flexibility Score: inf
ROOT
ATOM      1  C   UNL A   1      31.182  29.297  24.673  1.00  0.00     0.274 C 
ENDROOT
BRANCH   1   2
ATOM      2  O   UNL A   1      31.146  27.914  24.259  1.00  0.00    -0.461 OA
BRANCH   2   3
ATOM      3  C   UNL A   1      31.478  27.636  22.974  1.00  0.00     0.317 C 
ATOM      4  O   UNL A   1      30.678  27.666  22.041  1.00  0.00    -0.251 OA
BRANCH   3   5
ATOM      5  C   UNL A   1      32.949  27.243  22.774  1.00  0.00     0.119 C 
ATOM      6  N   UNL A   1      33.904  25.175  23.514  1.00  0.00    -0.329 N 
ATOM      7  C   UNL A   1      32.991  24.877  22.420  1.00  0.00     0.263 C 
ATOM      8  C   UNL A   1      33.614  26.542  23.972  1.00  0.00     0.281 C 
ATOM      9  H   UNL A   1      34.861  25.123  23.165  1.00  0.00     0.348 HD
ATOM     10  C   UNL A   1      32.992  26.187  21.657  1.00  0.00     0.086 C 
ATOM     11  C   UNL A   1      33.756  28.484  22.380  1.00  0.00     0.030 C 
BRANCH   6  12
ATOM     12  C   UNL A   1      33.939  24.174  24.592  1.00  0.00     0.319 C 
BRANCH  12  13
ATOM     13  C   UNL A   1      35.244  23.413  24.763  1.00  0.00     0.095 A 
ATOM     14  C   UNL A   1      38.428  24.088  26.480  1.00  0.00     0.067 C 
ATOM     15  C   UNL A   1      37.372  23.357  25.709  1.00  0.00     0.038 A 
ATOM     16  C   UNL A   1      37.551  22.035  25.321  1.00  0.00     0.023 A 
ATOM     17  N   UNL A   1      36.252  24.050  25.412  1.00  0.00    -0.252 NA
ATOM     18  C   UNL A   1      36.528  21.398  24.625  1.00  0.00     0.004 A 
ATOM     19  C   UNL A   1      35.356  22.091  24.345  1.00  0.00     0.030 A 
ENDBRANCH  12  13
ENDBRANCH   6  12
ENDBRANCH   3   5
ENDBRANCH   2   3
ENDBRANCH   1   2
BRANCH   1  20
ATOM     20  C   UNL A   1      31.839  29.428  26.044  1.00  0.00     0.275 C 
BRANCH  20  21
ATOM     21  O   UNL A   1      33.023  30.229  25.910  1.00  0.00    -0.458 OA
BRANCH  21  22
ATOM     22  C   UNL A   1      33.213  31.176  26.852  1.00  0.00     0.338 C 
ATOM     23  O   UNL A   1      32.465  32.097  27.155  1.00  0.00    -0.246 OA
BRANCH  22  24
ATOM     24  C   UNL A   1      34.504  30.931  27.511  1.00  0.00     0.060 A 
ATOM     25  C   UNL A   1      34.880  29.628  27.830  1.00  0.00     0.016 A 
ATOM     26  C   UNL A   1      35.310  32.003  27.891  1.00  0.00     0.016 A 
ATOM     27  C   UNL A   1      36.015  29.390  28.597  1.00  0.00     0.010 A 
ATOM     28  C   UNL A   1      36.508  31.755  28.568  1.00  0.00     0.010 A 
ATOM     29  C   UNL A   1      36.861  30.448  28.950  1.00  0.00    -0.014 A 
BRANCH  29  30
ATOM     30  C   UNL A   1      38.100  30.193  29.732  1.00  0.00     0.031 A 
ATOM     31  C   UNL A   1      39.199  29.352  29.144  1.00  0.00     0.074 A 
ATOM     32  C   UNL A   1      38.245  30.714  30.967  1.00  0.00     0.049 A 
ATOM     33  N   UNL A   1      40.245  28.826  29.730  1.00  0.00    -0.248 NA
ATOM     34  C   UNL A   1      39.100  29.046  27.708  1.00  0.00     0.031 C 
ATOM     35  C   UNL A   1      37.283  31.591  31.637  1.00  0.00     0.029 A 
ATOM     36  N   UNL A   1      39.264  30.586  31.878  1.00  0.00    -0.354 N 
ATOM     37  C   UNL A   1      40.890  28.079  28.753  1.00  0.00     0.074 A 
ATOM     38  C   UNL A   1      40.126  28.225  27.533  1.00  0.00     0.031 C 
ATOM     39  C   UNL A   1      37.775  31.954  32.831  1.00  0.00     0.029 A 
ATOM     40  C   UNL A   1      39.039  31.263  33.053  1.00  0.00     0.049 A 
ATOM     41  H   UNL A   1      40.079  30.060  31.707  1.00  0.00     0.167 HD
ATOM     42  C   UNL A   1      42.016  27.333  28.872  1.00  0.00     0.037 A 
ATOM     43  C   UNL A   1      39.746  31.289  34.198  1.00  0.00     0.037 A 
ATOM     44  C   UNL A   1      42.802  27.243  30.075  1.00  0.00     0.049 A 
ATOM     45  C   UNL A   1      40.986  30.449  34.306  1.00  0.00     0.074 A 
ATOM     46  C   UNL A   1      43.948  26.503  30.307  1.00  0.00     0.029 A 
ATOM     47  N   UNL A   1      42.532  27.938  31.244  1.00  0.00    -0.354 N 
ATOM     48  N   UNL A   1      41.538  29.669  33.408  1.00  0.00    -0.248 NA
ATOM     49  C   UNL A   1      41.689  30.470  35.596  1.00  0.00     0.031 C 
ATOM     50  C   UNL A   1      44.363  26.738  31.622  1.00  0.00     0.029 A 
ATOM     51  C   UNL A   1      43.493  27.649  32.199  1.00  0.00     0.049 A 
ATOM     52  H   UNL A   1      41.770  28.549  31.376  1.00  0.00     0.167 HD
ATOM     53  C   UNL A   1      42.650  29.113  34.019  1.00  0.00     0.074 A 
ATOM     54  C   UNL A   1      42.712  29.661  35.358  1.00  0.00     0.031 C 
ATOM     55  C   UNL A   1      43.536  28.216  33.521  1.00  0.00     0.037 A 
BRANCH  42  56
ATOM     56  C   UNL A   1      42.446  26.529  27.683  1.00  0.00     0.064 A 
ATOM     57  C   UNL A   1      43.387  27.011  26.762  1.00  0.00     0.173 A 
ATOM     58  C   UNL A   1      41.936  25.236  27.485  1.00  0.00     0.173 A 
ATOM     59  F   UNL A   1      43.893  28.246  26.898  1.00  0.00    -0.203 F 
ATOM     60  C   UNL A   1      43.789  26.235  25.677  1.00  0.00     0.198 A 
ATOM     61  C   UNL A   1      42.358  24.454  26.413  1.00  0.00     0.198 A 
ATOM     62  F   UNL A   1      41.035  24.727  28.339  1.00  0.00    -0.203 F 
ATOM     63  F   UNL A   1      44.663  26.728  24.789  1.00  0.00    -0.200 F 
ATOM     64  C   UNL A   1      43.280  24.956  25.508  1.00  0.00     0.200 A 
ATOM     65  F   UNL A   1      41.872  23.215  26.258  1.00  0.00    -0.200 F 
ATOM     66  F   UNL A   1      43.674  24.208  24.468  1.00  0.00    -0.200 F 
ENDBRANCH  42  56
BRANCH  43  67
ATOM     67  C   UNL A   1      39.271  32.105  35.344  1.00  0.00     0.064 A 
ATOM     68  C   UNL A   1      39.590  33.467  35.440  1.00  0.00     0.173 A 
ATOM     69  C   UNL A   1      38.483  31.546  36.362  1.00  0.00     0.173 A 
ATOM     70  F   UNL A   1      40.364  34.039  34.506  1.00  0.00    -0.203 F 
ATOM     71  C   UNL A   1      39.146  34.235  36.514  1.00  0.00     0.198 A 
ATOM     72  C   UNL A   1      38.014  32.322  37.419  1.00  0.00     0.198 A 
ATOM     73  F   UNL A   1      38.151  30.248  36.318  1.00  0.00    -0.203 F 
ATOM     74  F   UNL A   1      39.499  35.525  36.603  1.00  0.00    -0.200 F 
ATOM     75  C   UNL A   1      38.351  33.665  37.498  1.00  0.00     0.200 A 
ATOM     76  F   UNL A   1      37.235  31.770  38.359  1.00  0.00    -0.200 F 
ATOM     77  F   UNL A   1      37.917  34.408  38.524  1.00  0.00    -0.200 F 
ENDBRANCH  43  67
BRANCH  55  78
ATOM     78  C   UNL A   1      44.656  27.800  34.423  1.00  0.00     0.064 A 
ATOM     79  C   UNL A   1      45.861  28.515  34.468  1.00  0.00     0.173 A 
ATOM     80  C   UNL A   1      44.514  26.688  35.266  1.00  0.00     0.173 A 
ATOM     81  F   UNL A   1      46.048  29.574  33.665  1.00  0.00    -0.203 F 
ATOM     82  C   UNL A   1      46.895  28.118  35.311  1.00  0.00     0.198 A 
ATOM     83  C   UNL A   1      45.542  26.307  36.124  1.00  0.00     0.198 A 
ATOM     84  F   UNL A   1      43.378  25.975  35.259  1.00  0.00    -0.203 F 
ATOM     85  F   UNL A   1      48.054  28.790  35.310  1.00  0.00    -0.200 F 
ATOM     86  C   UNL A   1      46.733  27.018  36.141  1.00  0.00     0.200 A 
ATOM     87  F   UNL A   1      45.381  25.249  36.929  1.00  0.00    -0.200 F 
ATOM     88  F   UNL A   1      47.729  26.638  36.953  1.00  0.00    -0.200 F 
ENDBRANCH  55  78
ENDBRANCH  29  30
ENDBRANCH  22  24
ENDBRANCH  21  22
ENDBRANCH  20  21
ENDBRANCH   1  20
TORSDOF 13
ENDMDL
MODEL 2
REMARK VINA RESULT:     -11.7      1.744      4.011
REMARK SMILES Cc1cccc(C[N@H+]2CC[C@@](C)(C(=O)OCCOC(=O)c3ccc(-c4c5nc(c(-c6c(F)c(F)c(F)c(F)c6F)c6ccc([nH]6)c(-c6c(F)c(F)c(F)c(F)c6F)c6nc(c(-c7c(F)c(F)c(F)c(F)c7F)c7ccc4[nH]7)C=C6)C=C5)cc3)C2)n1
REMARK SMILES IDX 16 1 15 2 13 3 14 4 11 5 8 6 9 7 84 8 10 10 12 11 7 12 6 13
REMARK SMILES IDX 1 14 2 15 3 16 85 17 4 18 5 19 17 20 18 21 19 22 20 23 21 24
REMARK SMILES IDX 22 25 83 26 23 27 82 28 24 29 25 30 26 31 76 32 27 33 81 34
REMARK SMILES IDX 75 35 77 36 28 37 80 38 74 39 73 40 29 42 61 43 41 44 60 45
REMARK SMILES IDX 42 46 45 47 59 48 78 49 43 50 44 51 58 53 79 54 46 55 30 56
REMARK SMILES IDX 31 57 39 58 32 59 33 60 37 61 40 62 34 63 35 64 38 65 36 66
REMARK SMILES IDX 62 67 63 68 71 69 64 70 65 71 69 72 72 73 66 74 67 75 70 76
REMARK SMILES IDX 68 77 47 78 48 79 56 80 49 81 50 82 54 83 57 84 51 85 52 86
REMARK SMILES IDX 55 87 53 88
REMARK H PARENT 8 9 77 41 45 52
REMARK Flexibility Score: inf
ROOT
ATOM      1  C   UNL A   1      31.748  28.628  26.831  1.00  0.00     0.274 C 
ENDROOT
BRANCH   1   2
ATOM      2  O   UNL A   1      31.519  27.455  26.020  1.00  0.00    -0.461 OA
BRANCH   2   3
ATOM      3  C   UNL A   1      32.508  27.074  25.175  1.00  0.00     0.317 C 
ATOM      4  O   UNL A   1      33.696  27.036  25.489  1.00  0.00    -0.251 OA
BRANCH   3   5
ATOM      5  C   UNL A   1      32.027  26.715  23.762  1.00  0.00     0.119 C 
ATOM      6  N   UNL A   1      30.233  27.825  22.627  1.00  0.00    -0.329 N 
ATOM      7  C   UNL A   1      31.346  28.760  22.724  1.00  0.00     0.263 C 
ATOM      8  C   UNL A   1      30.500  26.722  23.563  1.00  0.00     0.281 C 
ATOM      9  H   UNL A   1      30.189  27.466  21.674  1.00  0.00     0.348 HD
ATOM     10  C   UNL A   1      32.529  27.816  22.814  1.00  0.00     0.086 C 
ATOM     11  C   UNL A   1      32.600  25.351  23.362  1.00  0.00     0.030 C 
BRANCH   6  12
ATOM     12  C   UNL A   1      28.896  28.424  22.769  1.00  0.00     0.319 C 
BRANCH  12  13
ATOM     13  C   UNL A   1      28.804  29.925  22.549  1.00  0.00     0.095 A 
ATOM     14  C   UNL A   1      27.840  32.073  19.722  1.00  0.00     0.067 C 
ATOM     15  C   UNL A   1      28.251  31.665  21.103  1.00  0.00     0.038 A 
ATOM     16  C   UNL A   1      28.388  32.603  22.118  1.00  0.00     0.023 A 
ATOM     17  N   UNL A   1      28.483  30.350  21.300  1.00  0.00    -0.252 NA
ATOM     18  C   UNL A   1      28.751  32.166  23.388  1.00  0.00     0.004 A 
ATOM     19  C   UNL A   1      28.958  30.810  23.612  1.00  0.00     0.030 A 
ENDBRANCH  12  13
ENDBRANCH   6  12
ENDBRANCH   3   5
ENDBRANCH   2   3
ENDBRANCH   1   2
BRANCH   1  20
ATOM     20  C   UNL A   1      31.796  29.879  25.961  1.00  0.00     0.275 C 
BRANCH  20  21
ATOM     21  O   UNL A   1      33.119  30.434  26.028  1.00  0.00    -0.458 OA
BRANCH  21  22
ATOM     22  C   UNL A   1      33.330  31.364  26.983  1.00  0.00     0.338 C 
ATOM     23  O   UNL A   1      32.601  32.295  27.299  1.00  0.00    -0.246 OA
BRANCH  22  24
ATOM     24  C   UNL A   1      34.617  31.084  27.636  1.00  0.00     0.060 A 
ATOM     25  C   UNL A   1      34.934  29.778  28.004  1.00  0.00     0.016 A 
ATOM     26  C   UNL A   1      35.477  32.131  27.962  1.00  0.00     0.016 A 
ATOM     27  C   UNL A   1      36.067  29.518  28.767  1.00  0.00     0.010 A 
ATOM     28  C   UNL A   1      36.671  31.854  28.635  1.00  0.00     0.010 A 
ATOM     29  C   UNL A   1      36.967  30.548  29.067  1.00  0.00    -0.014 A 
BRANCH  29  30
ATOM     30  C   UNL A   1      38.203  30.266  29.844  1.00  0.00     0.031 A 
ATOM     31  C   UNL A   1      39.292  29.422  29.242  1.00  0.00     0.074 A 
ATOM     32  C   UNL A   1      38.354  30.765  31.087  1.00  0.00     0.049 A 
ATOM     33  N   UNL A   1      40.333  28.875  29.819  1.00  0.00    -0.248 NA
ATOM     34  C   UNL A   1      39.190  29.141  27.802  1.00  0.00     0.031 C 
ATOM     35  C   UNL A   1      37.403  31.642  31.772  1.00  0.00     0.029 A 
ATOM     36  N   UNL A   1      39.372  30.611  31.996  1.00  0.00    -0.354 N 
ATOM     37  C   UNL A   1      40.969  28.136  28.831  1.00  0.00     0.074 A 
ATOM     38  C   UNL A   1      40.207  28.310  27.613  1.00  0.00     0.031 C 
ATOM     39  C   UNL A   1      37.898  31.981  32.971  1.00  0.00     0.029 A 
ATOM     40  C   UNL A   1      39.154  31.271  33.182  1.00  0.00     0.049 A 
ATOM     41  H   UNL A   1      40.180  30.078  31.817  1.00  0.00     0.167 HD
ATOM     42  C   UNL A   1      42.085  27.375  28.938  1.00  0.00     0.037 A 
ATOM     43  C   UNL A   1      39.861  31.271  34.327  1.00  0.00     0.037 A 
ATOM     44  C   UNL A   1      42.870  27.256  30.139  1.00  0.00     0.049 A 
ATOM     45  C   UNL A   1      41.092  30.415  34.421  1.00  0.00     0.074 A 
ATOM     46  C   UNL A   1      44.008  26.500  30.358  1.00  0.00     0.029 A 
ATOM     47  N   UNL A   1      42.609  27.936  31.319  1.00  0.00    -0.354 N 
ATOM     48  N   UNL A   1      41.635  29.643  33.510  1.00  0.00    -0.248 NA
ATOM     49  C   UNL A   1      41.795  30.406  35.711  1.00  0.00     0.031 C 
ATOM     50  C   UNL A   1      44.426  26.709  31.677  1.00  0.00     0.029 A 
ATOM     51  C   UNL A   1      43.566  27.620  32.269  1.00  0.00     0.049 A 
ATOM     52  H   UNL A   1      41.854  28.553  31.461  1.00  0.00     0.167 HD
ATOM     53  C   UNL A   1      42.740  29.064  34.113  1.00  0.00     0.074 A 
ATOM     54  C   UNL A   1      42.809  29.590  35.460  1.00  0.00     0.031 C 
ATOM     55  C   UNL A   1      43.616  28.165  33.600  1.00  0.00     0.037 A 
BRANCH  42  56
ATOM     56  C   UNL A   1      42.507  26.586  27.735  1.00  0.00     0.064 A 
ATOM     57  C   UNL A   1      43.446  27.075  26.817  1.00  0.00     0.173 A 
ATOM     58  C   UNL A   1      41.989  25.298  27.522  1.00  0.00     0.173 A 
ATOM     59  F   UNL A   1      43.959  28.306  26.968  1.00  0.00    -0.203 F 
ATOM     60  C   UNL A   1      43.839  26.312  25.720  1.00  0.00     0.198 A 
ATOM     61  C   UNL A   1      42.402  24.529  26.437  1.00  0.00     0.198 A 
ATOM     62  F   UNL A   1      41.090  24.782  28.373  1.00  0.00    -0.203 F 
ATOM     63  F   UNL A   1      44.711  26.814  24.834  1.00  0.00    -0.200 F 
ATOM     64  C   UNL A   1      43.323  25.038  25.535  1.00  0.00     0.200 A 
ATOM     65  F   UNL A   1      41.909  23.295  26.267  1.00  0.00    -0.200 F 
ATOM     66  F   UNL A   1      43.708  24.303  24.483  1.00  0.00    -0.200 F 
ENDBRANCH  42  56
BRANCH  43  67
ATOM     67  C   UNL A   1      39.396  32.073  35.486  1.00  0.00     0.064 A 
ATOM     68  C   UNL A   1      38.559  31.513  36.461  1.00  0.00     0.173 A 
ATOM     69  C   UNL A   1      39.784  33.412  35.651  1.00  0.00     0.173 A 
ATOM     70  F   UNL A   1      38.138  30.246  36.332  1.00  0.00    -0.203 F 
ATOM     71  C   UNL A   1      38.121  32.263  37.550  1.00  0.00     0.198 A 
ATOM     72  C   UNL A   1      39.371  34.151  36.756  1.00  0.00     0.198 A 
ATOM     73  F   UNL A   1      40.583  33.996  34.746  1.00  0.00    -0.203 F 
ATOM     74  F   UNL A   1      37.288  31.716  38.447  1.00  0.00    -0.200 F 
ATOM     75  C   UNL A   1      38.534  33.579  37.702  1.00  0.00     0.200 A 
ATOM     76  F   UNL A   1      39.784  35.417  36.906  1.00  0.00    -0.200 F 
ATOM     77  F   UNL A   1      38.120  34.295  38.755  1.00  0.00    -0.200 F 
ENDBRANCH  43  67
BRANCH  55  78
ATOM     78  C   UNL A   1      44.732  27.722  34.495  1.00  0.00     0.064 A 
ATOM     79  C   UNL A   1      45.943  28.425  34.554  1.00  0.00     0.173 A 
ATOM     80  C   UNL A   1      44.578  26.596  35.316  1.00  0.00     0.173 A 
ATOM     81  F   UNL A   1      46.141  29.497  33.772  1.00  0.00    -0.203 F 
ATOM     82  C   UNL A   1      46.972  28.002  35.391  1.00  0.00     0.198 A 
ATOM     83  C   UNL A   1      45.601  26.189  36.168  1.00  0.00     0.198 A 
ATOM     84  F   UNL A   1      43.435  25.894  35.295  1.00  0.00    -0.203 F 
ATOM     85  F   UNL A   1      48.137  28.663  35.403  1.00  0.00    -0.200 F 
ATOM     86  C   UNL A   1      46.798  26.888  36.200  1.00  0.00     0.200 A 
ATOM     87  F   UNL A   1      45.430  25.117  36.953  1.00  0.00    -0.200 F 
ATOM     88  F   UNL A   1      47.790  26.483  37.005  1.00  0.00    -0.200 F 
ENDBRANCH  55  78
ENDBRANCH  29  30
ENDBRANCH  22  24
ENDBRANCH  21  22
ENDBRANCH  20  21
ENDBRANCH   1  20
TORSDOF 13
ENDMDL
MODEL 3
REMARK VINA RESULT:     -11.6      0.211      1.724
REMARK SMILES Cc1cccc(C[N@H+]2CC[C@@](C)(C(=O)OCCOC(=O)c3ccc(-c4c5nc(c(-c6c(F)c(F)c(F)c(F)c6F)c6ccc([nH]6)c(-c6c(F)c(F)c(F)c(F)c6F)c6nc(c(-c7c(F)c(F)c(F)c(F)c7F)c7ccc4[nH]7)C=C6)C=C5)cc3)C2)n1
REMARK SMILES IDX 16 1 15 2 13 3 14 4 11 5 8 6 9 7 84 8 10 10 12 11 7 12 6 13
REMARK SMILES IDX 1 14 2 15 3 16 85 17 4 18 5 19 17 20 18 21 19 22 20 23 21 24
REMARK SMILES IDX 22 25 83 26 23 27 82 28 24 29 25 30 26 31 76 32 27 33 81 34
REMARK SMILES IDX 75 35 77 36 28 37 80 38 74 39 73 40 29 42 61 43 41 44 60 45
REMARK SMILES IDX 42 46 45 47 59 48 78 49 43 50 44 51 58 53 79 54 46 55 30 56
REMARK SMILES IDX 31 57 39 58 32 59 33 60 37 61 40 62 34 63 35 64 38 65 36 66
REMARK SMILES IDX 62 67 63 68 71 69 64 70 65 71 69 72 72 73 66 74 67 75 70 76
REMARK SMILES IDX 68 77 47 78 48 79 56 80 49 81 50 82 54 83 57 84 51 85 52 86
REMARK SMILES IDX 55 87 53 88
REMARK H PARENT 8 9 77 41 45 52
REMARK Flexibility Score: inf
ROOT
ATOM      1  C   UNL A   1      31.282  29.315  24.637  1.00  0.00     0.274 C 
ENDROOT
BRANCH   1   2
ATOM      2  O   UNL A   1      31.198  27.948  24.180  1.00  0.00    -0.461 OA
BRANCH   2   3
ATOM      3  C   UNL A   1      31.578  27.688  22.905  1.00  0.00     0.317 C 
ATOM      4  O   UNL A   1      30.826  27.776  21.937  1.00  0.00    -0.251 OA
BRANCH   3   5
ATOM      5  C   UNL A   1      33.041  27.239  22.762  1.00  0.00     0.119 C 
ATOM      6  N   UNL A   1      33.863  25.094  23.440  1.00  0.00    -0.329 N 
ATOM      7  C   UNL A   1      32.999  24.895  22.285  1.00  0.00     0.263 C 
ATOM      8  C   UNL A   1      33.607  26.448  23.955  1.00  0.00     0.281 C 
ATOM      9  H   UNL A   1      34.834  25.016  23.140  1.00  0.00     0.348 HD
ATOM     10  C   UNL A   1      33.100  26.241  21.594  1.00  0.00     0.086 C 
ATOM     11  C   UNL A   1      33.921  28.460  22.479  1.00  0.00     0.030 C 
BRANCH   6  12
ATOM     12  C   UNL A   1      33.795  24.038  24.464  1.00  0.00     0.319 C 
BRANCH  12  13
ATOM     13  C   UNL A   1      35.083  23.279  24.735  1.00  0.00     0.095 A 
ATOM     14  C   UNL A   1      38.295  24.115  26.324  1.00  0.00     0.067 C 
ATOM     15  C   UNL A   1      37.216  23.307  25.669  1.00  0.00     0.038 A 
ATOM     16  C   UNL A   1      37.362  21.940  25.473  1.00  0.00     0.023 A 
ATOM     17  N   UNL A   1      36.110  23.978  25.282  1.00  0.00    -0.252 NA
ATOM     18  C   UNL A   1      36.320  21.235  24.879  1.00  0.00     0.004 A 
ATOM     19  C   UNL A   1      35.162  21.908  24.509  1.00  0.00     0.030 A 
ENDBRANCH  12  13
ENDBRANCH   6  12
ENDBRANCH   3   5
ENDBRANCH   2   3
ENDBRANCH   1   2
BRANCH   1  20
ATOM     20  C   UNL A   1      31.850  29.373  26.051  1.00  0.00     0.275 C 
BRANCH  20  21
ATOM     21  O   UNL A   1      33.125  30.032  26.006  1.00  0.00    -0.458 OA
BRANCH  21  22
ATOM     22  C   UNL A   1      33.281  31.089  26.830  1.00  0.00     0.338 C 
ATOM     23  O   UNL A   1      32.582  32.091  26.908  1.00  0.00    -0.246 OA
BRANCH  22  24
ATOM     24  C   UNL A   1      34.460  30.855  27.677  1.00  0.00     0.060 A 
ATOM     25  C   UNL A   1      35.311  31.915  27.984  1.00  0.00     0.016 A 
ATOM     26  C   UNL A   1      34.771  29.564  28.100  1.00  0.00     0.016 A 
ATOM     27  C   UNL A   1      36.513  31.684  28.643  1.00  0.00     0.010 A 
ATOM     28  C   UNL A   1      35.927  29.350  28.857  1.00  0.00     0.010 A 
ATOM     29  C   UNL A   1      36.823  30.402  29.115  1.00  0.00    -0.014 A 
BRANCH  29  30
ATOM     30  C   UNL A   1      38.088  30.160  29.859  1.00  0.00     0.031 A 
ATOM     31  C   UNL A   1      39.162  29.299  29.254  1.00  0.00     0.074 A 
ATOM     32  C   UNL A   1      38.278  30.711  31.075  1.00  0.00     0.049 A 
ATOM     33  N   UNL A   1      40.226  28.783  29.816  1.00  0.00    -0.248 NA
ATOM     34  C   UNL A   1      39.012  28.959  27.831  1.00  0.00     0.031 C 
ATOM     35  C   UNL A   1      37.344  31.610  31.756  1.00  0.00     0.029 A 
ATOM     36  N   UNL A   1      39.328  30.601  31.953  1.00  0.00    -0.354 N 
ATOM     37  C   UNL A   1      40.833  28.009  28.837  1.00  0.00     0.074 A 
ATOM     38  C   UNL A   1      40.028  28.128  27.641  1.00  0.00     0.031 C 
ATOM     39  C   UNL A   1      37.879  32.000  32.922  1.00  0.00     0.029 A 
ATOM     40  C   UNL A   1      39.147  31.308  33.117  1.00  0.00     0.049 A 
ATOM     41  H   UNL A   1      40.134  30.066  31.767  1.00  0.00     0.167 HD
ATOM     42  C   UNL A   1      41.959  27.260  28.935  1.00  0.00     0.037 A 
ATOM     43  C   UNL A   1      39.893  31.358  34.236  1.00  0.00     0.037 A 
ATOM     44  C   UNL A   1      42.786  27.195  30.112  1.00  0.00     0.049 A 
ATOM     45  C   UNL A   1      41.133  30.515  34.322  1.00  0.00     0.074 A 
ATOM     46  C   UNL A   1      43.936  26.455  30.322  1.00  0.00     0.029 A 
ATOM     47  N   UNL A   1      42.560  27.921  31.272  1.00  0.00    -0.354 N 
ATOM     48  N   UNL A   1      41.650  29.711  33.425  1.00  0.00    -0.248 NA
ATOM     49  C   UNL A   1      41.881  30.564  35.586  1.00  0.00     0.031 C 
ATOM     50  C   UNL A   1      44.398  26.721  31.616  1.00  0.00     0.029 A 
ATOM     51  C   UNL A   1      43.553  27.651  32.200  1.00  0.00     0.049 A 
ATOM     52  H   UNL A   1      41.806  28.539  31.415  1.00  0.00     0.167 HD
ATOM     53  C   UNL A   1      42.780  29.164  34.011  1.00  0.00     0.074 A 
ATOM     54  C   UNL A   1      42.891  29.745  35.333  1.00  0.00     0.031 C 
ATOM     55  C   UNL A   1      43.644  28.250  33.505  1.00  0.00     0.037 A 
BRANCH  42  56
ATOM     56  C   UNL A   1      42.344  26.424  27.752  1.00  0.00     0.064 A 
ATOM     57  C   UNL A   1      41.766  25.171  27.507  1.00  0.00     0.173 A 
ATOM     58  C   UNL A   1      43.282  26.907  26.825  1.00  0.00     0.173 A 
ATOM     59  F   UNL A   1      40.875  24.660  28.371  1.00  0.00    -0.203 F 
ATOM     60  C   UNL A   1      42.124  24.425  26.387  1.00  0.00     0.198 A 
ATOM     61  C   UNL A   1      43.620  26.168  25.695  1.00  0.00     0.198 A 
ATOM     62  F   UNL A   1      43.864  28.102  27.012  1.00  0.00    -0.203 F 
ATOM     63  F   UNL A   1      41.585  23.213  26.191  1.00  0.00    -0.200 F 
ATOM     64  C   UNL A   1      43.045  24.926  25.480  1.00  0.00     0.200 A 
ATOM     65  F   UNL A   1      44.503  26.659  24.814  1.00  0.00    -0.200 F 
ATOM     66  F   UNL A   1      43.382  24.209  24.399  1.00  0.00    -0.200 F 
ENDBRANCH  42  56
BRANCH  43  67
ATOM     67  C   UNL A   1      39.462  32.205  35.378  1.00  0.00     0.064 A 
ATOM     68  C   UNL A   1      39.872  33.542  35.478  1.00  0.00     0.173 A 
ATOM     69  C   UNL A   1      38.626  31.701  36.386  1.00  0.00     0.173 A 
ATOM     70  F   UNL A   1      40.694  34.060  34.553  1.00  0.00    -0.203 F 
ATOM     71  C   UNL A   1      39.470  34.339  36.547  1.00  0.00     0.198 A 
ATOM     72  C   UNL A   1      38.200  32.508  37.438  1.00  0.00     0.198 A 
ATOM     73  F   UNL A   1      38.207  30.429  36.338  1.00  0.00    -0.203 F 
ATOM     74  F   UNL A   1      39.909  35.602  36.641  1.00  0.00    -0.200 F 
ATOM     75  C   UNL A   1      38.627  33.825  37.522  1.00  0.00     0.200 A 
ATOM     76  F   UNL A   1      37.375  32.011  38.369  1.00  0.00    -0.200 F 
ATOM     77  F   UNL A   1      38.233  34.595  38.544  1.00  0.00    -0.200 F 
ENDBRANCH  43  67
BRANCH  55  78
ATOM     78  C   UNL A   1      44.794  27.851  34.378  1.00  0.00     0.064 A 
ATOM     79  C   UNL A   1      44.703  26.756  35.248  1.00  0.00     0.173 A 
ATOM     80  C   UNL A   1      46.004  28.557  34.325  1.00  0.00     0.173 A 
ATOM     81  F   UNL A   1      43.559  26.062  35.345  1.00  0.00    -0.203 F 
ATOM     82  C   UNL A   1      45.780  26.394  36.054  1.00  0.00     0.198 A 
ATOM     83  C   UNL A   1      47.085  28.180  35.115  1.00  0.00     0.198 A 
ATOM     84  F   UNL A   1      46.136  29.610  33.505  1.00  0.00    -0.203 F 
ATOM     85  F   UNL A   1      45.661  25.371  36.909  1.00  0.00    -0.200 F 
ATOM     86  C   UNL A   1      46.970  27.104  35.983  1.00  0.00     0.200 A 
ATOM     87  F   UNL A   1      48.236  28.861  35.042  1.00  0.00    -0.200 F 
ATOM     88  F   UNL A   1      48.006  26.754  36.758  1.00  0.00    -0.200 F 
ENDBRANCH  55  78
ENDBRANCH  29  30
ENDBRANCH  22  24
ENDBRANCH  21  22
ENDBRANCH  20  21
ENDBRANCH   1  20
TORSDOF 13
ENDMDL
