MODEL 1
REMARK VINA RESULT:     -12.0      0.000      0.000
REMARK SMILES CC(=O)N[C@@H](CSCc1ccnc2ccccc12)C(=O)OCCOC(=O)c1ccc(-c2c3nc(c(-c4c(F)c(F)c(F)c(F)c4F)c4ccc([nH]4)c(-c4c(F)c(F)c(F)c(F)c4F)c4nc(c(-c5c(F)c(F)c(F)c(F)c5F)c5ccc2[nH]5)C=C4)C=C3)cc1
REMARK SMILES IDX 22 1 21 2 19 3 20 4 5 5 4 6 1 7 2 8 3 9 6 11 7 12 8 13 9 14
REMARK SMILES IDX 10 15 18 16 11 17 13 18 17 19 12 20 14 21 16 22 15 23 23 24
REMARK SMILES IDX 24 25 25 26 26 27 27 28 28 29 89 30 29 31 88 32 30 33 31 34
REMARK SMILES IDX 32 35 82 36 33 37 87 38 81 39 83 40 34 41 86 42 80 43 79 44
REMARK SMILES IDX 35 46 67 47 47 48 66 49 48 50 51 51 65 52 84 53 49 54 50 55
REMARK SMILES IDX 64 57 85 58 52 59 36 60 37 61 45 62 38 63 39 64 43 65 46 66
REMARK SMILES IDX 40 67 41 68 44 69 42 70 68 71 69 72 77 73 70 74 71 75 75 76
REMARK SMILES IDX 78 77 72 78 73 79 76 80 74 81 53 82 54 83 62 84 55 85 56 86
REMARK SMILES IDX 60 87 63 88 57 89 58 90 61 91 59 92
REMARK H PARENT 4 10 83 45 51 56
REMARK Flexibility Score: inf
ROOT
ATOM      1  C   UNL A   1      31.737  28.247  25.608  1.00  0.00     0.274 C 
ENDROOT
BRANCH   1   2
ATOM      2  O   UNL A   1      32.914  28.218  24.783  1.00  0.00    -0.461 OA
BRANCH   2   3
ATOM      3  C   UNL A   1      32.730  28.378  23.443  1.00  0.00     0.329 C 
ATOM      4  O   UNL A   1      33.466  29.006  22.694  1.00  0.00    -0.250 OA
BRANCH   3   5
ATOM      5  C   UNL A   1      31.458  27.665  22.964  1.00  0.00     0.202 C 
BRANCH   5   6
ATOM      6  N   UNL A   1      30.733  28.505  22.003  1.00  0.00    -0.342 N 
ATOM      7  C   UNL A   1      29.519  30.086  23.501  1.00  0.00     0.114 C 
ATOM      8  C   UNL A   1      29.905  29.573  22.143  1.00  0.00     0.217 C 
ATOM      9  O   UNL A   1      29.446  30.088  21.124  1.00  0.00    -0.275 OA
ATOM     10  H   UNL A   1      30.876  28.240  21.066  1.00  0.00     0.164 HD
ENDBRANCH   5   6
BRANCH   5  11
ATOM     11  C   UNL A   1      31.812  26.248  22.467  1.00  0.00     0.106 C 
BRANCH  11  12
ATOM     12  S   UNL A   1      31.906  24.891  23.697  1.00  0.00    -0.154 SA
BRANCH  12  13
ATOM     13  C   UNL A   1      32.562  23.492  22.731  1.00  0.00     0.105 C 
BRANCH  13  14
ATOM     14  C   UNL A   1      33.088  22.313  23.518  1.00  0.00    -0.027 A 
ATOM     15  C   UNL A   1      32.154  21.390  24.005  1.00  0.00     0.025 A 
ATOM     16  C   UNL A   1      34.455  22.144  23.878  1.00  0.00     0.004 A 
ATOM     17  C   UNL A   1      32.587  20.378  24.837  1.00  0.00     0.112 A 
ATOM     18  C   UNL A   1      34.788  21.059  24.721  1.00  0.00     0.070 A 
ATOM     19  C   UNL A   1      35.502  22.997  23.471  1.00  0.00     0.010 A 
ATOM     20  N   UNL A   1      33.873  20.201  25.196  1.00  0.00    -0.256 NA
ATOM     21  C   UNL A   1      36.115  20.871  25.092  1.00  0.00     0.029 A 
ATOM     22  C   UNL A   1      36.832  22.776  23.826  1.00  0.00     0.001 A 
ATOM     23  C   UNL A   1      37.140  21.708  24.646  1.00  0.00     0.002 A 
ENDBRANCH  13  14
ENDBRANCH  12  13
ENDBRANCH  11  12
ENDBRANCH   5  11
ENDBRANCH   3   5
ENDBRANCH   2   3
ENDBRANCH   1   2
BRANCH   1  24
ATOM     24  C   UNL A   1      31.783  29.489  26.496  1.00  0.00     0.275 C 
BRANCH  24  25
ATOM     25  O   UNL A   1      32.905  30.312  26.119  1.00  0.00    -0.458 OA
BRANCH  25  26
ATOM     26  C   UNL A   1      33.215  31.305  26.981  1.00  0.00     0.338 C 
ATOM     27  O   UNL A   1      32.553  32.291  27.263  1.00  0.00    -0.246 OA
BRANCH  26  28
ATOM     28  C   UNL A   1      34.507  31.021  27.616  1.00  0.00     0.060 A 
ATOM     29  C   UNL A   1      34.815  29.710  27.973  1.00  0.00     0.016 A 
ATOM     30  C   UNL A   1      35.351  32.067  27.978  1.00  0.00     0.016 A 
ATOM     31  C   UNL A   1      35.936  29.443  28.757  1.00  0.00     0.010 A 
ATOM     32  C   UNL A   1      36.527  31.786  28.682  1.00  0.00     0.010 A 
ATOM     33  C   UNL A   1      36.822  30.474  29.096  1.00  0.00    -0.014 A 
BRANCH  33  34
ATOM     34  C   UNL A   1      38.062  30.181  29.862  1.00  0.00     0.031 A 
ATOM     35  C   UNL A   1      39.128  29.295  29.278  1.00  0.00     0.074 A 
ATOM     36  C   UNL A   1      38.226  30.696  31.097  1.00  0.00     0.049 A 
ATOM     37  N   UNL A   1      40.172  28.760  29.862  1.00  0.00    -0.248 NA
ATOM     38  C   UNL A   1      39.003  28.960  27.851  1.00  0.00     0.031 C 
ATOM     39  C   UNL A   1      37.292  31.605  31.765  1.00  0.00     0.029 A 
ATOM     40  N   UNL A   1      39.233  30.524  32.014  1.00  0.00    -0.354 N 
ATOM     41  C   UNL A   1      40.795  27.986  28.892  1.00  0.00     0.074 A 
ATOM     42  C   UNL A   1      40.019  28.126  27.678  1.00  0.00     0.031 C 
ATOM     43  C   UNL A   1      37.777  31.927  32.972  1.00  0.00     0.029 A 
ATOM     44  C   UNL A   1      39.008  31.179  33.201  1.00  0.00     0.049 A 
ATOM     45  H   UNL A   1      40.036  29.983  31.838  1.00  0.00     0.167 HD
ATOM     46  C   UNL A   1      41.909  27.224  29.011  1.00  0.00     0.037 A 
ATOM     47  C   UNL A   1      39.684  31.142  34.364  1.00  0.00     0.037 A 
ATOM     48  C   UNL A   1      42.701  27.123  30.210  1.00  0.00     0.049 A 
ATOM     49  C   UNL A   1      40.891  30.257  34.482  1.00  0.00     0.074 A 
ATOM     50  C   UNL A   1      43.858  26.393  30.423  1.00  0.00     0.029 A 
ATOM     51  N   UNL A   1      42.422  27.781  31.398  1.00  0.00    -0.354 N 
ATOM     52  N   UNL A   1      41.442  29.488  33.576  1.00  0.00    -0.248 NA
ATOM     53  C   UNL A   1      41.555  30.216  35.793  1.00  0.00     0.031 C 
ATOM     54  C   UNL A   1      44.259  26.582  31.750  1.00  0.00     0.029 A 
ATOM     55  C   UNL A   1      43.375  27.462  32.352  1.00  0.00     0.049 A 
ATOM     56  H   UNL A   1      41.658  28.385  31.543  1.00  0.00     0.167 HD
ATOM     57  C   UNL A   1      42.518  28.876  34.202  1.00  0.00     0.074 A 
ATOM     58  C   UNL A   1      42.557  29.380  35.559  1.00  0.00     0.031 C 
ATOM     59  C   UNL A   1      43.392  27.970  33.699  1.00  0.00     0.037 A 
BRANCH  46  60
ATOM     60  C   UNL A   1      42.325  26.409  27.823  1.00  0.00     0.064 A 
ATOM     61  C   UNL A   1      43.316  26.845  26.933  1.00  0.00     0.173 A 
ATOM     62  C   UNL A   1      41.754  25.146  27.601  1.00  0.00     0.173 A 
ATOM     63  F   UNL A   1      43.884  28.050  27.095  1.00  0.00    -0.203 F 
ATOM     64  C   UNL A   1      43.707  26.057  25.853  1.00  0.00     0.198 A 
ATOM     65  C   UNL A   1      42.162  24.350  26.534  1.00  0.00     0.198 A 
ATOM     66  F   UNL A   1      40.804  24.679  28.426  1.00  0.00    -0.203 F 
ATOM     67  F   UNL A   1      44.632  26.508  24.995  1.00  0.00    -0.200 F 
ATOM     68  C   UNL A   1      43.135  24.807  25.659  1.00  0.00     0.200 A 
ATOM     69  F   UNL A   1      41.617  23.139  26.355  1.00  0.00    -0.200 F 
ATOM     70  F   UNL A   1      43.519  24.047  24.624  1.00  0.00    -0.200 F 
ENDBRANCH  46  60
BRANCH  47  71
ATOM     71  C   UNL A   1      39.197  31.932  35.523  1.00  0.00     0.064 A 
ATOM     72  C   UNL A   1      39.553  33.278  35.677  1.00  0.00     0.173 A 
ATOM     73  C   UNL A   1      38.353  31.363  36.489  1.00  0.00     0.173 A 
ATOM     74  F   UNL A   1      40.378  33.857  34.793  1.00  0.00    -0.203 F 
ATOM     75  C   UNL A   1      39.086  34.024  36.757  1.00  0.00     0.198 A 
ATOM     76  C   UNL A   1      37.863  32.119  37.551  1.00  0.00     0.198 A 
ATOM     77  F   UNL A   1      37.982  30.078  36.385  1.00  0.00    -0.203 F 
ATOM     78  F   UNL A   1      39.467  35.301  36.900  1.00  0.00    -0.200 F 
ATOM     79  C   UNL A   1      38.235  33.447  37.688  1.00  0.00     0.200 A 
ATOM     80  F   UNL A   1      37.028  31.561  38.438  1.00  0.00    -0.200 F 
ATOM     81  F   UNL A   1      37.776  34.170  38.718  1.00  0.00    -0.200 F 
ENDBRANCH  47  71
BRANCH  59  82
ATOM     82  C   UNL A   1      44.470  27.485  34.620  1.00  0.00     0.064 A 
ATOM     83  C   UNL A   1      45.686  28.172  34.746  1.00  0.00     0.173 A 
ATOM     84  C   UNL A   1      44.278  26.335  35.399  1.00  0.00     0.173 A 
ATOM     85  F   UNL A   1      45.922  29.266  34.007  1.00  0.00    -0.203 F 
ATOM     86  C   UNL A   1      46.680  27.711  35.604  1.00  0.00     0.198 A 
ATOM     87  C   UNL A   1      45.265  25.890  36.273  1.00  0.00     0.198 A 
ATOM     88  F   UNL A   1      43.130  25.645  35.313  1.00  0.00    -0.203 F 
ATOM     89  F   UNL A   1      47.853  28.358  35.678  1.00  0.00    -0.200 F 
ATOM     90  C   UNL A   1      46.467  26.574  36.370  1.00  0.00     0.200 A 
ATOM     91  F   UNL A   1      45.056  24.795  37.018  1.00  0.00    -0.200 F 
ATOM     92  F   UNL A   1      47.426  26.133  37.197  1.00  0.00    -0.200 F 
ENDBRANCH  59  82
ENDBRANCH  33  34
ENDBRANCH  26  28
ENDBRANCH  25  26
ENDBRANCH  24  25
ENDBRANCH   1  24
TORSDOF 16
ENDMDL
MODEL 2
REMARK VINA RESULT:     -12.0      1.283      2.438
REMARK SMILES CC(=O)N[C@@H](CSCc1ccnc2ccccc12)C(=O)OCCOC(=O)c1ccc(-c2c3nc(c(-c4c(F)c(F)c(F)c(F)c4F)c4ccc([nH]4)c(-c4c(F)c(F)c(F)c(F)c4F)c4nc(c(-c5c(F)c(F)c(F)c(F)c5F)c5ccc2[nH]5)C=C4)C=C3)cc1
REMARK SMILES IDX 22 1 21 2 19 3 20 4 5 5 4 6 1 7 2 8 3 9 6 11 7 12 8 13 9 14
REMARK SMILES IDX 10 15 18 16 11 17 13 18 17 19 12 20 14 21 16 22 15 23 23 24
REMARK SMILES IDX 24 25 25 26 26 27 27 28 28 29 89 30 29 31 88 32 30 33 31 34
REMARK SMILES IDX 32 35 82 36 33 37 87 38 81 39 83 40 34 41 86 42 80 43 79 44
REMARK SMILES IDX 35 46 67 47 47 48 66 49 48 50 51 51 65 52 84 53 49 54 50 55
REMARK SMILES IDX 64 57 85 58 52 59 36 60 37 61 45 62 38 63 39 64 43 65 46 66
REMARK SMILES IDX 40 67 41 68 44 69 42 70 68 71 69 72 77 73 70 74 71 75 75 76
REMARK SMILES IDX 78 77 72 78 73 79 76 80 74 81 53 82 54 83 62 84 55 85 56 86
REMARK SMILES IDX 60 87 63 88 57 89 58 90 61 91 59 92
REMARK H PARENT 4 10 83 45 51 56
REMARK Flexibility Score: inf
ROOT
ATOM      1  C   UNL A   1      31.435  28.497  25.740  1.00  0.00     0.274 C 
ENDROOT
BRANCH   1   2
ATOM      2  O   UNL A   1      30.881  27.989  24.515  1.00  0.00    -0.461 OA
BRANCH   2   3
ATOM      3  C   UNL A   1      30.240  26.790  24.581  1.00  0.00     0.329 C 
ATOM      4  O   UNL A   1      29.067  26.593  24.288  1.00  0.00    -0.250 OA
BRANCH   3   5
ATOM      5  C   UNL A   1      31.176  25.681  25.082  1.00  0.00     0.202 C 
BRANCH   5   6
ATOM      6  N   UNL A   1      30.456  24.773  25.982  1.00  0.00    -0.342 N 
ATOM      7  C   UNL A   1      32.306  23.381  26.910  1.00  0.00     0.114 C 
ATOM      8  C   UNL A   1      30.860  23.781  26.817  1.00  0.00     0.217 C 
ATOM      9  O   UNL A   1      30.003  23.187  27.470  1.00  0.00    -0.275 OA
ATOM     10  H   UNL A   1      29.481  24.912  25.981  1.00  0.00     0.164 HD
ENDBRANCH   5   6
BRANCH   5  11
ATOM     11  C   UNL A   1      31.871  25.006  23.881  1.00  0.00     0.106 C 
BRANCH  11  12
ATOM     12  S   UNL A   1      31.055  23.560  23.102  1.00  0.00    -0.154 SA
BRANCH  12  13
ATOM     13  C   UNL A   1      32.456  22.530  22.555  1.00  0.00     0.105 C 
BRANCH  13  14
ATOM     14  C   UNL A   1      33.173  21.739  23.626  1.00  0.00    -0.027 A 
ATOM     15  C   UNL A   1      32.466  20.703  24.249  1.00  0.00     0.025 A 
ATOM     16  C   UNL A   1      34.477  22.050  24.104  1.00  0.00     0.004 A 
ATOM     17  C   UNL A   1      33.045  20.050  25.318  1.00  0.00     0.112 A 
ATOM     18  C   UNL A   1      34.978  21.302  25.194  1.00  0.00     0.070 A 
ATOM     19  C   UNL A   1      35.301  23.069  23.581  1.00  0.00     0.010 A 
ATOM     20  N   UNL A   1      34.273  20.329  25.792  1.00  0.00    -0.256 NA
ATOM     21  C   UNL A   1      36.248  21.587  25.685  1.00  0.00     0.029 A 
ATOM     22  C   UNL A   1      36.583  23.321  24.065  1.00  0.00     0.001 A 
ATOM     23  C   UNL A   1      37.059  22.576  25.127  1.00  0.00     0.002 A 
ENDBRANCH  13  14
ENDBRANCH  12  13
ENDBRANCH  11  12
ENDBRANCH   5  11
ENDBRANCH   3   5
ENDBRANCH   2   3
ENDBRANCH   1   2
BRANCH   1  24
ATOM     24  C   UNL A   1      31.706  29.992  25.581  1.00  0.00     0.275 C 
BRANCH  24  25
ATOM     25  O   UNL A   1      33.086  30.270  25.892  1.00  0.00    -0.458 OA
BRANCH  25  26
ATOM     26  C   UNL A   1      33.290  31.166  26.883  1.00  0.00     0.338 C 
ATOM     27  O   UNL A   1      32.546  32.059  27.255  1.00  0.00    -0.246 OA
BRANCH  26  28
ATOM     28  C   UNL A   1      34.579  30.898  27.532  1.00  0.00     0.060 A 
ATOM     29  C   UNL A   1      34.893  29.593  27.904  1.00  0.00     0.016 A 
ATOM     30  C   UNL A   1      35.411  31.954  27.892  1.00  0.00     0.016 A 
ATOM     31  C   UNL A   1      36.008  29.342  28.701  1.00  0.00     0.010 A 
ATOM     32  C   UNL A   1      36.583  31.689  28.610  1.00  0.00     0.010 A 
ATOM     33  C   UNL A   1      36.883  30.383  29.039  1.00  0.00    -0.014 A 
BRANCH  33  34
ATOM     34  C   UNL A   1      38.119  30.107  29.819  1.00  0.00     0.031 A 
ATOM     35  C   UNL A   1      39.195  29.219  29.256  1.00  0.00     0.074 A 
ATOM     36  C   UNL A   1      38.269  30.639  31.049  1.00  0.00     0.049 A 
ATOM     37  N   UNL A   1      40.236  28.698  29.855  1.00  0.00    -0.248 NA
ATOM     38  C   UNL A   1      39.083  28.866  27.832  1.00  0.00     0.031 C 
ATOM     39  C   UNL A   1      37.324  31.550  31.697  1.00  0.00     0.029 A 
ATOM     40  N   UNL A   1      39.269  30.484  31.976  1.00  0.00    -0.354 N 
ATOM     41  C   UNL A   1      40.872  27.915  28.900  1.00  0.00     0.074 A 
ATOM     42  C   UNL A   1      40.105  28.035  27.678  1.00  0.00     0.031 C 
ATOM     43  C   UNL A   1      37.798  31.890  32.904  1.00  0.00     0.029 A 
ATOM     44  C   UNL A   1      39.031  31.152  33.152  1.00  0.00     0.049 A 
ATOM     45  H   UNL A   1      40.077  29.945  31.814  1.00  0.00     0.167 HD
ATOM     46  C   UNL A   1      41.989  27.161  29.038  1.00  0.00     0.037 A 
ATOM     47  C   UNL A   1      39.697  31.134  34.322  1.00  0.00     0.037 A 
ATOM     48  C   UNL A   1      42.771  27.080  30.245  1.00  0.00     0.049 A 
ATOM     49  C   UNL A   1      40.907  30.257  34.461  1.00  0.00     0.074 A 
ATOM     50  C   UNL A   1      43.930  26.358  30.477  1.00  0.00     0.029 A 
ATOM     51  N   UNL A   1      42.478  27.751  31.423  1.00  0.00    -0.354 N 
ATOM     52  N   UNL A   1      41.471  29.480  33.570  1.00  0.00    -0.248 NA
ATOM     53  C   UNL A   1      41.560  30.237  35.778  1.00  0.00     0.031 C 
ATOM     54  C   UNL A   1      44.319  26.567  31.805  1.00  0.00     0.029 A 
ATOM     55  C   UNL A   1      43.424  27.449  32.388  1.00  0.00     0.049 A 
ATOM     56  H   UNL A   1      41.710  28.353  31.553  1.00  0.00     0.167 HD
ATOM     57  C   UNL A   1      42.545  28.882  34.213  1.00  0.00     0.074 A 
ATOM     58  C   UNL A   1      42.569  29.404  35.563  1.00  0.00     0.031 C 
ATOM     59  C   UNL A   1      43.428  27.974  33.729  1.00  0.00     0.037 A 
BRANCH  46  60
ATOM     60  C   UNL A   1      42.420  26.333  27.864  1.00  0.00     0.064 A 
ATOM     61  C   UNL A   1      41.862  25.074  27.600  1.00  0.00     0.173 A 
ATOM     62  C   UNL A   1      43.374  26.831  26.963  1.00  0.00     0.173 A 
ATOM     63  F   UNL A   1      40.956  24.548  28.437  1.00  0.00    -0.203 F 
ATOM     64  C   UNL A   1      42.258  24.335  26.486  1.00  0.00     0.198 A 
ATOM     65  C   UNL A   1      43.750  26.101  25.839  1.00  0.00     0.198 A 
ATOM     66  F   UNL A   1      43.934  28.033  27.168  1.00  0.00    -0.203 F 
ATOM     67  F   UNL A   1      41.738  23.120  26.270  1.00  0.00    -0.200 F 
ATOM     68  C   UNL A   1      43.195  24.853  25.603  1.00  0.00     0.200 A 
ATOM     69  F   UNL A   1      44.647  26.608  24.981  1.00  0.00    -0.200 F 
ATOM     70  F   UNL A   1      43.568  24.144  24.528  1.00  0.00    -0.200 F 
ENDBRANCH  46  60
BRANCH  47  71
ATOM     71  C   UNL A   1      39.195  31.936  35.467  1.00  0.00     0.064 A 
ATOM     72  C   UNL A   1      39.533  33.288  35.600  1.00  0.00     0.173 A 
ATOM     73  C   UNL A   1      38.355  31.372  36.438  1.00  0.00     0.173 A 
ATOM     74  F   UNL A   1      40.354  33.864  34.710  1.00  0.00    -0.203 F 
ATOM     75  C   UNL A   1      39.053  34.046  36.667  1.00  0.00     0.198 A 
ATOM     76  C   UNL A   1      37.852  32.137  37.487  1.00  0.00     0.198 A 
ATOM     77  F   UNL A   1      38.002  30.080  36.354  1.00  0.00    -0.203 F 
ATOM     78  F   UNL A   1      39.417  35.329  36.790  1.00  0.00    -0.200 F 
ATOM     79  C   UNL A   1      38.206  33.473  37.603  1.00  0.00     0.200 A 
ATOM     80  F   UNL A   1      37.022  31.583  38.380  1.00  0.00    -0.200 F 
ATOM     81  F   UNL A   1      37.734  34.206  38.620  1.00  0.00    -0.200 F 
ENDBRANCH  47  71
BRANCH  59  82
ATOM     82  C   UNL A   1      44.501  27.507  34.665  1.00  0.00     0.064 A 
ATOM     83  C   UNL A   1      44.330  26.363  35.457  1.00  0.00     0.173 A 
ATOM     84  C   UNL A   1      45.718  28.197  34.755  1.00  0.00     0.173 A 
ATOM     85  F   UNL A   1      43.175  25.681  35.419  1.00  0.00    -0.203 F 
ATOM     86  C   UNL A   1      45.334  25.939  36.324  1.00  0.00     0.198 A 
ATOM     87  C   UNL A   1      46.728  27.757  35.605  1.00  0.00     0.198 A 
ATOM     88  F   UNL A   1      45.927  29.297  34.015  1.00  0.00    -0.203 F 
ATOM     89  F   UNL A   1      45.135  24.867  37.104  1.00  0.00    -0.200 F 
ATOM     90  C   UNL A   1      46.533  26.633  36.393  1.00  0.00     0.200 A 
ATOM     91  F   UNL A   1      47.889  28.425  35.667  1.00  0.00    -0.200 F 
ATOM     92  F   UNL A   1      47.498  26.222  37.227  1.00  0.00    -0.200 F 
ENDBRANCH  59  82
ENDBRANCH  33  34
ENDBRANCH  26  28
ENDBRANCH  25  26
ENDBRANCH  24  25
ENDBRANCH   1  24
TORSDOF 16
ENDMDL
MODEL 3
REMARK VINA RESULT:     -11.9      4.711     10.194
REMARK SMILES CC(=O)N[C@@H](CSCc1ccnc2ccccc12)C(=O)OCCOC(=O)c1ccc(-c2c3nc(c(-c4c(F)c(F)c(F)c(F)c4F)c4ccc([nH]4)c(-c4c(F)c(F)c(F)c(F)c4F)c4nc(c(-c5c(F)c(F)c(F)c(F)c5F)c5ccc2[nH]5)C=C4)C=C3)cc1
REMARK SMILES IDX 22 1 21 2 19 3 20 4 5 5 4 6 1 7 2 8 3 9 6 11 7 12 8 13 9 14
REMARK SMILES IDX 10 15 18 16 11 17 13 18 17 19 12 20 14 21 16 22 15 23 23 24
REMARK SMILES IDX 24 25 25 26 26 27 27 28 28 29 89 30 29 31 88 32 30 33 31 34
REMARK SMILES IDX 32 35 82 36 33 37 87 38 81 39 83 40 34 41 86 42 80 43 79 44
REMARK SMILES IDX 35 46 67 47 47 48 66 49 48 50 51 51 65 52 84 53 49 54 50 55
REMARK SMILES IDX 64 57 85 58 52 59 36 60 37 61 45 62 38 63 39 64 43 65 46 66
REMARK SMILES IDX 40 67 41 68 44 69 42 70 68 71 69 72 77 73 70 74 71 75 75 76
REMARK SMILES IDX 78 77 72 78 73 79 76 80 74 81 53 82 54 83 62 84 55 85 56 86
REMARK SMILES IDX 60 87 63 88 57 89 58 90 61 91 59 92
REMARK H PARENT 4 10 83 45 51 56
REMARK Flexibility Score: inf
ROOT
ATOM      1  C   UNL A   1      35.811  20.731  25.036  1.00  0.00     0.274 C 
ENDROOT
BRANCH   1   2
ATOM      2  O   UNL A   1      35.319  21.665  26.011  1.00  0.00    -0.461 OA
BRANCH   2   3
ATOM      3  C   UNL A   1      34.089  21.414  26.538  1.00  0.00     0.329 C 
ATOM      4  O   UNL A   1      33.771  21.573  27.709  1.00  0.00    -0.250 OA
BRANCH   3   5
ATOM      5  C   UNL A   1      33.119  20.890  25.470  1.00  0.00     0.202 C 
BRANCH   5   6
ATOM      6  N   UNL A   1      32.643  19.549  25.825  1.00  0.00    -0.342 N 
ATOM      7  C   UNL A   1      33.076  18.267  23.731  1.00  0.00     0.114 C 
ATOM      8  C   UNL A   1      32.610  18.368  25.156  1.00  0.00     0.217 C 
ATOM      9  O   UNL A   1      32.149  17.385  25.735  1.00  0.00    -0.275 OA
ATOM     10  H   UNL A   1      32.272  19.494  26.736  1.00  0.00     0.164 HD
ENDBRANCH   5   6
BRANCH   5  11
ATOM     11  C   UNL A   1      32.014  21.937  25.213  1.00  0.00     0.106 C 
BRANCH  11  12
ATOM     12  S   UNL A   1      32.514  23.674  24.906  1.00  0.00    -0.154 SA
BRANCH  12  13
ATOM     13  C   UNL A   1      30.972  24.609  25.172  1.00  0.00     0.105 C 
BRANCH  13  14
ATOM     14  C   UNL A   1      30.940  26.026  24.645  1.00  0.00    -0.027 A 
ATOM     15  C   UNL A   1      30.689  26.203  23.278  1.00  0.00     0.025 A 
ATOM     16  C   UNL A   1      31.249  27.173  25.429  1.00  0.00     0.004 A 
ATOM     17  C   UNL A   1      30.784  27.471  22.742  1.00  0.00     0.112 A 
ATOM     18  C   UNL A   1      31.300  28.426  24.777  1.00  0.00     0.070 A 
ATOM     19  C   UNL A   1      31.532  27.146  26.811  1.00  0.00     0.010 A 
ATOM     20  N   UNL A   1      31.080  28.570  23.462  1.00  0.00    -0.256 NA
ATOM     21  C   UNL A   1      31.604  29.563  25.518  1.00  0.00     0.029 A 
ATOM     22  C   UNL A   1      31.803  28.299  27.545  1.00  0.00     0.001 A 
ATOM     23  C   UNL A   1      31.843  29.517  26.893  1.00  0.00     0.002 A 
ENDBRANCH  13  14
ENDBRANCH  12  13
ENDBRANCH  11  12
ENDBRANCH   5  11
ENDBRANCH   3   5
ENDBRANCH   2   3
ENDBRANCH   1   2
BRANCH   1  24
ATOM     24  C   UNL A   1      37.307  20.965  24.833  1.00  0.00     0.275 C 
BRANCH  24  25
ATOM     25  O   UNL A   1      37.829  21.740  25.932  1.00  0.00    -0.458 OA
BRANCH  25  26
ATOM     26  C   UNL A   1      39.113  21.486  26.265  1.00  0.00     0.338 C 
ATOM     27  O   UNL A   1      39.721  20.433  26.170  1.00  0.00    -0.246 OA
BRANCH  26  28
ATOM     28  C   UNL A   1      39.750  22.717  26.749  1.00  0.00     0.060 A 
ATOM     29  C   UNL A   1      39.366  23.940  26.202  1.00  0.00     0.016 A 
ATOM     30  C   UNL A   1      40.815  22.648  27.642  1.00  0.00     0.016 A 
ATOM     31  C   UNL A   1      40.092  25.094  26.490  1.00  0.00     0.010 A 
ATOM     32  C   UNL A   1      41.482  23.822  28.006  1.00  0.00     0.010 A 
ATOM     33  C   UNL A   1      41.141  25.054  27.419  1.00  0.00    -0.014 A 
BRANCH  33  34
ATOM     34  C   UNL A   1      41.865  26.298  27.793  1.00  0.00     0.031 A 
ATOM     35  C   UNL A   1      41.191  27.352  28.628  1.00  0.00     0.074 A 
ATOM     36  C   UNL A   1      43.127  26.495  27.363  1.00  0.00     0.049 A 
ATOM     37  N   UNL A   1      41.574  28.579  28.882  1.00  0.00    -0.248 NA
ATOM     38  C   UNL A   1      39.914  26.981  29.258  1.00  0.00     0.031 C 
ATOM     39  C   UNL A   1      43.914  25.537  26.583  1.00  0.00     0.029 A 
ATOM     40  N   UNL A   1      43.969  27.568  27.516  1.00  0.00    -0.354 N 
ATOM     41  C   UNL A   1      40.565  29.140  29.653  1.00  0.00     0.074 A 
ATOM     42  C   UNL A   1      39.554  28.120  29.834  1.00  0.00     0.031 C 
ATOM     43  C   UNL A   1      45.127  26.054  26.344  1.00  0.00     0.029 A 
ATOM     44  C   UNL A   1      45.174  27.413  26.874  1.00  0.00     0.049 A 
ATOM     45  H   UNL A   1      43.732  28.371  28.034  1.00  0.00     0.167 HD
ATOM     46  C   UNL A   1      40.490  30.397  30.155  1.00  0.00     0.037 A 
ATOM     47  C   UNL A   1      46.184  28.281  26.682  1.00  0.00     0.037 A 
ATOM     48  C   UNL A   1      41.519  31.394  30.007  1.00  0.00     0.049 A 
ATOM     49  C   UNL A   1      46.057  29.680  27.212  1.00  0.00     0.074 A 
ATOM     50  C   UNL A   1      41.544  32.689  30.496  1.00  0.00     0.029 A 
ATOM     51  N   UNL A   1      42.711  31.204  29.324  1.00  0.00    -0.354 N 
ATOM     52  N   UNL A   1      45.078  30.219  27.894  1.00  0.00    -0.248 NA
ATOM     53  C   UNL A   1      47.168  30.598  26.924  1.00  0.00     0.031 C 
ATOM     54  C   UNL A   1      42.737  33.293  30.081  1.00  0.00     0.029 A 
ATOM     55  C   UNL A   1      43.471  32.361  29.367  1.00  0.00     0.049 A 
ATOM     56  H   UNL A   1      42.978  30.369  28.875  1.00  0.00     0.167 HD
ATOM     57  C   UNL A   1      45.452  31.535  28.122  1.00  0.00     0.074 A 
ATOM     58  C   UNL A   1      46.760  31.707  27.525  1.00  0.00     0.031 C 
ATOM     59  C   UNL A   1      44.769  32.515  28.761  1.00  0.00     0.037 A 
BRANCH  46  60
ATOM     60  C   UNL A   1      39.239  30.781  30.886  1.00  0.00     0.064 A 
ATOM     61  C   UNL A   1      38.130  31.326  30.224  1.00  0.00     0.173 A 
ATOM     62  C   UNL A   1      39.132  30.555  32.268  1.00  0.00     0.173 A 
ATOM     63  F   UNL A   1      38.186  31.573  28.906  1.00  0.00    -0.203 F 
ATOM     64  C   UNL A   1      36.967  31.649  30.921  1.00  0.00     0.198 A 
ATOM     65  C   UNL A   1      37.961  30.857  32.957  1.00  0.00     0.198 A 
ATOM     66  F   UNL A   1      40.163  30.031  32.948  1.00  0.00    -0.203 F 
ATOM     67  F   UNL A   1      35.931  32.200  30.274  1.00  0.00    -0.200 F 
ATOM     68  C   UNL A   1      36.881  31.406  32.284  1.00  0.00     0.200 A 
ATOM     69  F   UNL A   1      37.876  30.612  34.272  1.00  0.00    -0.200 F 
ATOM     70  F   UNL A   1      35.758  31.710  32.950  1.00  0.00    -0.200 F 
ENDBRANCH  46  60
BRANCH  47  71
ATOM     71  C   UNL A   1      47.379  27.860  25.906  1.00  0.00     0.064 A 
ATOM     72  C   UNL A   1      48.561  27.483  26.555  1.00  0.00     0.173 A 
ATOM     73  C   UNL A   1      47.356  27.811  24.505  1.00  0.00     0.173 A 
ATOM     74  F   UNL A   1      48.637  27.538  27.893  1.00  0.00    -0.203 F 
ATOM     75  C   UNL A   1      49.679  27.075  25.830  1.00  0.00     0.198 A 
ATOM     76  C   UNL A   1      48.464  27.375  23.782  1.00  0.00     0.198 A 
ATOM     77  F   UNL A   1      46.246  28.162  23.837  1.00  0.00    -0.203 F 
ATOM     78  F   UNL A   1      50.809  26.750  26.472  1.00  0.00    -0.200 F 
ATOM     79  C   UNL A   1      49.627  27.013  24.445  1.00  0.00     0.200 A 
ATOM     80  F   UNL A   1      48.403  27.302  22.446  1.00  0.00    -0.200 F 
ATOM     81  F   UNL A   1      50.697  26.608  23.749  1.00  0.00    -0.200 F 
ENDBRANCH  47  71
BRANCH  59  82
ATOM     82  C   UNL A   1      45.437  33.853  28.860  1.00  0.00     0.064 A 
ATOM     83  C   UNL A   1      46.300  34.161  29.921  1.00  0.00     0.173 A 
ATOM     84  C   UNL A   1      45.230  34.828  27.874  1.00  0.00     0.173 A 
ATOM     85  F   UNL A   1      46.513  33.267  30.899  1.00  0.00    -0.203 F 
ATOM     86  C   UNL A   1      46.914  35.408  30.003  1.00  0.00     0.198 A 
ATOM     87  C   UNL A   1      45.864  36.064  27.946  1.00  0.00     0.198 A 
ATOM     88  F   UNL A   1      44.414  34.577  26.838  1.00  0.00    -0.203 F 
ATOM     89  F   UNL A   1      47.701  35.698  31.049  1.00  0.00    -0.200 F 
ATOM     90  C   UNL A   1      46.699  36.355  29.014  1.00  0.00     0.200 A 
ATOM     91  F   UNL A   1      45.661  36.978  26.985  1.00  0.00    -0.200 F 
ATOM     92  F   UNL A   1      47.293  37.555  29.093  1.00  0.00    -0.200 F 
ENDBRANCH  59  82
ENDBRANCH  33  34
ENDBRANCH  26  28
ENDBRANCH  25  26
ENDBRANCH  24  25
ENDBRANCH   1  24
TORSDOF 16
ENDMDL
