MODEL 1
REMARK VINA RESULT:     -10.7      0.000      0.000
REMARK SMILES [NH3+][C@@H](Cc1ccc(OC(F)F)cc1)C(=O)OCCOC(=O)c1ccc(-c2c3nc(c(-c4c(F)c(F)c(F)c(F)c4F)c4ccc([nH]4)c(-c4c(F)c(F)c(F)c(F)c4F)c4nc(c(-c5c(F)c(F)c(F)c(F)c5F)c5ccc2[nH]5)C=C4)C=C3)cc1
REMARK SMILES IDX 17 1 16 2 14 3 15 4 2 5 1 6 3 10 4 11 5 12 13 13 6 14 12 15
REMARK SMILES IDX 7 16 8 17 9 18 10 19 11 20 18 21 19 22 20 23 21 24 22 25
REMARK SMILES IDX 23 26 84 27 24 28 83 29 25 30 26 31 27 32 77 33 28 34 82 35
REMARK SMILES IDX 76 36 78 37 29 38 81 39 75 40 74 41 30 43 62 44 42 45 61 46
REMARK SMILES IDX 43 47 46 48 60 49 79 50 44 51 45 52 59 54 80 55 47 56 31 57
REMARK SMILES IDX 32 58 40 59 33 60 34 61 38 62 41 63 35 64 36 65 39 66 37 67
REMARK SMILES IDX 63 68 64 69 72 70 65 71 66 72 70 73 73 74 67 75 68 76 71 77
REMARK SMILES IDX 69 78 48 79 49 80 57 81 50 82 51 83 55 84 58 85 52 86 53 87
REMARK SMILES IDX 56 88 54 89
REMARK H PARENT 1 7 1 8 1 9 78 42 46 53
REMARK Flexibility Score: inf
ROOT
ATOM      1  C   UNL A   1      44.363  21.454  25.253  1.00  0.00     0.274 C 
ENDROOT
BRANCH   1   2
ATOM      2  O   UNL A   1      43.107  21.411  25.958  1.00  0.00    -0.458 OA
BRANCH   2   3
ATOM      3  C   UNL A   1      42.419  20.233  25.928  1.00  0.00     0.365 C 
ATOM      4  O   UNL A   1      42.724  19.254  25.259  1.00  0.00    -0.245 OA
BRANCH   3   5
ATOM      5  C   UNL A   1      41.167  20.287  26.819  1.00  0.00     0.296 C 
BRANCH   5   6
ATOM      6  N   UNL A   1      41.271  19.429  28.024  1.00  0.00    -0.346 N 
ATOM      7  H   UNL A   1      42.225  19.464  28.384  1.00  0.00     0.345 HD
ATOM      8  H   UNL A   1      41.036  18.468  27.778  1.00  0.00     0.345 HD
ATOM      9  H   UNL A   1      40.626  19.766  28.738  1.00  0.00     0.345 HD
ENDBRANCH   5   6
BRANCH   5  10
ATOM     10  C   UNL A   1      40.739  21.737  27.101  1.00  0.00     0.113 C 
BRANCH  10  11
ATOM     11  C   UNL A   1      39.444  22.227  26.493  1.00  0.00    -0.041 A 
ATOM     12  C   UNL A   1      39.059  23.559  26.701  1.00  0.00     0.008 A 
ATOM     13  C   UNL A   1      38.626  21.424  25.692  1.00  0.00     0.008 A 
ATOM     14  C   UNL A   1      37.867  24.049  26.162  1.00  0.00     0.047 A 
ATOM     15  C   UNL A   1      37.424  21.911  25.167  1.00  0.00     0.047 A 
ATOM     16  C   UNL A   1      37.035  23.225  25.403  1.00  0.00     0.126 A 
BRANCH  16  17
ATOM     17  O   UNL A   1      35.894  23.824  24.952  1.00  0.00    -0.435 OA
BRANCH  17  18
ATOM     18  C   UNL A   1      35.436  23.493  23.648  1.00  0.00     0.542 C 
ATOM     19  F   UNL A   1      34.648  22.392  23.695  1.00  0.00    -0.167 F 
ATOM     20  F   UNL A   1      34.709  24.516  23.136  1.00  0.00    -0.167 F 
ENDBRANCH  17  18
ENDBRANCH  16  17
ENDBRANCH  10  11
ENDBRANCH   5  10
ENDBRANCH   3   5
ENDBRANCH   2   3
ENDBRANCH   1   2
BRANCH   1  21
ATOM     21  C   UNL A   1      44.385  22.630  24.276  1.00  0.00     0.275 C 
BRANCH  21  22
ATOM     22  O   UNL A   1      43.622  23.736  24.795  1.00  0.00    -0.458 OA
BRANCH  22  23
ATOM     23  C   UNL A   1      44.366  24.808  25.159  1.00  0.00     0.338 C 
ATOM     24  O   UNL A   1      45.374  25.228  24.618  1.00  0.00    -0.246 OA
BRANCH  23  25
ATOM     25  C   UNL A   1      43.672  25.526  26.241  1.00  0.00     0.060 A 
ATOM     26  C   UNL A   1      44.021  26.860  26.457  1.00  0.00     0.016 A 
ATOM     27  C   UNL A   1      42.740  24.895  27.066  1.00  0.00     0.016 A 
ATOM     28  C   UNL A   1      43.451  27.575  27.503  1.00  0.00     0.010 A 
ATOM     29  C   UNL A   1      42.170  25.612  28.124  1.00  0.00     0.010 A 
ATOM     30  C   UNL A   1      42.535  26.951  28.353  1.00  0.00    -0.014 A 
BRANCH  30  31
ATOM     31  C   UNL A   1      42.043  27.694  29.534  1.00  0.00     0.031 A 
ATOM     32  C   UNL A   1      40.778  28.493  29.428  1.00  0.00     0.074 A 
ATOM     33  C   UNL A   1      42.686  27.585  30.710  1.00  0.00     0.049 A 
ATOM     34  N   UNL A   1      40.187  29.234  30.329  1.00  0.00    -0.248 NA
ATOM     35  C   UNL A   1      40.082  28.447  28.133  1.00  0.00     0.031 C 
ATOM     36  C   UNL A   1      43.889  26.786  30.943  1.00  0.00     0.029 A 
ATOM     37  N   UNL A   1      42.413  28.145  31.932  1.00  0.00    -0.354 N 
ATOM     38  C   UNL A   1      39.055  29.747  29.711  1.00  0.00     0.074 A 
ATOM     39  C   UNL A   1      39.054  29.255  28.349  1.00  0.00     0.031 C 
ATOM     40  C   UNL A   1      44.251  26.907  32.231  1.00  0.00     0.029 A 
ATOM     41  C   UNL A   1      43.329  27.821  32.901  1.00  0.00     0.049 A 
ATOM     42  H   UNL A   1      41.633  28.724  32.099  1.00  0.00     0.167 HD
ATOM     43  C   UNL A   1      38.098  30.547  30.237  1.00  0.00     0.037 A 
ATOM     44  C   UNL A   1      43.424  28.236  34.178  1.00  0.00     0.037 A 
ATOM     45  C   UNL A   1      38.105  31.031  31.593  1.00  0.00     0.049 A 
ATOM     46  C   UNL A   1      42.383  29.180  34.719  1.00  0.00     0.074 A 
ATOM     47  C   UNL A   1      37.200  31.872  32.216  1.00  0.00     0.029 A 
ATOM     48  N   UNL A   1      39.068  30.709  32.538  1.00  0.00    -0.354 N 
ATOM     49  N   UNL A   1      41.328  29.680  34.121  1.00  0.00    -0.248 NA
ATOM     50  C   UNL A   1      42.544  29.615  36.112  1.00  0.00     0.031 C 
ATOM     51  C   UNL A   1      37.634  32.086  33.529  1.00  0.00     0.029 A 
ATOM     52  C   UNL A   1      38.785  31.343  33.737  1.00  0.00     0.049 A 
ATOM     53  H   UNL A   1      39.839  30.117  32.380  1.00  0.00     0.167 HD
ATOM     54  C   UNL A   1      40.690  30.470  35.067  1.00  0.00     0.074 A 
ATOM     55  C   UNL A   1      41.466  30.367  36.286  1.00  0.00     0.031 C 
ATOM     56  C   UNL A   1      39.568  31.219  34.940  1.00  0.00     0.037 A 
BRANCH  43  57
ATOM     57  C   UNL A   1      36.979  30.970  29.333  1.00  0.00     0.064 A 
ATOM     58  C   UNL A   1      35.936  30.094  28.999  1.00  0.00     0.173 A 
ATOM     59  C   UNL A   1      36.938  32.272  28.814  1.00  0.00     0.173 A 
ATOM     60  F   UNL A   1      35.939  28.833  29.456  1.00  0.00    -0.203 F 
ATOM     61  C   UNL A   1      34.901  30.502  28.160  1.00  0.00     0.198 A 
ATOM     62  C   UNL A   1      35.888  32.684  27.997  1.00  0.00     0.198 A 
ATOM     63  F   UNL A   1      37.911  33.147  29.104  1.00  0.00    -0.203 F 
ATOM     64  F   UNL A   1      33.936  29.637  27.820  1.00  0.00    -0.200 F 
ATOM     65  C   UNL A   1      34.874  31.797  27.666  1.00  0.00     0.200 A 
ATOM     66  F   UNL A   1      35.859  33.938  27.526  1.00  0.00    -0.200 F 
ATOM     67  F   UNL A   1      33.875  32.189  26.863  1.00  0.00    -0.200 F 
ENDBRANCH  43  57
BRANCH  44  68
ATOM     68  C   UNL A   1      44.557  27.785  35.025  1.00  0.00     0.064 A 
ATOM     69  C   UNL A   1      44.461  26.632  35.815  1.00  0.00     0.173 A 
ATOM     70  C   UNL A   1      45.754  28.515  35.080  1.00  0.00     0.173 A 
ATOM     71  F   UNL A   1      43.327  25.915  35.818  1.00  0.00    -0.203 F 
ATOM     72  C   UNL A   1      45.509  26.237  36.644  1.00  0.00     0.198 A 
ATOM     73  C   UNL A   1      46.814  28.103  35.885  1.00  0.00     0.198 A 
ATOM     74  F   UNL A   1      45.897  29.628  34.346  1.00  0.00    -0.203 F 
ATOM     75  F   UNL A   1      45.371  25.159  37.428  1.00  0.00    -0.200 F 
ATOM     76  C   UNL A   1      46.687  26.969  36.674  1.00  0.00     0.200 A 
ATOM     77  F   UNL A   1      47.953  28.809  35.904  1.00  0.00    -0.200 F 
ATOM     78  F   UNL A   1      47.694  26.590  37.471  1.00  0.00    -0.200 F 
ENDBRANCH  44  68
BRANCH  56  79
ATOM     79  C   UNL A   1      39.099  31.957  36.159  1.00  0.00     0.064 A 
ATOM     80  C   UNL A   1      39.518  33.268  36.431  1.00  0.00     0.173 A 
ATOM     81  C   UNL A   1      38.199  31.355  37.052  1.00  0.00     0.173 A 
ATOM     82  F   UNL A   1      40.390  33.880  35.614  1.00  0.00    -0.203 F 
ATOM     83  C   UNL A   1      39.078  33.938  37.568  1.00  0.00     0.198 A 
ATOM     84  C   UNL A   1      37.739  32.038  38.173  1.00  0.00     0.198 A 
ATOM     85  F   UNL A   1      37.763  30.105  36.832  1.00  0.00    -0.203 F 
ATOM     86  F   UNL A   1      39.530  35.170  37.835  1.00  0.00    -0.200 F 
ATOM     87  C   UNL A   1      38.184  33.325  38.434  1.00  0.00     0.200 A 
ATOM     88  F   UNL A   1      36.867  31.450  39.003  1.00  0.00    -0.200 F 
ATOM     89  F   UNL A   1      37.760  33.972  39.528  1.00  0.00    -0.200 F 
ENDBRANCH  56  79
ENDBRANCH  30  31
ENDBRANCH  23  25
ENDBRANCH  22  23
ENDBRANCH  21  22
ENDBRANCH   1  21
TORSDOF 16
ENDMDL
MODEL 2
REMARK VINA RESULT:     -10.6      4.380      9.543
REMARK SMILES [NH3+][C@@H](Cc1ccc(OC(F)F)cc1)C(=O)OCCOC(=O)c1ccc(-c2c3nc(c(-c4c(F)c(F)c(F)c(F)c4F)c4ccc([nH]4)c(-c4c(F)c(F)c(F)c(F)c4F)c4nc(c(-c5c(F)c(F)c(F)c(F)c5F)c5ccc2[nH]5)C=C4)C=C3)cc1
REMARK SMILES IDX 17 1 16 2 14 3 15 4 2 5 1 6 3 10 4 11 5 12 13 13 6 14 12 15
REMARK SMILES IDX 7 16 8 17 9 18 10 19 11 20 18 21 19 22 20 23 21 24 22 25
REMARK SMILES IDX 23 26 84 27 24 28 83 29 25 30 26 31 27 32 77 33 28 34 82 35
REMARK SMILES IDX 76 36 78 37 29 38 81 39 75 40 74 41 30 43 62 44 42 45 61 46
REMARK SMILES IDX 43 47 46 48 60 49 79 50 44 51 45 52 59 54 80 55 47 56 31 57
REMARK SMILES IDX 32 58 40 59 33 60 34 61 38 62 41 63 35 64 36 65 39 66 37 67
REMARK SMILES IDX 63 68 64 69 72 70 65 71 66 72 70 73 73 74 67 75 68 76 71 77
REMARK SMILES IDX 69 78 48 79 49 80 57 81 50 82 51 83 55 84 58 85 52 86 53 87
REMARK SMILES IDX 56 88 54 89
REMARK H PARENT 1 7 1 8 1 9 78 42 46 53
REMARK Flexibility Score: inf
ROOT
ATOM      1  C   UNL A   1      31.693  28.747  27.235  1.00  0.00     0.274 C 
ENDROOT
BRANCH   1   2
ATOM      2  O   UNL A   1      32.230  27.777  26.315  1.00  0.00    -0.458 OA
BRANCH   2   3
ATOM      3  C   UNL A   1      31.367  26.838  25.828  1.00  0.00     0.365 C 
ATOM      4  O   UNL A   1      30.657  26.111  26.511  1.00  0.00    -0.245 OA
BRANCH   3   5
ATOM      5  C   UNL A   1      31.414  26.769  24.292  1.00  0.00     0.296 C 
BRANCH   5   6
ATOM      6  N   UNL A   1      32.326  25.716  23.784  1.00  0.00    -0.346 N 
ATOM      7  H   UNL A   1      32.648  25.141  24.563  1.00  0.00     0.345 HD
ATOM      8  H   UNL A   1      33.127  26.152  23.328  1.00  0.00     0.345 HD
ATOM      9  H   UNL A   1      31.828  25.131  23.113  1.00  0.00     0.345 HD
ENDBRANCH   5   6
BRANCH   5  10
ATOM     10  C   UNL A   1      30.001  26.740  23.687  1.00  0.00     0.113 C 
BRANCH  10  11
ATOM     11  C   UNL A   1      29.303  28.060  23.447  1.00  0.00    -0.041 A 
ATOM     12  C   UNL A   1      30.068  29.234  23.405  1.00  0.00     0.008 A 
ATOM     13  C   UNL A   1      27.927  28.165  23.221  1.00  0.00     0.008 A 
ATOM     14  C   UNL A   1      29.461  30.474  23.192  1.00  0.00     0.047 A 
ATOM     15  C   UNL A   1      27.317  29.408  23.025  1.00  0.00     0.047 A 
ATOM     16  C   UNL A   1      28.080  30.571  23.014  1.00  0.00     0.126 A 
BRANCH  16  17
ATOM     17  O   UNL A   1      27.614  31.841  22.833  1.00  0.00    -0.435 OA
BRANCH  17  18
ATOM     18  C   UNL A   1      28.383  32.727  22.032  1.00  0.00     0.542 C 
ATOM     19  F   UNL A   1      27.659  33.139  20.963  1.00  0.00    -0.167 F 
ATOM     20  F   UNL A   1      28.738  33.819  22.752  1.00  0.00    -0.167 F 
ENDBRANCH  17  18
ENDBRANCH  16  17
ENDBRANCH  10  11
ENDBRANCH   5  10
ENDBRANCH   3   5
ENDBRANCH   2   3
ENDBRANCH   1   2
BRANCH   1  21
ATOM     21  C   UNL A   1      31.795  30.154  26.644  1.00  0.00     0.275 C 
BRANCH  21  22
ATOM     22  O   UNL A   1      33.172  30.525  26.452  1.00  0.00    -0.458 OA
BRANCH  22  23
ATOM     23  C   UNL A   1      33.603  31.520  27.266  1.00  0.00     0.338 C 
ATOM     24  O   UNL A   1      32.987  32.511  27.614  1.00  0.00    -0.246 OA
BRANCH  23  25
ATOM     25  C   UNL A   1      34.911  31.143  27.829  1.00  0.00     0.060 A 
ATOM     26  C   UNL A   1      35.089  29.813  28.213  1.00  0.00     0.016 A 
ATOM     27  C   UNL A   1      35.925  32.080  28.030  1.00  0.00     0.016 A 
ATOM     28  C   UNL A   1      36.274  29.406  28.810  1.00  0.00     0.010 A 
ATOM     29  C   UNL A   1      37.117  31.674  28.639  1.00  0.00     0.010 A 
ATOM     30  C   UNL A   1      37.290  30.338  29.042  1.00  0.00    -0.014 A 
BRANCH  30  31
ATOM     31  C   UNL A   1      38.488  29.907  29.796  1.00  0.00     0.031 A 
ATOM     32  C   UNL A   1      38.710  30.426  31.186  1.00  0.00     0.074 A 
ATOM     33  C   UNL A   1      39.324  28.998  29.264  1.00  0.00     0.049 A 
ATOM     34  N   UNL A   1      39.701  30.196  32.009  1.00  0.00    -0.248 NA
ATOM     35  C   UNL A   1      37.673  31.319  31.725  1.00  0.00     0.031 C 
ATOM     36  C   UNL A   1      39.170  28.380  27.947  1.00  0.00     0.029 A 
ATOM     37  N   UNL A   1      40.465  28.430  29.771  1.00  0.00    -0.354 N 
ATOM     38  C   UNL A   1      39.411  30.919  33.158  1.00  0.00     0.074 A 
ATOM     39  C   UNL A   1      38.165  31.617  32.918  1.00  0.00     0.031 C 
ATOM     40  C   UNL A   1      40.182  27.519  27.748  1.00  0.00     0.029 A 
ATOM     41  C   UNL A   1      41.072  27.554  28.906  1.00  0.00     0.049 A 
ATOM     42  H   UNL A   1      40.816  28.633  30.669  1.00  0.00     0.167 HD
ATOM     43  C   UNL A   1      40.117  30.985  34.311  1.00  0.00     0.037 A 
ATOM     44  C   UNL A   1      42.228  26.876  29.029  1.00  0.00     0.037 A 
ATOM     45  C   UNL A   1      41.355  30.287  34.542  1.00  0.00     0.049 A 
ATOM     46  C   UNL A   1      43.028  27.019  30.297  1.00  0.00     0.074 A 
ATOM     47  C   UNL A   1      42.165  30.311  35.663  1.00  0.00     0.029 A 
ATOM     48  N   UNL A   1      41.957  29.432  33.630  1.00  0.00    -0.354 N 
ATOM     49  N   UNL A   1      42.760  27.724  31.370  1.00  0.00    -0.248 NA
ATOM     50  C   UNL A   1      44.290  26.272  30.371  1.00  0.00     0.031 C 
ATOM     51  C   UNL A   1      43.276  29.496  35.417  1.00  0.00     0.029 A 
ATOM     52  C   UNL A   1      43.135  28.931  34.160  1.00  0.00     0.049 A 
ATOM     53  H   UNL A   1      41.601  29.215  32.739  1.00  0.00     0.167 HD
ATOM     54  C   UNL A   1      43.806  27.490  32.253  1.00  0.00     0.074 A 
ATOM     55  C   UNL A   1      44.703  26.561  31.597  1.00  0.00     0.031 C 
ATOM     56  C   UNL A   1      44.010  28.001  33.492  1.00  0.00     0.037 A 
BRANCH  43  57
ATOM     57  C   UNL A   1      39.578  31.864  35.400  1.00  0.00     0.064 A 
ATOM     58  C   UNL A   1      38.659  31.384  36.343  1.00  0.00     0.173 A 
ATOM     59  C   UNL A   1      40.004  33.196  35.514  1.00  0.00     0.173 A 
ATOM     60  F   UNL A   1      38.207  30.123  36.265  1.00  0.00    -0.203 F 
ATOM     61  C   UNL A   1      38.169  32.211  37.351  1.00  0.00     0.198 A 
ATOM     62  C   UNL A   1      39.532  34.012  36.538  1.00  0.00     0.198 A 
ATOM     63  F   UNL A   1      40.883  33.703  34.638  1.00  0.00    -0.203 F 
ATOM     64  F   UNL A   1      37.259  31.744  38.216  1.00  0.00    -0.200 F 
ATOM     65  C   UNL A   1      38.611  33.521  37.452  1.00  0.00     0.200 A 
ATOM     66  F   UNL A   1      39.966  35.276  36.640  1.00  0.00    -0.200 F 
ATOM     67  F   UNL A   1      38.142  34.315  38.425  1.00  0.00    -0.200 F 
ENDBRANCH  43  57
BRANCH  44  68
ATOM     68  C   UNL A   1      42.712  26.021  27.915  1.00  0.00     0.064 A 
ATOM     69  C   UNL A   1      42.353  24.670  27.826  1.00  0.00     0.173 A 
ATOM     70  C   UNL A   1      43.567  26.536  26.928  1.00  0.00     0.173 A 
ATOM     71  F   UNL A   1      41.560  24.125  28.760  1.00  0.00    -0.203 F 
ATOM     72  C   UNL A   1      42.846  23.860  26.805  1.00  0.00     0.198 A 
ATOM     73  C   UNL A   1      44.035  25.734  25.891  1.00  0.00     0.198 A 
ATOM     74  F   UNL A   1      43.944  27.822  26.970  1.00  0.00    -0.203 F 
ATOM     75  F   UNL A   1      42.527  22.559  26.772  1.00  0.00    -0.200 F 
ATOM     76  C   UNL A   1      43.682  24.394  25.834  1.00  0.00     0.200 A 
ATOM     77  F   UNL A   1      44.835  26.256  24.951  1.00  0.00    -0.200 F 
ATOM     78  F   UNL A   1      44.156  23.615  24.854  1.00  0.00    -0.200 F 
ENDBRANCH  44  68
BRANCH  56  79
ATOM     79  C   UNL A   1      45.233  27.540  34.226  1.00  0.00     0.064 A 
ATOM     80  C   UNL A   1      46.417  28.293  34.227  1.00  0.00     0.173 A 
ATOM     81  C   UNL A   1      45.213  26.344  34.960  1.00  0.00     0.173 A 
ATOM     82  F   UNL A   1      46.490  29.436  33.527  1.00  0.00    -0.203 F 
ATOM     83  C   UNL A   1      47.546  27.849  34.909  1.00  0.00     0.198 A 
ATOM     84  C   UNL A   1      46.335  25.918  35.664  1.00  0.00     0.198 A 
ATOM     85  F   UNL A   1      44.103  25.591  34.996  1.00  0.00    -0.203 F 
ATOM     86  F   UNL A   1      48.681  28.559  34.855  1.00  0.00    -0.200 F 
ATOM     87  C   UNL A   1      47.502  26.666  35.632  1.00  0.00     0.200 A 
ATOM     88  F   UNL A   1      46.289  24.780  36.370  1.00  0.00    -0.200 F 
ATOM     89  F   UNL A   1      48.589  26.241  36.290  1.00  0.00    -0.200 F 
ENDBRANCH  56  79
ENDBRANCH  30  31
ENDBRANCH  23  25
ENDBRANCH  22  23
ENDBRANCH  21  22
ENDBRANCH   1  21
TORSDOF 16
ENDMDL
MODEL 3
REMARK VINA RESULT:     -10.6      4.377      9.687
REMARK SMILES [NH3+][C@@H](Cc1ccc(OC(F)F)cc1)C(=O)OCCOC(=O)c1ccc(-c2c3nc(c(-c4c(F)c(F)c(F)c(F)c4F)c4ccc([nH]4)c(-c4c(F)c(F)c(F)c(F)c4F)c4nc(c(-c5c(F)c(F)c(F)c(F)c5F)c5ccc2[nH]5)C=C4)C=C3)cc1
REMARK SMILES IDX 17 1 16 2 14 3 15 4 2 5 1 6 3 10 4 11 5 12 13 13 6 14 12 15
REMARK SMILES IDX 7 16 8 17 9 18 10 19 11 20 18 21 19 22 20 23 21 24 22 25
REMARK SMILES IDX 23 26 84 27 24 28 83 29 25 30 26 31 27 32 77 33 28 34 82 35
REMARK SMILES IDX 76 36 78 37 29 38 81 39 75 40 74 41 30 43 62 44 42 45 61 46
REMARK SMILES IDX 43 47 46 48 60 49 79 50 44 51 45 52 59 54 80 55 47 56 31 57
REMARK SMILES IDX 32 58 40 59 33 60 34 61 38 62 41 63 35 64 36 65 39 66 37 67
REMARK SMILES IDX 63 68 64 69 72 70 65 71 66 72 70 73 73 74 67 75 68 76 71 77
REMARK SMILES IDX 69 78 48 79 49 80 57 81 50 82 51 83 55 84 58 85 52 86 53 87
REMARK SMILES IDX 56 88 54 89
REMARK H PARENT 1 7 1 8 1 9 78 42 46 53
REMARK Flexibility Score: inf
ROOT
ATOM      1  C   UNL A   1      31.684  28.754  27.252  1.00  0.00     0.274 C 
ENDROOT
BRANCH   1   2
ATOM      2  O   UNL A   1      32.217  27.777  26.338  1.00  0.00    -0.458 OA
BRANCH   2   3
ATOM      3  C   UNL A   1      31.350  26.842  25.852  1.00  0.00     0.365 C 
ATOM      4  O   UNL A   1      30.633  26.122  26.536  1.00  0.00    -0.245 OA
BRANCH   3   5
ATOM      5  C   UNL A   1      31.401  26.766  24.317  1.00  0.00     0.296 C 
BRANCH   5   6
ATOM      6  N   UNL A   1      32.302  25.701  23.816  1.00  0.00    -0.346 N 
ATOM      7  H   UNL A   1      32.616  25.125  24.598  1.00  0.00     0.345 HD
ATOM      8  H   UNL A   1      33.109  26.125  23.360  1.00  0.00     0.345 HD
ATOM      9  H   UNL A   1      31.799  25.119  23.146  1.00  0.00     0.345 HD
ENDBRANCH   5   6
BRANCH   5  10
ATOM     10  C   UNL A   1      29.989  26.751  23.708  1.00  0.00     0.113 C 
BRANCH  10  11
ATOM     11  C   UNL A   1      29.296  28.076  23.485  1.00  0.00    -0.041 A 
ATOM     12  C   UNL A   1      30.057  29.253  23.516  1.00  0.00     0.008 A 
ATOM     13  C   UNL A   1      27.929  28.185  23.207  1.00  0.00     0.008 A 
ATOM     14  C   UNL A   1      29.454  30.498  23.321  1.00  0.00     0.047 A 
ATOM     15  C   UNL A   1      27.323  29.432  23.030  1.00  0.00     0.047 A 
ATOM     16  C   UNL A   1      28.081  30.597  23.090  1.00  0.00     0.126 A 
BRANCH  16  17
ATOM     17  O   UNL A   1      27.618  31.872  22.935  1.00  0.00    -0.435 OA
BRANCH  17  18
ATOM     18  C   UNL A   1      28.428  32.795  22.222  1.00  0.00     0.542 C 
ATOM     19  F   UNL A   1      27.768  33.248  21.128  1.00  0.00    -0.167 F 
ATOM     20  F   UNL A   1      28.728  33.857  23.008  1.00  0.00    -0.167 F 
ENDBRANCH  17  18
ENDBRANCH  16  17
ENDBRANCH  10  11
ENDBRANCH   5  10
ENDBRANCH   3   5
ENDBRANCH   2   3
ENDBRANCH   1   2
BRANCH   1  21
ATOM     21  C   UNL A   1      31.807  30.159  26.659  1.00  0.00     0.275 C 
BRANCH  21  22
ATOM     22  O   UNL A   1      33.190  30.515  26.479  1.00  0.00    -0.458 OA
BRANCH  22  23
ATOM     23  C   UNL A   1      33.621  31.516  27.285  1.00  0.00     0.338 C 
ATOM     24  O   UNL A   1      33.000  32.503  27.637  1.00  0.00    -0.246 OA
BRANCH  23  25
ATOM     25  C   UNL A   1      34.937  31.152  27.836  1.00  0.00     0.060 A 
ATOM     26  C   UNL A   1      35.124  29.829  28.240  1.00  0.00     0.016 A 
ATOM     27  C   UNL A   1      35.952  32.094  28.007  1.00  0.00     0.016 A 
ATOM     28  C   UNL A   1      36.319  29.435  28.827  1.00  0.00     0.010 A 
ATOM     29  C   UNL A   1      37.154  31.702  28.605  1.00  0.00     0.010 A 
ATOM     30  C   UNL A   1      37.336  30.373  29.029  1.00  0.00    -0.014 A 
BRANCH  30  31
ATOM     31  C   UNL A   1      38.546  29.957  29.773  1.00  0.00     0.031 A 
ATOM     32  C   UNL A   1      38.778  30.489  31.156  1.00  0.00     0.074 A 
ATOM     33  C   UNL A   1      39.383  29.051  29.239  1.00  0.00     0.049 A 
ATOM     34  N   UNL A   1      39.780  30.274  31.970  1.00  0.00    -0.248 NA
ATOM     35  C   UNL A   1      37.740  31.378  31.699  1.00  0.00     0.031 C 
ATOM     36  C   UNL A   1      39.219  28.421  27.929  1.00  0.00     0.029 A 
ATOM     37  N   UNL A   1      40.534  28.496  29.738  1.00  0.00    -0.354 N 
ATOM     38  C   UNL A   1      39.497  31.004  33.116  1.00  0.00     0.074 A 
ATOM     39  C   UNL A   1      38.244  31.690  32.885  1.00  0.00     0.031 C 
ATOM     40  C   UNL A   1      40.235  27.566  27.726  1.00  0.00     0.029 A 
ATOM     41  C   UNL A   1      41.138  27.618  28.873  1.00  0.00     0.049 A 
ATOM     42  H   UNL A   1      40.893  28.709  30.630  1.00  0.00     0.167 HD
ATOM     43  C   UNL A   1      40.216  31.085  34.260  1.00  0.00     0.037 A 
ATOM     44  C   UNL A   1      42.301  26.950  28.989  1.00  0.00     0.037 A 
ATOM     45  C   UNL A   1      41.462  30.398  34.483  1.00  0.00     0.049 A 
ATOM     46  C   UNL A   1      43.113  27.110  30.247  1.00  0.00     0.074 A 
ATOM     47  C   UNL A   1      42.284  30.438  35.595  1.00  0.00     0.029 A 
ATOM     48  N   UNL A   1      42.061  29.541  33.572  1.00  0.00    -0.354 N 
ATOM     49  N   UNL A   1      42.851  27.821  31.317  1.00  0.00    -0.248 NA
ATOM     50  C   UNL A   1      44.382  26.373  30.313  1.00  0.00     0.031 C 
ATOM     51  C   UNL A   1      43.399  29.630  35.343  1.00  0.00     0.029 A 
ATOM     52  C   UNL A   1      43.248  29.053  34.093  1.00  0.00     0.049 A 
ATOM     53  H   UNL A   1      41.696  29.314  32.686  1.00  0.00     0.167 HD
ATOM     54  C   UNL A   1      43.909  27.602  32.190  1.00  0.00     0.074 A 
ATOM     55  C   UNL A   1      44.807  26.675  31.531  1.00  0.00     0.031 C 
ATOM     56  C   UNL A   1      44.123  28.125  33.422  1.00  0.00     0.037 A 
BRANCH  43  57
ATOM     57  C   UNL A   1      39.682  31.968  35.348  1.00  0.00     0.064 A 
ATOM     58  C   UNL A   1      40.069  33.311  35.459  1.00  0.00     0.173 A 
ATOM     59  C   UNL A   1      38.755  31.472  36.277  1.00  0.00     0.173 A 
ATOM     60  F   UNL A   1      40.966  33.829  34.606  1.00  0.00    -0.203 F 
ATOM     61  C   UNL A   1      39.562  34.121  36.473  1.00  0.00     0.198 A 
ATOM     62  C   UNL A   1      38.232  32.291  37.273  1.00  0.00     0.198 A 
ATOM     63  F   UNL A   1      38.353  30.195  36.213  1.00  0.00    -0.203 F 
ATOM     64  F   UNL A   1      39.977  35.390  36.586  1.00  0.00    -0.200 F 
ATOM     65  C   UNL A   1      38.640  33.612  37.374  1.00  0.00     0.200 A 
ATOM     66  F   UNL A   1      37.334  31.800  38.138  1.00  0.00    -0.200 F 
ATOM     67  F   UNL A   1      38.149  34.394  38.347  1.00  0.00    -0.200 F 
ENDBRANCH  43  57
BRANCH  44  68
ATOM     68  C   UNL A   1      42.779  26.090  27.876  1.00  0.00     0.064 A 
ATOM     69  C   UNL A   1      42.396  24.746  27.779  1.00  0.00     0.173 A 
ATOM     70  C   UNL A   1      43.652  26.592  26.899  1.00  0.00     0.173 A 
ATOM     71  F   UNL A   1      41.584  24.212  28.704  1.00  0.00    -0.203 F 
ATOM     72  C   UNL A   1      42.883  23.931  26.759  1.00  0.00     0.198 A 
ATOM     73  C   UNL A   1      44.116  25.785  25.864  1.00  0.00     0.198 A 
ATOM     74  F   UNL A   1      44.053  27.871  26.949  1.00  0.00    -0.203 F 
ATOM     75  F   UNL A   1      42.541  22.636  26.719  1.00  0.00    -0.200 F 
ATOM     76  C   UNL A   1      43.738  24.452  25.799  1.00  0.00     0.200 A 
ATOM     77  F   UNL A   1      44.934  26.294  24.933  1.00  0.00    -0.200 F 
ATOM     78  F   UNL A   1      44.207  23.667  24.820  1.00  0.00    -0.200 F 
ENDBRANCH  44  68
BRANCH  56  79
ATOM     79  C   UNL A   1      45.358  27.679  34.146  1.00  0.00     0.064 A 
ATOM     80  C   UNL A   1      45.357  26.543  34.969  1.00  0.00     0.173 A 
ATOM     81  C   UNL A   1      46.563  28.382  33.995  1.00  0.00     0.173 A 
ATOM     82  F   UNL A   1      44.225  25.847  35.158  1.00  0.00    -0.203 F 
ATOM     83  C   UNL A   1      46.510  26.145  35.639  1.00  0.00     0.198 A 
ATOM     84  C   UNL A   1      47.721  27.964  34.644  1.00  0.00     0.198 A 
ATOM     85  F   UNL A   1      46.617  29.471  33.214  1.00  0.00    -0.203 F 
ATOM     86  F   UNL A   1      46.474  25.086  36.460  1.00  0.00    -0.200 F 
ATOM     87  C   UNL A   1      47.691  26.851  35.471  1.00  0.00     0.200 A 
ATOM     88  F   UNL A   1      48.864  28.641  34.473  1.00  0.00    -0.200 F 
ATOM     89  F   UNL A   1      48.801  26.465  36.115  1.00  0.00    -0.200 F 
ENDBRANCH  56  79
ENDBRANCH  30  31
ENDBRANCH  23  25
ENDBRANCH  22  23
ENDBRANCH  21  22
ENDBRANCH   1  21
TORSDOF 16
ENDMDL
