MODEL 1
REMARK VINA RESULT:     -11.2      0.000      0.000
REMARK SMILES O=C(NC[C@@H]1CC[C@@H](C(=O)OCCOC(=O)c2ccc(-c3c4nc(c(-c5c(F)c(F)c(F)c(F)c5F)c5ccc([nH]5)c(-c5c(F)c(F)c(F)c(F)c5F)c5nc(c(-c6c(F)c(F)c(F)c(F)c6F)c6ccc3[nH]6)C=C5)C=C4)cc2)O1)c1cccc(O)c1
REMARK SMILES IDX 12 1 11 2 9 3 10 4 8 5 5 6 6 7 80 8 7 9 4 10 3 11 1 12 2 13
REMARK SMILES IDX 81 15 82 16 87 17 83 18 85 19 84 20 86 21 13 23 14 24 15 25
REMARK SMILES IDX 16 26 17 27 18 28 79 29 19 30 78 31 20 32 21 33 22 34 72 35
REMARK SMILES IDX 23 36 77 37 71 38 73 39 24 40 76 41 70 42 69 43 25 45 57 46
REMARK SMILES IDX 37 47 56 48 38 49 41 50 55 51 74 52 39 53 40 54 54 56 75 57
REMARK SMILES IDX 42 58 26 59 27 60 35 61 28 62 29 63 33 64 36 65 30 66 31 67
REMARK SMILES IDX 34 68 32 69 58 70 59 71 67 72 60 73 61 74 65 75 68 76 62 77
REMARK SMILES IDX 63 78 66 79 64 80 43 81 44 82 52 83 45 84 46 85 50 86 53 87
REMARK SMILES IDX 47 88 48 89 51 90 49 91
REMARK H PARENT 3 14 86 22 73 44 41 55
REMARK Flexibility Score: inf
ROOT
ATOM      1  C   UNL A   1      33.528  33.966  28.330  1.00  0.00     0.274 C 
ENDROOT
BRANCH   1   2
ATOM      2  O   UNL A   1      33.916  34.876  29.379  1.00  0.00    -0.460 OA
BRANCH   2   3
ATOM      3  C   UNL A   1      32.987  35.799  29.742  1.00  0.00     0.335 C 
ATOM      4  O   UNL A   1      32.218  36.348  28.957  1.00  0.00    -0.249 OA
BRANCH   3   5
ATOM      5  C   UNL A   1      32.935  36.047  31.252  1.00  0.00     0.228 C 
ATOM      6  C   UNL A   1      34.616  35.597  32.810  1.00  0.00     0.138 C 
ATOM      7  C   UNL A   1      34.010  36.940  33.160  1.00  0.00     0.037 C 
ATOM      8  O   UNL A   1      33.651  35.001  31.931  1.00  0.00    -0.361 OA
ATOM      9  C   UNL A   1      33.482  37.359  31.800  1.00  0.00     0.047 C 
BRANCH   6  10
ATOM     10  C   UNL A   1      34.941  34.652  33.968  1.00  0.00     0.148 C 
BRANCH  10  11
ATOM     11  N   UNL A   1      35.006  33.248  33.577  1.00  0.00    -0.349 N 
ATOM     12  O   UNL A   1      35.558  31.500  32.274  1.00  0.00    -0.269 OA
ATOM     13  C   UNL A   1      35.809  32.646  32.640  1.00  0.00     0.251 C 
ATOM     14  H   UNL A   1      34.388  32.648  34.053  1.00  0.00     0.163 HD
BRANCH  13  15
ATOM     15  C   UNL A   1      36.963  33.363  32.040  1.00  0.00     0.043 A 
ATOM     16  C   UNL A   1      38.032  33.826  32.819  1.00  0.00     0.014 A 
ATOM     17  C   UNL A   1      36.999  33.507  30.646  1.00  0.00     0.060 A 
ATOM     18  C   UNL A   1      39.097  34.496  32.217  1.00  0.00     0.005 A 
ATOM     19  C   UNL A   1      38.080  34.153  30.060  1.00  0.00     0.116 A 
ATOM     20  C   UNL A   1      39.115  34.663  30.835  1.00  0.00     0.046 A 
BRANCH  19  21
ATOM     21  O   UNL A   1      38.180  34.300  28.710  1.00  0.00    -0.508 OA
ATOM     22  H   UNL A   1      38.762  33.751  28.221  1.00  0.00     0.293 HD
ENDBRANCH  19  21
ENDBRANCH  13  15
ENDBRANCH  10  11
ENDBRANCH   6  10
ENDBRANCH   3   5
ENDBRANCH   2   3
ENDBRANCH   1   2
BRANCH   1  23
ATOM     23  C   UNL A   1      34.644  32.969  28.003  1.00  0.00     0.275 C 
BRANCH  23  24
ATOM     24  O   UNL A   1      34.513  31.749  28.756  1.00  0.00    -0.458 OA
BRANCH  24  25
ATOM     25  C   UNL A   1      34.683  30.610  28.050  1.00  0.00     0.338 C 
ATOM     26  O   UNL A   1      33.891  30.095  27.271  1.00  0.00    -0.246 OA
BRANCH  25  27
ATOM     27  C   UNL A   1      36.023  30.066  28.310  1.00  0.00     0.060 A 
ATOM     28  C   UNL A   1      36.296  29.543  29.574  1.00  0.00     0.016 A 
ATOM     29  C   UNL A   1      37.030  30.146  27.348  1.00  0.00     0.016 A 
ATOM     30  C   UNL A   1      37.584  29.139  29.904  1.00  0.00     0.010 A 
ATOM     31  C   UNL A   1      38.320  29.706  27.669  1.00  0.00     0.010 A 
ATOM     32  C   UNL A   1      38.610  29.219  28.956  1.00  0.00    -0.014 A 
BRANCH  32  33
ATOM     33  C   UNL A   1      39.991  28.827  29.329  1.00  0.00     0.031 A 
ATOM     34  C   UNL A   1      40.851  29.768  30.121  1.00  0.00     0.074 A 
ATOM     35  C   UNL A   1      40.462  27.616  28.982  1.00  0.00     0.049 A 
ATOM     36  N   UNL A   1      42.102  29.634  30.482  1.00  0.00    -0.248 NA
ATOM     37  C   UNL A   1      40.218  31.014  30.579  1.00  0.00     0.031 C 
ATOM     38  C   UNL A   1      39.711  26.597  28.249  1.00  0.00     0.029 A 
ATOM     39  N   UNL A   1      41.695  27.045  29.182  1.00  0.00    -0.354 N 
ATOM     40  C   UNL A   1      42.389  30.754  31.251  1.00  0.00     0.074 A 
ATOM     41  C   UNL A   1      41.213  31.597  31.234  1.00  0.00     0.031 C 
ATOM     42  C   UNL A   1      40.509  25.542  28.026  1.00  0.00     0.029 A 
ATOM     43  C   UNL A   1      41.839  25.830  28.557  1.00  0.00     0.049 A 
ATOM     44  H   UNL A   1      42.405  27.466  29.718  1.00  0.00     0.167 HD
ATOM     45  C   UNL A   1      43.516  31.034  31.947  1.00  0.00     0.037 A 
ATOM     46  C   UNL A   1      42.931  25.062  28.382  1.00  0.00     0.037 A 
ATOM     47  C   UNL A   1      44.682  30.195  31.978  1.00  0.00     0.049 A 
ATOM     48  C   UNL A   1      44.236  25.489  28.991  1.00  0.00     0.074 A 
ATOM     49  C   UNL A   1      45.858  30.376  32.683  1.00  0.00     0.029 A 
ATOM     50  N   UNL A   1      44.818  29.017  31.261  1.00  0.00    -0.354 N 
ATOM     51  N   UNL A   1      44.492  26.534  29.738  1.00  0.00    -0.248 NA
ATOM     52  C   UNL A   1      45.406  24.636  28.733  1.00  0.00     0.031 C 
ATOM     53  C   UNL A   1      46.727  29.331  32.352  1.00  0.00     0.029 A 
ATOM     54  C   UNL A   1      46.079  28.482  31.469  1.00  0.00     0.049 A 
ATOM     55  H   UNL A   1      44.122  28.619  30.690  1.00  0.00     0.167 HD
ATOM     56  C   UNL A   1      45.838  26.451  30.067  1.00  0.00     0.074 A 
ATOM     57  C   UNL A   1      46.350  25.254  29.431  1.00  0.00     0.031 C 
ATOM     58  C   UNL A   1      46.577  27.287  30.836  1.00  0.00     0.037 A 
BRANCH  45  59
ATOM     59  C   UNL A   1      43.535  32.304  32.739  1.00  0.00     0.064 A 
ATOM     60  C   UNL A   1      43.995  33.503  32.178  1.00  0.00     0.173 A 
ATOM     61  C   UNL A   1      43.075  32.328  34.062  1.00  0.00     0.173 A 
ATOM     62  F   UNL A   1      44.427  33.535  30.910  1.00  0.00    -0.203 F 
ATOM     63  C   UNL A   1      44.036  34.675  32.928  1.00  0.00     0.198 A 
ATOM     64  C   UNL A   1      43.092  33.508  34.801  1.00  0.00     0.198 A 
ATOM     65  F   UNL A   1      42.611  31.209  34.637  1.00  0.00    -0.203 F 
ATOM     66  F   UNL A   1      44.526  35.799  32.386  1.00  0.00    -0.200 F 
ATOM     67  C   UNL A   1      43.583  34.677  34.237  1.00  0.00     0.200 A 
ATOM     68  F   UNL A   1      42.643  33.512  36.064  1.00  0.00    -0.200 F 
ATOM     69  F   UNL A   1      43.623  35.804  34.960  1.00  0.00    -0.200 F 
ENDBRANCH  45  59
BRANCH  46  70
ATOM     70  C   UNL A   1      42.833  23.841  27.542  1.00  0.00     0.064 A 
ATOM     71  C   UNL A   1      43.117  23.870  26.171  1.00  0.00     0.173 A 
ATOM     72  C   UNL A   1      42.473  22.609  28.110  1.00  0.00     0.173 A 
ATOM     73  F   UNL A   1      43.439  25.029  25.579  1.00  0.00    -0.203 F 
ATOM     74  C   UNL A   1      43.045  22.711  25.399  1.00  0.00     0.198 A 
ATOM     75  C   UNL A   1      42.426  21.447  27.343  1.00  0.00     0.198 A 
ATOM     76  F   UNL A   1      42.186  22.530  29.418  1.00  0.00    -0.203 F 
ATOM     77  F   UNL A   1      43.292  22.769  24.084  1.00  0.00    -0.200 F 
ATOM     78  C   UNL A   1      42.708  21.501  25.987  1.00  0.00     0.200 A 
ATOM     79  F   UNL A   1      42.111  20.279  27.919  1.00  0.00    -0.200 F 
ATOM     80  F   UNL A   1      42.651  20.385  25.246  1.00  0.00    -0.200 F 
ENDBRANCH  46  70
BRANCH  58  81
ATOM     81  C   UNL A   1      48.014  26.934  31.067  1.00  0.00     0.064 A 
ATOM     82  C   UNL A   1      48.389  26.003  32.046  1.00  0.00     0.173 A 
ATOM     83  C   UNL A   1      49.017  27.468  30.243  1.00  0.00     0.173 A 
ATOM     84  F   UNL A   1      47.467  25.480  32.869  1.00  0.00    -0.203 F 
ATOM     85  C   UNL A   1      49.719  25.620  32.192  1.00  0.00     0.198 A 
ATOM     86  C   UNL A   1      50.342  27.063  30.376  1.00  0.00     0.198 A 
ATOM     87  F   UNL A   1      48.706  28.358  29.290  1.00  0.00    -0.203 F 
ATOM     88  F   UNL A   1      50.061  24.744  33.147  1.00  0.00    -0.200 F 
ATOM     89  C   UNL A   1      50.692  26.140  31.350  1.00  0.00     0.200 A 
ATOM     90  F   UNL A   1      51.277  27.557  29.553  1.00  0.00    -0.200 F 
ATOM     91  F   UNL A   1      51.969  25.753  31.478  1.00  0.00    -0.200 F 
ENDBRANCH  58  81
ENDBRANCH  32  33
ENDBRANCH  25  27
ENDBRANCH  24  25
ENDBRANCH  23  24
ENDBRANCH   1  23
TORSDOF 15
ENDMDL
MODEL 2
REMARK VINA RESULT:     -11.1      4.485     10.238
REMARK SMILES O=C(NC[C@@H]1CC[C@@H](C(=O)OCCOC(=O)c2ccc(-c3c4nc(c(-c5c(F)c(F)c(F)c(F)c5F)c5ccc([nH]5)c(-c5c(F)c(F)c(F)c(F)c5F)c5nc(c(-c6c(F)c(F)c(F)c(F)c6F)c6ccc3[nH]6)C=C5)C=C4)cc2)O1)c1cccc(O)c1
REMARK SMILES IDX 12 1 11 2 9 3 10 4 8 5 5 6 6 7 80 8 7 9 4 10 3 11 1 12 2 13
REMARK SMILES IDX 81 15 82 16 87 17 83 18 85 19 84 20 86 21 13 23 14 24 15 25
REMARK SMILES IDX 16 26 17 27 18 28 79 29 19 30 78 31 20 32 21 33 22 34 72 35
REMARK SMILES IDX 23 36 77 37 71 38 73 39 24 40 76 41 70 42 69 43 25 45 57 46
REMARK SMILES IDX 37 47 56 48 38 49 41 50 55 51 74 52 39 53 40 54 54 56 75 57
REMARK SMILES IDX 42 58 26 59 27 60 35 61 28 62 29 63 33 64 36 65 30 66 31 67
REMARK SMILES IDX 34 68 32 69 58 70 59 71 67 72 60 73 61 74 65 75 68 76 62 77
REMARK SMILES IDX 63 78 66 79 64 80 43 81 44 82 52 83 45 84 46 85 50 86 53 87
REMARK SMILES IDX 47 88 48 89 51 90 49 91
REMARK H PARENT 3 14 86 22 73 44 41 55
REMARK Flexibility Score: inf
ROOT
ATOM      1  C   UNL A   1      31.965  31.997  26.951  1.00  0.00     0.274 C 
ENDROOT
BRANCH   1   2
ATOM      2  O   UNL A   1      32.654  30.842  27.468  1.00  0.00    -0.460 OA
BRANCH   2   3
ATOM      3  C   UNL A   1      32.950  29.869  26.566  1.00  0.00     0.335 C 
ATOM      4  O   UNL A   1      34.089  29.593  26.200  1.00  0.00    -0.249 OA
BRANCH   3   5
ATOM      5  C   UNL A   1      31.721  29.088  26.092  1.00  0.00     0.228 C 
ATOM      6  C   UNL A   1      31.391  28.126  23.990  1.00  0.00     0.138 C 
ATOM      7  C   UNL A   1      30.886  27.147  25.028  1.00  0.00     0.037 C 
ATOM      8  O   UNL A   1      31.486  29.369  24.701  1.00  0.00    -0.361 OA
ATOM      9  C   UNL A   1      31.721  27.570  26.223  1.00  0.00     0.047 C 
BRANCH   6  10
ATOM     10  C   UNL A   1      30.552  28.299  22.723  1.00  0.00     0.148 C 
BRANCH  10  11
ATOM     11  N   UNL A   1      29.140  27.983  22.908  1.00  0.00    -0.349 N 
ATOM     12  O   UNL A   1      26.987  28.404  23.403  1.00  0.00    -0.269 OA
ATOM     13  C   UNL A   1      28.067  28.835  23.007  1.00  0.00     0.251 C 
ATOM     14  H   UNL A   1      28.925  27.024  22.970  1.00  0.00     0.163 HD
BRANCH  13  15
ATOM     15  C   UNL A   1      28.195  30.275  22.669  1.00  0.00     0.043 A 
ATOM     16  C   UNL A   1      28.621  31.222  23.611  1.00  0.00     0.014 A 
ATOM     17  C   UNL A   1      27.947  30.667  21.346  1.00  0.00     0.060 A 
ATOM     18  C   UNL A   1      28.727  32.566  23.253  1.00  0.00     0.005 A 
ATOM     19  C   UNL A   1      28.084  32.006  20.999  1.00  0.00     0.116 A 
ATOM     20  C   UNL A   1      28.451  32.955  21.946  1.00  0.00     0.046 A 
BRANCH  19  21
ATOM     21  O   UNL A   1      27.880  32.440  19.726  1.00  0.00    -0.508 OA
ATOM     22  H   UNL A   1      27.022  32.705  19.453  1.00  0.00     0.293 HD
ENDBRANCH  19  21
ENDBRANCH  13  15
ENDBRANCH  10  11
ENDBRANCH   6  10
ENDBRANCH   3   5
ENDBRANCH   2   3
ENDBRANCH   1   2
BRANCH   1  23
ATOM     23  C   UNL A   1      32.785  33.277  27.134  1.00  0.00     0.275 C 
BRANCH  23  24
ATOM     24  O   UNL A   1      32.185  34.167  28.094  1.00  0.00    -0.458 OA
BRANCH  24  25
ATOM     25  C   UNL A   1      33.033  35.031  28.694  1.00  0.00     0.338 C 
ATOM     26  O   UNL A   1      32.875  36.234  28.859  1.00  0.00    -0.246 OA
BRANCH  25  27
ATOM     27  C   UNL A   1      34.206  34.300  29.194  1.00  0.00     0.060 A 
ATOM     28  C   UNL A   1      34.025  33.365  30.213  1.00  0.00     0.016 A 
ATOM     29  C   UNL A   1      35.488  34.591  28.725  1.00  0.00     0.016 A 
ATOM     30  C   UNL A   1      35.120  32.747  30.803  1.00  0.00     0.010 A 
ATOM     31  C   UNL A   1      36.589  33.943  29.296  1.00  0.00     0.010 A 
ATOM     32  C   UNL A   1      36.415  33.033  30.354  1.00  0.00    -0.014 A 
BRANCH  32  33
ATOM     33  C   UNL A   1      37.581  32.404  31.018  1.00  0.00     0.031 A 
ATOM     34  C   UNL A   1      38.267  31.231  30.379  1.00  0.00     0.074 A 
ATOM     35  C   UNL A   1      38.044  32.903  32.179  1.00  0.00     0.049 A 
ATOM     36  N   UNL A   1      39.256  30.506  30.838  1.00  0.00    -0.248 NA
ATOM     37  C   UNL A   1      37.789  30.832  29.047  1.00  0.00     0.031 C 
ATOM     38  C   UNL A   1      37.492  34.064  32.877  1.00  0.00     0.029 A 
ATOM     39  N   UNL A   1      39.072  32.483  32.986  1.00  0.00    -0.354 N 
ATOM     40  C   UNL A   1      39.549  29.598  29.829  1.00  0.00     0.074 A 
ATOM     41  C   UNL A   1      38.583  29.806  28.772  1.00  0.00     0.031 C 
ATOM     42  C   UNL A   1      38.160  34.239  34.027  1.00  0.00     0.029 A 
ATOM     43  C   UNL A   1      39.153  33.178  34.168  1.00  0.00     0.049 A 
ATOM     44  H   UNL A   1      39.689  31.755  32.742  1.00  0.00     0.167 HD
ATOM     45  C   UNL A   1      40.562  28.702  29.768  1.00  0.00     0.037 A 
ATOM     46  C   UNL A   1      39.902  32.952  35.265  1.00  0.00     0.037 A 
ATOM     47  C   UNL A   1      41.533  28.500  30.808  1.00  0.00     0.049 A 
ATOM     48  C   UNL A   1      40.887  31.818  35.263  1.00  0.00     0.074 A 
ATOM     49  C   UNL A   1      42.617  27.641  30.823  1.00  0.00     0.029 A 
ATOM     50  N   UNL A   1      41.526  29.163  32.025  1.00  0.00    -0.354 N 
ATOM     51  N   UNL A   1      41.177  30.982  34.296  1.00  0.00    -0.248 NA
ATOM     52  C   UNL A   1      41.647  31.590  36.500  1.00  0.00     0.031 C 
ATOM     53  C   UNL A   1      43.238  27.749  32.072  1.00  0.00     0.029 A 
ATOM     54  C   UNL A   1      42.561  28.699  32.820  1.00  0.00     0.049 A 
ATOM     55  H   UNL A   1      40.882  29.861  32.285  1.00  0.00     0.167 HD
ATOM     56  C   UNL A   1      42.171  30.151  34.792  1.00  0.00     0.074 A 
ATOM     57  C   UNL A   1      42.432  30.578  36.151  1.00  0.00     0.031 C 
ATOM     58  C   UNL A   1      42.816  29.135  34.170  1.00  0.00     0.037 A 
BRANCH  45  59
ATOM     59  C   UNL A   1      40.672  27.875  28.525  1.00  0.00     0.064 A 
ATOM     60  C   UNL A   1      40.034  26.631  28.422  1.00  0.00     0.173 A 
ATOM     61  C   UNL A   1      41.406  28.334  27.424  1.00  0.00     0.173 A 
ATOM     62  F   UNL A   1      39.304  26.158  29.441  1.00  0.00    -0.203 F 
ATOM     63  C   UNL A   1      40.162  25.855  27.274  1.00  0.00     0.198 A 
ATOM     64  C   UNL A   1      41.511  27.566  26.267  1.00  0.00     0.198 A 
ATOM     65  F   UNL A   1      42.022  29.524  27.471  1.00  0.00    -0.203 F 
ATOM     66  F   UNL A   1      39.584  24.647  27.216  1.00  0.00    -0.200 F 
ATOM     67  C   UNL A   1      40.898  26.323  26.197  1.00  0.00     0.200 A 
ATOM     68  F   UNL A   1      42.213  28.025  25.222  1.00  0.00    -0.200 F 
ATOM     69  F   UNL A   1      41.023  25.575  25.093  1.00  0.00    -0.200 F 
ENDBRANCH  45  59
BRANCH  46  70
ATOM     70  C   UNL A   1      39.694  33.793  36.471  1.00  0.00     0.064 A 
ATOM     71  C   UNL A   1      40.316  35.040  36.610  1.00  0.00     0.173 A 
ATOM     72  C   UNL A   1      38.843  33.368  37.503  1.00  0.00     0.173 A 
ATOM     73  F   UNL A   1      41.159  35.477  35.664  1.00  0.00    -0.203 F 
ATOM     74  C   UNL A   1      40.092  35.831  37.737  1.00  0.00     0.198 A 
ATOM     75  C   UNL A   1      38.600  34.169  38.616  1.00  0.00     0.198 A 
ATOM     76  F   UNL A   1      38.228  32.178  37.418  1.00  0.00    -0.203 F 
ATOM     77  F   UNL A   1      40.721  37.007  37.862  1.00  0.00    -0.200 F 
ATOM     78  C   UNL A   1      39.229  35.399  38.733  1.00  0.00     0.200 A 
ATOM     79  F   UNL A   1      37.756  33.751  39.569  1.00  0.00    -0.200 F 
ATOM     80  F   UNL A   1      39.006  36.165  39.810  1.00  0.00    -0.200 F 
ENDBRANCH  46  70
BRANCH  58  81
ATOM     81  C   UNL A   1      43.891  28.422  34.931  1.00  0.00     0.064 A 
ATOM     82  C   UNL A   1      45.197  28.927  34.996  1.00  0.00     0.173 A 
ATOM     83  C   UNL A   1      43.590  27.269  35.674  1.00  0.00     0.173 A 
ATOM     84  F   UNL A   1      45.536  30.015  34.289  1.00  0.00    -0.203 F 
ATOM     85  C   UNL A   1      46.165  28.301  35.777  1.00  0.00     0.198 A 
ATOM     86  C   UNL A   1      44.554  26.662  36.472  1.00  0.00     0.198 A 
ATOM     87  F   UNL A   1      42.353  26.752  35.646  1.00  0.00    -0.203 F 
ATOM     88  F   UNL A   1      47.414  28.787  35.809  1.00  0.00    -0.200 F 
ATOM     89  C   UNL A   1      45.840  27.178  36.523  1.00  0.00     0.200 A 
ATOM     90  F   UNL A   1      44.234  25.585  37.203  1.00  0.00    -0.200 F 
ATOM     91  F   UNL A   1      46.768  26.590  37.292  1.00  0.00    -0.200 F 
ENDBRANCH  58  81
ENDBRANCH  32  33
ENDBRANCH  25  27
ENDBRANCH  24  25
ENDBRANCH  23  24
ENDBRANCH   1  23
TORSDOF 15
ENDMDL
MODEL 3
REMARK VINA RESULT:     -11.1      4.482     11.666
REMARK SMILES O=C(NC[C@@H]1CC[C@@H](C(=O)OCCOC(=O)c2ccc(-c3c4nc(c(-c5c(F)c(F)c(F)c(F)c5F)c5ccc([nH]5)c(-c5c(F)c(F)c(F)c(F)c5F)c5nc(c(-c6c(F)c(F)c(F)c(F)c6F)c6ccc3[nH]6)C=C5)C=C4)cc2)O1)c1cccc(O)c1
REMARK SMILES IDX 12 1 11 2 9 3 10 4 8 5 5 6 6 7 80 8 7 9 4 10 3 11 1 12 2 13
REMARK SMILES IDX 81 15 82 16 87 17 83 18 85 19 84 20 86 21 13 23 14 24 15 25
REMARK SMILES IDX 16 26 17 27 18 28 79 29 19 30 78 31 20 32 21 33 22 34 72 35
REMARK SMILES IDX 23 36 77 37 71 38 73 39 24 40 76 41 70 42 69 43 25 45 57 46
REMARK SMILES IDX 37 47 56 48 38 49 41 50 55 51 74 52 39 53 40 54 54 56 75 57
REMARK SMILES IDX 42 58 26 59 27 60 35 61 28 62 29 63 33 64 36 65 30 66 31 67
REMARK SMILES IDX 34 68 32 69 58 70 59 71 67 72 60 73 61 74 65 75 68 76 62 77
REMARK SMILES IDX 63 78 66 79 64 80 43 81 44 82 52 83 45 84 46 85 50 86 53 87
REMARK SMILES IDX 47 88 48 89 51 90 49 91
REMARK H PARENT 3 14 86 22 73 44 41 55
REMARK Flexibility Score: inf
ROOT
ATOM      1  C   UNL A   1      41.007  19.875  26.741  1.00  0.00     0.274 C 
ENDROOT
BRANCH   1   2
ATOM      2  O   UNL A   1      42.315  20.063  26.166  1.00  0.00    -0.460 OA
BRANCH   2   3
ATOM      3  C   UNL A   1      42.901  18.956  25.641  1.00  0.00     0.335 C 
ATOM      4  O   UNL A   1      42.444  17.820  25.743  1.00  0.00    -0.249 OA
BRANCH   3   5
ATOM      5  C   UNL A   1      44.168  19.263  24.836  1.00  0.00     0.228 C 
ATOM      6  C   UNL A   1      45.645  21.042  25.163  1.00  0.00     0.138 C 
ATOM      7  C   UNL A   1      46.470  19.805  24.878  1.00  0.00     0.037 C 
ATOM      8  O   UNL A   1      44.326  20.688  24.723  1.00  0.00    -0.361 OA
ATOM      9  C   UNL A   1      45.504  18.727  25.336  1.00  0.00     0.047 C 
BRANCH   6  10
ATOM     10  C   UNL A   1      46.094  22.349  24.508  1.00  0.00     0.148 C 
BRANCH  10  11
ATOM     11  N   UNL A   1      45.003  23.283  24.254  1.00  0.00    -0.349 N 
ATOM     12  O   UNL A   1      43.128  24.432  24.727  1.00  0.00    -0.269 OA
ATOM     13  C   UNL A   1      44.134  23.863  25.145  1.00  0.00     0.251 C 
ATOM     14  H   UNL A   1      44.870  23.532  23.310  1.00  0.00     0.163 HD
BRANCH  13  15
ATOM     15  C   UNL A   1      44.374  23.796  26.609  1.00  0.00     0.043 A 
ATOM     16  C   UNL A   1      45.497  24.389  27.202  1.00  0.00     0.014 A 
ATOM     17  C   UNL A   1      43.403  23.181  27.410  1.00  0.00     0.060 A 
ATOM     18  C   UNL A   1      45.687  24.302  28.582  1.00  0.00     0.005 A 
ATOM     19  C   UNL A   1      43.594  23.127  28.785  1.00  0.00     0.116 A 
ATOM     20  C   UNL A   1      44.734  23.664  29.370  1.00  0.00     0.046 A 
BRANCH  19  21
ATOM     21  O   UNL A   1      42.673  22.563  29.615  1.00  0.00    -0.508 OA
ATOM     22  H   UNL A   1      42.417  23.007  30.400  1.00  0.00     0.293 HD
ENDBRANCH  19  21
ENDBRANCH  13  15
ENDBRANCH  10  11
ENDBRANCH   6  10
ENDBRANCH   3   5
ENDBRANCH   2   3
ENDBRANCH   1   2
BRANCH   1  23
ATOM     23  C   UNL A   1      39.976  20.831  26.134  1.00  0.00     0.275 C 
BRANCH  23  24
ATOM     24  O   UNL A   1      40.158  22.182  26.596  1.00  0.00    -0.458 OA
BRANCH  24  25
ATOM     25  C   UNL A   1      39.136  23.027  26.336  1.00  0.00     0.338 C 
ATOM     26  O   UNL A   1      38.111  22.783  25.713  1.00  0.00    -0.246 OA
BRANCH  25  27
ATOM     27  C   UNL A   1      39.401  24.327  26.969  1.00  0.00     0.060 A 
ATOM     28  C   UNL A   1      40.168  25.262  26.275  1.00  0.00     0.016 A 
ATOM     29  C   UNL A   1      38.972  24.594  28.269  1.00  0.00     0.016 A 
ATOM     30  C   UNL A   1      40.552  26.450  26.886  1.00  0.00     0.010 A 
ATOM     31  C   UNL A   1      39.328  25.805  28.873  1.00  0.00     0.010 A 
ATOM     32  C   UNL A   1      40.139  26.732  28.194  1.00  0.00    -0.014 A 
BRANCH  32  33
ATOM     33  C   UNL A   1      40.588  27.980  28.856  1.00  0.00     0.031 A 
ATOM     34  C   UNL A   1      41.992  28.093  29.373  1.00  0.00     0.074 A 
ATOM     35  C   UNL A   1      39.745  29.023  28.966  1.00  0.00     0.049 A 
ATOM     36  N   UNL A   1      42.548  29.074  30.039  1.00  0.00    -0.248 NA
ATOM     37  C   UNL A   1      42.892  26.964  29.093  1.00  0.00     0.031 C 
ATOM     38  C   UNL A   1      38.370  29.053  28.466  1.00  0.00     0.029 A 
ATOM     39  N   UNL A   1      39.915  30.253  29.553  1.00  0.00    -0.354 N 
ATOM     40  C   UNL A   1      43.874  28.699  30.213  1.00  0.00     0.074 A 
ATOM     41  C   UNL A   1      44.019  27.370  29.660  1.00  0.00     0.031 C 
ATOM     42  C   UNL A   1      37.809  30.224  28.802  1.00  0.00     0.029 A 
ATOM     43  C   UNL A   1      38.766  31.005  29.580  1.00  0.00     0.049 A 
ATOM     44  H   UNL A   1      40.775  30.563  29.920  1.00  0.00     0.167 HD
ATOM     45  C   UNL A   1      44.891  29.418  30.744  1.00  0.00     0.037 A 
ATOM     46  C   UNL A   1      38.498  32.166  30.208  1.00  0.00     0.037 A 
ATOM     47  C   UNL A   1      44.756  30.743  31.283  1.00  0.00     0.049 A 
ATOM     48  C   UNL A   1      39.589  32.859  30.974  1.00  0.00     0.074 A 
ATOM     49  C   UNL A   1      45.735  31.566  31.810  1.00  0.00     0.029 A 
ATOM     50  N   UNL A   1      43.558  31.434  31.370  1.00  0.00    -0.354 N 
ATOM     51  N   UNL A   1      40.845  32.513  31.110  1.00  0.00    -0.248 NA
ATOM     52  C   UNL A   1      39.230  34.100  31.676  1.00  0.00     0.031 C 
ATOM     53  C   UNL A   1      45.119  32.737  32.263  1.00  0.00     0.029 A 
ATOM     54  C   UNL A   1      43.764  32.657  31.987  1.00  0.00     0.049 A 
ATOM     55  H   UNL A   1      42.690  31.105  31.042  1.00  0.00     0.167 HD
ATOM     56  C   UNL A   1      41.435  33.503  31.883  1.00  0.00     0.074 A 
ATOM     57  C   UNL A   1      40.396  34.464  32.193  1.00  0.00     0.031 C 
ATOM     58  C   UNL A   1      42.724  33.609  32.286  1.00  0.00     0.037 A 
BRANCH  45  59
ATOM     59  C   UNL A   1      46.245  28.781  30.761  1.00  0.00     0.064 A 
ATOM     60  C   UNL A   1      47.125  28.917  29.678  1.00  0.00     0.173 A 
ATOM     61  C   UNL A   1      46.674  28.042  31.870  1.00  0.00     0.173 A 
ATOM     62  F   UNL A   1      46.768  29.631  28.602  1.00  0.00    -0.203 F 
ATOM     63  C   UNL A   1      48.372  28.300  29.687  1.00  0.00     0.198 A 
ATOM     64  C   UNL A   1      47.933  27.446  31.887  1.00  0.00     0.198 A 
ATOM     65  F   UNL A   1      45.873  27.895  32.936  1.00  0.00    -0.203 F 
ATOM     66  F   UNL A   1      49.178  28.403  28.620  1.00  0.00    -0.200 F 
ATOM     67  C   UNL A   1      48.776  27.567  30.791  1.00  0.00     0.200 A 
ATOM     68  F   UNL A   1      48.328  26.748  32.960  1.00  0.00    -0.200 F 
ATOM     69  F   UNL A   1      49.976  26.971  30.799  1.00  0.00    -0.200 F 
ENDBRANCH  45  59
BRANCH  46  70
ATOM     70  C   UNL A   1      37.114  32.704  30.178  1.00  0.00     0.064 A 
ATOM     71  C   UNL A   1      36.220  32.486  31.234  1.00  0.00     0.173 A 
ATOM     72  C   UNL A   1      36.668  33.473  29.092  1.00  0.00     0.173 A 
ATOM     73  F   UNL A   1      36.591  31.736  32.281  1.00  0.00    -0.203 F 
ATOM     74  C   UNL A   1      34.931  33.018  31.204  1.00  0.00     0.198 A 
ATOM     75  C   UNL A   1      35.389  34.025  29.074  1.00  0.00     0.198 A 
ATOM     76  F   UNL A   1      37.485  33.705  28.053  1.00  0.00    -0.203 F 
ATOM     77  F   UNL A   1      34.084  32.772  32.212  1.00  0.00    -0.200 F 
ATOM     78  C   UNL A   1      34.521  33.793  30.129  1.00  0.00     0.200 A 
ATOM     79  F   UNL A   1      35.003  34.782  28.038  1.00  0.00    -0.200 F 
ATOM     80  F   UNL A   1      33.285  34.313  30.107  1.00  0.00    -0.200 F 
ENDBRANCH  46  70
BRANCH  58  81
ATOM     81  C   UNL A   1      43.107  34.817  33.085  1.00  0.00     0.064 A 
ATOM     82  C   UNL A   1      43.463  36.021  32.462  1.00  0.00     0.173 A 
ATOM     83  C   UNL A   1      43.032  34.794  34.487  1.00  0.00     0.173 A 
ATOM     84  F   UNL A   1      43.565  36.086  31.126  1.00  0.00    -0.203 F 
ATOM     85  C   UNL A   1      43.733  37.160  33.216  1.00  0.00     0.198 A 
ATOM     86  C   UNL A   1      43.278  35.942  35.234  1.00  0.00     0.198 A 
ATOM     87  F   UNL A   1      42.691  33.666  35.127  1.00  0.00    -0.203 F 
ATOM     88  F   UNL A   1      44.093  38.297  32.603  1.00  0.00    -0.200 F 
ATOM     89  C   UNL A   1      43.629  37.123  34.599  1.00  0.00     0.200 A 
ATOM     90  F   UNL A   1      43.164  35.906  36.569  1.00  0.00    -0.200 F 
ATOM     91  F   UNL A   1      43.867  38.227  35.321  1.00  0.00    -0.200 F 
ENDBRANCH  58  81
ENDBRANCH  32  33
ENDBRANCH  25  27
ENDBRANCH  24  25
ENDBRANCH  23  24
ENDBRANCH   1  23
TORSDOF 15
ENDMDL
