MODEL 1
REMARK VINA RESULT:     -13.0      0.000      0.000
REMARK SMILES O=C(OCCOC(=O)c1ccsc1NC(=O)c1cc2c(F)cccc2s1)c1ccc(-c2c3nc(c(-c4c(F)c(F)c(F)c(F)c4F)c4ccc([nH]4)c(-c4c(F)c(F)c(F)c(F)c4F)c4nc(c(-c5c(F)c(F)c(F)c(F)c5F)c5ccc2[nH]5)C=C4)C=C3)cc1
REMARK SMILES IDX 4 1 3 2 2 3 1 4 27 5 28 6 89 7 29 8 88 9 30 10 31 11 32 12
REMARK SMILES IDX 82 13 33 14 87 15 81 16 83 17 34 18 86 19 80 20 79 21 35 23
REMARK SMILES IDX 67 24 47 25 66 26 48 27 51 28 65 29 84 30 49 31 50 32 64 34
REMARK SMILES IDX 85 35 52 36 36 37 37 38 45 39 38 40 39 41 43 42 46 43 40 44
REMARK SMILES IDX 41 45 44 46 42 47 68 48 69 49 77 50 70 51 71 52 75 53 78 54
REMARK SMILES IDX 72 55 73 56 76 57 74 58 53 59 54 60 62 61 55 62 56 63 60 64
REMARK SMILES IDX 63 65 57 66 58 67 61 68 59 69 5 70 6 71 7 72 8 73 9 74 10 75
REMARK SMILES IDX 13 76 11 77 12 78 14 79 15 80 16 82 17 83 18 84 26 85 19 86
REMARK SMILES IDX 25 87 20 88 24 89 21 90 22 91 23 92
REMARK H PARENT 83 22 51 33 14 81
REMARK Flexibility Score: inf
ROOT
ATOM      1  C   UNL A   1      34.733  33.772  28.248  1.00  0.00     0.275 C 
ENDROOT
BRANCH   1   2
ATOM      2  O   UNL A   1      35.210  32.730  27.386  1.00  0.00    -0.458 OA
BRANCH   2   3
ATOM      3  C   UNL A   1      35.207  31.460  27.828  1.00  0.00     0.338 C 
ATOM      4  O   UNL A   1      34.262  30.695  27.683  1.00  0.00    -0.246 OA
BRANCH   3   5
ATOM      5  C   UNL A   1      36.508  30.937  28.286  1.00  0.00     0.060 A 
ATOM      6  C   UNL A   1      37.520  31.673  28.917  1.00  0.00     0.016 A 
ATOM      7  C   UNL A   1      36.638  29.559  28.128  1.00  0.00     0.016 A 
ATOM      8  C   UNL A   1      38.707  31.048  29.268  1.00  0.00     0.010 A 
ATOM      9  C   UNL A   1      37.758  28.921  28.589  1.00  0.00     0.010 A 
ATOM     10  C   UNL A   1      38.828  29.680  29.048  1.00  0.00    -0.014 A 
BRANCH  10  11
ATOM     11  C   UNL A   1      40.079  28.996  29.301  1.00  0.00     0.031 A 
ATOM     12  C   UNL A   1      40.435  28.820  30.735  1.00  0.00     0.074 A 
ATOM     13  C   UNL A   1      40.704  28.380  28.276  1.00  0.00     0.049 A 
ATOM     14  N   UNL A   1      41.482  29.227  31.372  1.00  0.00    -0.248 NA
ATOM     15  C   UNL A   1      39.436  28.196  31.609  1.00  0.00     0.031 C 
ATOM     16  C   UNL A   1      40.274  28.258  26.875  1.00  0.00     0.029 A 
ATOM     17  N   UNL A   1      41.828  27.626  28.301  1.00  0.00    -0.354 N 
ATOM     18  C   UNL A   1      41.370  28.724  32.670  1.00  0.00     0.074 A 
ATOM     19  C   UNL A   1      40.032  28.218  32.800  1.00  0.00     0.031 C 
ATOM     20  C   UNL A   1      40.987  27.288  26.261  1.00  0.00     0.029 A 
ATOM     21  C   UNL A   1      42.034  26.856  27.162  1.00  0.00     0.049 A 
ATOM     22  H   UNL A   1      42.449  27.622  29.065  1.00  0.00     0.167 HD
ATOM     23  C   UNL A   1      42.467  28.568  33.460  1.00  0.00     0.037 A 
ATOM     24  C   UNL A   1      42.985  25.901  27.017  1.00  0.00     0.037 A 
ATOM     25  C   UNL A   1      43.569  29.349  32.964  1.00  0.00     0.049 A 
ATOM     26  C   UNL A   1      44.014  26.169  28.059  1.00  0.00     0.074 A 
ATOM     27  C   UNL A   1      43.764  30.702  32.759  1.00  0.00     0.029 A 
ATOM     28  N   UNL A   1      44.508  28.714  32.187  1.00  0.00    -0.354 N 
ATOM     29  N   UNL A   1      44.758  27.243  28.072  1.00  0.00    -0.248 NA
ATOM     30  C   UNL A   1      43.845  25.507  29.346  1.00  0.00     0.031 C 
ATOM     31  C   UNL A   1      44.426  30.782  31.498  1.00  0.00     0.029 A 
ATOM     32  C   UNL A   1      44.684  29.481  31.061  1.00  0.00     0.049 A 
ATOM     33  H   UNL A   1      44.967  27.870  32.397  1.00  0.00     0.167 HD
ATOM     34  C   UNL A   1      44.808  27.626  29.405  1.00  0.00     0.074 A 
ATOM     35  C   UNL A   1      44.269  26.488  30.150  1.00  0.00     0.031 C 
ATOM     36  C   UNL A   1      44.991  28.932  29.762  1.00  0.00     0.037 A 
BRANCH  23  37
ATOM     37  C   UNL A   1      42.662  27.448  34.451  1.00  0.00     0.064 A 
ATOM     38  C   UNL A   1      43.159  26.210  33.998  1.00  0.00     0.173 A 
ATOM     39  C   UNL A   1      42.093  27.442  35.743  1.00  0.00     0.173 A 
ATOM     40  F   UNL A   1      43.713  26.101  32.781  1.00  0.00    -0.203 F 
ATOM     41  C   UNL A   1      43.018  25.038  34.748  1.00  0.00     0.198 A 
ATOM     42  C   UNL A   1      41.996  26.280  36.507  1.00  0.00     0.198 A 
ATOM     43  F   UNL A   1      41.515  28.527  36.271  1.00  0.00    -0.203 F 
ATOM     44  F   UNL A   1      43.395  23.865  34.224  1.00  0.00    -0.200 F 
ATOM     45  C   UNL A   1      42.428  25.073  35.998  1.00  0.00     0.200 A 
ATOM     46  F   UNL A   1      41.407  26.329  37.711  1.00  0.00    -0.200 F 
ATOM     47  F   UNL A   1      42.235  23.944  36.691  1.00  0.00    -0.200 F 
ENDBRANCH  23  37
BRANCH  24  48
ATOM     48  C   UNL A   1      42.850  24.591  26.337  1.00  0.00     0.064 A 
ATOM     49  C   UNL A   1      43.656  24.267  25.234  1.00  0.00     0.173 A 
ATOM     50  C   UNL A   1      42.140  23.526  26.929  1.00  0.00     0.173 A 
ATOM     51  F   UNL A   1      44.392  25.217  24.639  1.00  0.00    -0.203 F 
ATOM     52  C   UNL A   1      43.774  22.951  24.774  1.00  0.00     0.198 A 
ATOM     53  C   UNL A   1      42.258  22.213  26.466  1.00  0.00     0.198 A 
ATOM     54  F   UNL A   1      41.396  23.721  28.026  1.00  0.00    -0.203 F 
ATOM     55  F   UNL A   1      44.604  22.670  23.759  1.00  0.00    -0.200 F 
ATOM     56  C   UNL A   1      43.086  21.924  25.398  1.00  0.00     0.200 A 
ATOM     57  F   UNL A   1      41.615  21.223  27.102  1.00  0.00    -0.200 F 
ATOM     58  F   UNL A   1      43.255  20.654  25.002  1.00  0.00    -0.200 F 
ENDBRANCH  24  48
BRANCH  36  59
ATOM     59  C   UNL A   1      45.327  29.925  28.680  1.00  0.00     0.064 A 
ATOM     60  C   UNL A   1      44.374  30.700  27.994  1.00  0.00     0.173 A 
ATOM     61  C   UNL A   1      46.674  30.237  28.464  1.00  0.00     0.173 A 
ATOM     62  F   UNL A   1      43.066  30.543  28.219  1.00  0.00    -0.203 F 
ATOM     63  C   UNL A   1      44.752  31.714  27.115  1.00  0.00     0.198 A 
ATOM     64  C   UNL A   1      47.051  31.272  27.612  1.00  0.00     0.198 A 
ATOM     65  F   UNL A   1      47.629  29.577  29.136  1.00  0.00    -0.203 F 
ATOM     66  F   UNL A   1      43.818  32.440  26.482  1.00  0.00    -0.200 F 
ATOM     67  C   UNL A   1      46.092  32.004  26.931  1.00  0.00     0.200 A 
ATOM     68  F   UNL A   1      48.347  31.585  27.482  1.00  0.00    -0.200 F 
ATOM     69  F   UNL A   1      46.459  33.011  26.126  1.00  0.00    -0.200 F 
ENDBRANCH  36  59
ENDBRANCH  10  11
ENDBRANCH   3   5
ENDBRANCH   2   3
ENDBRANCH   1   2
BRANCH   1  70
ATOM     70  C   UNL A   1      33.218  34.020  28.215  1.00  0.00     0.275 C 
BRANCH  70  71
ATOM     71  O   UNL A   1      32.733  34.623  29.432  1.00  0.00    -0.458 OA
BRANCH  71  72
ATOM     72  C   UNL A   1      32.946  35.960  29.626  1.00  0.00     0.341 C 
ATOM     73  O   UNL A   1      32.895  36.825  28.751  1.00  0.00    -0.246 OA
BRANCH  72  74
ATOM     74  C   UNL A   1      33.334  36.232  30.997  1.00  0.00     0.094 A 
ATOM     75  C   UNL A   1      33.280  37.578  31.513  1.00  0.00     0.029 A 
ATOM     76  C   UNL A   1      33.780  35.323  31.958  1.00  0.00     0.110 A 
ATOM     77  C   UNL A   1      33.753  37.672  32.794  1.00  0.00     0.068 A 
ATOM     78  S   UNL A   1      34.279  36.165  33.349  1.00  0.00    -0.126 S 
BRANCH  76  79
ATOM     79  N   UNL A   1      33.945  33.937  31.860  1.00  0.00    -0.312 N 
ATOM     80  C   UNL A   1      35.065  33.112  31.675  1.00  0.00     0.266 C 
ATOM     81  H   UNL A   1      33.101  33.437  31.935  1.00  0.00     0.171 HD
ATOM     82  O   UNL A   1      34.862  31.945  31.331  1.00  0.00    -0.268 OA
BRANCH  80  83
ATOM     83  C   UNL A   1      36.406  33.581  31.927  1.00  0.00     0.094 A 
ATOM     84  C   UNL A   1      37.271  34.292  31.115  1.00  0.00     0.037 A 
ATOM     85  S   UNL A   1      37.143  33.412  33.468  1.00  0.00    -0.130 S 
ATOM     86  C   UNL A   1      38.635  34.064  31.523  1.00  0.00     0.029 A 
ATOM     87  C   UNL A   1      38.663  33.256  32.663  1.00  0.00     0.038 A 
ATOM     88  C   UNL A   1      39.836  34.252  30.825  1.00  0.00     0.131 A 
ATOM     89  C   UNL A   1      39.752  32.423  32.955  1.00  0.00     0.020 A 
ATOM     90  F   UNL A   1      39.940  35.181  29.865  1.00  0.00    -0.206 F 
ATOM     91  C   UNL A   1      40.835  33.293  30.971  1.00  0.00     0.040 A 
ATOM     92  C   UNL A   1      40.755  32.342  31.985  1.00  0.00     0.005 A 
ENDBRANCH  80  83
ENDBRANCH  76  79
ENDBRANCH  72  74
ENDBRANCH  71  72
ENDBRANCH  70  71
ENDBRANCH   1  70
TORSDOF 13
ENDMDL
MODEL 2
REMARK VINA RESULT:     -12.5      4.515     11.619
REMARK SMILES O=C(OCCOC(=O)c1ccsc1NC(=O)c1cc2c(F)cccc2s1)c1ccc(-c2c3nc(c(-c4c(F)c(F)c(F)c(F)c4F)c4ccc([nH]4)c(-c4c(F)c(F)c(F)c(F)c4F)c4nc(c(-c5c(F)c(F)c(F)c(F)c5F)c5ccc2[nH]5)C=C4)C=C3)cc1
REMARK SMILES IDX 4 1 3 2 2 3 1 4 27 5 28 6 89 7 29 8 88 9 30 10 31 11 32 12
REMARK SMILES IDX 82 13 33 14 87 15 81 16 83 17 34 18 86 19 80 20 79 21 35 23
REMARK SMILES IDX 67 24 47 25 66 26 48 27 51 28 65 29 84 30 49 31 50 32 64 34
REMARK SMILES IDX 85 35 52 36 36 37 37 38 45 39 38 40 39 41 43 42 46 43 40 44
REMARK SMILES IDX 41 45 44 46 42 47 68 48 69 49 77 50 70 51 71 52 75 53 78 54
REMARK SMILES IDX 72 55 73 56 76 57 74 58 53 59 54 60 62 61 55 62 56 63 60 64
REMARK SMILES IDX 63 65 57 66 58 67 61 68 59 69 5 70 6 71 7 72 8 73 9 74 10 75
REMARK SMILES IDX 13 76 11 77 12 78 14 79 15 80 16 82 17 83 18 84 26 85 19 86
REMARK SMILES IDX 25 87 20 88 24 89 21 90 22 91 23 92
REMARK H PARENT 83 22 51 33 14 81
REMARK Flexibility Score: inf
ROOT
ATOM      1  C   UNL A   1      40.161  20.825  26.201  1.00  0.00     0.275 C 
ENDROOT
BRANCH   1   2
ATOM      2  O   UNL A   1      40.029  21.910  27.130  1.00  0.00    -0.458 OA
BRANCH   2   3
ATOM      3  C   UNL A   1      39.354  23.013  26.759  1.00  0.00     0.338 C 
ATOM      4  O   UNL A   1      38.298  22.984  26.140  1.00  0.00    -0.246 OA
BRANCH   3   5
ATOM      5  C   UNL A   1      39.819  24.280  27.353  1.00  0.00     0.060 A 
ATOM      6  C   UNL A   1      40.988  24.462  28.106  1.00  0.00     0.016 A 
ATOM      7  C   UNL A   1      39.024  25.374  27.019  1.00  0.00     0.016 A 
ATOM      8  C   UNL A   1      41.282  25.713  28.626  1.00  0.00     0.010 A 
ATOM      9  C   UNL A   1      39.382  26.631  27.428  1.00  0.00     0.010 A 
ATOM     10  C   UNL A   1      40.438  26.776  28.319  1.00  0.00    -0.014 A 
BRANCH  10  11
ATOM     11  C   UNL A   1      40.641  28.079  28.917  1.00  0.00     0.031 A 
ATOM     12  C   UNL A   1      41.792  28.857  28.385  1.00  0.00     0.074 A 
ATOM     13  C   UNL A   1      39.679  28.586  29.718  1.00  0.00     0.049 A 
ATOM     14  N   UNL A   1      42.819  29.325  29.011  1.00  0.00    -0.248 NA
ATOM     15  C   UNL A   1      41.865  29.049  26.932  1.00  0.00     0.031 C 
ATOM     16  C   UNL A   1      38.374  28.006  30.070  1.00  0.00     0.029 A 
ATOM     17  N   UNL A   1      39.626  29.802  30.310  1.00  0.00    -0.354 N 
ATOM     18  C   UNL A   1      43.553  30.051  28.070  1.00  0.00     0.074 A 
ATOM     19  C   UNL A   1      42.998  29.734  26.784  1.00  0.00     0.031 C 
ATOM     20  C   UNL A   1      37.578  28.960  30.599  1.00  0.00     0.029 A 
ATOM     21  C   UNL A   1      38.370  30.157  30.790  1.00  0.00     0.049 A 
ATOM     22  H   UNL A   1      40.412  30.388  30.394  1.00  0.00     0.167 HD
ATOM     23  C   UNL A   1      44.418  31.029  28.456  1.00  0.00     0.037 A 
ATOM     24  C   UNL A   1      38.024  31.377  31.265  1.00  0.00     0.037 A 
ATOM     25  C   UNL A   1      44.758  30.890  29.847  1.00  0.00     0.049 A 
ATOM     26  C   UNL A   1      39.295  32.069  31.617  1.00  0.00     0.074 A 
ATOM     27  C   UNL A   1      45.370  29.895  30.584  1.00  0.00     0.029 A 
ATOM     28  N   UNL A   1      44.076  31.663  30.755  1.00  0.00    -0.354 N 
ATOM     29  N   UNL A   1      40.092  31.662  32.569  1.00  0.00    -0.248 NA
ATOM     30  C   UNL A   1      39.919  32.882  30.581  1.00  0.00     0.031 C 
ATOM     31  C   UNL A   1      44.602  29.812  31.784  1.00  0.00     0.029 A 
ATOM     32  C   UNL A   1      43.638  30.822  31.749  1.00  0.00     0.049 A 
ATOM     33  H   UNL A   1      43.928  32.634  30.703  1.00  0.00     0.167 HD
ATOM     34  C   UNL A   1      41.371  31.807  32.050  1.00  0.00     0.074 A 
ATOM     35  C   UNL A   1      41.203  32.612  30.840  1.00  0.00     0.031 C 
ATOM     36  C   UNL A   1      42.402  31.015  32.470  1.00  0.00     0.037 A 
BRANCH  23  37
ATOM     37  C   UNL A   1      44.668  32.306  27.694  1.00  0.00     0.064 A 
ATOM     38  C   UNL A   1      45.845  32.429  26.928  1.00  0.00     0.173 A 
ATOM     39  C   UNL A   1      43.968  33.509  27.935  1.00  0.00     0.173 A 
ATOM     40  F   UNL A   1      46.592  31.351  26.647  1.00  0.00    -0.203 F 
ATOM     41  C   UNL A   1      46.328  33.672  26.510  1.00  0.00     0.198 A 
ATOM     42  C   UNL A   1      44.429  34.742  27.476  1.00  0.00     0.198 A 
ATOM     43  F   UNL A   1      42.877  33.553  28.708  1.00  0.00    -0.203 F 
ATOM     44  F   UNL A   1      47.513  33.752  25.892  1.00  0.00    -0.200 F 
ATOM     45  C   UNL A   1      45.624  34.829  26.793  1.00  0.00     0.200 A 
ATOM     46  F   UNL A   1      43.742  35.854  27.772  1.00  0.00    -0.200 F 
ATOM     47  F   UNL A   1      46.116  36.026  26.449  1.00  0.00    -0.200 F 
ENDBRANCH  23  37
BRANCH  24  48
ATOM     48  C   UNL A   1      36.748  32.101  31.050  1.00  0.00     0.064 A 
ATOM     49  C   UNL A   1      35.929  32.453  32.134  1.00  0.00     0.173 A 
ATOM     50  C   UNL A   1      36.450  32.712  29.815  1.00  0.00     0.173 A 
ATOM     51  F   UNL A   1      36.171  31.943  33.351  1.00  0.00    -0.203 F 
ATOM     52  C   UNL A   1      34.898  33.389  32.001  1.00  0.00     0.198 A 
ATOM     53  C   UNL A   1      35.418  33.645  29.683  1.00  0.00     0.198 A 
ATOM     54  F   UNL A   1      37.213  32.492  28.736  1.00  0.00    -0.203 F 
ATOM     55  F   UNL A   1      34.179  33.748  33.074  1.00  0.00    -0.200 F 
ATOM     56  C   UNL A   1      34.653  33.994  30.779  1.00  0.00     0.200 A 
ATOM     57  F   UNL A   1      35.214  34.249  28.504  1.00  0.00    -0.200 F 
ATOM     58  F   UNL A   1      33.711  34.942  30.669  1.00  0.00    -0.200 F 
ENDBRANCH  24  48
BRANCH  36  59
ATOM     59  C   UNL A   1      42.165  30.104  33.646  1.00  0.00     0.064 A 
ATOM     60  C   UNL A   1      41.767  28.759  33.536  1.00  0.00     0.173 A 
ATOM     61  C   UNL A   1      42.538  30.555  34.917  1.00  0.00     0.173 A 
ATOM     62  F   UNL A   1      41.496  28.214  32.348  1.00  0.00    -0.203 F 
ATOM     63  C   UNL A   1      41.716  27.920  34.649  1.00  0.00     0.198 A 
ATOM     64  C   UNL A   1      42.519  29.708  36.022  1.00  0.00     0.198 A 
ATOM     65  F   UNL A   1      42.988  31.809  35.076  1.00  0.00    -0.203 F 
ATOM     66  F   UNL A   1      41.339  26.639  34.511  1.00  0.00    -0.200 F 
ATOM     67  C   UNL A   1      42.100  28.394  35.890  1.00  0.00     0.200 A 
ATOM     68  F   UNL A   1      42.946  30.156  37.210  1.00  0.00    -0.200 F 
ATOM     69  F   UNL A   1      42.101  27.576  36.953  1.00  0.00    -0.200 F 
ENDBRANCH  36  59
ENDBRANCH  10  11
ENDBRANCH   3   5
ENDBRANCH   2   3
ENDBRANCH   1   2
BRANCH   1  70
ATOM     70  C   UNL A   1      40.978  19.624  26.695  1.00  0.00     0.275 C 
BRANCH  70  71
ATOM     71  O   UNL A   1      42.397  19.812  26.515  1.00  0.00    -0.458 OA
BRANCH  71  72
ATOM     72  C   UNL A   1      43.098  18.859  25.829  1.00  0.00     0.341 C 
ATOM     73  O   UNL A   1      42.734  17.696  25.650  1.00  0.00    -0.246 OA
BRANCH  72  74
ATOM     74  C   UNL A   1      44.388  19.367  25.404  1.00  0.00     0.094 A 
ATOM     75  C   UNL A   1      45.554  18.518  25.450  1.00  0.00     0.029 A 
ATOM     76  C   UNL A   1      44.691  20.642  24.921  1.00  0.00     0.110 A 
ATOM     77  C   UNL A   1      46.700  19.174  25.091  1.00  0.00     0.068 A 
ATOM     78  S   UNL A   1      46.375  20.793  24.734  1.00  0.00    -0.126 S 
BRANCH  76  79
ATOM     79  N   UNL A   1      43.844  21.733  24.705  1.00  0.00    -0.312 N 
ATOM     80  C   UNL A   1      43.449  22.819  25.501  1.00  0.00     0.266 C 
ATOM     81  H   UNL A   1      43.438  21.740  23.808  1.00  0.00     0.171 HD
ATOM     82  O   UNL A   1      42.459  23.460  25.141  1.00  0.00    -0.268 OA
BRANCH  80  83
ATOM     83  C   UNL A   1      44.196  23.216  26.670  1.00  0.00     0.094 A 
ATOM     84  C   UNL A   1      44.076  22.813  27.987  1.00  0.00     0.037 A 
ATOM     85  S   UNL A   1      45.557  24.257  26.556  1.00  0.00    -0.130 S 
ATOM     86  C   UNL A   1      44.604  23.825  28.867  1.00  0.00     0.029 A 
ATOM     87  C   UNL A   1      45.147  24.872  28.118  1.00  0.00     0.038 A 
ATOM     88  C   UNL A   1      44.386  24.044  30.235  1.00  0.00     0.131 A 
ATOM     89  C   UNL A   1      45.210  26.183  28.610  1.00  0.00     0.020 A 
ATOM     90  F   UNL A   1      44.083  23.032  31.058  1.00  0.00    -0.206 F 
ATOM     91  C   UNL A   1      44.244  25.358  30.672  1.00  0.00     0.040 A 
ATOM     92  C   UNL A   1      44.585  26.419  29.838  1.00  0.00     0.005 A 
ENDBRANCH  80  83
ENDBRANCH  76  79
ENDBRANCH  72  74
ENDBRANCH  71  72
ENDBRANCH  70  71
ENDBRANCH   1  70
TORSDOF 13
ENDMDL
MODEL 3
REMARK VINA RESULT:     -12.1      4.093      6.109
REMARK SMILES O=C(OCCOC(=O)c1ccsc1NC(=O)c1cc2c(F)cccc2s1)c1ccc(-c2c3nc(c(-c4c(F)c(F)c(F)c(F)c4F)c4ccc([nH]4)c(-c4c(F)c(F)c(F)c(F)c4F)c4nc(c(-c5c(F)c(F)c(F)c(F)c5F)c5ccc2[nH]5)C=C4)C=C3)cc1
REMARK SMILES IDX 4 1 3 2 2 3 1 4 27 5 28 6 89 7 29 8 88 9 30 10 31 11 32 12
REMARK SMILES IDX 82 13 33 14 87 15 81 16 83 17 34 18 86 19 80 20 79 21 35 23
REMARK SMILES IDX 67 24 47 25 66 26 48 27 51 28 65 29 84 30 49 31 50 32 64 34
REMARK SMILES IDX 85 35 52 36 36 37 37 38 45 39 38 40 39 41 43 42 46 43 40 44
REMARK SMILES IDX 41 45 44 46 42 47 68 48 69 49 77 50 70 51 71 52 75 53 78 54
REMARK SMILES IDX 72 55 73 56 76 57 74 58 53 59 54 60 62 61 55 62 56 63 60 64
REMARK SMILES IDX 63 65 57 66 58 67 61 68 59 69 5 70 6 71 7 72 8 73 9 74 10 75
REMARK SMILES IDX 13 76 11 77 12 78 14 79 15 80 16 82 17 83 18 84 26 85 19 86
REMARK SMILES IDX 25 87 20 88 24 89 21 90 22 91 23 92
REMARK H PARENT 83 22 51 33 14 81
REMARK Flexibility Score: inf
ROOT
ATOM      1  C   UNL A   1      33.243  31.039  27.461  1.00  0.00     0.275 C 
ENDROOT
BRANCH   1   2
ATOM      2  O   UNL A   1      34.523  31.685  27.415  1.00  0.00    -0.458 OA
BRANCH   2   3
ATOM      3  C   UNL A   1      35.239  31.805  28.547  1.00  0.00     0.338 C 
ATOM      4  O   UNL A   1      34.852  32.424  29.530  1.00  0.00    -0.246 OA
BRANCH   3   5
ATOM      5  C   UNL A   1      36.427  30.937  28.650  1.00  0.00     0.060 A 
ATOM      6  C   UNL A   1      36.515  29.601  28.236  1.00  0.00     0.016 A 
ATOM      7  C   UNL A   1      37.557  31.599  29.126  1.00  0.00     0.016 A 
ATOM      8  C   UNL A   1      37.697  28.900  28.422  1.00  0.00     0.010 A 
ATOM      9  C   UNL A   1      38.757  30.942  29.194  1.00  0.00     0.010 A 
ATOM     10  C   UNL A   1      38.793  29.574  28.951  1.00  0.00    -0.014 A 
BRANCH  10  11
ATOM     11  C   UNL A   1      40.018  28.868  29.261  1.00  0.00     0.031 A 
ATOM     12  C   UNL A   1      40.331  28.731  30.710  1.00  0.00     0.074 A 
ATOM     13  C   UNL A   1      40.654  28.201  28.274  1.00  0.00     0.049 A 
ATOM     14  N   UNL A   1      41.370  29.132  31.362  1.00  0.00    -0.248 NA
ATOM     15  C   UNL A   1      39.291  28.162  31.575  1.00  0.00     0.031 C 
ATOM     16  C   UNL A   1      40.259  28.044  26.867  1.00  0.00     0.029 A 
ATOM     17  N   UNL A   1      41.756  27.420  28.356  1.00  0.00    -0.354 N 
ATOM     18  C   UNL A   1      41.210  28.676  32.672  1.00  0.00     0.074 A 
ATOM     19  C   UNL A   1      39.856  28.209  32.781  1.00  0.00     0.031 C 
ATOM     20  C   UNL A   1      40.962  27.035  26.305  1.00  0.00     0.029 A 
ATOM     21  C   UNL A   1      41.972  26.607  27.249  1.00  0.00     0.049 A 
ATOM     22  H   UNL A   1      42.356  27.425  29.136  1.00  0.00     0.167 HD
ATOM     23  C   UNL A   1      42.281  28.518  33.497  1.00  0.00     0.037 A 
ATOM     24  C   UNL A   1      42.900  25.624  27.162  1.00  0.00     0.037 A 
ATOM     25  C   UNL A   1      43.417  29.253  33.006  1.00  0.00     0.049 A 
ATOM     26  C   UNL A   1      43.908  25.900  28.223  1.00  0.00     0.074 A 
ATOM     27  C   UNL A   1      43.653  30.592  32.763  1.00  0.00     0.029 A 
ATOM     28  N   UNL A   1      44.358  28.568  32.277  1.00  0.00    -0.354 N 
ATOM     29  N   UNL A   1      44.680  26.954  28.221  1.00  0.00    -0.248 NA
ATOM     30  C   UNL A   1      43.686  25.286  29.526  1.00  0.00     0.031 C 
ATOM     31  C   UNL A   1      44.351  30.614  31.518  1.00  0.00     0.029 A 
ATOM     32  C   UNL A   1      44.585  29.292  31.132  1.00  0.00     0.049 A 
ATOM     33  H   UNL A   1      44.789  27.720  32.528  1.00  0.00     0.167 HD
ATOM     34  C   UNL A   1      44.704  27.380  29.542  1.00  0.00     0.074 A 
ATOM     35  C   UNL A   1      44.115  26.282  30.309  1.00  0.00     0.031 C 
ATOM     36  C   UNL A   1      44.913  28.692  29.860  1.00  0.00     0.037 A 
BRANCH  23  37
ATOM     37  C   UNL A   1      42.419  27.427  34.529  1.00  0.00     0.064 A 
ATOM     38  C   UNL A   1      42.944  26.178  34.142  1.00  0.00     0.173 A 
ATOM     39  C   UNL A   1      41.774  27.455  35.785  1.00  0.00     0.173 A 
ATOM     40  F   UNL A   1      43.569  26.037  32.963  1.00  0.00    -0.203 F 
ATOM     41  C   UNL A   1      42.761  25.028  34.915  1.00  0.00     0.198 A 
ATOM     42  C   UNL A   1      41.635  26.315  36.575  1.00  0.00     0.198 A 
ATOM     43  F   UNL A   1      41.164  28.553  36.246  1.00  0.00    -0.203 F 
ATOM     44  F   UNL A   1      43.171  23.841  34.448  1.00  0.00    -0.200 F 
ATOM     45  C   UNL A   1      42.098  25.095  36.127  1.00  0.00     0.200 A 
ATOM     46  F   UNL A   1      40.976  26.396  37.739  1.00  0.00    -0.200 F 
ATOM     47  F   UNL A   1      41.866  23.986  36.839  1.00  0.00    -0.200 F 
ENDBRANCH  23  37
BRANCH  24  48
ATOM     48  C   UNL A   1      42.750  24.295  26.522  1.00  0.00     0.064 A 
ATOM     49  C   UNL A   1      43.624  23.884  25.504  1.00  0.00     0.173 A 
ATOM     50  C   UNL A   1      41.934  23.295  27.090  1.00  0.00     0.173 A 
ATOM     51  F   UNL A   1      44.459  24.769  24.938  1.00  0.00    -0.203 F 
ATOM     52  C   UNL A   1      43.706  22.545  25.103  1.00  0.00     0.198 A 
ATOM     53  C   UNL A   1      42.016  21.959  26.688  1.00  0.00     0.198 A 
ATOM     54  F   UNL A   1      41.115  23.574  28.112  1.00  0.00    -0.203 F 
ATOM     55  F   UNL A   1      44.599  22.180  24.173  1.00  0.00    -0.200 F 
ATOM     56  C   UNL A   1      42.913  21.583  25.705  1.00  0.00     0.200 A 
ATOM     57  F   UNL A   1      41.269  21.032  27.303  1.00  0.00    -0.200 F 
ATOM     58  F   UNL A   1      43.042  20.291  25.371  1.00  0.00    -0.200 F 
ENDBRANCH  24  48
BRANCH  36  59
ATOM     59  C   UNL A   1      45.304  29.639  28.756  1.00  0.00     0.064 A 
ATOM     60  C   UNL A   1      44.389  30.404  28.010  1.00  0.00     0.173 A 
ATOM     61  C   UNL A   1      46.663  29.921  28.578  1.00  0.00     0.173 A 
ATOM     62  F   UNL A   1      43.072  30.277  28.193  1.00  0.00    -0.203 F 
ATOM     63  C   UNL A   1      44.817  31.379  27.109  1.00  0.00     0.198 A 
ATOM     64  C   UNL A   1      47.088  30.917  27.703  1.00  0.00     0.198 A 
ATOM     65  F   UNL A   1      47.582  29.270  29.307  1.00  0.00    -0.203 F 
ATOM     66  F   UNL A   1      43.919  32.097  26.417  1.00  0.00    -0.200 F 
ATOM     67  C   UNL A   1      46.167  31.640  26.963  1.00  0.00     0.200 A 
ATOM     68  F   UNL A   1      48.393  31.204  27.608  1.00  0.00    -0.200 F 
ATOM     69  F   UNL A   1      46.580  32.611  26.136  1.00  0.00    -0.200 F 
ENDBRANCH  36  59
ENDBRANCH  10  11
ENDBRANCH   3   5
ENDBRANCH   2   3
ENDBRANCH   1   2
BRANCH   1  70
ATOM     70  C   UNL A   1      33.193  29.620  26.877  1.00  0.00     0.275 C 
BRANCH  70  71
ATOM     71  O   UNL A   1      31.862  29.237  26.476  1.00  0.00    -0.458 OA
BRANCH  71  72
ATOM     72  C   UNL A   1      31.428  27.976  26.780  1.00  0.00     0.341 C 
ATOM     73  O   UNL A   1      31.362  27.498  27.913  1.00  0.00    -0.246 OA
BRANCH  72  74
ATOM     74  C   UNL A   1      31.133  27.222  25.576  1.00  0.00     0.094 A 
ATOM     75  C   UNL A   1      31.438  27.777  24.280  1.00  0.00     0.029 A 
ATOM     76  C   UNL A   1      30.561  25.952  25.479  1.00  0.00     0.110 A 
ATOM     77  C   UNL A   1      31.025  26.974  23.252  1.00  0.00     0.068 A 
ATOM     78  S   UNL A   1      30.258  25.590  23.845  1.00  0.00    -0.126 S 
BRANCH  76  79
ATOM     79  N   UNL A   1      30.152  25.082  26.494  1.00  0.00    -0.312 N 
ATOM     80  C   UNL A   1      30.519  23.775  26.849  1.00  0.00     0.266 C 
ATOM     81  H   UNL A   1      29.462  25.466  27.083  1.00  0.00     0.171 HD
ATOM     82  O   UNL A   1      29.771  23.160  27.612  1.00  0.00    -0.268 OA
BRANCH  80  83
ATOM     83  C   UNL A   1      31.749  23.179  26.387  1.00  0.00     0.094 A 
ATOM     84  C   UNL A   1      33.056  23.405  26.781  1.00  0.00     0.037 A 
ATOM     85  S   UNL A   1      31.753  21.885  25.259  1.00  0.00    -0.130 S 
ATOM     86  C   UNL A   1      33.964  23.037  25.724  1.00  0.00     0.029 A 
ATOM     87  C   UNL A   1      33.253  22.491  24.653  1.00  0.00     0.038 A 
ATOM     88  C   UNL A   1      35.298  23.407  25.504  1.00  0.00     0.131 A 
ATOM     89  C   UNL A   1      33.724  22.565  23.334  1.00  0.00     0.020 A 
ATOM     90  F   UNL A   1      36.106  23.724  26.523  1.00  0.00    -0.206 F 
ATOM     91  C   UNL A   1      35.694  23.679  24.197  1.00  0.00     0.040 A 
ATOM     92  C   UNL A   1      34.878  23.325  23.125  1.00  0.00     0.005 A 
ENDBRANCH  80  83
ENDBRANCH  76  79
ENDBRANCH  72  74
ENDBRANCH  71  72
ENDBRANCH  70  71
ENDBRANCH   1  70
TORSDOF 13
ENDMDL
