MODEL 1
REMARK VINA RESULT:     -12.9      0.000      0.000
REMARK SMILES CC1(C)S[C@@H]2[C@H]([NH2+]Cn3nnc4ccccc43)C(=O)N2[C@@H]1C(=O)OCCOC(=O)c1ccc(-c2c3nc(c(-c4c(F)c(F)c(F)c(F)c4F)c4ccc([nH]4)c(-c4c(F)c(F)c(F)c(F)c4F)c4nc(c(-c5c(F)c(F)c(F)c(F)c5F)c5ccc2[nH]5)C=C4)C=C3)cc1
REMARK SMILES IDX 25 1 24 2 22 3 23 4 21 5 1 6 2 7 3 8 4 9 5 10 20 11 6 12
REMARK SMILES IDX 18 13 19 14 7 15 8 18 9 19 10 20 17 21 11 22 12 23 16 24
REMARK SMILES IDX 13 25 15 26 14 27 26 28 27 29 28 30 29 31 30 32 31 33 92 34
REMARK SMILES IDX 32 35 91 36 33 37 34 38 35 39 85 40 36 41 90 42 84 43 86 44
REMARK SMILES IDX 37 45 89 46 83 47 82 48 38 50 70 51 50 52 69 53 51 54 54 55
REMARK SMILES IDX 68 56 87 57 52 58 53 59 67 61 88 62 55 63 39 64 40 65 48 66
REMARK SMILES IDX 41 67 42 68 46 69 49 70 43 71 44 72 47 73 45 74 71 75 72 76
REMARK SMILES IDX 80 77 73 78 74 79 78 80 81 81 75 82 76 83 79 84 77 85 56 86
REMARK SMILES IDX 57 87 65 88 58 89 59 90 63 91 66 92 60 93 61 94 64 95 62 96
REMARK H PARENT 7 16 7 17 86 49 54 60
REMARK Flexibility Score: inf
ROOT
ATOM      1  C   UNL A   1      37.267  21.755  24.577  1.00  0.00     0.274 C 
ENDROOT
BRANCH   1   2
ATOM      2  O   UNL A   1      36.740  23.026  25.023  1.00  0.00    -0.460 OA
BRANCH   2   3
ATOM      3  C   UNL A   1      35.458  23.335  24.686  1.00  0.00     0.330 C 
ATOM      4  O   UNL A   1      35.089  23.562  23.540  1.00  0.00    -0.250 OA
BRANCH   3   5
ATOM      5  C   UNL A   1      34.492  23.306  25.897  1.00  0.00     0.212 C 
ATOM      6  C   UNL A   1      34.061  20.852  25.103  1.00  0.00     0.026 C 
ATOM      7  C   UNL A   1      33.749  21.957  26.119  1.00  0.00     0.044 C 
ATOM      8  C   UNL A   1      33.917  21.503  27.573  1.00  0.00     0.026 C 
ATOM      9  S   UNL A   1      31.901  22.288  25.996  1.00  0.00    -0.121 SA
ATOM     10  C   UNL A   1      32.115  24.042  26.364  1.00  0.00     0.213 C 
ATOM     11  N   UNL A   1      33.448  24.287  25.850  1.00  0.00    -0.304 N 
ATOM     12  C   UNL A   1      31.704  25.303  25.534  1.00  0.00     0.307 C 
ATOM     13  C   UNL A   1      33.282  25.602  25.686  1.00  0.00     0.285 C 
ATOM     14  O   UNL A   1      34.075  26.504  25.554  1.00  0.00    -0.268 OA
BRANCH  12  15
ATOM     15  N   UNL A   1      31.278  25.211  24.100  1.00  0.00    -0.315 N 
ATOM     16  H   UNL A   1      31.090  24.231  23.885  1.00  0.00     0.348 HD
ATOM     17  H   UNL A   1      32.039  25.599  23.543  1.00  0.00     0.348 HD
BRANCH  15  18
ATOM     18  C   UNL A   1      30.090  25.984  23.782  1.00  0.00     0.415 C 
BRANCH  18  19
ATOM     19  N   UNL A   1      30.345  27.295  23.194  1.00  0.00    -0.194 N 
ATOM     20  N   UNL A   1      31.547  27.743  22.799  1.00  0.00    -0.061 NA
ATOM     21  C   UNL A   1      29.353  28.226  23.004  1.00  0.00     0.095 A 
ATOM     22  N   UNL A   1      31.381  29.006  22.416  1.00  0.00    -0.130 NA
ATOM     23  C   UNL A   1      30.051  29.326  22.539  1.00  0.00     0.113 A 
ATOM     24  C   UNL A   1      27.968  28.210  23.217  1.00  0.00     0.030 A 
ATOM     25  C   UNL A   1      29.346  30.513  22.290  1.00  0.00     0.032 A 
ATOM     26  C   UNL A   1      27.279  29.393  22.946  1.00  0.00     0.002 A 
ATOM     27  C   UNL A   1      27.957  30.530  22.501  1.00  0.00     0.002 A 
ENDBRANCH  18  19
ENDBRANCH  15  18
ENDBRANCH  12  15
ENDBRANCH   3   5
ENDBRANCH   2   3
ENDBRANCH   1   2
BRANCH   1  28
ATOM     28  C   UNL A   1      38.466  21.324  25.432  1.00  0.00     0.275 C 
BRANCH  28  29
ATOM     29  O   UNL A   1      38.805  22.413  26.304  1.00  0.00    -0.458 OA
BRANCH  29  30
ATOM     30  C   UNL A   1      40.074  22.444  26.774  1.00  0.00     0.338 C 
ATOM     31  O   UNL A   1      40.929  21.583  26.681  1.00  0.00    -0.246 OA
BRANCH  30  32
ATOM     32  C   UNL A   1      40.334  23.860  27.107  1.00  0.00     0.060 A 
ATOM     33  C   UNL A   1      41.470  24.243  27.828  1.00  0.00     0.016 A 
ATOM     34  C   UNL A   1      39.293  24.764  26.888  1.00  0.00     0.016 A 
ATOM     35  C   UNL A   1      41.508  25.499  28.433  1.00  0.00     0.010 A 
ATOM     36  C   UNL A   1      39.329  26.010  27.512  1.00  0.00     0.010 A 
ATOM     37  C   UNL A   1      40.412  26.364  28.328  1.00  0.00    -0.014 A 
BRANCH  37  38
ATOM     38  C   UNL A   1      40.549  27.750  28.785  1.00  0.00     0.031 A 
ATOM     39  C   UNL A   1      41.701  28.409  28.151  1.00  0.00     0.074 A 
ATOM     40  C   UNL A   1      39.822  28.472  29.666  1.00  0.00     0.049 A 
ATOM     41  N   UNL A   1      42.820  28.628  28.752  1.00  0.00    -0.248 NA
ATOM     42  C   UNL A   1      41.696  28.731  26.722  1.00  0.00     0.031 C 
ATOM     43  C   UNL A   1      38.616  28.075  30.373  1.00  0.00     0.029 A 
ATOM     44  N   UNL A   1      39.979  29.774  30.074  1.00  0.00    -0.354 N 
ATOM     45  C   UNL A   1      43.599  29.307  27.841  1.00  0.00     0.074 A 
ATOM     46  C   UNL A   1      42.939  29.193  26.565  1.00  0.00     0.031 C 
ATOM     47  C   UNL A   1      37.989  29.160  30.887  1.00  0.00     0.029 A 
ATOM     48  C   UNL A   1      38.883  30.296  30.750  1.00  0.00     0.049 A 
ATOM     49  H   UNL A   1      40.799  30.293  29.903  1.00  0.00     0.167 HD
ATOM     50  C   UNL A   1      44.567  30.144  28.287  1.00  0.00     0.037 A 
ATOM     51  C   UNL A   1      38.757  31.510  31.336  1.00  0.00     0.037 A 
ATOM     52  C   UNL A   1      44.832  29.970  29.694  1.00  0.00     0.049 A 
ATOM     53  C   UNL A   1      40.090  31.896  31.835  1.00  0.00     0.074 A 
ATOM     54  C   UNL A   1      45.587  29.132  30.485  1.00  0.00     0.029 A 
ATOM     55  N   UNL A   1      43.931  30.588  30.516  1.00  0.00    -0.354 N 
ATOM     56  N   UNL A   1      40.696  31.275  32.808  1.00  0.00    -0.248 NA
ATOM     57  C   UNL A   1      40.905  32.841  31.081  1.00  0.00     0.031 C 
ATOM     58  C   UNL A   1      45.055  29.218  31.809  1.00  0.00     0.029 A 
ATOM     59  C   UNL A   1      43.989  30.108  31.800  1.00  0.00     0.049 A 
ATOM     60  H   UNL A   1      43.312  31.294  30.221  1.00  0.00     0.167 HD
ATOM     61  C   UNL A   1      42.029  31.408  32.494  1.00  0.00     0.074 A 
ATOM     62  C   UNL A   1      42.109  32.523  31.562  1.00  0.00     0.031 C 
ATOM     63  C   UNL A   1      42.901  30.386  32.706  1.00  0.00     0.037 A 
BRANCH  50  64
ATOM     64  C   UNL A   1      44.949  31.410  27.579  1.00  0.00     0.064 A 
ATOM     65  C   UNL A   1      46.230  31.522  27.015  1.00  0.00     0.173 A 
ATOM     66  C   UNL A   1      44.210  32.608  27.687  1.00  0.00     0.173 A 
ATOM     67  F   UNL A   1      47.029  30.449  26.921  1.00  0.00    -0.203 F 
ATOM     68  C   UNL A   1      46.742  32.755  26.605  1.00  0.00     0.198 A 
ATOM     69  C   UNL A   1      44.699  33.824  27.222  1.00  0.00     0.198 A 
ATOM     70  F   UNL A   1      43.046  32.665  28.348  1.00  0.00    -0.203 F 
ATOM     71  F   UNL A   1      48.005  32.837  26.166  1.00  0.00    -0.200 F 
ATOM     72  C   UNL A   1      45.974  33.902  26.701  1.00  0.00     0.200 A 
ATOM     73  F   UNL A   1      43.953  34.930  27.356  1.00  0.00    -0.200 F 
ATOM     74  F   UNL A   1      46.477  35.090  26.342  1.00  0.00    -0.200 F 
ENDBRANCH  50  64
BRANCH  51  75
ATOM     75  C   UNL A   1      37.613  32.449  31.359  1.00  0.00     0.064 A 
ATOM     76  C   UNL A   1      37.290  33.218  30.226  1.00  0.00     0.173 A 
ATOM     77  C   UNL A   1      36.627  32.358  32.359  1.00  0.00     0.173 A 
ATOM     78  F   UNL A   1      38.167  33.337  29.220  1.00  0.00    -0.203 F 
ATOM     79  C   UNL A   1      36.031  33.801  30.068  1.00  0.00     0.198 A 
ATOM     80  C   UNL A   1      35.369  32.945  32.200  1.00  0.00     0.198 A 
ATOM     81  F   UNL A   1      36.836  31.612  33.454  1.00  0.00    -0.203 F 
ATOM     82  F   UNL A   1      35.733  34.451  28.934  1.00  0.00    -0.200 F 
ATOM     83  C   UNL A   1      35.063  33.647  31.045  1.00  0.00     0.200 A 
ATOM     84  F   UNL A   1      34.427  32.765  33.137  1.00  0.00    -0.200 F 
ATOM     85  F   UNL A   1      33.829  34.134  30.858  1.00  0.00    -0.200 F 
ENDBRANCH  51  75
BRANCH  63  86
ATOM     86  C   UNL A   1      42.595  29.435  33.818  1.00  0.00     0.064 A 
ATOM     87  C   UNL A   1      41.913  28.218  33.662  1.00  0.00     0.173 A 
ATOM     88  C   UNL A   1      43.041  29.768  35.103  1.00  0.00     0.173 A 
ATOM     89  F   UNL A   1      41.504  27.805  32.455  1.00  0.00    -0.203 F 
ATOM     90  C   UNL A   1      41.666  27.388  34.757  1.00  0.00     0.198 A 
ATOM     91  C   UNL A   1      42.819  28.925  36.188  1.00  0.00     0.198 A 
ATOM     92  F   UNL A   1      43.714  30.911  35.304  1.00  0.00    -0.203 F 
ATOM     93  F   UNL A   1      40.994  26.238  34.591  1.00  0.00    -0.200 F 
ATOM     94  C   UNL A   1      42.124  27.740  36.017  1.00  0.00     0.200 A 
ATOM     95  F   UNL A   1      43.289  29.260  37.398  1.00  0.00    -0.200 F 
ATOM     96  F   UNL A   1      41.909  26.931  37.063  1.00  0.00    -0.200 F 
ENDBRANCH  63  86
ENDBRANCH  37  38
ENDBRANCH  30  32
ENDBRANCH  29  30
ENDBRANCH  28  29
ENDBRANCH   1  28
TORSDOF 14
ENDMDL
MODEL 2
REMARK VINA RESULT:     -12.8      1.490      2.254
REMARK SMILES CC1(C)S[C@@H]2[C@H]([NH2+]Cn3nnc4ccccc43)C(=O)N2[C@@H]1C(=O)OCCOC(=O)c1ccc(-c2c3nc(c(-c4c(F)c(F)c(F)c(F)c4F)c4ccc([nH]4)c(-c4c(F)c(F)c(F)c(F)c4F)c4nc(c(-c5c(F)c(F)c(F)c(F)c5F)c5ccc2[nH]5)C=C4)C=C3)cc1
REMARK SMILES IDX 25 1 24 2 22 3 23 4 21 5 1 6 2 7 3 8 4 9 5 10 20 11 6 12
REMARK SMILES IDX 18 13 19 14 7 15 8 18 9 19 10 20 17 21 11 22 12 23 16 24
REMARK SMILES IDX 13 25 15 26 14 27 26 28 27 29 28 30 29 31 30 32 31 33 92 34
REMARK SMILES IDX 32 35 91 36 33 37 34 38 35 39 85 40 36 41 90 42 84 43 86 44
REMARK SMILES IDX 37 45 89 46 83 47 82 48 38 50 70 51 50 52 69 53 51 54 54 55
REMARK SMILES IDX 68 56 87 57 52 58 53 59 67 61 88 62 55 63 39 64 40 65 48 66
REMARK SMILES IDX 41 67 42 68 46 69 49 70 43 71 44 72 47 73 45 74 71 75 72 76
REMARK SMILES IDX 80 77 73 78 74 79 78 80 81 81 75 82 76 83 79 84 77 85 56 86
REMARK SMILES IDX 57 87 65 88 58 89 59 90 63 91 66 92 60 93 61 94 64 95 62 96
REMARK H PARENT 7 16 7 17 86 49 54 60
REMARK Flexibility Score: inf
ROOT
ATOM      1  C   UNL A   1      37.446  22.263  25.088  1.00  0.00     0.274 C 
ENDROOT
BRANCH   1   2
ATOM      2  O   UNL A   1      36.162  21.705  25.453  1.00  0.00    -0.460 OA
BRANCH   2   3
ATOM      3  C   UNL A   1      35.116  22.563  25.597  1.00  0.00     0.330 C 
ATOM      4  O   UNL A   1      35.238  23.743  25.904  1.00  0.00    -0.250 OA
BRANCH   3   5
ATOM      5  C   UNL A   1      33.749  21.910  25.270  1.00  0.00     0.212 C 
ATOM      6  C   UNL A   1      34.193  22.901  22.891  1.00  0.00     0.026 C 
ATOM      7  C   UNL A   1      33.264  22.091  23.803  1.00  0.00     0.044 C 
ATOM      8  C   UNL A   1      32.877  20.730  23.211  1.00  0.00     0.026 C 
ATOM      9  S   UNL A   1      31.623  23.011  23.846  1.00  0.00    -0.121 SA
ATOM     10  C   UNL A   1      31.309  22.522  25.555  1.00  0.00     0.213 C 
ATOM     11  N   UNL A   1      32.657  22.380  26.070  1.00  0.00    -0.304 N 
ATOM     12  C   UNL A   1      31.056  23.401  26.824  1.00  0.00     0.307 C 
ATOM     13  C   UNL A   1      32.323  22.552  27.351  1.00  0.00     0.285 C 
ATOM     14  O   UNL A   1      32.902  22.284  28.378  1.00  0.00    -0.268 OA
BRANCH  12  15
ATOM     15  N   UNL A   1      31.315  24.877  26.837  1.00  0.00    -0.315 N 
ATOM     16  H   UNL A   1      32.184  25.054  26.331  1.00  0.00     0.348 HD
ATOM     17  H   UNL A   1      31.364  25.157  27.816  1.00  0.00     0.348 HD
BRANCH  15  18
ATOM     18  C   UNL A   1      30.264  25.671  26.225  1.00  0.00     0.415 C 
BRANCH  18  19
ATOM     19  N   UNL A   1      30.728  26.756  25.368  1.00  0.00    -0.194 N 
ATOM     20  N   UNL A   1      30.567  26.810  24.036  1.00  0.00    -0.061 NA
ATOM     21  C   UNL A   1      31.410  27.844  25.856  1.00  0.00     0.095 A 
ATOM     22  N   UNL A   1      31.210  27.896  23.614  1.00  0.00    -0.130 NA
ATOM     23  C   UNL A   1      31.740  28.539  24.706  1.00  0.00     0.113 A 
ATOM     24  C   UNL A   1      31.777  28.247  27.146  1.00  0.00     0.030 A 
ATOM     25  C   UNL A   1      32.512  29.704  24.823  1.00  0.00     0.032 A 
ATOM     26  C   UNL A   1      32.530  29.419  27.246  1.00  0.00     0.002 A 
ATOM     27  C   UNL A   1      32.901  30.130  26.104  1.00  0.00     0.002 A 
ENDBRANCH  18  19
ENDBRANCH  15  18
ENDBRANCH  12  15
ENDBRANCH   3   5
ENDBRANCH   2   3
ENDBRANCH   1   2
BRANCH   1  28
ATOM     28  C   UNL A   1      38.557  21.733  26.005  1.00  0.00     0.275 C 
BRANCH  28  29
ATOM     29  O   UNL A   1      39.531  22.775  26.171  1.00  0.00    -0.458 OA
BRANCH  29  30
ATOM     30  C   UNL A   1      40.255  22.754  27.314  1.00  0.00     0.338 C 
ATOM     31  O   UNL A   1      41.020  21.890  27.701  1.00  0.00    -0.246 OA
BRANCH  30  32
ATOM     32  C   UNL A   1      40.216  24.138  27.828  1.00  0.00     0.060 A 
ATOM     33  C   UNL A   1      39.125  24.978  27.581  1.00  0.00     0.016 A 
ATOM     34  C   UNL A   1      41.402  24.652  28.357  1.00  0.00     0.016 A 
ATOM     35  C   UNL A   1      39.264  26.354  27.752  1.00  0.00     0.010 A 
ATOM     36  C   UNL A   1      41.540  26.031  28.508  1.00  0.00     0.010 A 
ATOM     37  C   UNL A   1      40.492  26.892  28.159  1.00  0.00    -0.014 A 
BRANCH  37  38
ATOM     38  C   UNL A   1      40.563  28.307  28.537  1.00  0.00     0.031 A 
ATOM     39  C   UNL A   1      41.720  28.967  27.915  1.00  0.00     0.074 A 
ATOM     40  C   UNL A   1      39.774  29.052  29.342  1.00  0.00     0.049 A 
ATOM     41  N   UNL A   1      42.803  29.260  28.549  1.00  0.00    -0.248 NA
ATOM     42  C   UNL A   1      41.768  29.205  26.470  1.00  0.00     0.031 C 
ATOM     43  C   UNL A   1      38.551  28.656  30.019  1.00  0.00     0.029 A 
ATOM     44  N   UNL A   1      39.870  30.382  29.676  1.00  0.00    -0.354 N 
ATOM     45  C   UNL A   1      43.600  29.911  27.633  1.00  0.00     0.074 A 
ATOM     46  C   UNL A   1      43.002  29.700  26.338  1.00  0.00     0.031 C 
ATOM     47  C   UNL A   1      37.866  29.747  30.439  1.00  0.00     0.029 A 
ATOM     48  C   UNL A   1      38.729  30.903  30.273  1.00  0.00     0.049 A 
ATOM     49  H   UNL A   1      40.679  30.918  29.510  1.00  0.00     0.167 HD
ATOM     50  C   UNL A   1      44.519  30.807  28.069  1.00  0.00     0.037 A 
ATOM     51  C   UNL A   1      38.536  32.144  30.778  1.00  0.00     0.037 A 
ATOM     52  C   UNL A   1      44.726  30.725  29.494  1.00  0.00     0.049 A 
ATOM     53  C   UNL A   1      39.833  32.606  31.310  1.00  0.00     0.074 A 
ATOM     54  C   UNL A   1      45.472  29.962  30.365  1.00  0.00     0.029 A 
ATOM     55  N   UNL A   1      43.770  31.359  30.238  1.00  0.00    -0.354 N 
ATOM     56  N   UNL A   1      40.415  32.064  32.343  1.00  0.00    -0.248 NA
ATOM     57  C   UNL A   1      40.650  33.533  30.536  1.00  0.00     0.031 C 
ATOM     58  C   UNL A   1      44.878  30.107  31.657  1.00  0.00     0.029 A 
ATOM     59  C   UNL A   1      43.785  30.957  31.549  1.00  0.00     0.049 A 
ATOM     60  H   UNL A   1      43.142  32.024  29.875  1.00  0.00     0.167 HD
ATOM     61  C   UNL A   1      41.755  32.226  32.079  1.00  0.00     0.074 A 
ATOM     62  C   UNL A   1      41.840  33.287  31.086  1.00  0.00     0.031 C 
ATOM     63  C   UNL A   1      42.650  31.249  32.390  1.00  0.00     0.037 A 
BRANCH  50  64
ATOM     64  C   UNL A   1      44.890  32.042  27.303  1.00  0.00     0.064 A 
ATOM     65  C   UNL A   1      46.177  32.147  26.750  1.00  0.00     0.173 A 
ATOM     66  C   UNL A   1      44.131  33.232  27.340  1.00  0.00     0.173 A 
ATOM     67  F   UNL A   1      46.995  31.083  26.721  1.00  0.00    -0.203 F 
ATOM     68  C   UNL A   1      46.676  33.365  26.286  1.00  0.00     0.198 A 
ATOM     69  C   UNL A   1      44.608  34.431  26.821  1.00  0.00     0.198 A 
ATOM     70  F   UNL A   1      42.957  33.303  27.983  1.00  0.00    -0.203 F 
ATOM     71  F   UNL A   1      47.943  33.446  25.859  1.00  0.00    -0.200 F 
ATOM     72  C   UNL A   1      45.889  34.504  26.314  1.00  0.00     0.200 A 
ATOM     73  F   UNL A   1      43.843  35.530  26.889  1.00  0.00    -0.200 F 
ATOM     74  F   UNL A   1      46.378  35.679  25.901  1.00  0.00    -0.200 F 
ENDBRANCH  50  64
BRANCH  51  75
ATOM     75  C   UNL A   1      37.362  33.042  30.696  1.00  0.00     0.064 A 
ATOM     76  C   UNL A   1      36.926  33.543  29.457  1.00  0.00     0.173 A 
ATOM     77  C   UNL A   1      36.460  33.147  31.770  1.00  0.00     0.173 A 
ATOM     78  F   UNL A   1      37.719  33.463  28.379  1.00  0.00    -0.203 F 
ATOM     79  C   UNL A   1      35.637  34.052  29.282  1.00  0.00     0.198 A 
ATOM     80  C   UNL A   1      35.171  33.659  31.594  1.00  0.00     0.198 A 
ATOM     81  F   UNL A   1      36.779  32.657  32.977  1.00  0.00    -0.203 F 
ATOM     82  F   UNL A   1      35.230  34.438  28.065  1.00  0.00    -0.200 F 
ATOM     83  C   UNL A   1      34.753  34.091  30.346  1.00  0.00     0.200 A 
ATOM     84  F   UNL A   1      34.311  33.664  32.622  1.00  0.00    -0.200 F 
ATOM     85  F   UNL A   1      33.490  34.501  30.161  1.00  0.00    -0.200 F 
ENDBRANCH  51  75
BRANCH  63  86
ATOM     86  C   UNL A   1      42.325  30.355  33.542  1.00  0.00     0.064 A 
ATOM     87  C   UNL A   1      42.546  30.677  34.890  1.00  0.00     0.173 A 
ATOM     88  C   UNL A   1      41.733  29.117  33.261  1.00  0.00     0.173 A 
ATOM     89  F   UNL A   1      43.058  31.864  35.242  1.00  0.00    -0.203 F 
ATOM     90  C   UNL A   1      42.215  29.780  35.907  1.00  0.00     0.198 A 
ATOM     91  C   UNL A   1      41.376  28.237  34.278  1.00  0.00     0.198 A 
ATOM     92  F   UNL A   1      41.481  28.767  31.990  1.00  0.00    -0.203 F 
ATOM     93  F   UNL A   1      42.455  30.098  37.189  1.00  0.00    -0.200 F 
ATOM     94  C   UNL A   1      41.625  28.564  35.600  1.00  0.00     0.200 A 
ATOM     95  F   UNL A   1      40.781  27.074  33.974  1.00  0.00    -0.200 F 
ATOM     96  F   UNL A   1      41.284  27.713  36.578  1.00  0.00    -0.200 F 
ENDBRANCH  63  86
ENDBRANCH  37  38
ENDBRANCH  30  32
ENDBRANCH  29  30
ENDBRANCH  28  29
ENDBRANCH   1  28
TORSDOF 14
ENDMDL
MODEL 3
REMARK VINA RESULT:     -12.8      1.567      2.554
REMARK SMILES CC1(C)S[C@@H]2[C@H]([NH2+]Cn3nnc4ccccc43)C(=O)N2[C@@H]1C(=O)OCCOC(=O)c1ccc(-c2c3nc(c(-c4c(F)c(F)c(F)c(F)c4F)c4ccc([nH]4)c(-c4c(F)c(F)c(F)c(F)c4F)c4nc(c(-c5c(F)c(F)c(F)c(F)c5F)c5ccc2[nH]5)C=C4)C=C3)cc1
REMARK SMILES IDX 25 1 24 2 22 3 23 4 21 5 1 6 2 7 3 8 4 9 5 10 20 11 6 12
REMARK SMILES IDX 18 13 19 14 7 15 8 18 9 19 10 20 17 21 11 22 12 23 16 24
REMARK SMILES IDX 13 25 15 26 14 27 26 28 27 29 28 30 29 31 30 32 31 33 92 34
REMARK SMILES IDX 32 35 91 36 33 37 34 38 35 39 85 40 36 41 90 42 84 43 86 44
REMARK SMILES IDX 37 45 89 46 83 47 82 48 38 50 70 51 50 52 69 53 51 54 54 55
REMARK SMILES IDX 68 56 87 57 52 58 53 59 67 61 88 62 55 63 39 64 40 65 48 66
REMARK SMILES IDX 41 67 42 68 46 69 49 70 43 71 44 72 47 73 45 74 71 75 72 76
REMARK SMILES IDX 80 77 73 78 74 79 78 80 81 81 75 82 76 83 79 84 77 85 56 86
REMARK SMILES IDX 57 87 65 88 58 89 59 90 63 91 66 92 60 93 61 94 64 95 62 96
REMARK H PARENT 7 16 7 17 86 49 54 60
REMARK Flexibility Score: inf
ROOT
ATOM      1  C   UNL A   1      37.141  21.997  24.708  1.00  0.00     0.274 C 
ENDROOT
BRANCH   1   2
ATOM      2  O   UNL A   1      35.855  21.558  25.204  1.00  0.00    -0.460 OA
BRANCH   2   3
ATOM      3  C   UNL A   1      34.914  22.508  25.455  1.00  0.00     0.330 C 
ATOM      4  O   UNL A   1      35.173  23.638  25.851  1.00  0.00    -0.250 OA
BRANCH   3   5
ATOM      5  C   UNL A   1      33.475  22.036  25.125  1.00  0.00     0.212 C 
ATOM      6  C   UNL A   1      34.037  22.984  22.753  1.00  0.00     0.026 C 
ATOM      7  C   UNL A   1      33.014  22.290  23.660  1.00  0.00     0.044 C 
ATOM      8  C   UNL A   1      32.458  20.995  23.058  1.00  0.00     0.026 C 
ATOM      9  S   UNL A   1      31.503  23.409  23.715  1.00  0.00    -0.121 SA
ATOM     10  C   UNL A   1      31.133  22.948  25.421  1.00  0.00     0.213 C 
ATOM     11  N   UNL A   1      32.452  22.633  25.932  1.00  0.00    -0.304 N 
ATOM     12  C   UNL A   1      30.994  23.842  26.698  1.00  0.00     0.307 C 
ATOM     13  C   UNL A   1      32.145  22.835  27.215  1.00  0.00     0.285 C 
ATOM     14  O   UNL A   1      32.686  22.487  28.238  1.00  0.00    -0.268 OA
BRANCH  12  15
ATOM     15  N   UNL A   1      31.438  25.272  26.724  1.00  0.00    -0.315 N 
ATOM     16  H   UNL A   1      32.252  25.366  26.115  1.00  0.00     0.348 HD
ATOM     17  H   UNL A   1      31.643  25.498  27.696  1.00  0.00     0.348 HD
BRANCH  15  18
ATOM     18  C   UNL A   1      30.427  26.216  26.279  1.00  0.00     0.415 C 
BRANCH  18  19
ATOM     19  N   UNL A   1      30.643  26.771  24.947  1.00  0.00    -0.194 N 
ATOM     20  N   UNL A   1      29.790  26.661  23.917  1.00  0.00    -0.061 NA
ATOM     21  C   UNL A   1      31.782  27.462  24.609  1.00  0.00     0.095 A 
ATOM     22  N   UNL A   1      30.387  27.206  22.861  1.00  0.00    -0.130 NA
ATOM     23  C   UNL A   1      31.608  27.695  23.257  1.00  0.00     0.113 A 
ATOM     24  C   UNL A   1      32.914  27.858  25.333  1.00  0.00     0.030 A 
ATOM     25  C   UNL A   1      32.632  28.342  22.550  1.00  0.00     0.032 A 
ATOM     26  C   UNL A   1      33.915  28.517  24.618  1.00  0.00     0.002 A 
ATOM     27  C   UNL A   1      33.783  28.747  23.247  1.00  0.00     0.002 A 
ENDBRANCH  18  19
ENDBRANCH  15  18
ENDBRANCH  12  15
ENDBRANCH   3   5
ENDBRANCH   2   3
ENDBRANCH   1   2
BRANCH   1  28
ATOM     28  C   UNL A   1      38.275  21.531  25.632  1.00  0.00     0.275 C 
BRANCH  28  29
ATOM     29  O   UNL A   1      38.747  22.671  26.366  1.00  0.00    -0.458 OA
BRANCH  29  30
ATOM     30  C   UNL A   1      40.074  22.720  26.628  1.00  0.00     0.338 C 
ATOM     31  O   UNL A   1      40.941  21.953  26.251  1.00  0.00    -0.246 OA
BRANCH  30  32
ATOM     32  C   UNL A   1      40.320  24.076  27.158  1.00  0.00     0.060 A 
ATOM     33  C   UNL A   1      41.459  24.368  27.916  1.00  0.00     0.016 A 
ATOM     34  C   UNL A   1      39.264  24.987  27.083  1.00  0.00     0.016 A 
ATOM     35  C   UNL A   1      41.488  25.524  28.695  1.00  0.00     0.010 A 
ATOM     36  C   UNL A   1      39.292  26.130  27.880  1.00  0.00     0.010 A 
ATOM     37  C   UNL A   1      40.380  26.379  28.727  1.00  0.00    -0.014 A 
BRANCH  37  38
ATOM     38  C   UNL A   1      40.504  27.687  29.378  1.00  0.00     0.031 A 
ATOM     39  C   UNL A   1      41.590  28.479  28.780  1.00  0.00     0.074 A 
ATOM     40  C   UNL A   1      39.815  28.240  30.400  1.00  0.00     0.049 A 
ATOM     41  N   UNL A   1      42.739  28.651  29.337  1.00  0.00    -0.248 NA
ATOM     42  C   UNL A   1      41.479  29.008  27.418  1.00  0.00     0.031 C 
ATOM     43  C   UNL A   1      38.672  27.695  31.113  1.00  0.00     0.029 A 
ATOM     44  N   UNL A   1      39.960  29.474  30.988  1.00  0.00    -0.354 N 
ATOM     45  C   UNL A   1      43.434  29.489  28.492  1.00  0.00     0.074 A 
ATOM     46  C   UNL A   1      42.694  29.538  27.256  1.00  0.00     0.031 C 
ATOM     47  C   UNL A   1      38.048  28.666  31.821  1.00  0.00     0.029 A 
ATOM     48  C   UNL A   1      38.895  29.844  31.802  1.00  0.00     0.049 A 
ATOM     49  H   UNL A   1      40.749  30.045  30.847  1.00  0.00     0.167 HD
ATOM     50  C   UNL A   1      44.404  30.290  28.998  1.00  0.00     0.037 A 
ATOM     51  C   UNL A   1      38.771  30.952  32.569  1.00  0.00     0.037 A 
ATOM     52  C   UNL A   1      44.767  29.920  30.344  1.00  0.00     0.049 A 
ATOM     53  C   UNL A   1      40.122  31.314  33.038  1.00  0.00     0.074 A 
ATOM     54  C   UNL A   1      45.599  29.006  30.953  1.00  0.00     0.029 A 
ATOM     55  N   UNL A   1      43.905  30.373  31.304  1.00  0.00    -0.354 N 
ATOM     56  N   UNL A   1      40.811  30.581  33.867  1.00  0.00    -0.248 NA
ATOM     57  C   UNL A   1      40.855  32.393  32.386  1.00  0.00     0.031 C 
ATOM     58  C   UNL A   1      45.154  28.874  32.305  1.00  0.00     0.029 A 
ATOM     59  C   UNL A   1      44.063  29.711  32.495  1.00  0.00     0.049 A 
ATOM     60  H   UNL A   1      43.246  31.089  31.157  1.00  0.00     0.167 HD
ATOM     61  C   UNL A   1      42.114  30.814  33.496  1.00  0.00     0.074 A 
ATOM     62  C   UNL A   1      42.097  32.057  32.739  1.00  0.00     0.031 C 
ATOM     63  C   UNL A   1      43.030  29.808  33.498  1.00  0.00     0.037 A 
BRANCH  50  64
ATOM     64  C   UNL A   1      44.698  31.660  28.466  1.00  0.00     0.064 A 
ATOM     65  C   UNL A   1      43.730  32.670  28.598  1.00  0.00     0.173 A 
ATOM     66  C   UNL A   1      45.768  31.935  27.587  1.00  0.00     0.173 A 
ATOM     67  F   UNL A   1      42.648  32.480  29.367  1.00  0.00    -0.203 F 
ATOM     68  C   UNL A   1      43.819  33.865  27.880  1.00  0.00     0.198 A 
ATOM     69  C   UNL A   1      45.885  33.151  26.921  1.00  0.00     0.198 A 
ATOM     70  F   UNL A   1      46.667  31.000  27.252  1.00  0.00    -0.203 F 
ATOM     71  F   UNL A   1      42.825  34.760  27.955  1.00  0.00    -0.200 F 
ATOM     72  C   UNL A   1      44.900  34.108  27.050  1.00  0.00     0.200 A 
ATOM     73  F   UNL A   1      46.921  33.353  26.095  1.00  0.00    -0.200 F 
ATOM     74  F   UNL A   1      44.968  35.238  26.336  1.00  0.00    -0.200 F 
ENDBRANCH  50  64
BRANCH  51  75
ATOM     75  C   UNL A   1      37.602  31.831  32.804  1.00  0.00     0.064 A 
ATOM     76  C   UNL A   1      37.228  32.196  34.109  1.00  0.00     0.173 A 
ATOM     77  C   UNL A   1      37.051  32.590  31.755  1.00  0.00     0.173 A 
ATOM     78  F   UNL A   1      37.725  31.535  35.164  1.00  0.00    -0.203 F 
ATOM     79  C   UNL A   1      36.409  33.300  34.357  1.00  0.00     0.198 A 
ATOM     80  C   UNL A   1      36.229  33.693  32.006  1.00  0.00     0.198 A 
ATOM     81  F   UNL A   1      37.387  32.337  30.482  1.00  0.00    -0.203 F 
ATOM     82  F   UNL A   1      36.147  33.668  35.619  1.00  0.00    -0.200 F 
ATOM     83  C   UNL A   1      35.927  34.061  33.306  1.00  0.00     0.200 A 
ATOM     84  F   UNL A   1      35.793  34.443  30.984  1.00  0.00    -0.200 F 
ATOM     85  F   UNL A   1      35.211  35.169  33.546  1.00  0.00    -0.200 F 
ENDBRANCH  51  75
BRANCH  63  86
ATOM     86  C   UNL A   1      42.828  28.691  34.471  1.00  0.00     0.064 A 
ATOM     87  C   UNL A   1      41.967  27.602  34.269  1.00  0.00     0.173 A 
ATOM     88  C   UNL A   1      43.571  28.719  35.659  1.00  0.00     0.173 A 
ATOM     89  F   UNL A   1      41.266  27.477  33.134  1.00  0.00    -0.203 F 
ATOM     90  C   UNL A   1      41.835  26.601  35.232  1.00  0.00     0.198 A 
ATOM     91  C   UNL A   1      43.460  27.704  36.605  1.00  0.00     0.198 A 
ATOM     92  F   UNL A   1      44.424  29.728  35.894  1.00  0.00    -0.203 F 
ATOM     93  F   UNL A   1      40.991  25.579  35.030  1.00  0.00    -0.200 F 
ATOM     94  C   UNL A   1      42.587  26.651  36.396  1.00  0.00     0.200 A 
ATOM     95  F   UNL A   1      44.211  27.746  37.715  1.00  0.00    -0.200 F 
ATOM     96  F   UNL A   1      42.480  25.677  37.311  1.00  0.00    -0.200 F 
ENDBRANCH  63  86
ENDBRANCH  37  38
ENDBRANCH  30  32
ENDBRANCH  29  30
ENDBRANCH  28  29
ENDBRANCH   1  28
TORSDOF 14
ENDMDL
