MODEL 1
REMARK VINA RESULT:     -11.4      0.000      0.000
REMARK SMILES C[NH2+][C@]1(C(=O)OCCOC(=O)c2ccc(-c3c4nc(c(-c5c(F)c(F)c(F)c(F)c5F)c5ccc([nH]5)c(-c5c(F)c(F)c(F)c(F)c5F)c5nc(c(-c6c(F)c(F)c(F)c(F)c6F)c6ccc3[nH]6)C=C5)C=C4)cc2)CCC[C@@H](Sc2nccn2C)C1
REMARK SMILES IDX 7 1 6 2 4 3 5 4 3 5 75 6 86 7 76 8 78 9 77 10 2 11 1 12
REMARK SMILES IDX 79 15 80 16 81 17 84 18 82 19 83 20 85 21 8 22 9 23 10 24
REMARK SMILES IDX 11 25 12 26 13 27 74 28 14 29 73 30 15 31 16 32 17 33 67 34
REMARK SMILES IDX 18 35 72 36 66 37 68 38 19 39 71 40 65 41 64 42 20 44 52 45
REMARK SMILES IDX 32 46 51 47 33 48 36 49 50 50 69 51 34 52 35 53 49 55 70 56
REMARK SMILES IDX 37 57 21 58 22 59 30 60 23 61 24 62 28 63 31 64 25 65 26 66
REMARK SMILES IDX 29 67 27 68 53 69 54 70 62 71 55 72 56 73 60 74 63 75 57 76
REMARK SMILES IDX 58 77 61 78 59 79 38 80 39 81 47 82 40 83 41 84 45 85 48 86
REMARK SMILES IDX 42 87 43 88 46 89 44 90
REMARK H PARENT 2 13 2 14 68 43 36 54
REMARK Flexibility Score: inf
ROOT
ATOM      1  C   UNL A   1      31.779  28.738  26.690  1.00  0.00     0.274 C 
ENDROOT
BRANCH   1   2
ATOM      2  O   UNL A   1      31.391  28.050  25.484  1.00  0.00    -0.457 OA
BRANCH   2   3
ATOM      3  C   UNL A   1      31.131  26.716  25.599  1.00  0.00     0.368 C 
ATOM      4  O   UNL A   1      30.923  26.145  26.666  1.00  0.00    -0.245 OA
BRANCH   3   5
ATOM      5  C   UNL A   1      31.166  25.977  24.217  1.00  0.00     0.195 C 
ATOM      6  C   UNL A   1      31.442  26.955  23.046  1.00  0.00     0.081 C 
ATOM      7  C   UNL A   1      32.355  24.993  24.336  1.00  0.00     0.096 C 
ATOM      8  C   UNL A   1      31.695  26.220  21.729  1.00  0.00     0.008 C 
ATOM      9  C   UNL A   1      32.760  24.320  23.021  1.00  0.00     0.061 C 
ATOM     10  C   UNL A   1      32.910  25.304  21.855  1.00  0.00     0.015 C 
BRANCH   5  11
ATOM     11  N   UNL A   1      29.813  25.407  23.993  1.00  0.00    -0.335 N 
ATOM     12  C   UNL A   1      28.652  26.265  23.968  1.00  0.00     0.331 C 
ATOM     13  H   UNL A   1      29.843  24.929  23.092  1.00  0.00     0.347 HD
ATOM     14  H   UNL A   1      29.661  24.838  24.827  1.00  0.00     0.347 HD
ENDBRANCH   5  11
BRANCH   9  15
ATOM     15  S   UNL A   1      34.240  23.258  23.226  1.00  0.00    -0.084 SA
BRANCH  15  16
ATOM     16  C   UNL A   1      33.586  21.863  24.013  1.00  0.00     0.167 A 
ATOM     17  N   UNL A   1      32.331  21.483  23.950  1.00  0.00    -0.231 NA
ATOM     18  N   UNL A   1      34.324  21.028  24.806  1.00  0.00    -0.329 N 
ATOM     19  C   UNL A   1      32.248  20.362  24.731  1.00  0.00     0.132 A 
ATOM     20  C   UNL A   1      33.471  20.062  25.280  1.00  0.00     0.108 A 
ATOM     21  C   UNL A   1      35.724  21.106  25.143  1.00  0.00     0.152 C 
ENDBRANCH  15  16
ENDBRANCH   9  15
ENDBRANCH   3   5
ENDBRANCH   2   3
ENDBRANCH   1   2
BRANCH   1  22
ATOM     22  C   UNL A   1      31.787  30.246  26.458  1.00  0.00     0.275 C 
BRANCH  22  23
ATOM     23  O   UNL A   1      33.146  30.697  26.328  1.00  0.00    -0.458 OA
BRANCH  23  24
ATOM     24  C   UNL A   1      33.538  31.654  27.197  1.00  0.00     0.338 C 
ATOM     25  O   UNL A   1      32.946  32.674  27.507  1.00  0.00    -0.246 OA
BRANCH  24  26
ATOM     26  C   UNL A   1      34.842  31.284  27.770  1.00  0.00     0.060 A 
ATOM     27  C   UNL A   1      35.065  29.972  28.177  1.00  0.00     0.016 A 
ATOM     28  C   UNL A   1      35.800  32.265  28.014  1.00  0.00     0.016 A 
ATOM     29  C   UNL A   1      36.204  29.648  28.909  1.00  0.00     0.010 A 
ATOM     30  C   UNL A   1      36.988  31.919  28.666  1.00  0.00     0.010 A 
ATOM     31  C   UNL A   1      37.186  30.614  29.154  1.00  0.00    -0.014 A 
BRANCH  31  32
ATOM     32  C   UNL A   1      38.391  30.279  29.962  1.00  0.00     0.031 A 
ATOM     33  C   UNL A   1      39.466  29.404  29.375  1.00  0.00     0.074 A 
ATOM     34  C   UNL A   1      38.540  30.765  31.209  1.00  0.00     0.049 A 
ATOM     35  N   UNL A   1      40.482  28.828  29.966  1.00  0.00    -0.248 NA
ATOM     36  C   UNL A   1      39.378  29.129  27.932  1.00  0.00     0.031 C 
ATOM     37  C   UNL A   1      37.612  31.671  31.884  1.00  0.00     0.029 A 
ATOM     38  N   UNL A   1      39.538  30.565  32.132  1.00  0.00    -0.354 N 
ATOM     39  C   UNL A   1      41.112  28.074  28.986  1.00  0.00     0.074 A 
ATOM     40  C   UNL A   1      40.373  28.272  27.757  1.00  0.00     0.031 C 
ATOM     41  C   UNL A   1      38.098  31.977  33.097  1.00  0.00     0.029 A 
ATOM     42  C   UNL A   1      39.327  31.222  33.319  1.00  0.00     0.049 A 
ATOM     43  H   UNL A   1      40.328  30.004  31.959  1.00  0.00     0.167 HD
ATOM     44  C   UNL A   1      42.204  27.282  29.104  1.00  0.00     0.037 A 
ATOM     45  C   UNL A   1      40.021  31.190  34.472  1.00  0.00     0.037 A 
ATOM     46  C   UNL A   1      42.976  27.135  30.311  1.00  0.00     0.049 A 
ATOM     47  C   UNL A   1      41.226  30.299  34.583  1.00  0.00     0.074 A 
ATOM     48  C   UNL A   1      44.098  26.355  30.531  1.00  0.00     0.029 A 
ATOM     49  N   UNL A   1      42.716  27.807  31.496  1.00  0.00    -0.354 N 
ATOM     50  N   UNL A   1      41.762  29.521  33.677  1.00  0.00    -0.248 NA
ATOM     51  C   UNL A   1      41.905  30.265  35.885  1.00  0.00     0.031 C 
ATOM     52  C   UNL A   1      44.506  26.540  31.858  1.00  0.00     0.029 A 
ATOM     53  C   UNL A   1      43.656  27.459  32.452  1.00  0.00     0.049 A 
ATOM     54  H   UNL A   1      41.973  28.438  31.636  1.00  0.00     0.167 HD
ATOM     55  C   UNL A   1      42.839  28.902  34.296  1.00  0.00     0.074 A 
ATOM     56  C   UNL A   1      42.896  29.416  35.648  1.00  0.00     0.031 C 
ATOM     57  C   UNL A   1      43.695  27.981  33.793  1.00  0.00     0.037 A 
BRANCH  44  58
ATOM     58  C   UNL A   1      42.611  26.480  27.904  1.00  0.00     0.064 A 
ATOM     59  C   UNL A   1      42.109  25.194  27.667  1.00  0.00     0.173 A 
ATOM     60  C   UNL A   1      43.497  27.027  26.963  1.00  0.00     0.173 A 
ATOM     61  F   UNL A   1      41.273  24.623  28.546  1.00  0.00    -0.203 F 
ATOM     62  C   UNL A   1      42.495  24.474  26.539  1.00  0.00     0.198 A 
ATOM     63  C   UNL A   1      43.863  26.314  25.824  1.00  0.00     0.198 A 
ATOM     64  F   UNL A   1      44.003  28.256  27.143  1.00  0.00    -0.203 F 
ATOM     65  F   UNL A   1      42.033  23.231  26.350  1.00  0.00    -0.200 F 
ATOM     66  C   UNL A   1      43.366  25.035  25.616  1.00  0.00     0.200 A 
ATOM     67  F   UNL A   1      44.698  26.861  24.931  1.00  0.00    -0.200 F 
ATOM     68  F   UNL A   1      43.731  24.343  24.529  1.00  0.00    -0.200 F 
ENDBRANCH  44  58
BRANCH  45  69
ATOM     69  C   UNL A   1      39.560  31.998  35.629  1.00  0.00     0.064 A 
ATOM     70  C   UNL A   1      40.079  33.277  35.866  1.00  0.00     0.173 A 
ATOM     71  C   UNL A   1      38.582  31.514  36.512  1.00  0.00     0.173 A 
ATOM     72  F   UNL A   1      41.036  33.770  35.066  1.00  0.00    -0.203 F 
ATOM     73  C   UNL A   1      39.640  34.042  36.945  1.00  0.00     0.198 A 
ATOM     74  C   UNL A   1      38.125  32.290  37.574  1.00  0.00     0.198 A 
ATOM     75  F   UNL A   1      38.059  30.293  36.330  1.00  0.00    -0.203 F 
ATOM     76  F   UNL A   1      40.176  35.249  37.170  1.00  0.00    -0.200 F 
ATOM     77  C   UNL A   1      38.657  33.551  37.793  1.00  0.00     0.200 A 
ATOM     78  F   UNL A   1      37.169  31.816  38.385  1.00  0.00    -0.200 F 
ATOM     79  F   UNL A   1      38.228  34.291  38.824  1.00  0.00    -0.200 F 
ENDBRANCH  45  69
BRANCH  57  80
ATOM     80  C   UNL A   1      44.773  27.484  34.706  1.00  0.00     0.064 A 
ATOM     81  C   UNL A   1      46.003  28.149  34.808  1.00  0.00     0.173 A 
ATOM     82  C   UNL A   1      44.562  26.353  35.507  1.00  0.00     0.173 A 
ATOM     83  F   UNL A   1      46.253  29.225  34.048  1.00  0.00    -0.203 F 
ATOM     84  C   UNL A   1      46.993  27.687  35.670  1.00  0.00     0.198 A 
ATOM     85  C   UNL A   1      45.547  25.906  36.382  1.00  0.00     0.198 A 
ATOM     86  F   UNL A   1      43.399  25.687  35.445  1.00  0.00    -0.203 F 
ATOM     87  F   UNL A   1      48.175  28.315  35.728  1.00  0.00    -0.200 F 
ATOM     88  C   UNL A   1      46.763  26.570  36.460  1.00  0.00     0.200 A 
ATOM     89  F   UNL A   1      45.322  24.830  37.149  1.00  0.00    -0.200 F 
ATOM     90  F   UNL A   1      47.717  26.127  37.290  1.00  0.00    -0.200 F 
ENDBRANCH  57  80
ENDBRANCH  31  32
ENDBRANCH  24  26
ENDBRANCH  23  24
ENDBRANCH  22  23
ENDBRANCH   1  22
TORSDOF 14
ENDMDL
MODEL 2
REMARK VINA RESULT:     -11.3      4.443      9.715
REMARK SMILES C[NH2+][C@]1(C(=O)OCCOC(=O)c2ccc(-c3c4nc(c(-c5c(F)c(F)c(F)c(F)c5F)c5ccc([nH]5)c(-c5c(F)c(F)c(F)c(F)c5F)c5nc(c(-c6c(F)c(F)c(F)c(F)c6F)c6ccc3[nH]6)C=C5)C=C4)cc2)CCC[C@@H](Sc2nccn2C)C1
REMARK SMILES IDX 7 1 6 2 4 3 5 4 3 5 75 6 86 7 76 8 78 9 77 10 2 11 1 12
REMARK SMILES IDX 79 15 80 16 81 17 84 18 82 19 83 20 85 21 8 22 9 23 10 24
REMARK SMILES IDX 11 25 12 26 13 27 74 28 14 29 73 30 15 31 16 32 17 33 67 34
REMARK SMILES IDX 18 35 72 36 66 37 68 38 19 39 71 40 65 41 64 42 20 44 52 45
REMARK SMILES IDX 32 46 51 47 33 48 36 49 50 50 69 51 34 52 35 53 49 55 70 56
REMARK SMILES IDX 37 57 21 58 22 59 30 60 23 61 24 62 28 63 31 64 25 65 26 66
REMARK SMILES IDX 29 67 27 68 53 69 54 70 62 71 55 72 56 73 60 74 63 75 57 76
REMARK SMILES IDX 58 77 61 78 59 79 38 80 39 81 47 82 40 83 41 84 45 85 48 86
REMARK SMILES IDX 42 87 43 88 46 89 44 90
REMARK H PARENT 2 13 2 14 68 43 36 54
REMARK Flexibility Score: inf
ROOT
ATOM      1  C   UNL A   1      36.691  22.722  23.564  1.00  0.00     0.274 C 
ENDROOT
BRANCH   1   2
ATOM      2  O   UNL A   1      35.820  23.681  24.196  1.00  0.00    -0.457 OA
BRANCH   2   3
ATOM      3  C   UNL A   1      34.606  23.885  23.608  1.00  0.00     0.368 C 
ATOM      4  O   UNL A   1      34.457  24.399  22.502  1.00  0.00    -0.245 OA
BRANCH   3   5
ATOM      5  C   UNL A   1      33.415  23.430  24.517  1.00  0.00     0.195 C 
ATOM      6  C   UNL A   1      33.818  23.372  26.013  1.00  0.00     0.081 C 
ATOM      7  C   UNL A   1      32.343  24.532  24.331  1.00  0.00     0.096 C 
ATOM      8  C   UNL A   1      32.613  23.143  26.926  1.00  0.00     0.008 C 
ATOM      9  C   UNL A   1      31.167  24.450  25.309  1.00  0.00     0.061 C 
ATOM     10  C   UNL A   1      31.602  24.276  26.769  1.00  0.00     0.015 C 
BRANCH   5  11
ATOM     11  N   UNL A   1      33.063  22.044  24.112  1.00  0.00    -0.335 N 
ATOM     12  C   UNL A   1      32.236  21.808  22.952  1.00  0.00     0.331 C 
ATOM     13  H   UNL A   1      33.944  21.556  23.948  1.00  0.00     0.347 HD
ATOM     14  H   UNL A   1      32.478  21.720  24.882  1.00  0.00     0.347 HD
ENDBRANCH   5  11
BRANCH   9  15
ATOM     15  S   UNL A   1      30.004  25.850  25.094  1.00  0.00    -0.084 SA
BRANCH  15  16
ATOM     16  C   UNL A   1      31.076  27.198  24.937  1.00  0.00     0.167 A 
ATOM     17  N   UNL A   1      31.771  27.726  25.918  1.00  0.00    -0.231 NA
ATOM     18  N   UNL A   1      31.285  27.863  23.760  1.00  0.00    -0.329 N 
ATOM     19  C   UNL A   1      32.455  28.773  25.361  1.00  0.00     0.132 A 
ATOM     20  C   UNL A   1      32.164  28.884  24.023  1.00  0.00     0.108 A 
ATOM     21  C   UNL A   1      30.704  27.611  22.465  1.00  0.00     0.152 C 
ENDBRANCH  15  16
ENDBRANCH   9  15
ENDBRANCH   3   5
ENDBRANCH   2   3
ENDBRANCH   1   2
BRANCH   1  22
ATOM     22  C   UNL A   1      36.852  21.490  24.448  1.00  0.00     0.275 C 
BRANCH  22  23
ATOM     23  O   UNL A   1      37.330  21.896  25.742  1.00  0.00    -0.458 OA
BRANCH  23  24
ATOM     24  C   UNL A   1      38.625  21.618  26.010  1.00  0.00     0.338 C 
ATOM     25  O   UNL A   1      39.224  20.575  25.814  1.00  0.00    -0.246 OA
BRANCH  24  26
ATOM     26  C   UNL A   1      39.265  22.810  26.591  1.00  0.00     0.060 A 
ATOM     27  C   UNL A   1      38.839  24.076  26.203  1.00  0.00     0.016 A 
ATOM     28  C   UNL A   1      40.369  22.668  27.428  1.00  0.00     0.016 A 
ATOM     29  C   UNL A   1      39.564  25.205  26.573  1.00  0.00     0.010 A 
ATOM     30  C   UNL A   1      41.041  23.810  27.878  1.00  0.00     0.010 A 
ATOM     31  C   UNL A   1      40.668  25.088  27.425  1.00  0.00    -0.014 A 
BRANCH  31  32
ATOM     32  C   UNL A   1      41.464  26.290  27.799  1.00  0.00     0.031 A 
ATOM     33  C   UNL A   1      40.850  27.352  28.672  1.00  0.00     0.074 A 
ATOM     34  C   UNL A   1      42.736  26.432  27.379  1.00  0.00     0.049 A 
ATOM     35  N   UNL A   1      41.285  28.556  28.945  1.00  0.00    -0.248 NA
ATOM     36  C   UNL A   1      39.569  27.018  29.315  1.00  0.00     0.031 C 
ATOM     37  C   UNL A   1      43.479  25.459  26.580  1.00  0.00     0.029 A 
ATOM     38  N   UNL A   1      43.632  27.455  27.573  1.00  0.00    -0.354 N 
ATOM     39  C   UNL A   1      40.304  29.143  29.732  1.00  0.00     0.074 A 
ATOM     40  C   UNL A   1      39.255  28.162  29.905  1.00  0.00     0.031 C 
ATOM     41  C   UNL A   1      44.727  25.913  26.381  1.00  0.00     0.029 A 
ATOM     42  C   UNL A   1      44.845  27.245  26.965  1.00  0.00     0.049 A 
ATOM     43  H   UNL A   1      43.424  28.261  28.099  1.00  0.00     0.167 HD
ATOM     44  C   UNL A   1      40.280  30.392  30.255  1.00  0.00     0.037 A 
ATOM     45  C   UNL A   1      45.917  28.049  26.851  1.00  0.00     0.037 A 
ATOM     46  C   UNL A   1      41.352  31.346  30.135  1.00  0.00     0.049 A 
ATOM     47  C   UNL A   1      45.866  29.433  27.434  1.00  0.00     0.074 A 
ATOM     48  C   UNL A   1      41.420  32.637  30.629  1.00  0.00     0.029 A 
ATOM     49  N   UNL A   1      42.556  31.097  29.494  1.00  0.00    -0.354 N 
ATOM     50  N   UNL A   1      44.898  30.013  28.100  1.00  0.00    -0.248 NA
ATOM     51  C   UNL A   1      47.046  30.283  27.227  1.00  0.00     0.031 C 
ATOM     52  C   UNL A   1      42.661  33.177  30.269  1.00  0.00     0.029 A 
ATOM     53  C   UNL A   1      43.375  32.211  29.579  1.00  0.00     0.049 A 
ATOM     54  H   UNL A   1      42.793  30.253  29.046  1.00  0.00     0.167 HD
ATOM     55  C   UNL A   1      45.348  31.292  28.390  1.00  0.00     0.074 A 
ATOM     56  C   UNL A   1      46.688  31.397  27.849  1.00  0.00     0.031 C 
ATOM     57  C   UNL A   1      44.705  32.295  29.034  1.00  0.00     0.037 A 
BRANCH  44  58
ATOM     58  C   UNL A   1      39.035  30.816  30.976  1.00  0.00     0.064 A 
ATOM     59  C   UNL A   1      37.946  31.385  30.304  1.00  0.00     0.173 A 
ATOM     60  C   UNL A   1      38.925  30.619  32.361  1.00  0.00     0.173 A 
ATOM     61  F   UNL A   1      38.010  31.608  28.982  1.00  0.00    -0.203 F 
ATOM     62  C   UNL A   1      36.797  31.761  30.995  1.00  0.00     0.198 A 
ATOM     63  C   UNL A   1      37.767  30.974  33.046  1.00  0.00     0.198 A 
ATOM     64  F   UNL A   1      39.939  30.075  33.050  1.00  0.00    -0.203 F 
ATOM     65  F   UNL A   1      35.781  32.338  30.339  1.00  0.00    -0.200 F 
ATOM     66  C   UNL A   1      36.705  31.550  32.363  1.00  0.00     0.200 A 
ATOM     67  F   UNL A   1      37.677  30.763  34.366  1.00  0.00    -0.200 F 
ATOM     68  F   UNL A   1      35.597  31.907  33.026  1.00  0.00    -0.200 F 
ENDBRANCH  44  58
BRANCH  45  69
ATOM     69  C   UNL A   1      47.116  27.576  26.114  1.00  0.00     0.064 A 
ATOM     70  C   UNL A   1      47.199  27.699  24.721  1.00  0.00     0.173 A 
ATOM     71  C   UNL A   1      48.208  27.007  26.788  1.00  0.00     0.173 A 
ATOM     72  F   UNL A   1      46.169  28.211  24.032  1.00  0.00    -0.203 F 
ATOM     73  C   UNL A   1      48.329  27.267  24.028  1.00  0.00     0.198 A 
ATOM     74  C   UNL A   1      49.346  26.600  26.097  1.00  0.00     0.198 A 
ATOM     75  F   UNL A   1      48.173  26.864  28.121  1.00  0.00    -0.203 F 
ATOM     76  F   UNL A   1      48.371  27.364  22.693  1.00  0.00    -0.200 F 
ATOM     77  C   UNL A   1      49.405  26.726  24.718  1.00  0.00     0.200 A 
ATOM     78  F   UNL A   1      50.386  26.087  26.768  1.00  0.00    -0.200 F 
ATOM     79  F   UNL A   1      50.494  26.320  24.052  1.00  0.00    -0.200 F 
ENDBRANCH  45  69
BRANCH  57  80
ATOM     80  C   UNL A   1      45.448  33.584  29.201  1.00  0.00     0.064 A 
ATOM     81  C   UNL A   1      45.339  34.614  28.256  1.00  0.00     0.173 A 
ATOM     82  C   UNL A   1      46.250  33.803  30.330  1.00  0.00     0.173 A 
ATOM     83  F   UNL A   1      44.596  34.441  27.153  1.00  0.00    -0.203 F 
ATOM     84  C   UNL A   1      46.024  35.814  28.428  1.00  0.00     0.198 A 
ATOM     85  C   UNL A   1      46.917  35.011  30.507  1.00  0.00     0.198 A 
ATOM     86  F   UNL A   1      46.382  32.847  31.262  1.00  0.00    -0.203 F 
ATOM     87  F   UNL A   1      45.935  36.772  27.495  1.00  0.00    -0.200 F 
ATOM     88  C   UNL A   1      46.807  36.014  29.555  1.00  0.00     0.200 A 
ATOM     89  F   UNL A   1      47.670  35.206  31.599  1.00  0.00    -0.200 F 
ATOM     90  F   UNL A   1      47.465  37.170  29.719  1.00  0.00    -0.200 F 
ENDBRANCH  57  80
ENDBRANCH  31  32
ENDBRANCH  24  26
ENDBRANCH  23  24
ENDBRANCH  22  23
ENDBRANCH   1  22
TORSDOF 14
ENDMDL
MODEL 3
REMARK VINA RESULT:     -11.3      0.814      1.542
REMARK SMILES C[NH2+][C@]1(C(=O)OCCOC(=O)c2ccc(-c3c4nc(c(-c5c(F)c(F)c(F)c(F)c5F)c5ccc([nH]5)c(-c5c(F)c(F)c(F)c(F)c5F)c5nc(c(-c6c(F)c(F)c(F)c(F)c6F)c6ccc3[nH]6)C=C5)C=C4)cc2)CCC[C@@H](Sc2nccn2C)C1
REMARK SMILES IDX 7 1 6 2 4 3 5 4 3 5 75 6 86 7 76 8 78 9 77 10 2 11 1 12
REMARK SMILES IDX 79 15 80 16 81 17 84 18 82 19 83 20 85 21 8 22 9 23 10 24
REMARK SMILES IDX 11 25 12 26 13 27 74 28 14 29 73 30 15 31 16 32 17 33 67 34
REMARK SMILES IDX 18 35 72 36 66 37 68 38 19 39 71 40 65 41 64 42 20 44 52 45
REMARK SMILES IDX 32 46 51 47 33 48 36 49 50 50 69 51 34 52 35 53 49 55 70 56
REMARK SMILES IDX 37 57 21 58 22 59 30 60 23 61 24 62 28 63 31 64 25 65 26 66
REMARK SMILES IDX 29 67 27 68 53 69 54 70 62 71 55 72 56 73 60 74 63 75 57 76
REMARK SMILES IDX 58 77 61 78 59 79 38 80 39 81 47 82 40 83 41 84 45 85 48 86
REMARK SMILES IDX 42 87 43 88 46 89 44 90
REMARK H PARENT 2 13 2 14 68 43 36 54
REMARK Flexibility Score: inf
ROOT
ATOM      1  C   UNL A   1      31.779  28.752  27.592  1.00  0.00     0.274 C 
ENDROOT
BRANCH   1   2
ATOM      2  O   UNL A   1      31.345  27.423  27.240  1.00  0.00    -0.457 OA
BRANCH   2   3
ATOM      3  C   UNL A   1      32.209  26.675  26.495  1.00  0.00     0.368 C 
ATOM      4  O   UNL A   1      33.428  26.822  26.503  1.00  0.00    -0.245 OA
BRANCH   3   5
ATOM      5  C   UNL A   1      31.471  25.630  25.590  1.00  0.00     0.195 C 
ATOM      6  C   UNL A   1      30.511  26.313  24.582  1.00  0.00     0.081 C 
ATOM      7  C   UNL A   1      32.606  24.931  24.803  1.00  0.00     0.096 C 
ATOM      8  C   UNL A   1      29.956  25.325  23.555  1.00  0.00     0.008 C 
ATOM      9  C   UNL A   1      32.129  24.029  23.661  1.00  0.00     0.061 C 
ATOM     10  C   UNL A   1      31.092  24.698  22.751  1.00  0.00     0.015 C 
BRANCH   5  11
ATOM     11  N   UNL A   1      30.631  24.794  26.487  1.00  0.00    -0.335 N 
ATOM     12  C   UNL A   1      31.067  23.475  26.878  1.00  0.00     0.331 C 
ATOM     13  H   UNL A   1      30.503  25.328  27.347  1.00  0.00     0.347 HD
ATOM     14  H   UNL A   1      29.805  24.605  25.918  1.00  0.00     0.347 HD
ENDBRANCH   5  11
BRANCH   9  15
ATOM     15  S   UNL A   1      33.533  23.329  22.713  1.00  0.00    -0.084 SA
BRANCH  15  16
ATOM     16  C   UNL A   1      34.240  22.238  23.855  1.00  0.00     0.167 A 
ATOM     17  N   UNL A   1      33.570  21.387  24.597  1.00  0.00    -0.231 NA
ATOM     18  N   UNL A   1      35.582  22.178  24.110  1.00  0.00    -0.329 N 
ATOM     19  C   UNL A   1      34.509  20.752  25.364  1.00  0.00     0.132 A 
ATOM     20  C   UNL A   1      35.766  21.230  25.086  1.00  0.00     0.108 A 
ATOM     21  C   UNL A   1      36.648  22.952  23.524  1.00  0.00     0.152 C 
ENDBRANCH  15  16
ENDBRANCH   9  15
ENDBRANCH   3   5
ENDBRANCH   2   3
ENDBRANCH   1   2
BRANCH   1  22
ATOM     22  C   UNL A   1      31.776  29.652  26.360  1.00  0.00     0.275 C 
BRANCH  22  23
ATOM     23  O   UNL A   1      33.089  30.208  26.178  1.00  0.00    -0.458 OA
BRANCH  23  24
ATOM     24  C   UNL A   1      33.431  31.208  27.021  1.00  0.00     0.338 C 
ATOM     25  O   UNL A   1      32.785  32.201  27.307  1.00  0.00    -0.246 OA
BRANCH  24  26
ATOM     26  C   UNL A   1      34.755  30.924  27.597  1.00  0.00     0.060 A 
ATOM     27  C   UNL A   1      35.126  29.607  27.847  1.00  0.00     0.016 A 
ATOM     28  C   UNL A   1      35.577  31.973  28.002  1.00  0.00     0.016 A 
ATOM     29  C   UNL A   1      36.276  29.329  28.581  1.00  0.00     0.010 A 
ATOM     30  C   UNL A   1      36.781  31.688  28.655  1.00  0.00     0.010 A 
ATOM     31  C   UNL A   1      37.125  30.365  28.985  1.00  0.00    -0.014 A 
BRANCH  31  32
ATOM     32  C   UNL A   1      38.340  30.074  29.795  1.00  0.00     0.031 A 
ATOM     33  C   UNL A   1      39.436  29.219  29.220  1.00  0.00     0.074 A 
ATOM     34  C   UNL A   1      38.478  30.581  31.036  1.00  0.00     0.049 A 
ATOM     35  N   UNL A   1      40.469  28.679  29.817  1.00  0.00    -0.248 NA
ATOM     36  C   UNL A   1      39.354  28.921  27.781  1.00  0.00     0.031 C 
ATOM     37  C   UNL A   1      37.527  31.472  31.700  1.00  0.00     0.029 A 
ATOM     38  N   UNL A   1      39.482  30.421  31.960  1.00  0.00    -0.354 N 
ATOM     39  C   UNL A   1      41.117  27.928  28.846  1.00  0.00     0.074 A 
ATOM     40  C   UNL A   1      40.371  28.089  27.616  1.00  0.00     0.031 C 
ATOM     41  C   UNL A   1      38.007  31.808  32.907  1.00  0.00     0.029 A 
ATOM     42  C   UNL A   1      39.256  31.090  33.137  1.00  0.00     0.049 A 
ATOM     43  H   UNL A   1      40.287  29.879  31.793  1.00  0.00     0.167 HD
ATOM     44  C   UNL A   1      42.231  27.167  28.973  1.00  0.00     0.037 A 
ATOM     45  C   UNL A   1      39.952  31.093  34.289  1.00  0.00     0.037 A 
ATOM     46  C   UNL A   1      43.007  27.059  30.181  1.00  0.00     0.049 A 
ATOM     47  C   UNL A   1      41.180  30.236  34.410  1.00  0.00     0.074 A 
ATOM     48  C   UNL A   1      44.150  26.312  30.409  1.00  0.00     0.029 A 
ATOM     49  N   UNL A   1      42.732  27.740  31.356  1.00  0.00    -0.354 N 
ATOM     50  N   UNL A   1      41.736  29.459  33.514  1.00  0.00    -0.248 NA
ATOM     51  C   UNL A   1      41.863  30.239  35.711  1.00  0.00     0.031 C 
ATOM     52  C   UNL A   1      44.556  26.527  31.733  1.00  0.00     0.029 A 
ATOM     53  C   UNL A   1      43.682  27.432  32.315  1.00  0.00     0.049 A 
ATOM     54  H   UNL A   1      41.973  28.353  31.489  1.00  0.00     0.167 HD
ATOM     55  C   UNL A   1      42.830  28.879  34.140  1.00  0.00     0.074 A 
ATOM     56  C   UNL A   1      42.875  29.413  35.485  1.00  0.00     0.031 C 
ATOM     57  C   UNL A   1      43.710  27.974  33.648  1.00  0.00     0.037 A 
BRANCH  44  58
ATOM     58  C   UNL A   1      42.657  26.360  27.784  1.00  0.00     0.064 A 
ATOM     59  C   UNL A   1      43.636  26.814  26.891  1.00  0.00     0.173 A 
ATOM     60  C   UNL A   1      42.091  25.095  27.556  1.00  0.00     0.173 A 
ATOM     61  F   UNL A   1      44.193  28.023  27.059  1.00  0.00    -0.203 F 
ATOM     62  C   UNL A   1      44.022  26.040  25.800  1.00  0.00     0.198 A 
ATOM     63  C   UNL A   1      42.496  24.314  26.477  1.00  0.00     0.198 A 
ATOM     64  F   UNL A   1      41.152  24.614  28.383  1.00  0.00    -0.203 F 
ATOM     65  F   UNL A   1      44.933  26.509  24.937  1.00  0.00    -0.200 F 
ATOM     66  C   UNL A   1      43.457  24.789  25.597  1.00  0.00     0.200 A 
ATOM     67  F   UNL A   1      41.955  23.103  26.287  1.00  0.00    -0.200 F 
ATOM     68  F   UNL A   1      43.834  24.043  24.549  1.00  0.00    -0.200 F 
ENDBRANCH  44  58
BRANCH  45  69
ATOM     69  C   UNL A   1      39.471  31.905  35.436  1.00  0.00     0.064 A 
ATOM     70  C   UNL A   1      39.887  33.232  35.602  1.00  0.00     0.173 A 
ATOM     71  C   UNL A   1      38.577  31.375  36.379  1.00  0.00     0.173 A 
ATOM     72  F   UNL A   1      40.763  33.771  34.742  1.00  0.00    -0.203 F 
ATOM     73  C   UNL A   1      39.429  34.000  36.671  1.00  0.00     0.198 A 
ATOM     74  C   UNL A   1      38.099  32.152  37.431  1.00  0.00     0.198 A 
ATOM     75  F   UNL A   1      38.154  30.108  36.265  1.00  0.00    -0.203 F 
ATOM     76  F   UNL A   1      39.867  35.256  36.827  1.00  0.00    -0.200 F 
ATOM     77  C   UNL A   1      38.528  33.462  37.579  1.00  0.00     0.200 A 
ATOM     78  F   UNL A   1      37.222  31.631  38.300  1.00  0.00    -0.200 F 
ATOM     79  F   UNL A   1      38.080  34.203  38.601  1.00  0.00    -0.200 F 
ENDBRANCH  45  69
BRANCH  57  80
ATOM     80  C   UNL A   1      44.802  27.519  34.566  1.00  0.00     0.064 A 
ATOM     81  C   UNL A   1      46.010  28.223  34.663  1.00  0.00     0.173 A 
ATOM     82  C   UNL A   1      44.625  26.390  35.378  1.00  0.00     0.173 A 
ATOM     83  F   UNL A   1      46.228  29.299  33.893  1.00  0.00    -0.203 F 
ATOM     84  C   UNL A   1      47.014  27.799  35.530  1.00  0.00     0.198 A 
ATOM     85  C   UNL A   1      45.623  25.981  36.258  1.00  0.00     0.198 A 
ATOM     86  F   UNL A   1      43.484  25.687  35.322  1.00  0.00    -0.203 F 
ATOM     87  F   UNL A   1      48.176  28.464  35.581  1.00  0.00    -0.200 F 
ATOM     88  C   UNL A   1      46.818  26.683  36.330  1.00  0.00     0.200 A 
ATOM     89  F   UNL A   1      45.432  24.906  37.034  1.00  0.00    -0.200 F 
ATOM     90  F   UNL A   1      47.785  26.278  37.164  1.00  0.00    -0.200 F 
ENDBRANCH  57  80
ENDBRANCH  31  32
ENDBRANCH  24  26
ENDBRANCH  23  24
ENDBRANCH  22  23
ENDBRANCH   1  22
TORSDOF 14
ENDMDL
