MODEL 1
REMARK VINA RESULT:     -13.7      0.000      0.000
REMARK SMILES O=C(OCCOC(=O)[C@H]1CC=CCC1C(=O)N[C@@H]1CCN(c2cccc(Cl)c2)C1)c1ccc(-c2c3nc(c(-c4c(F)c(F)c(F)c(F)c4F)c4ccc([nH]4)c(-c4c(F)c(F)c(F)c(F)c4F)c4nc(c(-c5c(F)c(F)c(F)c(F)c5F)c5ccc2[nH]5)C=C4)C=C3)cc1
REMARK SMILES IDX 5 1 4 2 3 3 2 4 1 5 30 6 31 7 92 8 32 9 91 10 33 11 34 12
REMARK SMILES IDX 35 13 85 14 36 15 90 16 84 17 86 18 37 19 89 20 83 21 82 22
REMARK SMILES IDX 38 24 70 25 50 26 69 27 51 28 54 29 68 30 87 31 52 32 53 33
REMARK SMILES IDX 67 35 88 36 55 37 39 38 40 39 48 40 41 41 42 42 46 43 49 44
REMARK SMILES IDX 43 45 44 46 47 47 45 48 71 49 72 50 80 51 73 52 74 53 78 54
REMARK SMILES IDX 81 55 75 56 76 57 79 58 77 59 56 60 57 61 65 62 58 63 59 64
REMARK SMILES IDX 63 65 66 66 60 67 61 68 64 69 62 70 6 71 7 72 8 73 9 74
REMARK SMILES IDX 10 75 14 76 11 77 13 78 12 79 15 80 16 81 17 82 18 84 19 85
REMARK SMILES IDX 29 86 20 87 21 88 22 89 23 90 28 91 24 92 26 93 25 94 27 95
REMARK H PARENT 86 23 54 34 17 83
REMARK Flexibility Score: inf
ROOT
ATOM      1  C   UNL A   1      31.956  30.869  26.445  1.00  0.00     0.274 C 
ENDROOT
BRANCH   1   2
ATOM      2  C   UNL A   1      31.333  32.230  26.785  1.00  0.00     0.275 C 
BRANCH   2   3
ATOM      3  O   UNL A   1      32.303  33.296  26.782  1.00  0.00    -0.458 OA
BRANCH   3   4
ATOM      4  C   UNL A   1      33.004  33.782  27.834  1.00  0.00     0.338 C 
ATOM      5  O   UNL A   1      32.482  34.588  28.598  1.00  0.00    -0.246 OA
BRANCH   4   6
ATOM      6  C   UNL A   1      34.358  33.255  28.238  1.00  0.00     0.060 A 
ATOM      7  C   UNL A   1      35.936  34.186  28.338  1.00  0.00     0.016 A 
ATOM      8  C   UNL A   1      34.380  31.469  28.715  1.00  0.00     0.016 A 
ATOM      9  C   UNL A   1      37.465  33.379  28.884  1.00  0.00     0.010 A 
ATOM     10  C   UNL A   1      35.916  30.704  29.355  1.00  0.00     0.010 A 
ATOM     11  C   UNL A   1      37.472  31.656  29.453  1.00  0.00    -0.014 A 
BRANCH  11  12
ATOM     12  C   UNL A   1      38.647  31.137  30.233  1.00  0.00     0.031 A 
ATOM     13  C   UNL A   1      39.450  30.012  29.645  1.00  0.00     0.074 A 
ATOM     14  C   UNL A   1      38.890  31.577  31.497  1.00  0.00     0.049 A 
ATOM     15  N   UNL A   1      40.401  29.295  30.184  1.00  0.00    -0.248 NA
ATOM     16  C   UNL A   1      39.155  29.651  28.247  1.00  0.00     0.031 C 
ATOM     17  C   UNL A   1      38.212  32.676  32.194  1.00  0.00     0.029 A 
ATOM     18  N   UNL A   1      39.728  31.095  32.484  1.00  0.00    -0.354 N 
ATOM     19  C   UNL A   1      40.815  28.409  29.197  1.00  0.00     0.074 A 
ATOM     20  C   UNL A   1      39.966  28.623  28.049  1.00  0.00     0.031 C 
ATOM     21  C   UNL A   1      38.507  32.676  33.496  1.00  0.00     0.029 A 
ATOM     22  C   UNL A   1      39.486  31.643  33.731  1.00  0.00     0.049 A 
ATOM     23  H   UNL A   1      40.428  30.425  32.315  1.00  0.00     0.167 HD
ATOM     24  C   UNL A   1      41.848  27.534  29.242  1.00  0.00     0.037 A 
ATOM     25  C   UNL A   1      39.998  31.371  34.944  1.00  0.00     0.037 A 
ATOM     26  C   UNL A   1      42.685  27.377  30.403  1.00  0.00     0.049 A 
ATOM     27  C   UNL A   1      41.136  30.404  34.973  1.00  0.00     0.074 A 
ATOM     28  C   UNL A   1      43.818  26.602  30.562  1.00  0.00     0.029 A 
ATOM     29  N   UNL A   1      42.464  28.022  31.616  1.00  0.00    -0.354 N 
ATOM     30  N   UNL A   1      41.590  29.655  33.997  1.00  0.00    -0.248 NA
ATOM     31  C   UNL A   1      41.888  30.301  36.225  1.00  0.00     0.031 C 
ATOM     32  C   UNL A   1      44.263  26.754  31.880  1.00  0.00     0.029 A 
ATOM     33  C   UNL A   1      43.432  27.653  32.534  1.00  0.00     0.049 A 
ATOM     34  H   UNL A   1      41.727  28.650  31.795  1.00  0.00     0.167 HD
ATOM     35  C   UNL A   1      42.705  29.017  34.499  1.00  0.00     0.074 A 
ATOM     36  C   UNL A   1      42.867  29.484  35.866  1.00  0.00     0.031 C 
ATOM     37  C   UNL A   1      43.530  28.132  33.890  1.00  0.00     0.037 A 
BRANCH  24  38
ATOM     38  C   UNL A   1      42.138  26.722  28.007  1.00  0.00     0.064 A 
ATOM     39  C   UNL A   1      41.513  25.484  27.778  1.00  0.00     0.173 A 
ATOM     40  C   UNL A   1      43.038  27.182  27.033  1.00  0.00     0.173 A 
ATOM     41  F   UNL A   1      40.651  24.986  28.677  1.00  0.00    -0.203 F 
ATOM     42  C   UNL A   1      41.807  24.723  26.647  1.00  0.00     0.198 A 
ATOM     43  C   UNL A   1      43.308  26.433  25.889  1.00  0.00     0.198 A 
ATOM     44  F   UNL A   1      43.662  28.359  27.192  1.00  0.00    -0.203 F 
ATOM     45  F   UNL A   1      41.240  23.520  26.485  1.00  0.00    -0.200 F 
ATOM     46  C   UNL A   1      42.700  25.200  25.701  1.00  0.00     0.200 A 
ATOM     47  F   UNL A   1      44.164  26.899  24.969  1.00  0.00    -0.200 F 
ATOM     48  F   UNL A   1      42.982  24.468  24.614  1.00  0.00    -0.200 F 
ENDBRANCH  24  38
BRANCH  25  49
ATOM     49  C   UNL A   1      39.522  32.100  36.156  1.00  0.00     0.064 A 
ATOM     50  C   UNL A   1      38.418  31.647  36.894  1.00  0.00     0.173 A 
ATOM     51  C   UNL A   1      40.195  33.236  36.641  1.00  0.00     0.173 A 
ATOM     52  F   UNL A   1      37.741  30.566  36.486  1.00  0.00    -0.203 F 
ATOM     53  C   UNL A   1      37.989  32.312  38.045  1.00  0.00     0.198 A 
ATOM     54  C   UNL A   1      39.780  33.885  37.806  1.00  0.00     0.198 A 
ATOM     55  F   UNL A   1      41.272  33.705  35.994  1.00  0.00    -0.203 F 
ATOM     56  F   UNL A   1      36.910  31.871  38.706  1.00  0.00    -0.200 F 
ATOM     57  C   UNL A   1      38.672  33.428  38.502  1.00  0.00     0.200 A 
ATOM     58  F   UNL A   1      40.457  34.951  38.258  1.00  0.00    -0.200 F 
ATOM     59  F   UNL A   1      38.265  34.058  39.613  1.00  0.00    -0.200 F 
ENDBRANCH  25  49
BRANCH  37  60
ATOM     60  C   UNL A   1      44.657  27.617  34.722  1.00  0.00     0.064 A 
ATOM     61  C   UNL A   1      45.887  28.286  34.763  1.00  0.00     0.173 A 
ATOM     62  C   UNL A   1      44.499  26.456  35.490  1.00  0.00     0.173 A 
ATOM     63  F   UNL A   1      46.084  29.385  34.018  1.00  0.00    -0.203 F 
ATOM     64  C   UNL A   1      46.935  27.794  35.529  1.00  0.00     0.198 A 
ATOM     65  C   UNL A   1      45.538  25.987  36.282  1.00  0.00     0.198 A 
ATOM     66  F   UNL A   1      43.337  25.786  35.475  1.00  0.00    -0.203 F 
ATOM     67  F   UNL A   1      48.122  28.414  35.513  1.00  0.00    -0.200 F 
ATOM     68  C   UNL A   1      46.756  26.651  36.296  1.00  0.00     0.200 A 
ATOM     69  F   UNL A   1      45.364  24.889  37.030  1.00  0.00    -0.200 F 
ATOM     70  F   UNL A   1      47.766  26.181  37.041  1.00  0.00    -0.200 F 
ENDBRANCH  37  60
ENDBRANCH  11  12
ENDBRANCH   4   6
ENDBRANCH   3   4
ENDBRANCH   2   3
ENDBRANCH   1   2
BRANCH   1  71
ATOM     71  O   UNL A   1      31.284  30.262  25.322  1.00  0.00    -0.462 OA
BRANCH  71  72
ATOM     72  C   UNL A   1      31.404  28.910  25.289  1.00  0.00     0.310 C 
ATOM     73  O   UNL A   1      31.838  28.266  26.236  1.00  0.00    -0.252 OA
BRANCH  72  74
ATOM     74  C   UNL A   1      30.992  28.316  23.950  1.00  0.00     0.115 C 
ATOM     75  C   UNL A   1      31.806  29.091  22.864  1.00  0.00     0.043 C 
ATOM     76  C   UNL A   1      30.979  26.742  23.620  1.00  0.00     0.096 C 
ATOM     77  C   UNL A   1      33.082  28.391  22.491  1.00  0.00    -0.030 C 
ATOM     78  C   UNL A   1      31.720  26.400  22.264  1.00  0.00     0.041 C 
ATOM     79  C   UNL A   1      33.039  27.089  22.185  1.00  0.00    -0.030 C 
BRANCH  76  80
ATOM     80  C   UNL A   1      30.249  25.377  24.599  1.00  0.00     0.224 C 
ATOM     81  O   UNL A   1      29.246  26.013  25.042  1.00  0.00    -0.275 OA
ATOM     82  N   UNL A   1      30.690  23.463  24.727  1.00  0.00    -0.351 N 
ATOM     83  H   UNL A   1      29.870  22.965  24.511  1.00  0.00     0.163 HD
BRANCH  82  84
ATOM     84  C   UNL A   1      31.937  22.273  25.065  1.00  0.00     0.103 C 
ATOM     85  C   UNL A   1      32.815  22.487  26.253  1.00  0.00     0.048 C 
ATOM     86  C   UNL A   1      33.260  22.183  24.031  1.00  0.00     0.141 C 
ATOM     87  C   UNL A   1      33.633  23.680  25.749  1.00  0.00     0.119 C 
ATOM     88  N   UNL A   1      34.372  22.979  24.728  1.00  0.00    -0.369 N 
BRANCH  88  89
ATOM     89  C   UNL A   1      35.590  22.543  25.320  1.00  0.00     0.038 A 
ATOM     90  C   UNL A   1      36.518  23.468  25.912  1.00  0.00     0.026 A 
ATOM     91  C   UNL A   1      36.095  21.273  25.069  1.00  0.00     0.046 A 
ATOM     92  C   UNL A   1      37.883  23.240  26.034  1.00  0.00     0.004 A 
ATOM     93  C   UNL A   1      37.475  21.020  25.242  1.00  0.00     0.043 A 
ATOM     94  C   UNL A   1      38.371  22.007  25.669  1.00  0.00     0.020 A 
ATOM     95  Cl  UNL A   1      38.116  19.472  24.841  1.00  0.00    -0.084 Cl
ENDBRANCH  88  89
ENDBRANCH  82  84
ENDBRANCH  76  80
ENDBRANCH  72  74
ENDBRANCH  71  72
ENDBRANCH   1  71
TORSDOF 14
ENDMDL
MODEL 2
REMARK VINA RESULT:     -13.6      4.927     10.485
REMARK SMILES O=C(OCCOC(=O)[C@H]1CC=CCC1C(=O)N[C@@H]1CCN(c2cccc(Cl)c2)C1)c1ccc(-c2c3nc(c(-c4c(F)c(F)c(F)c(F)c4F)c4ccc([nH]4)c(-c4c(F)c(F)c(F)c(F)c4F)c4nc(c(-c5c(F)c(F)c(F)c(F)c5F)c5ccc2[nH]5)C=C4)C=C3)cc1
REMARK SMILES IDX 5 1 4 2 3 3 2 4 1 5 30 6 31 7 92 8 32 9 91 10 33 11 34 12
REMARK SMILES IDX 35 13 85 14 36 15 90 16 84 17 86 18 37 19 89 20 83 21 82 22
REMARK SMILES IDX 38 24 70 25 50 26 69 27 51 28 54 29 68 30 87 31 52 32 53 33
REMARK SMILES IDX 67 35 88 36 55 37 39 38 40 39 48 40 41 41 42 42 46 43 49 44
REMARK SMILES IDX 43 45 44 46 47 47 45 48 71 49 72 50 80 51 73 52 74 53 78 54
REMARK SMILES IDX 81 55 75 56 76 57 79 58 77 59 56 60 57 61 65 62 58 63 59 64
REMARK SMILES IDX 63 65 66 66 60 67 61 68 64 69 62 70 6 71 7 72 8 73 9 74
REMARK SMILES IDX 10 75 14 76 11 77 13 78 12 79 15 80 16 81 17 82 18 84 19 85
REMARK SMILES IDX 29 86 20 87 21 88 22 89 23 90 28 91 24 92 26 93 25 94 27 95
REMARK H PARENT 86 23 54 34 17 83
REMARK Flexibility Score: inf
ROOT
ATOM      1  C   UNL A   1      37.351  20.766  24.943  1.00  0.00     0.274 C 
ENDROOT
BRANCH   1   2
ATOM      2  C   UNL A   1      38.188  19.479  24.901  1.00  0.00     0.275 C 
BRANCH   2   3
ATOM      3  O   UNL A   1      39.060  19.353  26.041  1.00  0.00    -0.458 OA
BRANCH   3   4
ATOM      4  C   UNL A   1      40.350  19.755  26.146  1.00  0.00     0.338 C 
ATOM      5  O   UNL A   1      41.239  19.106  25.605  1.00  0.00    -0.246 OA
BRANCH   4   6
ATOM      6  C   UNL A   1      40.756  21.074  26.752  1.00  0.00     0.060 A 
ATOM      7  C   UNL A   1      41.886  21.351  28.171  1.00  0.00     0.016 A 
ATOM      8  C   UNL A   1      40.041  22.561  25.919  1.00  0.00     0.016 A 
ATOM      9  C   UNL A   1      42.285  23.027  28.736  1.00  0.00     0.010 A 
ATOM     10  C   UNL A   1      40.536  24.243  26.447  1.00  0.00     0.010 A 
ATOM     11  C   UNL A   1      41.669  24.491  27.857  1.00  0.00    -0.014 A 
BRANCH  11  12
ATOM     12  C   UNL A   1      42.301  25.830  28.114  1.00  0.00     0.031 A 
ATOM     13  C   UNL A   1      41.443  26.925  28.681  1.00  0.00     0.074 A 
ATOM     14  C   UNL A   1      43.576  26.086  27.713  1.00  0.00     0.049 A 
ATOM     15  N   UNL A   1      41.708  28.194  28.843  1.00  0.00    -0.248 NA
ATOM     16  C   UNL A   1      40.100  26.536  29.146  1.00  0.00     0.031 C 
ATOM     17  C   UNL A   1      44.539  25.120  27.169  1.00  0.00     0.029 A 
ATOM     18  N   UNL A   1      44.278  27.270  27.611  1.00  0.00    -0.354 N 
ATOM     19  C   UNL A   1      40.576  28.748  29.428  1.00  0.00     0.074 A 
ATOM     20  C   UNL A   1      39.590  27.698  29.525  1.00  0.00     0.031 C 
ATOM     21  C   UNL A   1      45.596  25.741  26.639  1.00  0.00     0.029 A 
ATOM     22  C   UNL A   1      45.456  27.154  26.893  1.00  0.00     0.049 A 
ATOM     23  H   UNL A   1      43.970  28.115  28.010  1.00  0.00     0.167 HD
ATOM     24  C   UNL A   1      40.406  30.012  29.884  1.00  0.00     0.037 A 
ATOM     25  C   UNL A   1      46.352  28.072  26.486  1.00  0.00     0.037 A 
ATOM     26  C   UNL A   1      41.431  31.018  29.788  1.00  0.00     0.049 A 
ATOM     27  C   UNL A   1      46.148  29.459  27.000  1.00  0.00     0.074 A 
ATOM     28  C   UNL A   1      41.437  32.307  30.287  1.00  0.00     0.029 A 
ATOM     29  N   UNL A   1      42.648  30.832  29.138  1.00  0.00    -0.354 N 
ATOM     30  N   UNL A   1      45.117  29.939  27.653  1.00  0.00    -0.248 NA
ATOM     31  C   UNL A   1      47.247  30.406  26.806  1.00  0.00     0.031 C 
ATOM     32  C   UNL A   1      42.643  32.910  29.910  1.00  0.00     0.029 A 
ATOM     33  C   UNL A   1      43.407  31.987  29.210  1.00  0.00     0.049 A 
ATOM     34  H   UNL A   1      42.928  30.001  28.692  1.00  0.00     0.167 HD
ATOM     35  C   UNL A   1      45.454  31.235  27.986  1.00  0.00     0.074 A 
ATOM     36  C   UNL A   1      46.795  31.458  27.475  1.00  0.00     0.031 C 
ATOM     37  C   UNL A   1      44.728  32.160  28.660  1.00  0.00     0.037 A 
BRANCH  24  38
ATOM     38  C   UNL A   1      39.096  30.354  30.544  1.00  0.00     0.064 A 
ATOM     39  C   UNL A   1      38.931  30.271  31.937  1.00  0.00     0.173 A 
ATOM     40  C   UNL A   1      37.994  30.779  29.786  1.00  0.00     0.173 A 
ATOM     41  F   UNL A   1      39.945  29.861  32.714  1.00  0.00    -0.203 F 
ATOM     42  C   UNL A   1      37.707  30.562  32.539  1.00  0.00     0.198 A 
ATOM     43  C   UNL A   1      36.780  31.097  30.394  1.00  0.00     0.198 A 
ATOM     44  F   UNL A   1      38.090  30.884  28.452  1.00  0.00    -0.203 F 
ATOM     45  F   UNL A   1      37.564  30.417  33.864  1.00  0.00    -0.200 F 
ATOM     46  C   UNL A   1      36.634  30.979  31.768  1.00  0.00     0.200 A 
ATOM     47  F   UNL A   1      35.746  31.510  29.649  1.00  0.00    -0.200 F 
ATOM     48  F   UNL A   1      35.458  31.257  32.348  1.00  0.00    -0.200 F 
ENDBRANCH  24  38
BRANCH  25  49
ATOM     49  C   UNL A   1      47.539  27.673  25.674  1.00  0.00     0.064 A 
ATOM     50  C   UNL A   1      47.492  27.660  24.272  1.00  0.00     0.173 A 
ATOM     51  C   UNL A   1      48.767  27.352  26.278  1.00  0.00     0.173 A 
ATOM     52  F   UNL A   1      46.351  27.963  23.639  1.00  0.00    -0.203 F 
ATOM     53  C   UNL A   1      48.610  27.315  23.509  1.00  0.00     0.198 A 
ATOM     54  C   UNL A   1      49.892  27.032  25.514  1.00  0.00     0.198 A 
ATOM     55  F   UNL A   1      48.884  27.370  27.613  1.00  0.00    -0.203 F 
ATOM     56  F   UNL A   1      48.520  27.279  22.173  1.00  0.00    -0.200 F 
ATOM     57  C   UNL A   1      49.810  27.005  24.130  1.00  0.00     0.200 A 
ATOM     58  F   UNL A   1      51.057  26.755  26.117  1.00  0.00    -0.200 F 
ATOM     59  F   UNL A   1      50.885  26.685  23.395  1.00  0.00    -0.200 F 
ENDBRANCH  25  49
BRANCH  37  60
ATOM     60  C   UNL A   1      45.386  33.485  28.853  1.00  0.00     0.064 A 
ATOM     61  C   UNL A   1      46.188  33.737  29.974  1.00  0.00     0.173 A 
ATOM     62  C   UNL A   1      45.222  34.503  27.904  1.00  0.00     0.173 A 
ATOM     63  F   UNL A   1      46.345  32.796  30.918  1.00  0.00    -0.203 F 
ATOM     64  C   UNL A   1      46.786  34.977  30.151  1.00  0.00     0.198 A 
ATOM     65  C   UNL A   1      45.850  35.730  28.069  1.00  0.00     0.198 A 
ATOM     66  F   UNL A   1      44.460  34.302  26.819  1.00  0.00    -0.203 F 
ATOM     67  F   UNL A   1      47.503  35.219  31.257  1.00  0.00    -0.200 F 
ATOM     68  C   UNL A   1      46.625  35.969  29.195  1.00  0.00     0.200 A 
ATOM     69  F   UNL A   1      45.703  36.685  27.140  1.00  0.00    -0.200 F 
ATOM     70  F   UNL A   1      47.209  37.162  29.365  1.00  0.00    -0.200 F 
ENDBRANCH  37  60
ENDBRANCH  11  12
ENDBRANCH   4   6
ENDBRANCH   3   4
ENDBRANCH   2   3
ENDBRANCH   1   2
BRANCH   1  71
ATOM     71  O   UNL A   1      35.959  20.467  25.176  1.00  0.00    -0.462 OA
BRANCH  71  72
ATOM     72  C   UNL A   1      35.112  21.355  24.596  1.00  0.00     0.310 C 
ATOM     73  O   UNL A   1      35.508  22.274  23.889  1.00  0.00    -0.252 OA
BRANCH  72  74
ATOM     74  C   UNL A   1      33.657  21.107  24.963  1.00  0.00     0.115 C 
ATOM     75  C   UNL A   1      33.652  20.728  26.479  1.00  0.00     0.043 C 
ATOM     76  C   UNL A   1      32.452  22.120  24.637  1.00  0.00     0.096 C 
ATOM     77  C   UNL A   1      33.405  21.914  27.369  1.00  0.00    -0.030 C 
ATOM     78  C   UNL A   1      31.543  22.409  25.900  1.00  0.00     0.041 C 
ATOM     79  C   UNL A   1      32.374  22.722  27.098  1.00  0.00    -0.030 C 
BRANCH  76  80
ATOM     80  C   UNL A   1      32.047  22.938  23.049  1.00  0.00     0.224 C 
ATOM     81  O   UNL A   1      32.325  21.964  22.288  1.00  0.00    -0.275 OA
ATOM     82  N   UNL A   1      31.198  24.665  22.634  1.00  0.00    -0.351 N 
ATOM     83  H   UNL A   1      30.423  24.472  22.059  1.00  0.00     0.163 HD
BRANCH  82  84
ATOM     84  C   UNL A   1      31.244  26.406  22.862  1.00  0.00     0.103 C 
ATOM     85  C   UNL A   1      32.574  27.059  23.049  1.00  0.00     0.048 C 
ATOM     86  C   UNL A   1      30.664  27.040  24.307  1.00  0.00     0.141 C 
ATOM     87  C   UNL A   1      32.914  26.539  24.449  1.00  0.00     0.119 C 
ATOM     88  N   UNL A   1      31.911  27.282  25.171  1.00  0.00    -0.369 N 
BRANCH  88  89
ATOM     89  C   UNL A   1      32.518  28.494  25.601  1.00  0.00     0.038 A 
ATOM     90  C   UNL A   1      33.772  28.506  26.302  1.00  0.00     0.026 A 
ATOM     91  C   UNL A   1      31.792  29.678  25.661  1.00  0.00     0.046 A 
ATOM     92  C   UNL A   1      34.172  29.508  27.178  1.00  0.00     0.004 A 
ATOM     93  C   UNL A   1      32.222  30.722  26.510  1.00  0.00     0.043 A 
ATOM     94  C   UNL A   1      33.372  30.620  27.302  1.00  0.00     0.020 A 
ATOM     95  Cl  UNL A   1      31.271  32.151  26.656  1.00  0.00    -0.084 Cl
ENDBRANCH  88  89
ENDBRANCH  82  84
ENDBRANCH  76  80
ENDBRANCH  72  74
ENDBRANCH  71  72
ENDBRANCH   1  71
TORSDOF 14
ENDMDL
MODEL 3
REMARK VINA RESULT:     -13.6      0.619      7.363
REMARK SMILES O=C(OCCOC(=O)[C@H]1CC=CCC1C(=O)N[C@@H]1CCN(c2cccc(Cl)c2)C1)c1ccc(-c2c3nc(c(-c4c(F)c(F)c(F)c(F)c4F)c4ccc([nH]4)c(-c4c(F)c(F)c(F)c(F)c4F)c4nc(c(-c5c(F)c(F)c(F)c(F)c5F)c5ccc2[nH]5)C=C4)C=C3)cc1
REMARK SMILES IDX 5 1 4 2 3 3 2 4 1 5 30 6 31 7 92 8 32 9 91 10 33 11 34 12
REMARK SMILES IDX 35 13 85 14 36 15 90 16 84 17 86 18 37 19 89 20 83 21 82 22
REMARK SMILES IDX 38 24 70 25 50 26 69 27 51 28 54 29 68 30 87 31 52 32 53 33
REMARK SMILES IDX 67 35 88 36 55 37 39 38 40 39 48 40 41 41 42 42 46 43 49 44
REMARK SMILES IDX 43 45 44 46 47 47 45 48 71 49 72 50 80 51 73 52 74 53 78 54
REMARK SMILES IDX 81 55 75 56 76 57 79 58 77 59 56 60 57 61 65 62 58 63 59 64
REMARK SMILES IDX 63 65 66 66 60 67 61 68 64 69 62 70 6 71 7 72 8 73 9 74
REMARK SMILES IDX 10 75 14 76 11 77 13 78 12 79 15 80 16 81 17 82 18 84 19 85
REMARK SMILES IDX 29 86 20 87 21 88 22 89 23 90 28 91 24 92 26 93 25 94 27 95
REMARK H PARENT 86 23 54 34 17 83
REMARK Flexibility Score: inf
ROOT
ATOM      1  C   UNL A   1      31.893  30.819  26.130  1.00  0.00     0.274 C 
ENDROOT
BRANCH   1   2
ATOM      2  C   UNL A   1      31.293  32.151  26.599  1.00  0.00     0.275 C 
BRANCH   2   3
ATOM      3  O   UNL A   1      32.270  33.210  26.641  1.00  0.00    -0.458 OA
BRANCH   3   4
ATOM      4  C   UNL A   1      33.001  33.622  27.706  1.00  0.00     0.338 C 
ATOM      5  O   UNL A   1      32.559  34.489  28.453  1.00  0.00    -0.246 OA
BRANCH   4   6
ATOM      6  C   UNL A   1      34.277  32.946  28.141  1.00  0.00     0.060 A 
ATOM      7  C   UNL A   1      35.894  33.736  28.496  1.00  0.00     0.016 A 
ATOM      8  C   UNL A   1      34.144  31.116  28.367  1.00  0.00     0.016 A 
ATOM      9  C   UNL A   1      37.314  32.753  29.048  1.00  0.00     0.010 A 
ATOM     10  C   UNL A   1      35.564  30.162  29.018  1.00  0.00     0.010 A 
ATOM     11  C   UNL A   1      37.161  30.973  29.372  1.00  0.00    -0.014 A 
BRANCH  11  12
ATOM     12  C   UNL A   1      38.226  30.270  30.166  1.00  0.00     0.031 A 
ATOM     13  C   UNL A   1      38.532  30.774  31.548  1.00  0.00     0.074 A 
ATOM     14  C   UNL A   1      38.989  29.298  29.598  1.00  0.00     0.049 A 
ATOM     15  N   UNL A   1      39.499  30.444  32.362  1.00  0.00    -0.248 NA
ATOM     16  C   UNL A   1      37.611  31.782  32.101  1.00  0.00     0.031 C 
ATOM     17  C   UNL A   1      38.798  28.688  28.276  1.00  0.00     0.029 A 
ATOM     18  N   UNL A   1      40.155  28.692  30.021  1.00  0.00    -0.354 N 
ATOM     19  C   UNL A   1      39.301  31.195  33.514  1.00  0.00     0.074 A 
ATOM     20  C   UNL A   1      38.167  32.055  33.272  1.00  0.00     0.031 C 
ATOM     21  C   UNL A   1      39.861  27.961  27.924  1.00  0.00     0.029 A 
ATOM     22  C   UNL A   1      40.783  27.951  29.034  1.00  0.00     0.049 A 
ATOM     23  H   UNL A   1      40.507  28.779  30.936  1.00  0.00     0.167 HD
ATOM     24  C   UNL A   1      39.983  31.125  34.683  1.00  0.00     0.037 A 
ATOM     25  C   UNL A   1      41.965  27.310  29.010  1.00  0.00     0.037 A 
ATOM     26  C   UNL A   1      41.092  30.230  34.884  1.00  0.00     0.049 A 
ATOM     27  C   UNL A   1      42.701  27.244  30.307  1.00  0.00     0.074 A 
ATOM     28  C   UNL A   1      41.816  29.984  36.035  1.00  0.00     0.029 A 
ATOM     29  N   UNL A   1      41.636  29.426  33.887  1.00  0.00    -0.354 N 
ATOM     30  N   UNL A   1      42.433  27.875  31.425  1.00  0.00    -0.248 NA
ATOM     31  C   UNL A   1      43.840  26.327  30.378  1.00  0.00     0.031 C 
ATOM     32  C   UNL A   1      42.817  29.056  35.727  1.00  0.00     0.029 A 
ATOM     33  C   UNL A   1      42.696  28.693  34.392  1.00  0.00     0.049 A 
ATOM     34  H   UNL A   1      41.315  29.384  32.958  1.00  0.00     0.167 HD
ATOM     35  C   UNL A   1      43.344  27.405  32.350  1.00  0.00     0.074 A 
ATOM     36  C   UNL A   1      44.161  26.421  31.660  1.00  0.00     0.031 C 
ATOM     37  C   UNL A   1      43.491  27.745  33.652  1.00  0.00     0.037 A 
BRANCH  24  38
ATOM     38  C   UNL A   1      39.530  32.007  35.816  1.00  0.00     0.064 A 
ATOM     39  C   UNL A   1      40.101  33.272  36.037  1.00  0.00     0.173 A 
ATOM     40  C   UNL A   1      38.509  31.596  36.688  1.00  0.00     0.173 A 
ATOM     41  F   UNL A   1      41.089  33.715  35.244  1.00  0.00    -0.203 F 
ATOM     42  C   UNL A   1      39.697  34.071  37.106  1.00  0.00     0.198 A 
ATOM     43  C   UNL A   1      38.087  32.411  37.738  1.00  0.00     0.198 A 
ATOM     44  F   UNL A   1      37.921  30.402  36.526  1.00  0.00    -0.203 F 
ATOM     45  F   UNL A   1      40.301  35.248  37.326  1.00  0.00    -0.200 F 
ATOM     46  C   UNL A   1      38.687  33.643  37.952  1.00  0.00     0.200 A 
ATOM     47  F   UNL A   1      37.104  32.001  38.551  1.00  0.00    -0.200 F 
ATOM     48  F   UNL A   1      38.300  34.412  38.980  1.00  0.00    -0.200 F 
ENDBRANCH  24  38
BRANCH  25  49
ATOM     49  C   UNL A   1      42.428  26.608  27.777  1.00  0.00     0.064 A 
ATOM     50  C   UNL A   1      43.334  27.210  26.890  1.00  0.00     0.173 A 
ATOM     51  C   UNL A   1      42.022  25.294  27.485  1.00  0.00     0.173 A 
ATOM     52  F   UNL A   1      43.762  28.458  27.120  1.00  0.00    -0.203 F 
ATOM     53  C   UNL A   1      43.790  26.543  25.752  1.00  0.00     0.198 A 
ATOM     54  C   UNL A   1      42.499  24.618  26.359  1.00  0.00     0.198 A 
ATOM     55  F   UNL A   1      41.176  24.654  28.305  1.00  0.00    -0.203 F 
ATOM     56  F   UNL A   1      44.628  27.161  24.908  1.00  0.00    -0.200 F 
ATOM     57  C   UNL A   1      43.376  25.247  25.488  1.00  0.00     0.200 A 
ATOM     58  F   UNL A   1      42.114  23.356  26.120  1.00  0.00    -0.200 F 
ATOM     59  F   UNL A   1      43.824  24.605  24.400  1.00  0.00    -0.200 F 
ENDBRANCH  25  49
BRANCH  37  60
ATOM     60  C   UNL A   1      44.588  27.047  34.384  1.00  0.00     0.064 A 
ATOM     61  C   UNL A   1      45.872  27.606  34.463  1.00  0.00     0.173 A 
ATOM     62  C   UNL A   1      44.350  25.821  35.019  1.00  0.00     0.173 A 
ATOM     63  F   UNL A   1      46.144  28.764  33.843  1.00  0.00    -0.203 F 
ATOM     64  C   UNL A   1      46.890  26.944  35.135  1.00  0.00     0.198 A 
ATOM     65  C   UNL A   1      45.364  25.180  35.719  1.00  0.00     0.198 A 
ATOM     66  F   UNL A   1      43.137  25.253  34.964  1.00  0.00    -0.203 F 
ATOM     67  F   UNL A   1      48.124  27.464  35.153  1.00  0.00    -0.200 F 
ATOM     68  C   UNL A   1      46.633  25.737  35.771  1.00  0.00     0.200 A 
ATOM     69  F   UNL A   1      45.114  24.020  36.341  1.00  0.00    -0.200 F 
ATOM     70  F   UNL A   1      47.616  25.104  36.425  1.00  0.00    -0.200 F 
ENDBRANCH  37  60
ENDBRANCH  11  12
ENDBRANCH   4   6
ENDBRANCH   3   4
ENDBRANCH   2   3
ENDBRANCH   1   2
BRANCH   1  71
ATOM     71  O   UNL A   1      31.117  30.256  25.053  1.00  0.00    -0.462 OA
BRANCH  71  72
ATOM     72  C   UNL A   1      31.200  28.903  24.976  1.00  0.00     0.310 C 
ATOM     73  O   UNL A   1      31.452  28.205  25.951  1.00  0.00    -0.252 OA
BRANCH  72  74
ATOM     74  C   UNL A   1      30.998  28.380  23.562  1.00  0.00     0.115 C 
ATOM     75  C   UNL A   1      32.005  29.167  22.662  1.00  0.00     0.043 C 
ATOM     76  C   UNL A   1      30.991  26.822  23.162  1.00  0.00     0.096 C 
ATOM     77  C   UNL A   1      33.303  28.434  22.472  1.00  0.00    -0.030 C 
ATOM     78  C   UNL A   1      31.936  26.507  21.931  1.00  0.00     0.041 C 
ATOM     79  C   UNL A   1      33.271  27.148  22.102  1.00  0.00    -0.030 C 
BRANCH  76  80
ATOM     80  C   UNL A   1      30.067  25.448  23.943  1.00  0.00     0.224 C 
ATOM     81  O   UNL A   1      28.920  25.988  23.916  1.00  0.00    -0.275 OA
ATOM     82  N   UNL A   1      30.590  23.613  24.426  1.00  0.00    -0.351 N 
ATOM     83  H   UNL A   1      29.957  23.007  23.978  1.00  0.00     0.163 HD
BRANCH  82  84
ATOM     84  C   UNL A   1      31.715  22.605  25.322  1.00  0.00     0.103 C 
ATOM     85  C   UNL A   1      32.798  23.276  26.101  1.00  0.00     0.048 C 
ATOM     86  C   UNL A   1      32.826  21.683  24.460  1.00  0.00     0.141 C 
ATOM     87  C   UNL A   1      33.665  23.780  24.943  1.00  0.00     0.119 C 
ATOM     88  N   UNL A   1      34.130  22.493  24.487  1.00  0.00    -0.369 N 
BRANCH  88  89
ATOM     89  C   UNL A   1      35.364  22.238  25.146  1.00  0.00     0.038 A 
ATOM     90  C   UNL A   1      36.154  23.297  25.713  1.00  0.00     0.026 A 
ATOM     91  C   UNL A   1      36.022  21.024  24.992  1.00  0.00     0.046 A 
ATOM     92  C   UNL A   1      37.530  23.238  25.895  1.00  0.00     0.004 A 
ATOM     93  C   UNL A   1      37.413  20.944  25.227  1.00  0.00     0.043 A 
ATOM     94  C   UNL A   1      38.171  22.052  25.624  1.00  0.00     0.020 A 
ATOM     95  Cl  UNL A   1      38.244  19.462  24.945  1.00  0.00    -0.084 Cl
ENDBRANCH  88  89
ENDBRANCH  82  84
ENDBRANCH  76  80
ENDBRANCH  72  74
ENDBRANCH  71  72
ENDBRANCH   1  71
TORSDOF 14
ENDMDL
