MODEL 1
REMARK VINA RESULT:     -11.8      0.000      0.000
REMARK SMILES COc1ccc(NC(C)(C)C2=N[C@@H](C(=O)OCCOC(=O)c3ccc(-c4c5nc(c(-c6c(F)c(F)c(F)c(F)c6F)c6ccc([nH]6)c(-c6c(F)c(F)c(F)c(F)c6F)c6nc(c(-c7c(F)c(F)c(F)c(F)c7F)c7ccc4[nH]7)C=C6)C=C5)cc3)CS2)cc1
REMARK SMILES IDX 17 1 16 2 14 3 15 4 13 5 11 6 12 7 86 8 85 9 8 10 9 11 10 12
REMARK SMILES IDX 7 13 6 15 3 16 4 17 88 18 5 19 87 20 2 21 1 22 18 23 19 24
REMARK SMILES IDX 20 25 21 26 22 27 23 28 84 29 24 30 83 31 25 32 26 33 27 34
REMARK SMILES IDX 77 35 28 36 82 37 76 38 78 39 29 40 81 41 75 42 74 43 30 45
REMARK SMILES IDX 62 46 42 47 61 48 43 49 46 50 60 51 79 52 44 53 45 54 59 56
REMARK SMILES IDX 80 57 47 58 31 59 32 60 40 61 33 62 34 63 38 64 41 65 35 66
REMARK SMILES IDX 36 67 39 68 37 69 63 70 64 71 72 72 65 73 66 74 70 75 73 76
REMARK SMILES IDX 67 77 68 78 71 79 69 80 48 81 49 82 57 83 50 84 51 85 55 86
REMARK SMILES IDX 58 87 52 88 53 89 56 90 54 91
REMARK H PARENT 7 14 78 44 46 55
REMARK Flexibility Score: inf
ROOT
ATOM      1  C   UNL A   1      31.461  28.543  25.629  1.00  0.00     0.274 C 
ENDROOT
BRANCH   1   2
ATOM      2  O   UNL A   1      31.747  28.033  24.313  1.00  0.00    -0.460 OA
BRANCH   2   3
ATOM      3  C   UNL A   1      30.730  27.390  23.675  1.00  0.00     0.331 C 
ATOM      4  O   UNL A   1      29.594  27.837  23.558  1.00  0.00    -0.250 OA
BRANCH   3   5
ATOM      5  C   UNL A   1      31.141  26.017  23.136  1.00  0.00     0.226 C 
ATOM      6  C   UNL A   1      32.903  24.642  23.598  1.00  0.00     0.094 C 
ATOM      7  N   UNL A   1      31.988  25.368  24.160  1.00  0.00    -0.264 NA
ATOM      8  S   UNL A   1      32.887  24.579  21.844  1.00  0.00    -0.106 SA
ATOM      9  C   UNL A   1      31.855  26.059  21.793  1.00  0.00     0.115 C 
BRANCH   6  10
ATOM     10  C   UNL A   1      33.992  23.929  24.414  1.00  0.00     0.080 C 
ATOM     11  C   UNL A   1      34.529  24.854  25.524  1.00  0.00     0.042 C 
ATOM     12  C   UNL A   1      35.171  23.598  23.475  1.00  0.00     0.042 C 
BRANCH  10  13
ATOM     13  N   UNL A   1      33.571  22.661  25.056  1.00  0.00    -0.374 N 
ATOM     14  H   UNL A   1      33.327  22.756  26.006  1.00  0.00     0.161 HD
BRANCH  13  15
ATOM     15  C   UNL A   1      33.455  21.377  24.574  1.00  0.00     0.035 A 
ATOM     16  C   UNL A   1      33.176  18.621  23.928  1.00  0.00     0.119 A 
ATOM     17  C   UNL A   1      32.303  19.563  23.406  1.00  0.00     0.048 A 
ATOM     18  C   UNL A   1      34.247  19.055  24.701  1.00  0.00     0.048 A 
ATOM     19  C   UNL A   1      32.463  20.921  23.711  1.00  0.00     0.029 A 
ATOM     20  C   UNL A   1      34.371  20.414  25.025  1.00  0.00     0.029 A 
BRANCH  16  21
ATOM     21  O   UNL A   1      32.918  17.322  23.592  1.00  0.00    -0.497 OA
ATOM     22  C   UNL A   1      34.059  16.572  23.186  1.00  0.00     0.278 C 
ENDBRANCH  16  21
ENDBRANCH  13  15
ENDBRANCH  10  13
ENDBRANCH   6  10
ENDBRANCH   3   5
ENDBRANCH   2   3
ENDBRANCH   1   2
BRANCH   1  23
ATOM     23  C   UNL A   1      31.776  30.039  25.748  1.00  0.00     0.275 C 
BRANCH  23  24
ATOM     24  O   UNL A   1      33.171  30.281  26.016  1.00  0.00    -0.458 OA
BRANCH  24  25
ATOM     25  C   UNL A   1      33.413  31.248  26.932  1.00  0.00     0.338 C 
ATOM     26  O   UNL A   1      32.639  32.099  27.334  1.00  0.00    -0.246 OA
BRANCH  25  27
ATOM     27  C   UNL A   1      34.714  31.013  27.572  1.00  0.00     0.060 A 
ATOM     28  C   UNL A   1      35.016  29.696  27.923  1.00  0.00     0.016 A 
ATOM     29  C   UNL A   1      35.581  32.050  27.911  1.00  0.00     0.016 A 
ATOM     30  C   UNL A   1      36.181  29.392  28.605  1.00  0.00     0.010 A 
ATOM     31  C   UNL A   1      36.757  31.748  28.611  1.00  0.00     0.010 A 
ATOM     32  C   UNL A   1      37.054  30.419  28.966  1.00  0.00    -0.014 A 
BRANCH  32  33
ATOM     33  C   UNL A   1      38.227  30.084  29.800  1.00  0.00     0.031 A 
ATOM     34  C   UNL A   1      39.305  29.213  29.229  1.00  0.00     0.074 A 
ATOM     35  C   UNL A   1      38.362  30.632  31.020  1.00  0.00     0.049 A 
ATOM     36  N   UNL A   1      40.363  28.716  29.812  1.00  0.00    -0.248 NA
ATOM     37  C   UNL A   1      39.175  28.861  27.806  1.00  0.00     0.031 C 
ATOM     38  C   UNL A   1      37.428  31.582  31.625  1.00  0.00     0.029 A 
ATOM     39  N   UNL A   1      39.345  30.479  31.962  1.00  0.00    -0.354 N 
ATOM     40  C   UNL A   1      41.007  27.965  28.838  1.00  0.00     0.074 A 
ATOM     41  C   UNL A   1      40.222  28.070  27.627  1.00  0.00     0.031 C 
ATOM     42  C   UNL A   1      37.890  31.937  32.835  1.00  0.00     0.029 A 
ATOM     43  C   UNL A   1      39.113  31.190  33.113  1.00  0.00     0.049 A 
ATOM     44  H   UNL A   1      40.140  29.915  31.826  1.00  0.00     0.167 HD
ATOM     45  C   UNL A   1      42.150  27.248  28.955  1.00  0.00     0.037 A 
ATOM     46  C   UNL A   1      39.796  31.202  34.273  1.00  0.00     0.037 A 
ATOM     47  C   UNL A   1      42.930  27.172  30.162  1.00  0.00     0.049 A 
ATOM     48  C   UNL A   1      41.012  30.328  34.406  1.00  0.00     0.074 A 
ATOM     49  C   UNL A   1      44.088  26.455  30.401  1.00  0.00     0.029 A 
ATOM     50  N   UNL A   1      42.629  27.850  31.336  1.00  0.00    -0.354 N 
ATOM     51  N   UNL A   1      41.581  29.559  33.508  1.00  0.00    -0.248 NA
ATOM     52  C   UNL A   1      41.671  30.308  35.719  1.00  0.00     0.031 C 
ATOM     53  C   UNL A   1      44.469  26.672  31.730  1.00  0.00     0.029 A 
ATOM     54  C   UNL A   1      43.571  27.557  32.307  1.00  0.00     0.049 A 
ATOM     55  H   UNL A   1      41.858  28.450  31.458  1.00  0.00     0.167 HD
ATOM     56  C   UNL A   1      42.670  28.976  34.139  1.00  0.00     0.074 A 
ATOM     57  C   UNL A   1      42.691  29.491  35.494  1.00  0.00     0.031 C 
ATOM     58  C   UNL A   1      43.570  28.091  33.645  1.00  0.00     0.037 A 
BRANCH  45  59
ATOM     59  C   UNL A   1      42.588  26.455  27.761  1.00  0.00     0.064 A 
ATOM     60  C   UNL A   1      42.115  25.156  27.519  1.00  0.00     0.173 A 
ATOM     61  C   UNL A   1      43.497  27.005  26.845  1.00  0.00     0.173 A 
ATOM     62  F   UNL A   1      41.263  24.577  28.378  1.00  0.00    -0.203 F 
ATOM     63  C   UNL A   1      42.557  24.429  26.416  1.00  0.00     0.198 A 
ATOM     64  C   UNL A   1      43.917  26.285  25.731  1.00  0.00     0.198 A 
ATOM     65  F   UNL A   1      43.980  28.243  27.033  1.00  0.00    -0.203 F 
ATOM     66  F   UNL A   1      42.131  23.171  26.230  1.00  0.00    -0.200 F 
ATOM     67  C   UNL A   1      43.453  24.996  25.521  1.00  0.00     0.200 A 
ATOM     68  F   UNL A   1      44.777  26.837  24.863  1.00  0.00    -0.200 F 
ATOM     69  F   UNL A   1      43.879  24.293  24.461  1.00  0.00    -0.200 F 
ENDBRANCH  45  59
BRANCH  46  70
ATOM     70  C   UNL A   1      39.321  32.038  35.404  1.00  0.00     0.064 A 
ATOM     71  C   UNL A   1      39.699  33.382  35.516  1.00  0.00     0.173 A 
ATOM     72  C   UNL A   1      38.476  31.512  36.393  1.00  0.00     0.173 A 
ATOM     73  F   UNL A   1      40.527  33.923  34.610  1.00  0.00    -0.203 F 
ATOM     74  C   UNL A   1      39.254  34.168  36.578  1.00  0.00     0.198 A 
ATOM     75  C   UNL A   1      38.010  32.305  37.440  1.00  0.00     0.198 A 
ATOM     76  F   UNL A   1      38.091  30.229  36.335  1.00  0.00    -0.203 F 
ATOM     77  F   UNL A   1      39.659  35.440  36.682  1.00  0.00    -0.200 F 
ATOM     78  C   UNL A   1      38.404  33.631  37.535  1.00  0.00     0.200 A 
ATOM     79  F   UNL A   1      37.182  31.784  38.355  1.00  0.00    -0.200 F 
ATOM     80  F   UNL A   1      37.972  34.389  38.551  1.00  0.00    -0.200 F 
ENDBRANCH  46  70
BRANCH  58  81
ATOM     81  C   UNL A   1      44.669  27.653  34.565  1.00  0.00     0.064 A 
ATOM     82  C   UNL A   1      44.547  26.500  35.355  1.00  0.00     0.173 A 
ATOM     83  C   UNL A   1      45.871  28.373  34.627  1.00  0.00     0.173 A 
ATOM     84  F   UNL A   1      43.409  25.790  35.341  1.00  0.00    -0.203 F 
ATOM     85  C   UNL A   1      45.585  26.096  36.189  1.00  0.00     0.198 A 
ATOM     86  C   UNL A   1      46.914  27.951  35.444  1.00  0.00     0.198 A 
ATOM     87  F   UNL A   1      46.034  29.480  33.886  1.00  0.00    -0.203 F 
ATOM     88  F   UNL A   1      45.434  25.014  36.966  1.00  0.00    -0.200 F 
ATOM     89  C   UNL A   1      46.769  26.817  36.229  1.00  0.00     0.200 A 
ATOM     90  F   UNL A   1      48.062  28.644  35.474  1.00  0.00    -0.200 F 
ATOM     91  F   UNL A   1      47.769  26.422  37.029  1.00  0.00    -0.200 F 
ENDBRANCH  58  81
ENDBRANCH  32  33
ENDBRANCH  25  27
ENDBRANCH  24  25
ENDBRANCH  23  24
ENDBRANCH   1  23
TORSDOF 15
ENDMDL
MODEL 2
REMARK VINA RESULT:     -11.7      4.309     10.071
REMARK SMILES COc1ccc(NC(C)(C)C2=N[C@@H](C(=O)OCCOC(=O)c3ccc(-c4c5nc(c(-c6c(F)c(F)c(F)c(F)c6F)c6ccc([nH]6)c(-c6c(F)c(F)c(F)c(F)c6F)c6nc(c(-c7c(F)c(F)c(F)c(F)c7F)c7ccc4[nH]7)C=C6)C=C5)cc3)CS2)cc1
REMARK SMILES IDX 17 1 16 2 14 3 15 4 13 5 11 6 12 7 86 8 85 9 8 10 9 11 10 12
REMARK SMILES IDX 7 13 6 15 3 16 4 17 88 18 5 19 87 20 2 21 1 22 18 23 19 24
REMARK SMILES IDX 20 25 21 26 22 27 23 28 84 29 24 30 83 31 25 32 26 33 27 34
REMARK SMILES IDX 77 35 28 36 82 37 76 38 78 39 29 40 81 41 75 42 74 43 30 45
REMARK SMILES IDX 62 46 42 47 61 48 43 49 46 50 60 51 79 52 44 53 45 54 59 56
REMARK SMILES IDX 80 57 47 58 31 59 32 60 40 61 33 62 34 63 38 64 41 65 35 66
REMARK SMILES IDX 36 67 39 68 37 69 63 70 64 71 72 72 65 73 66 74 70 75 73 76
REMARK SMILES IDX 67 77 68 78 71 79 69 80 48 81 49 82 57 83 50 84 51 85 55 86
REMARK SMILES IDX 58 87 52 88 53 89 56 90 54 91
REMARK H PARENT 7 14 78 44 46 55
REMARK Flexibility Score: inf
ROOT
ATOM      1  C   UNL A   1      36.367  19.967  24.979  1.00  0.00     0.274 C 
ENDROOT
BRANCH   1   2
ATOM      2  O   UNL A   1      35.086  20.466  25.409  1.00  0.00    -0.460 OA
BRANCH   2   3
ATOM      3  C   UNL A   1      34.001  20.043  24.705  1.00  0.00     0.331 C 
ATOM      4  O   UNL A   1      33.791  18.876  24.391  1.00  0.00    -0.250 OA
BRANCH   3   5
ATOM      5  C   UNL A   1      33.067  21.189  24.308  1.00  0.00     0.226 C 
ATOM      6  C   UNL A   1      33.123  23.435  24.711  1.00  0.00     0.094 C 
ATOM      7  N   UNL A   1      33.856  22.439  24.326  1.00  0.00    -0.264 NA
ATOM      8  S   UNL A   1      31.439  23.079  25.062  1.00  0.00    -0.106 SA
ATOM      9  C   UNL A   1      31.829  21.321  25.186  1.00  0.00     0.115 C 
BRANCH   6  10
ATOM     10  C   UNL A   1      33.703  24.842  24.922  1.00  0.00     0.080 C 
ATOM     11  C   UNL A   1      33.633  25.658  23.616  1.00  0.00     0.042 C 
ATOM     12  C   UNL A   1      35.191  24.707  25.305  1.00  0.00     0.042 C 
BRANCH  10  13
ATOM     13  N   UNL A   1      33.046  25.642  25.983  1.00  0.00    -0.374 N 
ATOM     14  H   UNL A   1      32.549  25.102  26.640  1.00  0.00     0.161 HD
BRANCH  13  15
ATOM     15  C   UNL A   1      32.999  26.997  26.221  1.00  0.00     0.035 A 
ATOM     16  C   UNL A   1      32.859  29.709  27.068  1.00  0.00     0.119 A 
ATOM     17  C   UNL A   1      33.976  29.233  26.397  1.00  0.00     0.048 A 
ATOM     18  C   UNL A   1      31.770  28.863  27.240  1.00  0.00     0.048 A 
ATOM     19  C   UNL A   1      34.025  27.901  25.963  1.00  0.00     0.029 A 
ATOM     20  C   UNL A   1      31.851  27.524  26.832  1.00  0.00     0.029 A 
BRANCH  16  21
ATOM     21  O   UNL A   1      32.921  31.013  27.473  1.00  0.00    -0.497 OA
ATOM     22  C   UNL A   1      34.225  31.467  27.819  1.00  0.00     0.278 C 
ENDBRANCH  16  21
ENDBRANCH  13  15
ENDBRANCH  10  13
ENDBRANCH   6  10
ENDBRANCH   3   5
ENDBRANCH   2   3
ENDBRANCH   1   2
BRANCH   1  23
ATOM     23  C   UNL A   1      37.340  21.101  24.629  1.00  0.00     0.275 C 
BRANCH  23  24
ATOM     24  O   UNL A   1      37.773  21.824  25.797  1.00  0.00    -0.458 OA
BRANCH  24  25
ATOM     25  C   UNL A   1      39.032  21.537  26.205  1.00  0.00     0.338 C 
ATOM     26  O   UNL A   1      39.647  20.498  26.042  1.00  0.00    -0.246 OA
BRANCH  25  27
ATOM     27  C   UNL A   1      39.681  22.755  26.711  1.00  0.00     0.060 A 
ATOM     28  C   UNL A   1      39.295  23.963  26.128  1.00  0.00     0.016 A 
ATOM     29  C   UNL A   1      40.704  22.723  27.656  1.00  0.00     0.016 A 
ATOM     30  C   UNL A   1      39.912  25.151  26.481  1.00  0.00     0.010 A 
ATOM     31  C   UNL A   1      41.338  23.921  28.009  1.00  0.00     0.010 A 
ATOM     32  C   UNL A   1      40.948  25.136  27.415  1.00  0.00    -0.014 A 
BRANCH  32  33
ATOM     33  C   UNL A   1      41.672  26.396  27.682  1.00  0.00     0.031 A 
ATOM     34  C   UNL A   1      41.015  27.453  28.517  1.00  0.00     0.074 A 
ATOM     35  C   UNL A   1      42.938  26.546  27.257  1.00  0.00     0.049 A 
ATOM     36  N   UNL A   1      41.423  28.664  28.791  1.00  0.00    -0.248 NA
ATOM     37  C   UNL A   1      39.726  27.094  29.131  1.00  0.00     0.031 C 
ATOM     38  C   UNL A   1      43.711  25.534  26.536  1.00  0.00     0.029 A 
ATOM     39  N   UNL A   1      43.801  27.602  27.383  1.00  0.00    -0.354 N 
ATOM     40  C   UNL A   1      40.427  29.223  29.580  1.00  0.00     0.074 A 
ATOM     41  C   UNL A   1      39.395  28.222  29.741  1.00  0.00     0.031 C 
ATOM     42  C   UNL A   1      44.940  26.015  26.292  1.00  0.00     0.029 A 
ATOM     43  C   UNL A   1      45.016  27.389  26.781  1.00  0.00     0.049 A 
ATOM     44  H   UNL A   1      43.572  28.433  27.859  1.00  0.00     0.167 HD
ATOM     45  C   UNL A   1      40.383  30.467  30.113  1.00  0.00     0.037 A 
ATOM     46  C   UNL A   1      46.057  28.227  26.614  1.00  0.00     0.037 A 
ATOM     47  C   UNL A   1      41.429  31.444  29.961  1.00  0.00     0.049 A 
ATOM     48  C   UNL A   1      45.946  29.631  27.139  1.00  0.00     0.074 A 
ATOM     49  C   UNL A   1      41.478  32.742  30.434  1.00  0.00     0.029 A 
ATOM     50  N   UNL A   1      42.620  31.219  29.284  1.00  0.00    -0.354 N 
ATOM     51  N   UNL A   1      44.973  30.185  27.822  1.00  0.00    -0.248 NA
ATOM     52  C   UNL A   1      47.070  30.534  26.853  1.00  0.00     0.031 C 
ATOM     53  C   UNL A   1      42.684  33.314  30.015  1.00  0.00     0.029 A 
ATOM     54  C   UNL A   1      43.405  32.359  29.315  1.00  0.00     0.049 A 
ATOM     55  H   UNL A   1      42.869  30.372  28.846  1.00  0.00     0.167 HD
ATOM     56  C   UNL A   1      45.370  31.493  28.062  1.00  0.00     0.074 A 
ATOM     57  C   UNL A   1      46.681  31.646  27.462  1.00  0.00     0.031 C 
ATOM     58  C   UNL A   1      44.710  32.480  28.715  1.00  0.00     0.037 A 
BRANCH  45  59
ATOM     59  C   UNL A   1      39.143  30.849  30.864  1.00  0.00     0.064 A 
ATOM     60  C   UNL A   1      38.069  31.501  30.240  1.00  0.00     0.173 A 
ATOM     61  C   UNL A   1      39.031  30.556  32.231  1.00  0.00     0.173 A 
ATOM     62  F   UNL A   1      38.138  31.822  28.940  1.00  0.00    -0.203 F 
ATOM     63  C   UNL A   1      36.938  31.868  30.965  1.00  0.00     0.198 A 
ATOM     64  C   UNL A   1      37.888  30.903  32.947  1.00  0.00     0.198 A 
ATOM     65  F   UNL A   1      40.030  29.936  32.875  1.00  0.00    -0.203 F 
ATOM     66  F   UNL A   1      35.944  32.535  30.361  1.00  0.00    -0.200 F 
ATOM     67  C   UNL A   1      36.846  31.564  32.316  1.00  0.00     0.200 A 
ATOM     68  F   UNL A   1      37.799  30.603  34.251  1.00  0.00    -0.200 F 
ATOM     69  F   UNL A   1      35.757  31.921  33.012  1.00  0.00    -0.200 F 
ENDBRANCH  45  59
BRANCH  46  70
ATOM     70  C   UNL A   1      47.268  27.770  25.886  1.00  0.00     0.064 A 
ATOM     71  C   UNL A   1      47.320  27.793  24.487  1.00  0.00     0.173 A 
ATOM     72  C   UNL A   1      48.399  27.305  26.575  1.00  0.00     0.173 A 
ATOM     73  F   UNL A   1      46.254  28.203  23.784  1.00  0.00    -0.203 F 
ATOM     74  C   UNL A   1      48.456  27.362  23.803  1.00  0.00     0.198 A 
ATOM     75  C   UNL A   1      49.543  26.901  25.892  1.00  0.00     0.198 A 
ATOM     76  F   UNL A   1      48.397  27.257  27.915  1.00  0.00    -0.203 F 
ATOM     77  F   UNL A   1      48.467  27.360  22.463  1.00  0.00    -0.200 F 
ATOM     78  C   UNL A   1      49.569  26.924  24.505  1.00  0.00     0.200 A 
ATOM     79  F   UNL A   1      50.619  26.487  26.576  1.00  0.00    -0.200 F 
ATOM     80  F   UNL A   1      50.662  26.517  23.847  1.00  0.00    -0.200 F 
ENDBRANCH  46  70
BRANCH  58  81
ATOM     81  C   UNL A   1      45.410  33.798  28.842  1.00  0.00     0.064 A 
ATOM     82  C   UNL A   1      46.285  34.063  29.906  1.00  0.00     0.173 A 
ATOM     83  C   UNL A   1      45.233  34.792  27.868  1.00  0.00     0.173 A 
ATOM     84  F   UNL A   1      46.472  33.149  30.869  1.00  0.00    -0.203 F 
ATOM     85  C   UNL A   1      46.944  35.286  29.998  1.00  0.00     0.198 A 
ATOM     86  C   UNL A   1      45.912  36.003  27.952  1.00  0.00     0.198 A 
ATOM     87  F   UNL A   1      44.409  34.581  26.830  1.00  0.00    -0.203 F 
ATOM     88  F   UNL A   1      47.746  35.534  31.043  1.00  0.00    -0.200 F 
ATOM     89  C   UNL A   1      46.762  36.251  29.019  1.00  0.00     0.200 A 
ATOM     90  F   UNL A   1      45.742  36.932  27.000  1.00  0.00    -0.200 F 
ATOM     91  F   UNL A   1      47.401  37.425  29.108  1.00  0.00    -0.200 F 
ENDBRANCH  58  81
ENDBRANCH  32  33
ENDBRANCH  25  27
ENDBRANCH  24  25
ENDBRANCH  23  24
ENDBRANCH   1  23
TORSDOF 15
ENDMDL
MODEL 3
REMARK VINA RESULT:     -11.6      1.549      2.656
REMARK SMILES COc1ccc(NC(C)(C)C2=N[C@@H](C(=O)OCCOC(=O)c3ccc(-c4c5nc(c(-c6c(F)c(F)c(F)c(F)c6F)c6ccc([nH]6)c(-c6c(F)c(F)c(F)c(F)c6F)c6nc(c(-c7c(F)c(F)c(F)c(F)c7F)c7ccc4[nH]7)C=C6)C=C5)cc3)CS2)cc1
REMARK SMILES IDX 17 1 16 2 14 3 15 4 13 5 11 6 12 7 86 8 85 9 8 10 9 11 10 12
REMARK SMILES IDX 7 13 6 15 3 16 4 17 88 18 5 19 87 20 2 21 1 22 18 23 19 24
REMARK SMILES IDX 20 25 21 26 22 27 23 28 84 29 24 30 83 31 25 32 26 33 27 34
REMARK SMILES IDX 77 35 28 36 82 37 76 38 78 39 29 40 81 41 75 42 74 43 30 45
REMARK SMILES IDX 62 46 42 47 61 48 43 49 46 50 60 51 79 52 44 53 45 54 59 56
REMARK SMILES IDX 80 57 47 58 31 59 32 60 40 61 33 62 34 63 38 64 41 65 35 66
REMARK SMILES IDX 36 67 39 68 37 69 63 70 64 71 72 72 65 73 66 74 70 75 73 76
REMARK SMILES IDX 67 77 68 78 71 79 69 80 48 81 49 82 57 83 50 84 51 85 55 86
REMARK SMILES IDX 58 87 52 88 53 89 56 90 54 91
REMARK H PARENT 7 14 78 44 46 55
REMARK Flexibility Score: inf
ROOT
ATOM      1  C   UNL A   1      32.086  27.990  27.128  1.00  0.00     0.274 C 
ENDROOT
BRANCH   1   2
ATOM      2  O   UNL A   1      30.907  27.173  26.998  1.00  0.00    -0.460 OA
BRANCH   2   3
ATOM      3  C   UNL A   1      30.904  26.268  25.981  1.00  0.00     0.331 C 
ATOM      4  O   UNL A   1      30.075  26.245  25.077  1.00  0.00    -0.250 OA
BRANCH   3   5
ATOM      5  C   UNL A   1      32.036  25.243  26.095  1.00  0.00     0.226 C 
ATOM      6  C   UNL A   1      32.886  23.714  24.629  1.00  0.00     0.094 C 
ATOM      7  N   UNL A   1      32.517  24.952  24.727  1.00  0.00    -0.264 NA
ATOM      8  S   UNL A   1      32.766  22.742  26.087  1.00  0.00    -0.106 SA
ATOM      9  C   UNL A   1      31.649  23.959  26.815  1.00  0.00     0.115 C 
BRANCH   6  10
ATOM     10  C   UNL A   1      33.336  23.101  23.294  1.00  0.00     0.080 C 
ATOM     11  C   UNL A   1      32.884  23.983  22.114  1.00  0.00     0.042 C 
ATOM     12  C   UNL A   1      32.657  21.725  23.132  1.00  0.00     0.042 C 
BRANCH  10  13
ATOM     13  N   UNL A   1      34.797  22.890  23.159  1.00  0.00    -0.374 N 
ATOM     14  H   UNL A   1      35.114  22.876  22.226  1.00  0.00     0.161 HD
BRANCH  13  15
ATOM     15  C   UNL A   1      35.794  22.711  24.091  1.00  0.00     0.035 A 
ATOM     16  C   UNL A   1      38.025  22.141  25.762  1.00  0.00     0.119 A 
ATOM     17  C   UNL A   1      37.678  23.451  25.465  1.00  0.00     0.048 A 
ATOM     18  C   UNL A   1      37.211  21.112  25.304  1.00  0.00     0.048 A 
ATOM     19  C   UNL A   1      36.563  23.722  24.660  1.00  0.00     0.029 A 
ATOM     20  C   UNL A   1      36.120  21.400  24.470  1.00  0.00     0.029 A 
BRANCH  16  21
ATOM     21  O   UNL A   1      39.143  21.983  26.530  1.00  0.00    -0.497 OA
ATOM     22  C   UNL A   1      40.001  20.921  26.124  1.00  0.00     0.278 C 
ENDBRANCH  16  21
ENDBRANCH  13  15
ENDBRANCH  10  13
ENDBRANCH   6  10
ENDBRANCH   3   5
ENDBRANCH   2   3
ENDBRANCH   1   2
BRANCH   1  23
ATOM     23  C   UNL A   1      31.832  29.442  26.703  1.00  0.00     0.275 C 
BRANCH  23  24
ATOM     24  O   UNL A   1      33.038  30.099  26.269  1.00  0.00    -0.458 OA
BRANCH  24  25
ATOM     25  C   UNL A   1      33.385  31.186  26.998  1.00  0.00     0.338 C 
ATOM     26  O   UNL A   1      32.696  32.159  27.253  1.00  0.00    -0.246 OA
BRANCH  25  27
ATOM     27  C   UNL A   1      34.679  30.954  27.654  1.00  0.00     0.060 A 
ATOM     28  C   UNL A   1      34.984  29.635  27.998  1.00  0.00     0.016 A 
ATOM     29  C   UNL A   1      35.535  31.992  28.013  1.00  0.00     0.016 A 
ATOM     30  C   UNL A   1      36.141  29.332  28.693  1.00  0.00     0.010 A 
ATOM     31  C   UNL A   1      36.703  31.691  28.726  1.00  0.00     0.010 A 
ATOM     32  C   UNL A   1      37.003  30.361  29.074  1.00  0.00    -0.014 A 
BRANCH  32  33
ATOM     33  C   UNL A   1      38.167  30.026  29.921  1.00  0.00     0.031 A 
ATOM     34  C   UNL A   1      39.262  29.176  29.354  1.00  0.00     0.074 A 
ATOM     35  C   UNL A   1      38.277  30.557  31.151  1.00  0.00     0.049 A 
ATOM     36  N   UNL A   1      40.317  28.681  29.946  1.00  0.00    -0.248 NA
ATOM     37  C   UNL A   1      39.158  28.843  27.924  1.00  0.00     0.031 C 
ATOM     38  C   UNL A   1      37.323  31.488  31.756  1.00  0.00     0.029 A 
ATOM     39  N   UNL A   1      39.247  30.401  32.106  1.00  0.00    -0.354 N 
ATOM     40  C   UNL A   1      40.984  27.952  28.971  1.00  0.00     0.074 A 
ATOM     41  C   UNL A   1      40.217  28.067  27.750  1.00  0.00     0.031 C 
ATOM     42  C   UNL A   1      37.763  31.829  32.978  1.00  0.00     0.029 A 
ATOM     43  C   UNL A   1      38.990  31.091  33.264  1.00  0.00     0.049 A 
ATOM     44  H   UNL A   1      40.050  29.847  31.974  1.00  0.00     0.167 HD
ATOM     45  C   UNL A   1      42.133  27.245  29.095  1.00  0.00     0.037 A 
ATOM     46  C   UNL A   1      39.655  31.093  34.435  1.00  0.00     0.037 A 
ATOM     47  C   UNL A   1      42.895  27.159  30.313  1.00  0.00     0.049 A 
ATOM     48  C   UNL A   1      40.878  30.230  34.573  1.00  0.00     0.074 A 
ATOM     49  C   UNL A   1      44.057  26.451  30.559  1.00  0.00     0.029 A 
ATOM     50  N   UNL A   1      42.568  27.816  31.492  1.00  0.00    -0.354 N 
ATOM     51  N   UNL A   1      41.469  29.481  33.673  1.00  0.00    -0.248 NA
ATOM     52  C   UNL A   1      41.516  30.197  35.896  1.00  0.00     0.031 C 
ATOM     53  C   UNL A   1      44.415  26.652  31.897  1.00  0.00     0.029 A 
ATOM     54  C   UNL A   1      43.498  27.519  32.473  1.00  0.00     0.049 A 
ATOM     55  H   UNL A   1      41.789  28.406  31.611  1.00  0.00     0.167 HD
ATOM     56  C   UNL A   1      42.554  28.900  34.312  1.00  0.00     0.074 A 
ATOM     57  C   UNL A   1      42.548  29.395  35.674  1.00  0.00     0.031 C 
ATOM     58  C   UNL A   1      43.471  28.032  33.819  1.00  0.00     0.037 A 
BRANCH  45  59
ATOM     59  C   UNL A   1      42.598  26.475  27.897  1.00  0.00     0.064 A 
ATOM     60  C   UNL A   1      42.204  25.147  27.669  1.00  0.00     0.173 A 
ATOM     61  C   UNL A   1      43.452  27.077  26.961  1.00  0.00     0.173 A 
ATOM     62  F   UNL A   1      41.407  24.520  28.547  1.00  0.00    -0.203 F 
ATOM     63  C   UNL A   1      42.671  24.443  26.561  1.00  0.00     0.198 A 
ATOM     64  C   UNL A   1      43.896  26.378  25.841  1.00  0.00     0.198 A 
ATOM     65  F   UNL A   1      43.858  28.343  27.133  1.00  0.00    -0.203 F 
ATOM     66  F   UNL A   1      42.322  23.160  26.389  1.00  0.00    -0.200 F 
ATOM     67  C   UNL A   1      43.511  25.061  25.646  1.00  0.00     0.200 A 
ATOM     68  F   UNL A   1      44.702  26.979  24.955  1.00  0.00    -0.200 F 
ATOM     69  F   UNL A   1      43.960  24.381  24.582  1.00  0.00    -0.200 F 
ENDBRANCH  45  59
BRANCH  46  70
ATOM     70  C   UNL A   1      39.153  31.907  35.571  1.00  0.00     0.064 A 
ATOM     71  C   UNL A   1      38.295  31.354  36.530  1.00  0.00     0.173 A 
ATOM     72  C   UNL A   1      39.524  33.251  35.723  1.00  0.00     0.173 A 
ATOM     73  F   UNL A   1      37.891  30.080  36.413  1.00  0.00    -0.203 F 
ATOM     74  C   UNL A   1      37.823  32.117  37.597  1.00  0.00     0.198 A 
ATOM     75  C   UNL A   1      39.072  34.006  36.803  1.00  0.00     0.198 A 
ATOM     76  F   UNL A   1      40.337  33.829  34.828  1.00  0.00    -0.203 F 
ATOM     77  F   UNL A   1      36.975  31.575  38.481  1.00  0.00    -0.200 F 
ATOM     78  C   UNL A   1      38.217  33.439  37.737  1.00  0.00     0.200 A 
ATOM     79  F   UNL A   1      39.464  35.280  36.939  1.00  0.00    -0.200 F 
ATOM     80  F   UNL A   1      37.768  34.170  38.766  1.00  0.00    -0.200 F 
ENDBRANCH  46  70
BRANCH  58  81
ATOM     81  C   UNL A   1      44.560  27.592  34.749  1.00  0.00     0.064 A 
ATOM     82  C   UNL A   1      45.751  28.321  34.881  1.00  0.00     0.173 A 
ATOM     83  C   UNL A   1      44.393  26.450  35.546  1.00  0.00     0.173 A 
ATOM     84  F   UNL A   1      45.961  29.410  34.127  1.00  0.00    -0.203 F 
ATOM     85  C   UNL A   1      46.744  27.910  35.765  1.00  0.00     0.198 A 
ATOM     86  C   UNL A   1      45.378  26.056  36.446  1.00  0.00     0.198 A 
ATOM     87  F   UNL A   1      43.268  25.723  35.458  1.00  0.00    -0.203 F 
ATOM     88  F   UNL A   1      47.891  28.598  35.847  1.00  0.00    -0.200 F 
ATOM     89  C   UNL A   1      46.555  26.782  36.551  1.00  0.00     0.200 A 
ATOM     90  F   UNL A   1      45.190  24.972  37.211  1.00  0.00    -0.200 F 
ATOM     91  F   UNL A   1      47.510  26.392  37.405  1.00  0.00    -0.200 F 
ENDBRANCH  58  81
ENDBRANCH  32  33
ENDBRANCH  25  27
ENDBRANCH  24  25
ENDBRANCH  23  24
ENDBRANCH   1  23
TORSDOF 15
ENDMDL
