MODEL 1
REMARK VINA RESULT:     -11.2      0.000      0.000
REMARK SMILES CO[C@H]1C[C@@H](C(=O)OCCOC(=O)c2ccc(-c3c4nc(c(-c5c(F)c(F)c(F)c(F)c5F)c5ccc([nH]5)c(-c5c(F)c(F)c(F)c(F)c5F)c5nc(c(-c6c(F)c(F)c(F)c(F)c6F)c6ccc3[nH]6)C=C5)C=C4)cc2)N(C(=O)c2cscc2C)C1
REMARK SMILES IDX 9 1 8 2 6 3 7 4 5 5 3 6 4 7 86 8 77 9 2 10 1 11 78 12 79 13
REMARK SMILES IDX 80 14 81 15 84 16 82 17 83 18 85 19 10 20 11 21 12 22 13 23
REMARK SMILES IDX 14 24 15 25 76 26 16 27 75 28 17 29 18 30 19 31 69 32 20 33
REMARK SMILES IDX 74 34 68 35 70 36 21 37 73 38 67 39 66 40 22 42 54 43 34 44
REMARK SMILES IDX 53 45 35 46 38 47 52 48 71 49 36 50 37 51 51 53 72 54 39 55
REMARK SMILES IDX 23 56 24 57 32 58 25 59 26 60 30 61 33 62 27 63 28 64 31 65
REMARK SMILES IDX 29 66 55 67 56 68 64 69 57 70 58 71 62 72 65 73 59 74 60 75
REMARK SMILES IDX 63 76 61 77 40 78 41 79 49 80 42 81 43 82 47 83 50 84 44 85
REMARK SMILES IDX 45 86 48 87 46 88
REMARK H PARENT 70 41 38 52
REMARK Flexibility Score: inf
ROOT
ATOM      1  C   UNL A   1      31.469  31.053  26.238  1.00  0.00     0.274 C 
ENDROOT
BRANCH   1   2
ATOM      2  O   UNL A   1      32.781  30.478  26.045  1.00  0.00    -0.461 OA
BRANCH   2   3
ATOM      3  C   UNL A   1      32.956  29.150  26.311  1.00  0.00     0.329 C 
ATOM      4  O   UNL A   1      33.884  28.689  26.965  1.00  0.00    -0.250 OA
BRANCH   3   5
ATOM      5  C   UNL A   1      31.703  28.327  25.891  1.00  0.00     0.198 C 
ATOM      6  C   UNL A   1      30.526  26.231  25.988  1.00  0.00     0.140 C 
ATOM      7  C   UNL A   1      31.379  27.172  26.828  1.00  0.00     0.071 C 
ATOM      8  C   UNL A   1      31.014  26.474  24.551  1.00  0.00     0.152 C 
ATOM      9  N   UNL A   1      31.760  27.739  24.535  1.00  0.00    -0.322 N 
BRANCH   6  10
ATOM     10  O   UNL A   1      30.760  24.918  26.492  1.00  0.00    -0.380 OA
ATOM     11  C   UNL A   1      31.052  23.943  25.505  1.00  0.00     0.195 C 
ENDBRANCH   6  10
BRANCH   9  12
ATOM     12  C   UNL A   1      33.065  27.599  24.069  1.00  0.00     0.255 C 
ATOM     13  O   UNL A   1      33.584  28.567  23.528  1.00  0.00    -0.269 OA
BRANCH  12  14
ATOM     14  C   UNL A   1      33.657  26.263  24.068  1.00  0.00     0.053 A 
ATOM     15  C   UNL A   1      34.257  25.746  25.204  1.00  0.00     0.079 A 
ATOM     16  C   UNL A   1      33.654  25.276  23.016  1.00  0.00    -0.028 A 
ATOM     17  S   UNL A   1      34.897  24.184  25.000  1.00  0.00    -0.151 S 
ATOM     18  C   UNL A   1      34.339  24.132  23.392  1.00  0.00     0.069 A 
ATOM     19  C   UNL A   1      32.945  25.416  21.713  1.00  0.00     0.046 C 
ENDBRANCH  12  14
ENDBRANCH   9  12
ENDBRANCH   3   5
ENDBRANCH   2   3
ENDBRANCH   1   2
BRANCH   1  20
ATOM     20  C   UNL A   1      31.592  32.429  26.930  1.00  0.00     0.275 C 
BRANCH  20  21
ATOM     21  O   UNL A   1      32.938  32.958  26.832  1.00  0.00    -0.458 OA
BRANCH  21  22
ATOM     22  C   UNL A   1      33.416  33.604  27.933  1.00  0.00     0.338 C 
ATOM     23  O   UNL A   1      32.859  34.499  28.551  1.00  0.00    -0.246 OA
BRANCH  22  24
ATOM     24  C   UNL A   1      34.686  32.977  28.397  1.00  0.00     0.060 A 
ATOM     25  C   UNL A   1      34.636  31.641  28.825  1.00  0.00     0.016 A 
ATOM     26  C   UNL A   1      35.912  33.644  28.377  1.00  0.00     0.016 A 
ATOM     27  C   UNL A   1      35.805  30.952  29.149  1.00  0.00     0.010 A 
ATOM     28  C   UNL A   1      37.080  32.976  28.795  1.00  0.00     0.010 A 
ATOM     29  C   UNL A   1      37.035  31.627  29.186  1.00  0.00    -0.014 A 
BRANCH  29  30
ATOM     30  C   UNL A   1      38.183  30.956  29.860  1.00  0.00     0.031 A 
ATOM     31  C   UNL A   1      38.431  31.282  31.307  1.00  0.00     0.074 A 
ATOM     32  C   UNL A   1      38.965  30.042  29.255  1.00  0.00     0.049 A 
ATOM     33  N   UNL A   1      39.278  30.752  32.151  1.00  0.00    -0.248 NA
ATOM     34  C   UNL A   1      37.591  32.347  31.880  1.00  0.00     0.031 C 
ATOM     35  C   UNL A   1      38.836  29.610  27.870  1.00  0.00     0.029 A 
ATOM     36  N   UNL A   1      40.018  29.300  29.740  1.00  0.00    -0.354 N 
ATOM     37  C   UNL A   1      39.052  31.398  33.359  1.00  0.00     0.074 A 
ATOM     38  C   UNL A   1      37.991  32.357  33.139  1.00  0.00     0.031 C 
ATOM     39  C   UNL A   1      39.759  28.666  27.615  1.00  0.00     0.029 A 
ATOM     40  C   UNL A   1      40.569  28.447  28.814  1.00  0.00     0.049 A 
ATOM     41  H   UNL A   1      40.346  29.374  30.665  1.00  0.00     0.167 HD
ATOM     42  C   UNL A   1      39.684  31.233  34.544  1.00  0.00     0.037 A 
ATOM     43  C   UNL A   1      41.615  27.599  28.919  1.00  0.00     0.037 A 
ATOM     44  C   UNL A   1      40.809  30.367  34.755  1.00  0.00     0.049 A 
ATOM     45  C   UNL A   1      42.366  27.497  30.226  1.00  0.00     0.074 A 
ATOM     46  C   UNL A   1      41.555  30.187  35.906  1.00  0.00     0.029 A 
ATOM     47  N   UNL A   1      41.377  29.566  33.777  1.00  0.00    -0.354 N 
ATOM     48  N   UNL A   1      42.121  28.085  31.372  1.00  0.00    -0.248 NA
ATOM     49  C   UNL A   1      43.549  26.621  30.247  1.00  0.00     0.031 C 
ATOM     50  C   UNL A   1      42.611  29.317  35.608  1.00  0.00     0.029 A 
ATOM     51  C   UNL A   1      42.489  28.915  34.286  1.00  0.00     0.049 A 
ATOM     52  H   UNL A   1      41.040  29.474  32.856  1.00  0.00     0.167 HD
ATOM     53  C   UNL A   1      43.115  27.658  32.244  1.00  0.00     0.074 A 
ATOM     54  C   UNL A   1      43.950  26.734  31.507  1.00  0.00     0.031 C 
ATOM     55  C   UNL A   1      43.321  28.009  33.538  1.00  0.00     0.037 A 
BRANCH  42  56
ATOM     56  C   UNL A   1      39.204  32.098  35.667  1.00  0.00     0.064 A 
ATOM     57  C   UNL A   1      39.715  33.388  35.867  1.00  0.00     0.173 A 
ATOM     58  C   UNL A   1      38.284  31.596  36.598  1.00  0.00     0.173 A 
ATOM     59  F   UNL A   1      40.621  33.896  35.018  1.00  0.00    -0.203 F 
ATOM     60  C   UNL A   1      39.351  34.132  36.987  1.00  0.00     0.198 A 
ATOM     61  C   UNL A   1      37.906  32.351  37.704  1.00  0.00     0.198 A 
ATOM     62  F   UNL A   1      37.779  30.362  36.452  1.00  0.00    -0.203 F 
ATOM     63  F   UNL A   1      39.902  35.335  37.198  1.00  0.00    -0.200 F 
ATOM     64  C   UNL A   1      38.448  33.612  37.904  1.00  0.00     0.200 A 
ATOM     65  F   UNL A   1      37.037  31.848  38.590  1.00  0.00    -0.200 F 
ATOM     66  F   UNL A   1      38.117  34.319  38.993  1.00  0.00    -0.200 F 
ENDBRANCH  42  56
BRANCH  43  67
ATOM     67  C   UNL A   1      42.042  26.791  27.744  1.00  0.00     0.064 A 
ATOM     68  C   UNL A   1      41.500  25.522  27.500  1.00  0.00     0.173 A 
ATOM     69  C   UNL A   1      43.022  27.261  26.857  1.00  0.00     0.173 A 
ATOM     70  F   UNL A   1      40.587  25.010  28.339  1.00  0.00    -0.203 F 
ATOM     71  C   UNL A   1      41.923  24.753  26.416  1.00  0.00     0.198 A 
ATOM     72  C   UNL A   1      43.424  26.503  25.759  1.00  0.00     0.198 A 
ATOM     73  F   UNL A   1      43.583  28.463  27.052  1.00  0.00    -0.203 F 
ATOM     74  F   UNL A   1      41.417  23.526  26.228  1.00  0.00    -0.200 F 
ATOM     75  C   UNL A   1      42.879  25.247  25.542  1.00  0.00     0.200 A 
ATOM     76  F   UNL A   1      44.344  26.988  24.913  1.00  0.00    -0.200 F 
ATOM     77  F   UNL A   1      43.281  24.511  24.497  1.00  0.00    -0.200 F 
ENDBRANCH  43  67
BRANCH  55  78
ATOM     78  C   UNL A   1      44.500  27.405  34.245  1.00  0.00     0.064 A 
ATOM     79  C   UNL A   1      45.766  28.008  34.203  1.00  0.00     0.173 A 
ATOM     80  C   UNL A   1      44.348  26.251  35.029  1.00  0.00     0.173 A 
ATOM     81  F   UNL A   1      45.967  29.106  33.458  1.00  0.00    -0.203 F 
ATOM     82  C   UNL A   1      46.840  27.470  34.910  1.00  0.00     0.198 A 
ATOM     83  C   UNL A   1      45.418  25.731  35.753  1.00  0.00     0.198 A 
ATOM     84  F   UNL A   1      43.157  25.640  35.107  1.00  0.00    -0.203 F 
ATOM     85  F   UNL A   1      48.047  28.046  34.831  1.00  0.00    -0.200 F 
ATOM     86  C   UNL A   1      46.662  26.338  35.691  1.00  0.00     0.200 A 
ATOM     87  F   UNL A   1      45.241  24.643  36.518  1.00  0.00    -0.200 F 
ATOM     88  F   UNL A   1      47.693  25.830  36.381  1.00  0.00    -0.200 F 
ENDBRANCH  55  78
ENDBRANCH  29  30
ENDBRANCH  22  24
ENDBRANCH  21  22
ENDBRANCH  20  21
ENDBRANCH   1  20
TORSDOF 14
ENDMDL
MODEL 2
REMARK VINA RESULT:     -11.0      4.936     10.273
REMARK SMILES CO[C@H]1C[C@@H](C(=O)OCCOC(=O)c2ccc(-c3c4nc(c(-c5c(F)c(F)c(F)c(F)c5F)c5ccc([nH]5)c(-c5c(F)c(F)c(F)c(F)c5F)c5nc(c(-c6c(F)c(F)c(F)c(F)c6F)c6ccc3[nH]6)C=C5)C=C4)cc2)N(C(=O)c2cscc2C)C1
REMARK SMILES IDX 9 1 8 2 6 3 7 4 5 5 3 6 4 7 86 8 77 9 2 10 1 11 78 12 79 13
REMARK SMILES IDX 80 14 81 15 84 16 82 17 83 18 85 19 10 20 11 21 12 22 13 23
REMARK SMILES IDX 14 24 15 25 76 26 16 27 75 28 17 29 18 30 19 31 69 32 20 33
REMARK SMILES IDX 74 34 68 35 70 36 21 37 73 38 67 39 66 40 22 42 54 43 34 44
REMARK SMILES IDX 53 45 35 46 38 47 52 48 71 49 36 50 37 51 51 53 72 54 39 55
REMARK SMILES IDX 23 56 24 57 32 58 25 59 26 60 30 61 33 62 27 63 28 64 31 65
REMARK SMILES IDX 29 66 55 67 56 68 64 69 57 70 58 71 62 72 65 73 59 74 60 75
REMARK SMILES IDX 63 76 61 77 40 78 41 79 49 80 42 81 43 82 47 83 50 84 44 85
REMARK SMILES IDX 45 86 48 87 46 88
REMARK H PARENT 70 41 38 52
REMARK Flexibility Score: inf
ROOT
ATOM      1  C   UNL A   1      37.012  20.989  24.625  1.00  0.00     0.274 C 
ENDROOT
BRANCH   1   2
ATOM      2  O   UNL A   1      35.833  20.370  25.183  1.00  0.00    -0.461 OA
BRANCH   2   3
ATOM      3  C   UNL A   1      34.781  21.168  25.534  1.00  0.00     0.329 C 
ATOM      4  O   UNL A   1      34.480  21.453  26.687  1.00  0.00    -0.250 OA
BRANCH   3   5
ATOM      5  C   UNL A   1      34.169  21.866  24.284  1.00  0.00     0.198 C 
ATOM      6  C   UNL A   1      32.710  23.575  23.426  1.00  0.00     0.140 C 
ATOM      7  C   UNL A   1      33.716  23.297  24.534  1.00  0.00     0.071 C 
ATOM      8  C   UNL A   1      32.113  22.194  23.114  1.00  0.00     0.152 C 
ATOM      9  N   UNL A   1      33.006  21.177  23.684  1.00  0.00    -0.322 N 
BRANCH   6  10
ATOM     10  O   UNL A   1      31.786  24.528  23.949  1.00  0.00    -0.380 OA
ATOM     11  C   UNL A   1      30.543  24.589  23.271  1.00  0.00     0.195 C 
ENDBRANCH   6  10
BRANCH   9  12
ATOM     12  C   UNL A   1      32.366  20.329  24.584  1.00  0.00     0.255 C 
ATOM     13  O   UNL A   1      31.686  20.840  25.464  1.00  0.00    -0.269 OA
BRANCH  12  14
ATOM     14  C   UNL A   1      32.704  18.907  24.553  1.00  0.00     0.053 A 
ATOM     15  C   UNL A   1      32.911  18.196  25.723  1.00  0.00     0.079 A 
ATOM     16  C   UNL A   1      32.789  18.025  23.415  1.00  0.00    -0.028 A 
ATOM     17  S   UNL A   1      33.305  16.561  25.479  1.00  0.00    -0.151 S 
ATOM     18  C   UNL A   1      33.156  16.744  23.793  1.00  0.00     0.069 A 
ATOM     19  C   UNL A   1      32.454  18.402  22.013  1.00  0.00     0.046 C 
ENDBRANCH  12  14
ENDBRANCH   9  12
ENDBRANCH   3   5
ENDBRANCH   2   3
ENDBRANCH   1   2
BRANCH   1  20
ATOM     20  C   UNL A   1      38.268  20.171  25.003  1.00  0.00     0.275 C 
BRANCH  20  21
ATOM     21  O   UNL A   1      38.761  20.526  26.319  1.00  0.00    -0.458 OA
BRANCH  21  22
ATOM     22  C   UNL A   1      40.115  20.567  26.468  1.00  0.00     0.338 C 
ATOM     23  O   UNL A   1      40.909  19.695  26.148  1.00  0.00    -0.246 OA
BRANCH  22  24
ATOM     24  C   UNL A   1      40.548  21.907  26.957  1.00  0.00     0.060 A 
ATOM     25  C   UNL A   1      39.948  23.037  26.381  1.00  0.00     0.016 A 
ATOM     26  C   UNL A   1      41.477  22.074  27.986  1.00  0.00     0.016 A 
ATOM     27  C   UNL A   1      40.208  24.315  26.880  1.00  0.00     0.010 A 
ATOM     28  C   UNL A   1      41.811  23.370  28.425  1.00  0.00     0.010 A 
ATOM     29  C   UNL A   1      41.181  24.499  27.873  1.00  0.00    -0.014 A 
BRANCH  29  30
ATOM     30  C   UNL A   1      41.669  25.884  28.128  1.00  0.00     0.031 A 
ATOM     31  C   UNL A   1      43.033  26.250  27.610  1.00  0.00     0.074 A 
ATOM     32  C   UNL A   1      40.933  26.827  28.746  1.00  0.00     0.049 A 
ATOM     33  N   UNL A   1      43.637  27.411  27.590  1.00  0.00    -0.248 NA
ATOM     34  C   UNL A   1      43.813  25.151  27.018  1.00  0.00     0.031 C 
ATOM     35  C   UNL A   1      39.593  26.630  29.282  1.00  0.00     0.029 A 
ATOM     36  N   UNL A   1      41.207  28.150  29.011  1.00  0.00    -0.354 N 
ATOM     37  C   UNL A   1      44.853  27.185  26.960  1.00  0.00     0.074 A 
ATOM     38  C   UNL A   1      44.901  25.782  26.613  1.00  0.00     0.031 C 
ATOM     39  C   UNL A   1      39.149  27.789  29.798  1.00  0.00     0.029 A 
ATOM     40  C   UNL A   1      40.189  28.809  29.656  1.00  0.00     0.049 A 
ATOM     41  H   UNL A   1      42.055  28.582  28.761  1.00  0.00     0.167 HD
ATOM     42  C   UNL A   1      45.857  28.057  26.710  1.00  0.00     0.037 A 
ATOM     43  C   UNL A   1      40.112  30.085  30.094  1.00  0.00     0.037 A 
ATOM     44  C   UNL A   1      45.875  29.426  27.142  1.00  0.00     0.049 A 
ATOM     45  C   UNL A   1      41.282  31.018  29.887  1.00  0.00     0.074 A 
ATOM     46  C   UNL A   1      46.881  30.364  26.992  1.00  0.00     0.029 A 
ATOM     47  N   UNL A   1      44.853  30.040  27.848  1.00  0.00    -0.354 N 
ATOM     48  N   UNL A   1      42.412  30.805  29.258  1.00  0.00    -0.248 NA
ATOM     49  C   UNL A   1      41.168  32.366  30.466  1.00  0.00     0.031 C 
ATOM     50  C   UNL A   1      46.488  31.532  27.657  1.00  0.00     0.029 A 
ATOM     51  C   UNL A   1      45.216  31.336  28.174  1.00  0.00     0.049 A 
ATOM     52  H   UNL A   1      43.994  29.617  28.082  1.00  0.00     0.167 HD
ATOM     53  C   UNL A   1      43.142  31.982  29.368  1.00  0.00     0.074 A 
ATOM     54  C   UNL A   1      42.315  32.921  30.096  1.00  0.00     0.031 C 
ATOM     55  C   UNL A   1      44.390  32.256  28.913  1.00  0.00     0.037 A 
BRANCH  42  56
ATOM     56  C   UNL A   1      47.054  27.493  26.010  1.00  0.00     0.064 A 
ATOM     57  C   UNL A   1      48.130  26.947  26.726  1.00  0.00     0.173 A 
ATOM     58  C   UNL A   1      47.159  27.578  24.616  1.00  0.00     0.173 A 
ATOM     59  F   UNL A   1      48.086  26.876  28.065  1.00  0.00    -0.203 F 
ATOM     60  C   UNL A   1      49.288  26.541  26.068  1.00  0.00     0.198 A 
ATOM     61  C   UNL A   1      48.309  27.150  23.961  1.00  0.00     0.198 A 
ATOM     62  F   UNL A   1      46.159  28.103  23.893  1.00  0.00    -0.203 F 
ATOM     63  F   UNL A   1      50.333  26.086  26.774  1.00  0.00    -0.200 F 
ATOM     64  C   UNL A   1      49.377  26.644  24.687  1.00  0.00     0.200 A 
ATOM     65  F   UNL A   1      48.395  27.252  22.627  1.00  0.00    -0.200 F 
ATOM     66  F   UNL A   1      50.501  26.275  24.058  1.00  0.00    -0.200 F 
ENDBRANCH  42  56
BRANCH  43  67
ATOM     67  C   UNL A   1      38.891  30.559  30.802  1.00  0.00     0.064 A 
ATOM     68  C   UNL A   1      38.780  30.470  32.196  1.00  0.00     0.173 A 
ATOM     69  C   UNL A   1      37.800  31.086  30.094  1.00  0.00     0.173 A 
ATOM     70  F   UNL A   1      39.780  29.940  32.916  1.00  0.00    -0.203 F 
ATOM     71  C   UNL A   1      37.623  30.887  32.856  1.00  0.00     0.198 A 
ATOM     72  C   UNL A   1      36.656  31.526  30.757  1.00  0.00     0.198 A 
ATOM     73  F   UNL A   1      37.849  31.180  28.758  1.00  0.00    -0.203 F 
ATOM     74  F   UNL A   1      37.527  30.755  34.186  1.00  0.00    -0.200 F 
ATOM     75  C   UNL A   1      36.566  31.421  32.137  1.00  0.00     0.200 A 
ATOM     76  F   UNL A   1      35.639  32.049  30.058  1.00  0.00    -0.200 F 
ATOM     77  F   UNL A   1      35.457  31.828  32.770  1.00  0.00    -0.200 F 
ENDBRANCH  43  67
BRANCH  55  78
ATOM     78  C   UNL A   1      44.951  33.620  29.195  1.00  0.00     0.064 A 
ATOM     79  C   UNL A   1      45.737  33.867  30.330  1.00  0.00     0.173 A 
ATOM     80  C   UNL A   1      44.760  34.672  28.286  1.00  0.00     0.173 A 
ATOM     81  F   UNL A   1      45.940  32.898  31.236  1.00  0.00    -0.203 F 
ATOM     82  C   UNL A   1      46.300  35.122  30.551  1.00  0.00     0.198 A 
ATOM     83  C   UNL A   1      45.345  35.918  28.499  1.00  0.00     0.198 A 
ATOM     84  F   UNL A   1      44.022  34.486  27.182  1.00  0.00    -0.203 F 
ATOM     85  F   UNL A   1      47.023  35.344  31.658  1.00  0.00    -0.200 F 
ATOM     86  C   UNL A   1      46.112  36.143  29.632  1.00  0.00     0.200 A 
ATOM     87  F   UNL A   1      45.172  36.900  27.602  1.00  0.00    -0.200 F 
ATOM     88  F   UNL A   1      46.665  37.345  29.840  1.00  0.00    -0.200 F 
ENDBRANCH  55  78
ENDBRANCH  29  30
ENDBRANCH  22  24
ENDBRANCH  21  22
ENDBRANCH  20  21
ENDBRANCH   1  20
TORSDOF 14
ENDMDL
MODEL 3
REMARK VINA RESULT:     -10.9      4.938     10.266
REMARK SMILES CO[C@H]1C[C@@H](C(=O)OCCOC(=O)c2ccc(-c3c4nc(c(-c5c(F)c(F)c(F)c(F)c5F)c5ccc([nH]5)c(-c5c(F)c(F)c(F)c(F)c5F)c5nc(c(-c6c(F)c(F)c(F)c(F)c6F)c6ccc3[nH]6)C=C5)C=C4)cc2)N(C(=O)c2cscc2C)C1
REMARK SMILES IDX 9 1 8 2 6 3 7 4 5 5 3 6 4 7 86 8 77 9 2 10 1 11 78 12 79 13
REMARK SMILES IDX 80 14 81 15 84 16 82 17 83 18 85 19 10 20 11 21 12 22 13 23
REMARK SMILES IDX 14 24 15 25 76 26 16 27 75 28 17 29 18 30 19 31 69 32 20 33
REMARK SMILES IDX 74 34 68 35 70 36 21 37 73 38 67 39 66 40 22 42 54 43 34 44
REMARK SMILES IDX 53 45 35 46 38 47 52 48 71 49 36 50 37 51 51 53 72 54 39 55
REMARK SMILES IDX 23 56 24 57 32 58 25 59 26 60 30 61 33 62 27 63 28 64 31 65
REMARK SMILES IDX 29 66 55 67 56 68 64 69 57 70 58 71 62 72 65 73 59 74 60 75
REMARK SMILES IDX 63 76 61 77 40 78 41 79 49 80 42 81 43 82 47 83 50 84 44 85
REMARK SMILES IDX 45 86 48 87 46 88
REMARK H PARENT 70 41 38 52
REMARK Flexibility Score: inf
ROOT
ATOM      1  C   UNL A   1      37.014  21.044  24.664  1.00  0.00     0.274 C 
ENDROOT
BRANCH   1   2
ATOM      2  O   UNL A   1      35.838  20.406  25.211  1.00  0.00    -0.461 OA
BRANCH   2   3
ATOM      3  C   UNL A   1      34.773  21.189  25.557  1.00  0.00     0.329 C 
ATOM      4  O   UNL A   1      34.448  21.450  26.709  1.00  0.00    -0.250 OA
BRANCH   3   5
ATOM      5  C   UNL A   1      34.179  21.906  24.309  1.00  0.00     0.198 C 
ATOM      6  C   UNL A   1      32.688  23.589  23.454  1.00  0.00     0.140 C 
ATOM      7  C   UNL A   1      33.665  23.310  24.588  1.00  0.00     0.071 C 
ATOM      8  C   UNL A   1      32.154  22.197  23.077  1.00  0.00     0.152 C 
ATOM      9  N   UNL A   1      33.064  21.195  23.646  1.00  0.00    -0.322 N 
BRANCH   6  10
ATOM     10  O   UNL A   1      31.712  24.489  23.974  1.00  0.00    -0.380 OA
ATOM     11  C   UNL A   1      30.501  24.545  23.240  1.00  0.00     0.195 C 
ENDBRANCH   6  10
BRANCH   9  12
ATOM     12  C   UNL A   1      32.426  20.295  24.495  1.00  0.00     0.255 C 
ATOM     13  O   UNL A   1      31.718  20.752  25.383  1.00  0.00    -0.269 OA
BRANCH  12  14
ATOM     14  C   UNL A   1      32.795  18.883  24.408  1.00  0.00     0.053 A 
ATOM     15  C   UNL A   1      33.054  18.141  25.548  1.00  0.00     0.079 A 
ATOM     16  C   UNL A   1      32.866  18.039  23.240  1.00  0.00    -0.028 A 
ATOM     17  S   UNL A   1      33.478  16.524  25.240  1.00  0.00    -0.151 S 
ATOM     18  C   UNL A   1      33.273  16.757  23.566  1.00  0.00     0.069 A 
ATOM     19  C   UNL A   1      32.480  18.452  21.861  1.00  0.00     0.046 C 
ENDBRANCH  12  14
ENDBRANCH   9  12
ENDBRANCH   3   5
ENDBRANCH   2   3
ENDBRANCH   1   2
BRANCH   1  20
ATOM     20  C   UNL A   1      38.276  20.232  25.034  1.00  0.00     0.275 C 
BRANCH  20  21
ATOM     21  O   UNL A   1      38.772  20.586  26.349  1.00  0.00    -0.458 OA
BRANCH  21  22
ATOM     22  C   UNL A   1      40.126  20.630  26.494  1.00  0.00     0.338 C 
ATOM     23  O   UNL A   1      40.921  19.758  26.177  1.00  0.00    -0.246 OA
BRANCH  22  24
ATOM     24  C   UNL A   1      40.557  21.974  26.974  1.00  0.00     0.060 A 
ATOM     25  C   UNL A   1      39.957  23.100  26.389  1.00  0.00     0.016 A 
ATOM     26  C   UNL A   1      41.486  22.149  28.002  1.00  0.00     0.016 A 
ATOM     27  C   UNL A   1      40.215  24.381  26.879  1.00  0.00     0.010 A 
ATOM     28  C   UNL A   1      41.818  23.449  28.432  1.00  0.00     0.010 A 
ATOM     29  C   UNL A   1      41.188  24.573  27.872  1.00  0.00    -0.014 A 
BRANCH  29  30
ATOM     30  C   UNL A   1      41.675  25.961  28.118  1.00  0.00     0.031 A 
ATOM     31  C   UNL A   1      43.031  26.329  27.583  1.00  0.00     0.074 A 
ATOM     32  C   UNL A   1      40.942  26.903  28.740  1.00  0.00     0.049 A 
ATOM     33  N   UNL A   1      43.632  27.491  27.553  1.00  0.00    -0.248 NA
ATOM     34  C   UNL A   1      43.809  25.231  26.987  1.00  0.00     0.031 C 
ATOM     35  C   UNL A   1      39.609  26.704  29.291  1.00  0.00     0.029 A 
ATOM     36  N   UNL A   1      41.216  28.228  28.998  1.00  0.00    -0.354 N 
ATOM     37  C   UNL A   1      44.842  27.267  26.911  1.00  0.00     0.074 A 
ATOM     38  C   UNL A   1      44.891  25.863  26.568  1.00  0.00     0.031 C 
ATOM     39  C   UNL A   1      39.167  27.864  29.808  1.00  0.00     0.029 A 
ATOM     40  C   UNL A   1      40.203  28.886  29.652  1.00  0.00     0.049 A 
ATOM     41  H   UNL A   1      42.060  28.662  28.737  1.00  0.00     0.167 HD
ATOM     42  C   UNL A   1      45.841  28.141  26.648  1.00  0.00     0.037 A 
ATOM     43  C   UNL A   1      40.126  30.163  30.086  1.00  0.00     0.037 A 
ATOM     44  C   UNL A   1      45.860  29.512  27.075  1.00  0.00     0.049 A 
ATOM     45  C   UNL A   1      41.291  31.099  29.864  1.00  0.00     0.074 A 
ATOM     46  C   UNL A   1      46.860  30.452  26.912  1.00  0.00     0.029 A 
ATOM     47  N   UNL A   1      44.843  30.125  27.790  1.00  0.00    -0.354 N 
ATOM     48  N   UNL A   1      42.415  30.887  29.223  1.00  0.00    -0.248 NA
ATOM     49  C   UNL A   1      41.179  32.449  30.440  1.00  0.00     0.031 C 
ATOM     50  C   UNL A   1      46.471  31.621  27.577  1.00  0.00     0.029 A 
ATOM     51  C   UNL A   1      45.205  31.423  28.108  1.00  0.00     0.049 A 
ATOM     52  H   UNL A   1      43.988  29.700  28.034  1.00  0.00     0.167 HD
ATOM     53  C   UNL A   1      43.143  32.067  29.322  1.00  0.00     0.074 A 
ATOM     54  C   UNL A   1      42.321  33.005  30.056  1.00  0.00     0.031 C 
ATOM     55  C   UNL A   1      44.384  32.343  28.853  1.00  0.00     0.037 A 
BRANCH  42  56
ATOM     56  C   UNL A   1      47.032  27.579  25.937  1.00  0.00     0.064 A 
ATOM     57  C   UNL A   1      48.130  27.066  26.643  1.00  0.00     0.173 A 
ATOM     58  C   UNL A   1      47.107  27.631  24.539  1.00  0.00     0.173 A 
ATOM     59  F   UNL A   1      48.115  27.028  27.984  1.00  0.00    -0.203 F 
ATOM     60  C   UNL A   1      49.281  26.662  25.971  1.00  0.00     0.198 A 
ATOM     61  C   UNL A   1      48.250  27.205  23.870  1.00  0.00     0.198 A 
ATOM     62  F   UNL A   1      46.084  28.123  23.825  1.00  0.00    -0.203 F 
ATOM     63  F   UNL A   1      50.347  26.241  26.666  1.00  0.00    -0.200 F 
ATOM     64  C   UNL A   1      49.340  26.733  24.587  1.00  0.00     0.200 A 
ATOM     65  F   UNL A   1      48.307  27.276  22.533  1.00  0.00    -0.200 F 
ATOM     66  F   UNL A   1      50.457  26.366  23.944  1.00  0.00    -0.200 F 
ENDBRANCH  42  56
BRANCH  43  67
ATOM     67  C   UNL A   1      38.912  30.636  30.806  1.00  0.00     0.064 A 
ATOM     68  C   UNL A   1      38.798  30.514  32.197  1.00  0.00     0.173 A 
ATOM     69  C   UNL A   1      37.828  31.195  30.111  1.00  0.00     0.173 A 
ATOM     70  F   UNL A   1      39.790  29.953  32.904  1.00  0.00    -0.203 F 
ATOM     71  C   UNL A   1      37.647  30.929  32.867  1.00  0.00     0.198 A 
ATOM     72  C   UNL A   1      36.689  31.634  30.785  1.00  0.00     0.198 A 
ATOM     73  F   UNL A   1      37.879  31.322  28.778  1.00  0.00    -0.203 F 
ATOM     74  F   UNL A   1      37.549  30.766  34.193  1.00  0.00    -0.200 F 
ATOM     75  C   UNL A   1      36.597  31.496  32.161  1.00  0.00     0.200 A 
ATOM     76  F   UNL A   1      35.680  32.188  30.099  1.00  0.00    -0.200 F 
ATOM     77  F   UNL A   1      35.494  31.902  32.805  1.00  0.00    -0.200 F 
ENDBRANCH  43  67
BRANCH  55  78
ATOM     78  C   UNL A   1      44.945  33.709  29.124  1.00  0.00     0.064 A 
ATOM     79  C   UNL A   1      44.700  34.786  28.258  1.00  0.00     0.173 A 
ATOM     80  C   UNL A   1      45.674  33.962  30.296  1.00  0.00     0.173 A 
ATOM     81  F   UNL A   1      44.017  34.595  27.119  1.00  0.00    -0.203 F 
ATOM     82  C   UNL A   1      45.177  36.062  28.550  1.00  0.00     0.198 A 
ATOM     83  C   UNL A   1      46.128  35.244  30.595  1.00  0.00     0.198 A 
ATOM     84  F   UNL A   1      45.931  32.969  31.159  1.00  0.00    -0.203 F 
ATOM     85  F   UNL A   1      44.956  37.069  27.693  1.00  0.00    -0.200 F 
ATOM     86  C   UNL A   1      45.882  36.292  29.721  1.00  0.00     0.200 A 
ATOM     87  F   UNL A   1      46.800  35.467  31.734  1.00  0.00    -0.200 F 
ATOM     88  F   UNL A   1      46.328  37.523  30.006  1.00  0.00    -0.200 F 
ENDBRANCH  55  78
ENDBRANCH  29  30
ENDBRANCH  22  24
ENDBRANCH  21  22
ENDBRANCH  20  21
ENDBRANCH   1  20
TORSDOF 14
ENDMDL
