MODEL 1
REMARK VINA RESULT:     -12.3      0.000      0.000
REMARK SMILES N#Cc1ccc(/C=C/C(=O)N[C@H]2C=C[C@H](C(=O)OCCOC(=O)c3ccc(-c4c5nc(c(-c6c(F)c(F)c(F)c(F)c6F)c6ccc([nH]6)c(-c6c(F)c(F)c(F)c(F)c6F)c6nc(c(-c7c(F)c(F)c(F)c(F)c7F)c7ccc4[nH]7)C=C6)C=C5)cc3)C2)cc1
REMARK SMILES IDX 19 1 18 2 16 3 17 4 15 5 12 6 13 7 87 8 14 9 11 10 9 11
REMARK SMILES IDX 10 12 8 14 7 15 6 16 3 17 4 18 89 19 5 20 88 21 2 22 1 23
REMARK SMILES IDX 20 24 21 25 22 26 23 27 24 28 25 29 86 30 26 31 85 32 27 33
REMARK SMILES IDX 28 34 29 35 79 36 30 37 84 38 78 39 80 40 31 41 83 42 77 43
REMARK SMILES IDX 76 44 32 46 64 47 44 48 63 49 45 50 48 51 62 52 81 53 46 54
REMARK SMILES IDX 47 55 61 57 82 58 49 59 33 60 34 61 42 62 35 63 36 64 40 65
REMARK SMILES IDX 43 66 37 67 38 68 41 69 39 70 65 71 66 72 74 73 67 74 68 75
REMARK SMILES IDX 72 76 75 77 69 78 70 79 73 80 71 81 50 82 51 83 59 84 52 85
REMARK SMILES IDX 53 86 57 87 60 88 54 89 55 90 58 91 56 92
REMARK H PARENT 11 13 80 45 48 56
REMARK Flexibility Score: inf
ROOT
ATOM      1  C   UNL A   1      37.755  20.140  25.007  1.00  0.00     0.274 C 
ENDROOT
BRANCH   1   2
ATOM      2  O   UNL A   1      37.809  21.451  25.623  1.00  0.00    -0.462 OA
BRANCH   2   3
ATOM      3  C   UNL A   1      36.605  22.075  25.697  1.00  0.00     0.312 C 
ATOM      4  O   UNL A   1      35.629  21.539  26.212  1.00  0.00    -0.252 OA
BRANCH   3   5
ATOM      5  C   UNL A   1      36.585  23.491  25.058  1.00  0.00     0.124 C 
ATOM      6  C   UNL A   1      34.277  23.496  24.538  1.00  0.00     0.106 C 
ATOM      7  C   UNL A   1      35.048  23.423  23.263  1.00  0.00    -0.006 C 
ATOM      8  C   UNL A   1      35.289  24.265  25.387  1.00  0.00     0.048 C 
ATOM      9  C   UNL A   1      36.362  23.379  23.559  1.00  0.00    -0.014 C 
BRANCH   6  10
ATOM     10  N   UNL A   1      32.945  23.962  24.373  1.00  0.00    -0.346 N 
ATOM     11  C   UNL A   1      31.877  23.173  24.027  1.00  0.00     0.244 C 
ATOM     12  O   UNL A   1      30.785  23.688  23.796  1.00  0.00    -0.270 OA
ATOM     13  H   UNL A   1      32.777  24.922  24.518  1.00  0.00     0.164 HD
BRANCH  11  14
ATOM     14  C   UNL A   1      31.955  21.677  24.195  1.00  0.00     0.072 C 
ATOM     15  C   UNL A   1      32.525  20.661  23.517  1.00  0.00     0.014 C 
BRANCH  15  16
ATOM     16  C   UNL A   1      32.675  19.203  23.882  1.00  0.00    -0.025 A 
ATOM     17  C   UNL A   1      32.984  16.496  24.820  1.00  0.00     0.052 A 
ATOM     18  C   UNL A   1      33.106  16.790  23.477  1.00  0.00     0.020 A 
ATOM     19  C   UNL A   1      32.678  17.536  25.698  1.00  0.00     0.020 A 
ATOM     20  C   UNL A   1      32.917  18.109  23.035  1.00  0.00     0.009 A 
ATOM     21  C   UNL A   1      32.547  18.863  25.235  1.00  0.00     0.009 A 
BRANCH  17  22
ATOM     22  C   UNL A   1      33.146  15.148  25.268  1.00  0.00     0.099 C 
ATOM     23  N   UNL A   1      33.258  14.041  25.611  1.00  0.00    -0.192 NA
ENDBRANCH  17  22
ENDBRANCH  15  16
ENDBRANCH  11  14
ENDBRANCH   6  10
ENDBRANCH   3   5
ENDBRANCH   2   3
ENDBRANCH   1   2
BRANCH   1  24
ATOM     24  C   UNL A   1      38.968  19.265  25.353  1.00  0.00     0.275 C 
BRANCH  24  25
ATOM     25  O   UNL A   1      39.683  19.690  26.542  1.00  0.00    -0.458 OA
BRANCH  25  26
ATOM     26  C   UNL A   1      41.006  19.923  26.361  1.00  0.00     0.338 C 
ATOM     27  O   UNL A   1      41.778  19.213  25.732  1.00  0.00    -0.246 OA
BRANCH  26  28
ATOM     28  C   UNL A   1      41.423  21.267  26.840  1.00  0.00     0.060 A 
ATOM     29  C   UNL A   1      40.986  22.328  26.059  1.00  0.00     0.016 A 
ATOM     30  C   UNL A   1      42.299  21.547  27.884  1.00  0.00     0.016 A 
ATOM     31  C   UNL A   1      41.376  23.645  26.285  1.00  0.00     0.010 A 
ATOM     32  C   UNL A   1      42.630  22.901  28.178  1.00  0.00     0.010 A 
ATOM     33  C   UNL A   1      42.117  23.974  27.414  1.00  0.00    -0.014 A 
BRANCH  33  34
ATOM     34  C   UNL A   1      42.445  25.421  27.637  1.00  0.00     0.031 A 
ATOM     35  C   UNL A   1      43.711  25.915  27.002  1.00  0.00     0.074 A 
ATOM     36  C   UNL A   1      41.627  26.333  28.227  1.00  0.00     0.049 A 
ATOM     37  N   UNL A   1      44.267  27.092  27.081  1.00  0.00    -0.248 NA
ATOM     38  C   UNL A   1      44.437  24.951  26.157  1.00  0.00     0.031 C 
ATOM     39  C   UNL A   1      40.294  26.101  28.742  1.00  0.00     0.029 A 
ATOM     40  N   UNL A   1      41.778  27.686  28.474  1.00  0.00    -0.354 N 
ATOM     41  C   UNL A   1      45.425  27.004  26.328  1.00  0.00     0.074 A 
ATOM     42  C   UNL A   1      45.494  25.661  25.798  1.00  0.00     0.031 C 
ATOM     43  C   UNL A   1      39.726  27.214  29.200  1.00  0.00     0.029 A 
ATOM     44  C   UNL A   1      40.700  28.264  29.123  1.00  0.00     0.049 A 
ATOM     45  H   UNL A   1      42.581  28.192  28.212  1.00  0.00     0.167 HD
ATOM     46  C   UNL A   1      46.355  27.964  26.122  1.00  0.00     0.037 A 
ATOM     47  C   UNL A   1      40.482  29.477  29.657  1.00  0.00     0.037 A 
ATOM     48  C   UNL A   1      46.271  29.293  26.669  1.00  0.00     0.049 A 
ATOM     49  C   UNL A   1      41.578  30.471  29.532  1.00  0.00     0.074 A 
ATOM     50  C   UNL A   1      47.186  30.323  26.563  1.00  0.00     0.029 A 
ATOM     51  N   UNL A   1      45.214  29.776  27.432  1.00  0.00    -0.354 N 
ATOM     52  N   UNL A   1      42.716  30.345  28.898  1.00  0.00    -0.248 NA
ATOM     53  C   UNL A   1      41.381  31.760  30.197  1.00  0.00     0.031 C 
ATOM     54  C   UNL A   1      46.721  31.400  27.323  1.00  0.00     0.029 A 
ATOM     55  C   UNL A   1      45.476  31.077  27.834  1.00  0.00     0.049 A 
ATOM     56  H   UNL A   1      44.399  29.269  27.654  1.00  0.00     0.167 HD
ATOM     57  C   UNL A   1      43.370  31.547  29.069  1.00  0.00     0.074 A 
ATOM     58  C   UNL A   1      42.487  32.398  29.845  1.00  0.00     0.031 C 
ATOM     59  C   UNL A   1      44.595  31.905  28.619  1.00  0.00     0.037 A 
BRANCH  46  60
ATOM     60  C   UNL A   1      47.584  27.561  25.364  1.00  0.00     0.064 A 
ATOM     61  C   UNL A   1      48.741  27.086  26.000  1.00  0.00     0.173 A 
ATOM     62  C   UNL A   1      47.609  27.689  23.967  1.00  0.00     0.173 A 
ATOM     63  F   UNL A   1      48.784  26.979  27.337  1.00  0.00    -0.203 F 
ATOM     64  C   UNL A   1      49.886  26.785  25.266  1.00  0.00     0.198 A 
ATOM     65  C   UNL A   1      48.740  27.349  23.234  1.00  0.00     0.198 A 
ATOM     66  F   UNL A   1      46.534  28.153  23.311  1.00  0.00    -0.203 F 
ATOM     67  F   UNL A   1      51.005  26.404  25.900  1.00  0.00    -0.200 F 
ATOM     68  C   UNL A   1      49.883  26.909  23.885  1.00  0.00     0.200 A 
ATOM     69  F   UNL A   1      48.729  27.462  21.899  1.00  0.00    -0.200 F 
ATOM     70  F   UNL A   1      50.985  26.619  23.181  1.00  0.00    -0.200 F 
ENDBRANCH  46  60
BRANCH  47  71
ATOM     71  C   UNL A   1      39.217  29.778  30.395  1.00  0.00     0.064 A 
ATOM     72  C   UNL A   1      39.107  29.571  31.777  1.00  0.00     0.173 A 
ATOM     73  C   UNL A   1      38.088  30.293  29.731  1.00  0.00     0.173 A 
ATOM     74  F   UNL A   1      40.141  29.064  32.463  1.00  0.00    -0.203 F 
ATOM     75  C   UNL A   1      37.921  29.851  32.459  1.00  0.00     0.198 A 
ATOM     76  C   UNL A   1      36.919  30.611  30.420  1.00  0.00     0.198 A 
ATOM     77  F   UNL A   1      38.128  30.516  28.408  1.00  0.00    -0.203 F 
ATOM     78  F   UNL A   1      37.829  29.594  33.771  1.00  0.00    -0.200 F 
ATOM     79  C   UNL A   1      36.832  30.379  31.783  1.00  0.00     0.200 A 
ATOM     80  F   UNL A   1      35.879  31.143  29.763  1.00  0.00    -0.200 F 
ATOM     81  F   UNL A   1      35.697  30.655  32.441  1.00  0.00    -0.200 F 
ENDBRANCH  47  71
BRANCH  59  82
ATOM     82  C   UNL A   1      45.025  33.302  28.931  1.00  0.00     0.064 A 
ATOM     83  C   UNL A   1      45.764  33.609  30.083  1.00  0.00     0.173 A 
ATOM     84  C   UNL A   1      44.683  34.349  28.063  1.00  0.00     0.173 A 
ATOM     85  F   UNL A   1      46.088  32.644  30.956  1.00  0.00    -0.203 F 
ATOM     86  C   UNL A   1      46.113  34.923  30.372  1.00  0.00     0.198 A 
ATOM     87  C   UNL A   1      45.072  35.654  28.334  1.00  0.00     0.198 A 
ATOM     88  F   UNL A   1      43.974  34.103  26.951  1.00  0.00    -0.203 F 
ATOM     89  F   UNL A   1      46.754  35.206  31.515  1.00  0.00    -0.200 F 
ATOM     90  C   UNL A   1      45.775  35.943  29.495  1.00  0.00     0.200 A 
ATOM     91  F   UNL A   1      44.757  36.636  27.478  1.00  0.00    -0.200 F 
ATOM     92  F   UNL A   1      46.118  37.207  29.773  1.00  0.00    -0.200 F 
ENDBRANCH  59  82
ENDBRANCH  33  34
ENDBRANCH  26  28
ENDBRANCH  25  26
ENDBRANCH  24  25
ENDBRANCH   1  24
TORSDOF 15
ENDMDL
MODEL 2
REMARK VINA RESULT:     -12.3      1.421      7.666
REMARK SMILES N#Cc1ccc(/C=C/C(=O)N[C@H]2C=C[C@H](C(=O)OCCOC(=O)c3ccc(-c4c5nc(c(-c6c(F)c(F)c(F)c(F)c6F)c6ccc([nH]6)c(-c6c(F)c(F)c(F)c(F)c6F)c6nc(c(-c7c(F)c(F)c(F)c(F)c7F)c7ccc4[nH]7)C=C6)C=C5)cc3)C2)cc1
REMARK SMILES IDX 19 1 18 2 16 3 17 4 15 5 12 6 13 7 87 8 14 9 11 10 9 11
REMARK SMILES IDX 10 12 8 14 7 15 6 16 3 17 4 18 89 19 5 20 88 21 2 22 1 23
REMARK SMILES IDX 20 24 21 25 22 26 23 27 24 28 25 29 86 30 26 31 85 32 27 33
REMARK SMILES IDX 28 34 29 35 79 36 30 37 84 38 78 39 80 40 31 41 83 42 77 43
REMARK SMILES IDX 76 44 32 46 64 47 44 48 63 49 45 50 48 51 62 52 81 53 46 54
REMARK SMILES IDX 47 55 61 57 82 58 49 59 33 60 34 61 42 62 35 63 36 64 40 65
REMARK SMILES IDX 43 66 37 67 38 68 41 69 39 70 65 71 66 72 74 73 67 74 68 75
REMARK SMILES IDX 72 76 75 77 69 78 70 79 73 80 71 81 50 82 51 83 59 84 52 85
REMARK SMILES IDX 53 86 57 87 60 88 54 89 55 90 58 91 56 92
REMARK H PARENT 11 13 80 45 48 56
REMARK Flexibility Score: inf
ROOT
ATOM      1  C   UNL A   1      35.914  22.726  23.825  1.00  0.00     0.274 C 
ENDROOT
BRANCH   1   2
ATOM      2  O   UNL A   1      34.532  23.114  23.618  1.00  0.00    -0.462 OA
BRANCH   2   3
ATOM      3  C   UNL A   1      34.331  24.456  23.614  1.00  0.00     0.312 C 
ATOM      4  O   UNL A   1      33.991  25.057  22.600  1.00  0.00    -0.252 OA
BRANCH   3   5
ATOM      5  C   UNL A   1      34.593  25.141  24.984  1.00  0.00     0.124 C 
ATOM      6  C   UNL A   1      32.356  25.039  25.744  1.00  0.00     0.106 C 
ATOM      7  C   UNL A   1      32.698  26.466  25.474  1.00  0.00    -0.006 C 
ATOM      8  C   UNL A   1      33.745  24.526  26.120  1.00  0.00     0.048 C 
ATOM      9  C   UNL A   1      33.958  26.522  25.002  1.00  0.00    -0.014 C 
BRANCH   6  10
ATOM     10  N   UNL A   1      31.246  24.874  26.617  1.00  0.00    -0.346 N 
ATOM     11  C   UNL A   1      30.478  23.740  26.699  1.00  0.00     0.244 C 
ATOM     12  O   UNL A   1      29.469  23.734  27.402  1.00  0.00    -0.270 OA
ATOM     13  H   UNL A   1      31.012  25.628  27.205  1.00  0.00     0.164 HD
BRANCH  11  14
ATOM     14  C   UNL A   1      31.000  22.431  26.165  1.00  0.00     0.072 C 
ATOM     15  C   UNL A   1      31.505  22.004  24.990  1.00  0.00     0.014 C 
BRANCH  15  16
ATOM     16  C   UNL A   1      32.158  20.691  24.625  1.00  0.00    -0.025 A 
ATOM     17  C   UNL A   1      33.272  18.196  23.710  1.00  0.00     0.052 A 
ATOM     18  C   UNL A   1      33.390  18.573  25.032  1.00  0.00     0.020 A 
ATOM     19  C   UNL A   1      32.629  19.068  22.831  1.00  0.00     0.020 A 
ATOM     20  C   UNL A   1      32.871  19.809  25.452  1.00  0.00     0.009 A 
ATOM     21  C   UNL A   1      32.069  20.280  23.288  1.00  0.00     0.009 A 
BRANCH  17  22
ATOM     22  C   UNL A   1      33.826  16.953  23.275  1.00  0.00     0.099 C 
ATOM     23  N   UNL A   1      34.305  15.948  22.932  1.00  0.00    -0.192 NA
ENDBRANCH  17  22
ENDBRANCH  15  16
ENDBRANCH  11  14
ENDBRANCH   6  10
ENDBRANCH   3   5
ENDBRANCH   2   3
ENDBRANCH   1   2
BRANCH   1  24
ATOM     24  C   UNL A   1      36.082  21.676  24.931  1.00  0.00     0.275 C 
BRANCH  24  25
ATOM     25  O   UNL A   1      36.871  22.129  26.061  1.00  0.00    -0.458 OA
BRANCH  25  26
ATOM     26  C   UNL A   1      38.170  21.746  26.043  1.00  0.00     0.338 C 
ATOM     27  O   UNL A   1      38.608  20.725  25.531  1.00  0.00    -0.246 OA
BRANCH  26  28
ATOM     28  C   UNL A   1      39.088  22.804  26.541  1.00  0.00     0.060 A 
ATOM     29  C   UNL A   1      38.853  24.071  26.028  1.00  0.00     0.016 A 
ATOM     30  C   UNL A   1      40.213  22.625  27.340  1.00  0.00     0.016 A 
ATOM     31  C   UNL A   1      39.683  25.159  26.287  1.00  0.00     0.010 A 
ATOM     32  C   UNL A   1      41.015  23.751  27.685  1.00  0.00     0.010 A 
ATOM     33  C   UNL A   1      40.717  25.048  27.210  1.00  0.00    -0.014 A 
BRANCH  33  34
ATOM     34  C   UNL A   1      41.530  26.276  27.498  1.00  0.00     0.031 A 
ATOM     35  C   UNL A   1      40.894  27.292  28.398  1.00  0.00     0.074 A 
ATOM     36  C   UNL A   1      42.828  26.465  27.137  1.00  0.00     0.049 A 
ATOM     37  N   UNL A   1      41.338  28.464  28.762  1.00  0.00    -0.248 NA
ATOM     38  C   UNL A   1      39.587  26.929  28.972  1.00  0.00     0.031 C 
ATOM     39  C   UNL A   1      43.677  25.533  26.423  1.00  0.00     0.029 A 
ATOM     40  N   UNL A   1      43.703  27.514  27.350  1.00  0.00    -0.354 N 
ATOM     41  C   UNL A   1      40.353  28.995  29.577  1.00  0.00     0.074 A 
ATOM     42  C   UNL A   1      39.288  28.020  29.658  1.00  0.00     0.031 C 
ATOM     43  C   UNL A   1      44.919  25.986  26.279  1.00  0.00     0.029 A 
ATOM     44  C   UNL A   1      44.958  27.323  26.798  1.00  0.00     0.049 A 
ATOM     45  H   UNL A   1      43.455  28.325  27.851  1.00  0.00     0.167 HD
ATOM     46  C   UNL A   1      40.341  30.204  30.183  1.00  0.00     0.037 A 
ATOM     47  C   UNL A   1      46.037  28.110  26.655  1.00  0.00     0.037 A 
ATOM     48  C   UNL A   1      41.409  31.163  30.079  1.00  0.00     0.049 A 
ATOM     49  C   UNL A   1      45.944  29.482  27.215  1.00  0.00     0.074 A 
ATOM     50  C   UNL A   1      41.471  32.437  30.612  1.00  0.00     0.029 A 
ATOM     51  N   UNL A   1      42.600  30.960  29.392  1.00  0.00    -0.354 N 
ATOM     52  N   UNL A   1      44.965  30.010  27.902  1.00  0.00    -0.248 NA
ATOM     53  C   UNL A   1      47.081  30.373  26.974  1.00  0.00     0.031 C 
ATOM     54  C   UNL A   1      42.662  33.032  30.185  1.00  0.00     0.029 A 
ATOM     55  C   UNL A   1      43.385  32.102  29.457  1.00  0.00     0.049 A 
ATOM     56  H   UNL A   1      42.849  30.128  28.928  1.00  0.00     0.167 HD
ATOM     57  C   UNL A   1      45.372  31.295  28.199  1.00  0.00     0.074 A 
ATOM     58  C   UNL A   1      46.699  31.454  27.636  1.00  0.00     0.031 C 
ATOM     59  C   UNL A   1      44.696  32.251  28.878  1.00  0.00     0.037 A 
BRANCH  46  60
ATOM     60  C   UNL A   1      39.086  30.581  30.911  1.00  0.00     0.064 A 
ATOM     61  C   UNL A   1      37.995  31.188  30.271  1.00  0.00     0.173 A 
ATOM     62  C   UNL A   1      38.994  30.356  32.294  1.00  0.00     0.173 A 
ATOM     63  F   UNL A   1      38.046  31.458  28.958  1.00  0.00    -0.203 F 
ATOM     64  C   UNL A   1      36.873  31.585  30.995  1.00  0.00     0.198 A 
ATOM     65  C   UNL A   1      37.855  30.716  33.005  1.00  0.00     0.198 A 
ATOM     66  F   UNL A   1      40.014  29.792  32.957  1.00  0.00    -0.203 F 
ATOM     67  F   UNL A   1      35.874  32.230  30.377  1.00  0.00    -0.200 F 
ATOM     68  C   UNL A   1      36.801  31.342  32.358  1.00  0.00     0.200 A 
ATOM     69  F   UNL A   1      37.786  30.472  34.321  1.00  0.00    -0.200 F 
ATOM     70  F   UNL A   1      35.721  31.724  33.052  1.00  0.00    -0.200 F 
ENDBRANCH  46  60
BRANCH  47  71
ATOM     71  C   UNL A   1      47.243  27.636  25.908  1.00  0.00     0.064 A 
ATOM     72  C   UNL A   1      47.314  27.705  24.510  1.00  0.00     0.173 A 
ATOM     73  C   UNL A   1      48.361  27.112  26.583  1.00  0.00     0.173 A 
ATOM     74  F   UNL A   1      46.274  28.175  23.809  1.00  0.00    -0.203 F 
ATOM     75  C   UNL A   1      48.443  27.257  23.820  1.00  0.00     0.198 A 
ATOM     76  C   UNL A   1      49.503  26.704  25.896  1.00  0.00     0.198 A 
ATOM     77  F   UNL A   1      48.358  27.021  27.922  1.00  0.00    -0.203 F 
ATOM     78  F   UNL A   1      48.461  27.287  22.480  1.00  0.00    -0.200 F 
ATOM     79  C   UNL A   1      49.539  26.766  24.513  1.00  0.00     0.200 A 
ATOM     80  F   UNL A   1      50.567  26.252  26.575  1.00  0.00    -0.200 F 
ATOM     81  F   UNL A   1      50.624  26.344  23.849  1.00  0.00    -0.200 F 
ENDBRANCH  47  71
BRANCH  59  82
ATOM     82  C   UNL A   1      45.417  33.545  29.077  1.00  0.00     0.064 A 
ATOM     83  C   UNL A   1      46.252  33.764  30.182  1.00  0.00     0.173 A 
ATOM     84  C   UNL A   1      45.259  34.584  28.148  1.00  0.00     0.173 A 
ATOM     85  F   UNL A   1      46.410  32.810  31.112  1.00  0.00    -0.203 F 
ATOM     86  C   UNL A   1      46.876  34.994  30.367  1.00  0.00     0.198 A 
ATOM     87  C   UNL A   1      45.919  35.794  28.314  1.00  0.00     0.198 A 
ATOM     88  F   UNL A   1      44.467  34.420  27.078  1.00  0.00    -0.203 F 
ATOM     89  F   UNL A   1      47.610  35.209  31.467  1.00  0.00    -0.200 F 
ATOM     90  C   UNL A   1      46.716  36.003  29.430  1.00  0.00     0.200 A 
ATOM     91  F   UNL A   1      45.775  36.763  27.400  1.00  0.00    -0.200 F 
ATOM     92  F   UNL A   1      47.323  37.184  29.608  1.00  0.00    -0.200 F 
ENDBRANCH  59  82
ENDBRANCH  33  34
ENDBRANCH  26  28
ENDBRANCH  25  26
ENDBRANCH  24  25
ENDBRANCH   1  24
TORSDOF 15
ENDMDL
MODEL 3
REMARK VINA RESULT:     -12.2      5.060      8.434
REMARK SMILES N#Cc1ccc(/C=C/C(=O)N[C@H]2C=C[C@H](C(=O)OCCOC(=O)c3ccc(-c4c5nc(c(-c6c(F)c(F)c(F)c(F)c6F)c6ccc([nH]6)c(-c6c(F)c(F)c(F)c(F)c6F)c6nc(c(-c7c(F)c(F)c(F)c(F)c7F)c7ccc4[nH]7)C=C6)C=C5)cc3)C2)cc1
REMARK SMILES IDX 19 1 18 2 16 3 17 4 15 5 12 6 13 7 87 8 14 9 11 10 9 11
REMARK SMILES IDX 10 12 8 14 7 15 6 16 3 17 4 18 89 19 5 20 88 21 2 22 1 23
REMARK SMILES IDX 20 24 21 25 22 26 23 27 24 28 25 29 86 30 26 31 85 32 27 33
REMARK SMILES IDX 28 34 29 35 79 36 30 37 84 38 78 39 80 40 31 41 83 42 77 43
REMARK SMILES IDX 76 44 32 46 64 47 44 48 63 49 45 50 48 51 62 52 81 53 46 54
REMARK SMILES IDX 47 55 61 57 82 58 49 59 33 60 34 61 42 62 35 63 36 64 40 65
REMARK SMILES IDX 43 66 37 67 38 68 41 69 39 70 65 71 66 72 74 73 67 74 68 75
REMARK SMILES IDX 72 76 75 77 69 78 70 79 73 80 71 81 50 82 51 83 59 84 52 85
REMARK SMILES IDX 53 86 57 87 60 88 54 89 55 90 58 91 56 92
REMARK H PARENT 11 13 80 45 48 56
REMARK Flexibility Score: inf
ROOT
ATOM      1  C   UNL A   1      32.984  28.214  23.637  1.00  0.00     0.274 C 
ENDROOT
BRANCH   1   2
ATOM      2  O   UNL A   1      34.065  27.252  23.565  1.00  0.00    -0.462 OA
BRANCH   2   3
ATOM      3  C   UNL A   1      33.816  26.204  22.738  1.00  0.00     0.312 C 
ATOM      4  O   UNL A   1      33.403  26.365  21.595  1.00  0.00    -0.252 OA
BRANCH   3   5
ATOM      5  C   UNL A   1      34.078  24.814  23.381  1.00  0.00     0.124 C 
ATOM      6  C   UNL A   1      32.241  24.876  24.868  1.00  0.00     0.106 C 
ATOM      7  C   UNL A   1      33.497  24.981  25.666  1.00  0.00    -0.006 C 
ATOM      8  C   UNL A   1      32.770  24.055  23.694  1.00  0.00     0.048 C 
ATOM      9  C   UNL A   1      34.543  24.987  24.817  1.00  0.00    -0.014 C 
BRANCH   6  10
ATOM     10  N   UNL A   1      31.119  24.444  25.626  1.00  0.00    -0.346 N 
ATOM     11  C   UNL A   1      30.028  25.223  25.923  1.00  0.00     0.244 C 
ATOM     12  O   UNL A   1      29.161  24.797  26.681  1.00  0.00    -0.270 OA
ATOM     13  H   UNL A   1      31.124  23.519  25.962  1.00  0.00     0.164 HD
BRANCH  11  14
ATOM     14  C   UNL A   1      29.748  26.469  25.123  1.00  0.00     0.072 C 
ATOM     15  C   UNL A   1      29.216  26.736  23.913  1.00  0.00     0.014 C 
BRANCH  15  16
ATOM     16  C   UNL A   1      28.829  28.054  23.283  1.00  0.00    -0.025 A 
ATOM     17  C   UNL A   1      28.339  30.620  22.068  1.00  0.00     0.052 A 
ATOM     18  C   UNL A   1      27.312  29.924  22.673  1.00  0.00     0.020 A 
ATOM     19  C   UNL A   1      29.604  30.034  22.036  1.00  0.00     0.020 A 
ATOM     20  C   UNL A   1      27.563  28.659  23.228  1.00  0.00     0.009 A 
ATOM     21  C   UNL A   1      29.842  28.785  22.649  1.00  0.00     0.009 A 
BRANCH  17  22
ATOM     22  C   UNL A   1      28.078  31.894  21.475  1.00  0.00     0.099 C 
ATOM     23  N   UNL A   1      27.851  32.919  20.969  1.00  0.00    -0.192 NA
ENDBRANCH  17  22
ENDBRANCH  15  16
ENDBRANCH  11  14
ENDBRANCH   6  10
ENDBRANCH   3   5
ENDBRANCH   2   3
ENDBRANCH   1   2
BRANCH   1  24
ATOM     24  C   UNL A   1      32.757  28.755  25.056  1.00  0.00     0.275 C 
BRANCH  24  25
ATOM     25  O   UNL A   1      33.321  30.072  25.283  1.00  0.00    -0.458 OA
BRANCH  25  26
ATOM     26  C   UNL A   1      33.163  30.553  26.540  1.00  0.00     0.338 C 
ATOM     27  O   UNL A   1      32.096  30.811  27.079  1.00  0.00    -0.246 OA
BRANCH  26  28
ATOM     28  C   UNL A   1      34.430  30.555  27.317  1.00  0.00     0.060 A 
ATOM     29  C   UNL A   1      34.765  29.339  27.894  1.00  0.00     0.016 A 
ATOM     30  C   UNL A   1      35.217  31.660  27.628  1.00  0.00     0.016 A 
ATOM     31  C   UNL A   1      35.850  29.182  28.753  1.00  0.00     0.010 A 
ATOM     32  C   UNL A   1      36.381  31.489  28.432  1.00  0.00     0.010 A 
ATOM     33  C   UNL A   1      36.746  30.226  28.951  1.00  0.00    -0.014 A 
BRANCH  33  34
ATOM     34  C   UNL A   1      37.933  29.970  29.832  1.00  0.00     0.031 A 
ATOM     35  C   UNL A   1      39.040  29.161  29.227  1.00  0.00     0.074 A 
ATOM     36  C   UNL A   1      38.143  30.528  31.054  1.00  0.00     0.049 A 
ATOM     37  N   UNL A   1      40.147  28.738  29.775  1.00  0.00    -0.248 NA
ATOM     38  C   UNL A   1      38.880  28.790  27.810  1.00  0.00     0.031 C 
ATOM     39  C   UNL A   1      37.285  31.475  31.737  1.00  0.00     0.029 A 
ATOM     40  N   UNL A   1      39.184  30.412  31.957  1.00  0.00    -0.354 N 
ATOM     41  C   UNL A   1      40.799  28.023  28.785  1.00  0.00     0.074 A 
ATOM     42  C   UNL A   1      39.968  28.068  27.602  1.00  0.00     0.031 C 
ATOM     43  C   UNL A   1      37.802  31.886  32.892  1.00  0.00     0.029 A 
ATOM     44  C   UNL A   1      39.010  31.147  33.117  1.00  0.00     0.049 A 
ATOM     45  H   UNL A   1      39.980  29.855  31.789  1.00  0.00     0.167 HD
ATOM     46  C   UNL A   1      41.979  27.370  28.875  1.00  0.00     0.037 A 
ATOM     47  C   UNL A   1      39.684  31.221  34.277  1.00  0.00     0.037 A 
ATOM     48  C   UNL A   1      42.785  27.330  30.068  1.00  0.00     0.049 A 
ATOM     49  C   UNL A   1      40.907  30.388  34.395  1.00  0.00     0.074 A 
ATOM     50  C   UNL A   1      43.972  26.654  30.278  1.00  0.00     0.029 A 
ATOM     51  N   UNL A   1      42.485  27.988  31.255  1.00  0.00    -0.354 N 
ATOM     52  N   UNL A   1      41.464  29.635  33.482  1.00  0.00    -0.248 NA
ATOM     53  C   UNL A   1      41.588  30.394  35.692  1.00  0.00     0.031 C 
ATOM     54  C   UNL A   1      44.349  26.838  31.611  1.00  0.00     0.029 A 
ATOM     55  C   UNL A   1      43.446  27.699  32.212  1.00  0.00     0.049 A 
ATOM     56  H   UNL A   1      41.705  28.572  31.396  1.00  0.00     0.167 HD
ATOM     57  C   UNL A   1      42.579  29.087  34.084  1.00  0.00     0.074 A 
ATOM     58  C   UNL A   1      42.629  29.617  35.433  1.00  0.00     0.031 C 
ATOM     59  C   UNL A   1      43.474  28.222  33.555  1.00  0.00     0.037 A 
BRANCH  46  60
ATOM     60  C   UNL A   1      42.398  26.565  27.682  1.00  0.00     0.064 A 
ATOM     61  C   UNL A   1      41.895  25.280  27.425  1.00  0.00     0.173 A 
ATOM     62  C   UNL A   1      43.353  27.085  26.796  1.00  0.00     0.173 A 
ATOM     63  F   UNL A   1      41.007  24.721  28.260  1.00  0.00    -0.203 F 
ATOM     64  C   UNL A   1      42.358  24.536  26.343  1.00  0.00     0.198 A 
ATOM     65  C   UNL A   1      43.783  26.355  25.693  1.00  0.00     0.198 A 
ATOM     66  F   UNL A   1      43.877  28.303  27.004  1.00  0.00    -0.203 F 
ATOM     67  F   UNL A   1      41.920  23.282  26.157  1.00  0.00    -0.200 F 
ATOM     68  C   UNL A   1      43.294  25.076  25.474  1.00  0.00     0.200 A 
ATOM     69  F   UNL A   1      44.681  26.885  24.851  1.00  0.00    -0.200 F 
ATOM     70  F   UNL A   1      43.739  24.359  24.434  1.00  0.00    -0.200 F 
ENDBRANCH  46  60
BRANCH  47  71
ATOM     71  C   UNL A   1      39.180  32.058  35.408  1.00  0.00     0.064 A 
ATOM     72  C   UNL A   1      38.389  31.513  36.430  1.00  0.00     0.173 A 
ATOM     73  C   UNL A   1      39.490  33.428  35.499  1.00  0.00     0.173 A 
ATOM     74  F   UNL A   1      38.043  30.219  36.390  1.00  0.00    -0.203 F 
ATOM     75  C   UNL A   1      37.919  32.302  37.482  1.00  0.00     0.198 A 
ATOM     76  C   UNL A   1      39.054  34.205  36.571  1.00  0.00     0.198 A 
ATOM     77  F   UNL A   1      40.244  34.012  34.555  1.00  0.00    -0.203 F 
ATOM     78  F   UNL A   1      37.122  31.763  38.415  1.00  0.00    -0.200 F 
ATOM     79  C   UNL A   1      38.259  33.644  37.557  1.00  0.00     0.200 A 
ATOM     80  F   UNL A   1      39.407  35.496  36.648  1.00  0.00    -0.200 F 
ATOM     81  F   UNL A   1      37.814  34.398  38.572  1.00  0.00    -0.200 F 
ENDBRANCH  47  71
BRANCH  59  82
ATOM     82  C   UNL A   1      44.610  27.830  34.445  1.00  0.00     0.064 A 
ATOM     83  C   UNL A   1      45.798  28.575  34.498  1.00  0.00     0.173 A 
ATOM     84  C   UNL A   1      44.507  26.687  35.250  1.00  0.00     0.173 A 
ATOM     85  F   UNL A   1      45.953  29.660  33.724  1.00  0.00    -0.203 F 
ATOM     86  C   UNL A   1      46.857  28.164  35.301  1.00  0.00     0.198 A 
ATOM     87  C   UNL A   1      45.550  26.306  36.082  1.00  0.00     0.198 A 
ATOM     88  F   UNL A   1      43.391  25.943  35.228  1.00  0.00    -0.203 F 
ATOM     89  F   UNL A   1      48.010  28.846  35.282  1.00  0.00    -0.200 F 
ATOM     90  C   UNL A   1      46.729  27.037  36.098  1.00  0.00     0.200 A 
ATOM     91  F   UNL A   1      45.419  25.224  36.863  1.00  0.00    -0.200 F 
ATOM     92  F   UNL A   1      47.748  26.647  36.875  1.00  0.00    -0.200 F 
ENDBRANCH  59  82
ENDBRANCH  33  34
ENDBRANCH  26  28
ENDBRANCH  25  26
ENDBRANCH  24  25
ENDBRANCH   1  24
TORSDOF 15
ENDMDL
