MODEL 1
REMARK VINA RESULT:     -10.8      0.000      0.000
REMARK SMILES CN(CC(=O)OCCOC(=O)c1ccc(-c2c3nc(c(-c4c(F)c(F)c(F)c(F)c4F)c4ccc([nH]4)c(-c4c(F)c(F)c(F)c(F)c4F)c4nc(c(-c5c(F)c(F)c(F)c(F)c5F)c5ccc2[nH]5)C=C4)C=C3)cc1)C(=O)c1ccccn1
REMARK SMILES IDX 7 1 6 2 4 3 5 4 3 5 2 6 1 7 75 8 76 9 77 10 78 11 82 12
REMARK SMILES IDX 79 13 81 14 80 15 8 16 9 17 10 18 11 19 12 20 13 21 74 22
REMARK SMILES IDX 14 23 73 24 15 25 16 26 17 27 67 28 18 29 72 30 66 31 68 32
REMARK SMILES IDX 19 33 71 34 65 35 64 36 20 38 52 39 32 40 51 41 33 42 36 43
REMARK SMILES IDX 50 44 69 45 34 46 35 47 49 49 70 50 37 51 21 52 22 53 30 54
REMARK SMILES IDX 23 55 24 56 28 57 31 58 25 59 26 60 29 61 27 62 53 63 54 64
REMARK SMILES IDX 62 65 55 66 56 67 60 68 63 69 57 70 58 71 61 72 59 73 38 74
REMARK SMILES IDX 39 75 47 76 40 77 41 78 45 79 48 80 42 81 43 82 46 83 44 84
REMARK H PARENT 68 37 36 48
REMARK Flexibility Score: inf
ROOT
ATOM      1  C   UNL A   1      36.230  20.002  24.933  1.00  0.00     0.274 C 
ENDROOT
BRANCH   1   2
ATOM      2  O   UNL A   1      35.438  21.213  24.932  1.00  0.00    -0.461 OA
BRANCH   2   3
ATOM      3  C   UNL A   1      34.623  21.383  26.007  1.00  0.00     0.325 C 
ATOM      4  O   UNL A   1      34.923  22.054  26.993  1.00  0.00    -0.250 OA
BRANCH   3   5
ATOM      5  C   UNL A   1      33.213  20.805  25.835  1.00  0.00     0.242 C 
BRANCH   5   6
ATOM      6  N   UNL A   1      32.588  20.813  24.511  1.00  0.00    -0.329 N 
ATOM      7  C   UNL A   1      32.114  22.104  24.044  1.00  0.00     0.147 C 
BRANCH   6   8
ATOM      8  C   UNL A   1      32.467  19.715  23.651  1.00  0.00     0.272 C 
ATOM      9  O   UNL A   1      32.066  19.831  22.491  1.00  0.00    -0.267 OA
BRANCH   8  10
ATOM     10  C   UNL A   1      32.790  18.335  24.110  1.00  0.00     0.128 A 
ATOM     11  C   UNL A   1      33.757  17.628  23.400  1.00  0.00     0.034 A 
ATOM     12  N   UNL A   1      32.179  17.867  25.233  1.00  0.00    -0.251 NA
ATOM     13  C   UNL A   1      34.077  16.341  23.822  1.00  0.00     0.004 A 
ATOM     14  C   UNL A   1      32.533  16.620  25.621  1.00  0.00     0.112 A 
ATOM     15  C   UNL A   1      33.452  15.823  24.952  1.00  0.00     0.020 A 
ENDBRANCH   8  10
ENDBRANCH   6   8
ENDBRANCH   5   6
ENDBRANCH   3   5
ENDBRANCH   2   3
ENDBRANCH   1   2
BRANCH   1  16
ATOM     16  C   UNL A   1      37.743  20.269  24.974  1.00  0.00     0.275 C 
BRANCH  16  17
ATOM     17  O   UNL A   1      38.086  21.441  25.747  1.00  0.00    -0.458 OA
BRANCH  17  18
ATOM     18  C   UNL A   1      39.318  21.356  26.293  1.00  0.00     0.338 C 
ATOM     19  O   UNL A   1      39.988  20.343  26.378  1.00  0.00    -0.246 OA
BRANCH  18  20
ATOM     20  C   UNL A   1      39.843  22.634  26.780  1.00  0.00     0.060 A 
ATOM     21  C   UNL A   1      39.442  23.814  26.149  1.00  0.00     0.016 A 
ATOM     22  C   UNL A   1      40.917  22.635  27.670  1.00  0.00     0.016 A 
ATOM     23  C   UNL A   1      40.129  25.000  26.390  1.00  0.00     0.010 A 
ATOM     24  C   UNL A   1      41.586  23.832  27.940  1.00  0.00     0.010 A 
ATOM     25  C   UNL A   1      41.202  25.017  27.292  1.00  0.00    -0.014 A 
BRANCH  25  26
ATOM     26  C   UNL A   1      41.840  26.306  27.640  1.00  0.00     0.031 A 
ATOM     27  C   UNL A   1      41.121  27.353  28.433  1.00  0.00     0.074 A 
ATOM     28  C   UNL A   1      43.102  26.507  27.224  1.00  0.00     0.049 A 
ATOM     29  N   UNL A   1      41.532  28.544  28.785  1.00  0.00    -0.248 NA
ATOM     30  C   UNL A   1      39.768  27.021  28.899  1.00  0.00     0.031 C 
ATOM     31  C   UNL A   1      43.898  25.535  26.473  1.00  0.00     0.029 A 
ATOM     32  N   UNL A   1      43.931  27.586  27.368  1.00  0.00    -0.354 N 
ATOM     33  C   UNL A   1      40.496  29.105  29.519  1.00  0.00     0.074 A 
ATOM     34  C   UNL A   1      39.426  28.127  29.549  1.00  0.00     0.031 C 
ATOM     35  C   UNL A   1      45.104  26.064  26.218  1.00  0.00     0.029 A 
ATOM     36  C   UNL A   1      45.144  27.421  26.750  1.00  0.00     0.049 A 
ATOM     37  H   UNL A   1      43.683  28.399  27.864  1.00  0.00     0.167 HD
ATOM     38  C   UNL A   1      40.451  30.323  30.110  1.00  0.00     0.037 A 
ATOM     39  C   UNL A   1      46.168  28.281  26.602  1.00  0.00     0.037 A 
ATOM     40  C   UNL A   1      41.518  31.292  30.059  1.00  0.00     0.049 A 
ATOM     41  C   UNL A   1      46.062  29.650  27.202  1.00  0.00     0.074 A 
ATOM     42  C   UNL A   1      41.575  32.548  30.638  1.00  0.00     0.029 A 
ATOM     43  N   UNL A   1      42.715  31.112  29.380  1.00  0.00    -0.354 N 
ATOM     44  N   UNL A   1      45.079  30.169  27.896  1.00  0.00    -0.248 NA
ATOM     45  C   UNL A   1      47.200  30.551  26.993  1.00  0.00     0.031 C 
ATOM     46  C   UNL A   1      42.790  33.143  30.276  1.00  0.00     0.029 A 
ATOM     47  C   UNL A   1      43.504  32.245  29.500  1.00  0.00     0.049 A 
ATOM     48  H   UNL A   1      42.965  30.299  28.883  1.00  0.00     0.167 HD
ATOM     49  C   UNL A   1      45.478  31.458  28.212  1.00  0.00     0.074 A 
ATOM     50  C   UNL A   1      46.801  31.636  27.645  1.00  0.00     0.031 C 
ATOM     51  C   UNL A   1      44.807  32.408  28.908  1.00  0.00     0.037 A 
BRANCH  38  52
ATOM     52  C   UNL A   1      39.200  30.693  30.847  1.00  0.00     0.064 A 
ATOM     53  C   UNL A   1      38.093  31.243  30.183  1.00  0.00     0.173 A 
ATOM     54  C   UNL A   1      39.083  30.442  32.222  1.00  0.00     0.173 A 
ATOM     55  F   UNL A   1      38.160  31.511  28.870  1.00  0.00    -0.203 F 
ATOM     56  C   UNL A   1      36.918  31.536  30.871  1.00  0.00     0.198 A 
ATOM     57  C   UNL A   1      37.901  30.721  32.904  1.00  0.00     0.198 A 
ATOM     58  F   UNL A   1      40.112  29.914  32.901  1.00  0.00    -0.203 F 
ATOM     59  F   UNL A   1      35.880  32.082  30.221  1.00  0.00    -0.200 F 
ATOM     60  C   UNL A   1      36.821  31.270  32.229  1.00  0.00     0.200 A 
ATOM     61  F   UNL A   1      37.807  30.458  34.214  1.00  0.00    -0.200 F 
ATOM     62  F   UNL A   1      35.688  31.546  32.889  1.00  0.00    -0.200 F 
ENDBRANCH  38  52
BRANCH  39  63
ATOM     63  C   UNL A   1      47.359  27.850  25.836  1.00  0.00     0.064 A 
ATOM     64  C   UNL A   1      48.507  27.385  26.490  1.00  0.00     0.173 A 
ATOM     65  C   UNL A   1      47.341  27.819  24.434  1.00  0.00     0.173 A 
ATOM     66  F   UNL A   1      48.570  27.410  27.828  1.00  0.00    -0.203 F 
ATOM     67  C   UNL A   1      49.592  26.895  25.766  1.00  0.00     0.198 A 
ATOM     68  C   UNL A   1      48.417  27.310  23.713  1.00  0.00     0.198 A 
ATOM     69  F   UNL A   1      46.259  28.248  23.767  1.00  0.00    -0.203 F 
ATOM     70  F   UNL A   1      50.682  26.462  26.411  1.00  0.00    -0.200 F 
ATOM     71  C   UNL A   1      49.542  26.848  24.380  1.00  0.00     0.200 A 
ATOM     72  F   UNL A   1      48.358  27.251  22.376  1.00  0.00    -0.200 F 
ATOM     73  F   UNL A   1      50.576  26.354  23.687  1.00  0.00    -0.200 F 
ENDBRANCH  39  63
BRANCH  51  74
ATOM     74  C   UNL A   1      45.500  33.722  29.084  1.00  0.00     0.064 A 
ATOM     75  C   UNL A   1      46.353  33.951  30.172  1.00  0.00     0.173 A 
ATOM     76  C   UNL A   1      45.315  34.757  28.158  1.00  0.00     0.173 A 
ATOM     77  F   UNL A   1      46.543  32.994  31.094  1.00  0.00    -0.203 F 
ATOM     78  C   UNL A   1      46.983  35.180  30.338  1.00  0.00     0.198 A 
ATOM     79  C   UNL A   1      45.960  35.980  28.317  1.00  0.00     0.198 A 
ATOM     80  F   UNL A   1      44.506  34.583  27.102  1.00  0.00    -0.203 F 
ATOM     81  F   UNL A   1      47.765  35.394  31.406  1.00  0.00    -0.200 F 
ATOM     82  C   UNL A   1      46.789  36.193  29.408  1.00  0.00     0.200 A 
ATOM     83  F   UNL A   1      45.774  36.957  27.417  1.00  0.00    -0.200 F 
ATOM     84  F   UNL A   1      47.392  37.378  29.571  1.00  0.00    -0.200 F 
ENDBRANCH  51  74
ENDBRANCH  25  26
ENDBRANCH  18  20
ENDBRANCH  17  18
ENDBRANCH  16  17
ENDBRANCH   1  16
TORSDOF 14
ENDMDL
MODEL 2
REMARK VINA RESULT:     -10.8      5.738      9.789
REMARK SMILES CN(CC(=O)OCCOC(=O)c1ccc(-c2c3nc(c(-c4c(F)c(F)c(F)c(F)c4F)c4ccc([nH]4)c(-c4c(F)c(F)c(F)c(F)c4F)c4nc(c(-c5c(F)c(F)c(F)c(F)c5F)c5ccc2[nH]5)C=C4)C=C3)cc1)C(=O)c1ccccn1
REMARK SMILES IDX 7 1 6 2 4 3 5 4 3 5 2 6 1 7 75 8 76 9 77 10 78 11 82 12
REMARK SMILES IDX 79 13 81 14 80 15 8 16 9 17 10 18 11 19 12 20 13 21 74 22
REMARK SMILES IDX 14 23 73 24 15 25 16 26 17 27 67 28 18 29 72 30 66 31 68 32
REMARK SMILES IDX 19 33 71 34 65 35 64 36 20 38 52 39 32 40 51 41 33 42 36 43
REMARK SMILES IDX 50 44 69 45 34 46 35 47 49 49 70 50 37 51 21 52 22 53 30 54
REMARK SMILES IDX 23 55 24 56 28 57 31 58 25 59 26 60 29 61 27 62 53 63 54 64
REMARK SMILES IDX 62 65 55 66 56 67 60 68 63 69 57 70 58 71 61 72 59 73 38 74
REMARK SMILES IDX 39 75 47 76 40 77 41 78 45 79 48 80 42 81 43 82 46 83 44 84
REMARK H PARENT 68 37 36 48
REMARK Flexibility Score: inf
ROOT
ATOM      1  C   UNL A   1      33.842  33.829  28.395  1.00  0.00     0.274 C 
ENDROOT
BRANCH   1   2
ATOM      2  O   UNL A   1      33.679  33.690  29.825  1.00  0.00    -0.461 OA
BRANCH   2   3
ATOM      3  C   UNL A   1      33.587  34.854  30.522  1.00  0.00     0.325 C 
ATOM      4  O   UNL A   1      32.693  35.681  30.359  1.00  0.00    -0.250 OA
BRANCH   3   5
ATOM      5  C   UNL A   1      34.604  34.994  31.662  1.00  0.00     0.242 C 
BRANCH   5   6
ATOM      6  N   UNL A   1      35.046  33.799  32.383  1.00  0.00    -0.329 N 
ATOM      7  C   UNL A   1      34.273  33.451  33.563  1.00  0.00     0.147 C 
BRANCH   6   8
ATOM      8  C   UNL A   1      36.093  32.950  32.004  1.00  0.00     0.272 C 
ATOM      9  O   UNL A   1      36.130  31.764  32.342  1.00  0.00    -0.267 OA
BRANCH   8  10
ATOM     10  C   UNL A   1      37.238  33.448  31.193  1.00  0.00     0.128 A 
ATOM     11  C   UNL A   1      37.243  33.154  29.833  1.00  0.00     0.034 A 
ATOM     12  N   UNL A   1      38.178  34.219  31.807  1.00  0.00    -0.251 NA
ATOM     13  C   UNL A   1      38.301  33.621  29.059  1.00  0.00     0.004 A 
ATOM     14  C   UNL A   1      39.178  34.670  31.016  1.00  0.00     0.112 A 
ATOM     15  C   UNL A   1      39.291  34.392  29.661  1.00  0.00     0.020 A 
ENDBRANCH   8  10
ENDBRANCH   6   8
ENDBRANCH   5   6
ENDBRANCH   3   5
ENDBRANCH   2   3
ENDBRANCH   1   2
BRANCH   1  16
ATOM     16  C   UNL A   1      34.433  32.577  27.728  1.00  0.00     0.275 C 
BRANCH  16  17
ATOM     17  O   UNL A   1      34.067  31.354  28.405  1.00  0.00    -0.458 OA
BRANCH  17  18
ATOM     18  C   UNL A   1      34.678  30.270  27.879  1.00  0.00     0.338 C 
ATOM     19  O   UNL A   1      34.189  29.502  27.072  1.00  0.00    -0.246 OA
BRANCH  18  20
ATOM     20  C   UNL A   1      36.054  30.079  28.345  1.00  0.00     0.060 A 
ATOM     21  C   UNL A   1      37.100  30.183  27.426  1.00  0.00     0.016 A 
ATOM     22  C   UNL A   1      36.275  29.543  29.615  1.00  0.00     0.016 A 
ATOM     23  C   UNL A   1      38.371  29.730  27.765  1.00  0.00     0.010 A 
ATOM     24  C   UNL A   1      37.558  29.119  29.968  1.00  0.00     0.010 A 
ATOM     25  C   UNL A   1      38.610  29.200  29.040  1.00  0.00    -0.014 A 
BRANCH  25  26
ATOM     26  C   UNL A   1      39.990  28.844  29.434  1.00  0.00     0.031 A 
ATOM     27  C   UNL A   1      40.814  29.734  30.313  1.00  0.00     0.074 A 
ATOM     28  C   UNL A   1      40.486  27.680  28.981  1.00  0.00     0.049 A 
ATOM     29  N   UNL A   1      42.050  29.577  30.714  1.00  0.00    -0.248 NA
ATOM     30  C   UNL A   1      40.169  30.956  30.813  1.00  0.00     0.031 C 
ATOM     31  C   UNL A   1      39.750  26.730  28.145  1.00  0.00     0.029 A 
ATOM     32  N   UNL A   1      41.714  27.102  29.151  1.00  0.00    -0.354 N 
ATOM     33  C   UNL A   1      42.332  30.672  31.519  1.00  0.00     0.074 A 
ATOM     34  C   UNL A   1      41.141  31.498  31.537  1.00  0.00     0.031 C 
ATOM     35  C   UNL A   1      40.545  25.685  27.872  1.00  0.00     0.029 A 
ATOM     36  C   UNL A   1      41.852  25.916  28.476  1.00  0.00     0.049 A 
ATOM     37  H   UNL A   1      42.428  27.498  29.701  1.00  0.00     0.167 HD
ATOM     38  C   UNL A   1      43.482  30.954  32.179  1.00  0.00     0.037 A 
ATOM     39  C   UNL A   1      42.923  25.116  28.336  1.00  0.00     0.037 A 
ATOM     40  C   UNL A   1      44.664  30.130  32.139  1.00  0.00     0.049 A 
ATOM     41  C   UNL A   1      44.205  25.489  29.015  1.00  0.00     0.074 A 
ATOM     42  C   UNL A   1      45.875  30.321  32.785  1.00  0.00     0.029 A 
ATOM     43  N   UNL A   1      44.786  28.959  31.403  1.00  0.00    -0.354 N 
ATOM     44  N   UNL A   1      44.461  26.525  29.776  1.00  0.00    -0.248 NA
ATOM     45  C   UNL A   1      45.346  24.589  28.812  1.00  0.00     0.031 C 
ATOM     46  C   UNL A   1      46.740  29.286  32.409  1.00  0.00     0.029 A 
ATOM     47  C   UNL A   1      46.060  28.433  31.555  1.00  0.00     0.049 A 
ATOM     48  H   UNL A   1      44.073  28.563  30.853  1.00  0.00     0.167 HD
ATOM     49  C   UNL A   1      45.790  26.404  30.147  1.00  0.00     0.074 A 
ATOM     50  C   UNL A   1      46.284  25.183  29.539  1.00  0.00     0.031 C 
ATOM     51  C   UNL A   1      46.535  27.231  30.922  1.00  0.00     0.037 A 
BRANCH  38  52
ATOM     52  C   UNL A   1      43.531  32.216  32.985  1.00  0.00     0.064 A 
ATOM     53  C   UNL A   1      43.130  32.244  34.329  1.00  0.00     0.173 A 
ATOM     54  C   UNL A   1      44.038  33.398  32.425  1.00  0.00     0.173 A 
ATOM     55  F   UNL A   1      42.629  31.141  34.905  1.00  0.00    -0.203 F 
ATOM     56  C   UNL A   1      43.227  33.412  35.081  1.00  0.00     0.198 A 
ATOM     57  C   UNL A   1      44.149  34.561  33.185  1.00  0.00     0.198 A 
ATOM     58  F   UNL A   1      44.438  33.422  31.146  1.00  0.00    -0.203 F 
ATOM     59  F   UNL A   1      42.818  33.423  36.357  1.00  0.00    -0.200 F 
ATOM     60  C   UNL A   1      43.742  34.568  34.510  1.00  0.00     0.200 A 
ATOM     61  F   UNL A   1      44.652  35.674  32.634  1.00  0.00    -0.200 F 
ATOM     62  F   UNL A   1      43.841  35.689  35.236  1.00  0.00    -0.200 F 
ENDBRANCH  38  52
BRANCH  39  63
ATOM     63  C   UNL A   1      42.803  23.900  27.500  1.00  0.00     0.064 A 
ATOM     64  C   UNL A   1      43.156  23.920  26.145  1.00  0.00     0.173 A 
ATOM     65  C   UNL A   1      42.411  22.676  28.060  1.00  0.00     0.173 A 
ATOM     66  F   UNL A   1      43.523  25.072  25.567  1.00  0.00    -0.203 F 
ATOM     67  C   UNL A   1      43.130  22.755  25.382  1.00  0.00     0.198 A 
ATOM     68  C   UNL A   1      42.405  21.508  27.303  1.00  0.00     0.198 A 
ATOM     69  F   UNL A   1      42.072  22.609  29.357  1.00  0.00    -0.203 F 
ATOM     70  F   UNL A   1      43.464  22.798  24.087  1.00  0.00    -0.200 F 
ATOM     71  C   UNL A   1      42.765  21.549  25.964  1.00  0.00     0.200 A 
ATOM     72  F   UNL A   1      42.068  20.343  27.873  1.00  0.00    -0.200 F 
ATOM     73  F   UNL A   1      42.763  20.425  25.235  1.00  0.00    -0.200 F 
ENDBRANCH  39  63
BRANCH  51  74
ATOM     74  C   UNL A   1      47.961  26.835  31.143  1.00  0.00     0.064 A 
ATOM     75  C   UNL A   1      48.319  25.973  32.189  1.00  0.00     0.173 A 
ATOM     76  C   UNL A   1      48.974  27.316  30.303  1.00  0.00     0.173 A 
ATOM     77  F   UNL A   1      47.383  25.505  33.029  1.00  0.00    -0.203 F 
ATOM     78  C   UNL A   1      49.649  25.621  32.398  1.00  0.00     0.198 A 
ATOM     79  C   UNL A   1      50.301  26.947  30.504  1.00  0.00     0.198 A 
ATOM     80  F   UNL A   1      48.677  28.144  29.291  1.00  0.00    -0.203 F 
ATOM     81  F   UNL A   1      49.978  24.826  33.427  1.00  0.00    -0.200 F 
ATOM     82  C   UNL A   1      50.639  26.105  31.554  1.00  0.00     0.200 A 
ATOM     83  F   UNL A   1      51.256  27.414  29.687  1.00  0.00    -0.200 F 
ATOM     84  F   UNL A   1      51.919  25.770  31.759  1.00  0.00    -0.200 F 
ENDBRANCH  51  74
ENDBRANCH  25  26
ENDBRANCH  18  20
ENDBRANCH  17  18
ENDBRANCH  16  17
ENDBRANCH   1  16
TORSDOF 14
ENDMDL
MODEL 3
REMARK VINA RESULT:     -10.7      5.874     10.809
REMARK SMILES CN(CC(=O)OCCOC(=O)c1ccc(-c2c3nc(c(-c4c(F)c(F)c(F)c(F)c4F)c4ccc([nH]4)c(-c4c(F)c(F)c(F)c(F)c4F)c4nc(c(-c5c(F)c(F)c(F)c(F)c5F)c5ccc2[nH]5)C=C4)C=C3)cc1)C(=O)c1ccccn1
REMARK SMILES IDX 7 1 6 2 4 3 5 4 3 5 2 6 1 7 75 8 76 9 77 10 78 11 82 12
REMARK SMILES IDX 79 13 81 14 80 15 8 16 9 17 10 18 11 19 12 20 13 21 74 22
REMARK SMILES IDX 14 23 73 24 15 25 16 26 17 27 67 28 18 29 72 30 66 31 68 32
REMARK SMILES IDX 19 33 71 34 65 35 64 36 20 38 52 39 32 40 51 41 33 42 36 43
REMARK SMILES IDX 50 44 69 45 34 46 35 47 49 49 70 50 37 51 21 52 22 53 30 54
REMARK SMILES IDX 23 55 24 56 28 57 31 58 25 59 26 60 29 61 27 62 53 63 54 64
REMARK SMILES IDX 62 65 55 66 56 67 60 68 63 69 57 70 58 71 61 72 59 73 38 74
REMARK SMILES IDX 39 75 47 76 40 77 41 78 45 79 48 80 42 81 43 82 46 83 44 84
REMARK H PARENT 68 37 36 48
REMARK Flexibility Score: inf
ROOT
ATOM      1  C   UNL A   1      32.716  29.298  24.768  1.00  0.00     0.274 C 
ENDROOT
BRANCH   1   2
ATOM      2  O   UNL A   1      32.275  29.328  23.391  1.00  0.00    -0.461 OA
BRANCH   2   3
ATOM      3  C   UNL A   1      32.180  28.118  22.778  1.00  0.00     0.325 C 
ATOM      4  O   UNL A   1      33.093  27.296  22.741  1.00  0.00    -0.250 OA
BRANCH   3   5
ATOM      5  C   UNL A   1      30.777  27.775  22.263  1.00  0.00     0.242 C 
BRANCH   5   6
ATOM      6  N   UNL A   1      29.663  27.691  23.210  1.00  0.00    -0.329 N 
ATOM      7  C   UNL A   1      29.880  26.839  24.366  1.00  0.00     0.147 C 
BRANCH   6   8
ATOM      8  C   UNL A   1      28.456  28.396  23.126  1.00  0.00     0.272 C 
ATOM      9  O   UNL A   1      27.377  27.887  23.436  1.00  0.00    -0.267 OA
BRANCH   8  10
ATOM     10  C   UNL A   1      28.414  29.798  22.624  1.00  0.00     0.128 A 
ATOM     11  C   UNL A   1      28.796  30.809  23.501  1.00  0.00     0.034 A 
ATOM     12  N   UNL A   1      28.072  30.009  21.323  1.00  0.00    -0.251 NA
ATOM     13  C   UNL A   1      28.771  32.124  23.045  1.00  0.00     0.004 A 
ATOM     14  C   UNL A   1      28.080  31.299  20.914  1.00  0.00     0.112 A 
ATOM     15  C   UNL A   1      28.403  32.377  21.727  1.00  0.00     0.020 A 
ENDBRANCH   8  10
ENDBRANCH   6   8
ENDBRANCH   5   6
ENDBRANCH   3   5
ENDBRANCH   2   3
ENDBRANCH   1   2
BRANCH   1  16
ATOM     16  C   UNL A   1      31.842  30.151  25.702  1.00  0.00     0.275 C 
BRANCH  16  17
ATOM     17  O   UNL A   1      32.384  30.257  27.037  1.00  0.00    -0.458 OA
BRANCH  17  18
ATOM     18  C   UNL A   1      33.236  31.296  27.168  1.00  0.00     0.338 C 
ATOM     19  O   UNL A   1      32.993  32.453  26.875  1.00  0.00    -0.246 OA
BRANCH  18  20
ATOM     20  C   UNL A   1      34.534  30.934  27.741  1.00  0.00     0.060 A 
ATOM     21  C   UNL A   1      34.729  29.630  28.201  1.00  0.00     0.016 A 
ATOM     22  C   UNL A   1      35.445  31.943  28.058  1.00  0.00     0.016 A 
ATOM     23  C   UNL A   1      35.828  29.332  29.002  1.00  0.00     0.010 A 
ATOM     24  C   UNL A   1      36.566  31.637  28.832  1.00  0.00     0.010 A 
ATOM     25  C   UNL A   1      36.757  30.333  29.318  1.00  0.00    -0.014 A 
BRANCH  25  26
ATOM     26  C   UNL A   1      37.988  29.977  30.057  1.00  0.00     0.031 A 
ATOM     27  C   UNL A   1      39.020  29.061  29.476  1.00  0.00     0.074 A 
ATOM     28  C   UNL A   1      38.157  30.514  31.277  1.00  0.00     0.049 A 
ATOM     29  N   UNL A   1      40.131  28.627  30.015  1.00  0.00    -0.248 NA
ATOM     30  C   UNL A   1      38.782  28.573  28.111  1.00  0.00     0.031 C 
ATOM     31  C   UNL A   1      37.223  31.442  31.918  1.00  0.00     0.029 A 
ATOM     32  N   UNL A   1      39.161  30.357  32.194  1.00  0.00    -0.354 N 
ATOM     33  C   UNL A   1      40.731  27.821  29.058  1.00  0.00     0.074 A 
ATOM     34  C   UNL A   1      39.851  27.812  27.906  1.00  0.00     0.031 C 
ATOM     35  C   UNL A   1      37.697  31.771  33.128  1.00  0.00     0.029 A 
ATOM     36  C   UNL A   1      38.940  31.044  33.360  1.00  0.00     0.049 A 
ATOM     37  H   UNL A   1      39.960  29.805  32.034  1.00  0.00     0.167 HD
ATOM     38  C   UNL A   1      41.907  27.154  29.141  1.00  0.00     0.037 A 
ATOM     39  C   UNL A   1      39.648  31.066  34.503  1.00  0.00     0.037 A 
ATOM     40  C   UNL A   1      42.765  27.161  30.300  1.00  0.00     0.049 A 
ATOM     41  C   UNL A   1      40.907  30.259  34.596  1.00  0.00     0.074 A 
ATOM     42  C   UNL A   1      43.985  26.530  30.477  1.00  0.00     0.029 A 
ATOM     43  N   UNL A   1      42.486  27.828  31.484  1.00  0.00    -0.354 N 
ATOM     44  N   UNL A   1      41.466  29.502  33.684  1.00  0.00    -0.248 NA
ATOM     45  C   UNL A   1      41.628  30.305  35.872  1.00  0.00     0.031 C 
ATOM     46  C   UNL A   1      44.425  26.784  31.782  1.00  0.00     0.029 A 
ATOM     47  C   UNL A   1      43.495  27.600  32.407  1.00  0.00     0.049 A 
ATOM     48  H   UNL A   1      41.687  28.380  31.646  1.00  0.00     0.167 HD
ATOM     49  C   UNL A   1      42.608  28.981  34.272  1.00  0.00     0.074 A 
ATOM     50  C   UNL A   1      42.668  29.522  35.617  1.00  0.00     0.031 C 
ATOM     51  C   UNL A   1      43.522  28.130  33.745  1.00  0.00     0.037 A 
BRANCH  38  52
ATOM     52  C   UNL A   1      42.332  26.341  27.956  1.00  0.00     0.064 A 
ATOM     53  C   UNL A   1      43.213  26.853  26.993  1.00  0.00     0.173 A 
ATOM     54  C   UNL A   1      41.899  25.014  27.812  1.00  0.00     0.173 A 
ATOM     55  F   UNL A   1      43.646  28.119  27.082  1.00  0.00    -0.203 F 
ATOM     56  C   UNL A   1      43.639  26.069  25.923  1.00  0.00     0.198 A 
ATOM     57  C   UNL A   1      42.339  24.227  26.750  1.00  0.00     0.198 A 
ATOM     58  F   UNL A   1      41.059  24.477  28.709  1.00  0.00    -0.203 F 
ATOM     59  F   UNL A   1      44.463  26.586  25.001  1.00  0.00    -0.200 F 
ATOM     60  C   UNL A   1      43.206  24.756  25.806  1.00  0.00     0.200 A 
ATOM     61  F   UNL A   1      41.925  22.958  26.642  1.00  0.00    -0.200 F 
ATOM     62  F   UNL A   1      43.621  24.001  24.779  1.00  0.00    -0.200 F 
ENDBRANCH  38  52
BRANCH  39  63
ATOM     63  C   UNL A   1      39.148  31.872  35.640  1.00  0.00     0.064 A 
ATOM     64  C   UNL A   1      38.270  31.322  36.582  1.00  0.00     0.173 A 
ATOM     65  C   UNL A   1      39.602  33.182  35.848  1.00  0.00     0.173 A 
ATOM     66  F   UNL A   1      37.801  30.078  36.412  1.00  0.00    -0.203 F 
ATOM     67  C   UNL A   1      37.873  32.052  37.700  1.00  0.00     0.198 A 
ATOM     68  C   UNL A   1      39.221  33.903  36.976  1.00  0.00     0.198 A 
ATOM     69  F   UNL A   1      40.450  33.745  34.975  1.00  0.00    -0.203 F 
ATOM     70  F   UNL A   1      37.027  31.509  38.585  1.00  0.00    -0.200 F 
ATOM     71  C   UNL A   1      38.357  33.337  37.901  1.00  0.00     0.200 A 
ATOM     72  F   UNL A   1      39.704  35.137  37.175  1.00  0.00    -0.200 F 
ATOM     73  F   UNL A   1      37.992  34.029  38.989  1.00  0.00    -0.200 F 
ENDBRANCH  39  63
BRANCH  51  74
ATOM     74  C   UNL A   1      44.658  27.734  34.636  1.00  0.00     0.064 A 
ATOM     75  C   UNL A   1      44.602  26.564  35.405  1.00  0.00     0.173 A 
ATOM     76  C   UNL A   1      45.811  28.527  34.718  1.00  0.00     0.173 A 
ATOM     77  F   UNL A   1      43.508  25.786  35.371  1.00  0.00    -0.203 F 
ATOM     78  C   UNL A   1      45.655  26.210  36.242  1.00  0.00     0.198 A 
ATOM     79  C   UNL A   1      46.870  28.161  35.544  1.00  0.00     0.198 A 
ATOM     80  F   UNL A   1      45.907  29.657  34.002  1.00  0.00    -0.203 F 
ATOM     81  F   UNL A   1      45.567  25.106  36.999  1.00  0.00    -0.200 F 
ATOM     82  C   UNL A   1      46.790  27.006  36.308  1.00  0.00     0.200 A 
ATOM     83  F   UNL A   1      47.966  28.929  35.605  1.00  0.00    -0.200 F 
ATOM     84  F   UNL A   1      47.801  26.667  37.118  1.00  0.00    -0.200 F 
ENDBRANCH  51  74
ENDBRANCH  25  26
ENDBRANCH  18  20
ENDBRANCH  17  18
ENDBRANCH  16  17
ENDBRANCH   1  16
TORSDOF 14
ENDMDL
