MODEL 1
REMARK VINA RESULT:     -11.0      0.000      0.000
REMARK SMILES CCC[NH2+][C@]1(C(=O)OCCOC(=O)c2ccc(-c3c4nc(c(-c5c(F)c(F)c(F)c(F)c5F)c5ccc([nH]5)c(-c5c(F)c(F)c(F)c(F)c5F)c5nc(c(-c6c(F)c(F)c(F)c(F)c6F)c6ccc3[nH]6)C=C5)C=C4)cc2)CCC[C@@H]([N@@H+](C)[C@@H](C)C2CC2)C1
REMARK SMILES IDX 9 1 8 2 6 3 7 4 5 5 77 6 88 7 78 8 80 9 79 10 4 11 3 14 2 15
REMARK SMILES IDX 1 16 81 17 82 18 83 20 84 21 85 22 86 23 87 24 10 25 11 26
REMARK SMILES IDX 12 27 13 28 14 29 15 30 76 31 16 32 75 33 17 34 18 35 19 36
REMARK SMILES IDX 69 37 20 38 74 39 68 40 70 41 21 42 73 43 67 44 66 45 22 47
REMARK SMILES IDX 54 48 34 49 53 50 35 51 38 52 52 53 71 54 36 55 37 56 51 58
REMARK SMILES IDX 72 59 39 60 23 61 24 62 32 63 25 64 26 65 30 66 33 67 27 68
REMARK SMILES IDX 28 69 31 70 29 71 55 72 56 73 64 74 57 75 58 76 62 77 65 78
REMARK SMILES IDX 59 79 60 80 63 81 61 82 40 83 41 84 49 85 42 86 43 87 47 88
REMARK SMILES IDX 50 89 44 90 45 91 48 92 46 93
REMARK H PARENT 4 12 4 13 81 19 70 46 38 57
REMARK Flexibility Score: inf
ROOT
ATOM      1  C   UNL A   1      32.735  29.324  24.727  1.00  0.00     0.274 C 
ENDROOT
BRANCH   1   2
ATOM      2  O   UNL A   1      32.299  27.949  24.696  1.00  0.00    -0.457 OA
BRANCH   2   3
ATOM      3  C   UNL A   1      33.184  27.029  25.186  1.00  0.00     0.368 C 
ATOM      4  O   UNL A   1      34.042  27.276  26.026  1.00  0.00    -0.245 OA
BRANCH   3   5
ATOM      5  C   UNL A   1      32.969  25.620  24.558  1.00  0.00     0.200 C 
ATOM      6  C   UNL A   1      33.273  25.697  23.048  1.00  0.00     0.081 C 
ATOM      7  C   UNL A   1      33.978  24.647  25.224  1.00  0.00     0.146 C 
ATOM      8  C   UNL A   1      33.251  24.331  22.375  1.00  0.00     0.013 C 
ATOM      9  C   UNL A   1      34.050  23.257  24.548  1.00  0.00     0.190 C 
ATOM     10  C   UNL A   1      34.261  23.386  23.021  1.00  0.00     0.065 C 
BRANCH   5  11
ATOM     11  N   UNL A   1      31.598  25.098  24.845  1.00  0.00    -0.332 N 
ATOM     12  H   UNL A   1      30.925  25.730  24.412  1.00  0.00     0.347 HD
ATOM     13  H   UNL A   1      31.576  24.150  24.469  1.00  0.00     0.347 HD
BRANCH  11  14
ATOM     14  C   UNL A   1      31.250  24.972  26.260  1.00  0.00     0.261 C 
BRANCH  14  15
ATOM     15  C   UNL A   1      30.377  23.735  26.505  1.00  0.00     0.058 C 
ATOM     16  C   UNL A   1      30.901  22.463  25.852  1.00  0.00     0.010 C 
ENDBRANCH  14  15
ENDBRANCH  11  14
ENDBRANCH   5  11
BRANCH   9  17
ATOM     17  N   UNL A   1      34.910  22.267  25.247  1.00  0.00    -0.332 N 
ATOM     18  C   UNL A   1      34.596  22.214  26.682  1.00  0.00     0.333 C 
ATOM     19  H   UNL A   1      35.814  22.685  25.023  1.00  0.00     0.348 HD
BRANCH  17  20
ATOM     20  C   UNL A   1      35.134  20.903  24.736  1.00  0.00     0.184 C 
ATOM     21  C   UNL A   1      36.494  20.254  25.001  1.00  0.00     0.075 C 
BRANCH  20  22
ATOM     22  C   UNL A   1      33.998  19.934  25.002  1.00  0.00     0.047 C 
ATOM     23  C   UNL A   1      32.904  19.479  24.063  1.00  0.00     0.010 C 
ATOM     24  C   UNL A   1      34.036  18.553  24.381  1.00  0.00     0.010 C 
ENDBRANCH  20  22
ENDBRANCH  17  20
ENDBRANCH   9  17
ENDBRANCH   3   5
ENDBRANCH   2   3
ENDBRANCH   1   2
BRANCH   1  25
ATOM     25  C   UNL A   1      31.808  30.164  25.596  1.00  0.00     0.275 C 
BRANCH  25  26
ATOM     26  O   UNL A   1      32.345  30.215  26.926  1.00  0.00    -0.458 OA
BRANCH  26  27
ATOM     27  C   UNL A   1      33.046  31.329  27.226  1.00  0.00     0.338 C 
ATOM     28  O   UNL A   1      32.653  32.483  27.138  1.00  0.00    -0.246 OA
BRANCH  27  29
ATOM     29  C   UNL A   1      34.392  30.964  27.726  1.00  0.00     0.060 A 
ATOM     30  C   UNL A   1      34.727  29.636  27.994  1.00  0.00     0.016 A 
ATOM     31  C   UNL A   1      35.300  31.979  28.037  1.00  0.00     0.016 A 
ATOM     32  C   UNL A   1      35.919  29.339  28.654  1.00  0.00     0.010 A 
ATOM     33  C   UNL A   1      36.527  31.668  28.634  1.00  0.00     0.010 A 
ATOM     34  C   UNL A   1      36.833  30.347  29.000  1.00  0.00    -0.014 A 
BRANCH  34  35
ATOM     35  C   UNL A   1      38.063  30.031  29.786  1.00  0.00     0.031 A 
ATOM     36  C   UNL A   1      39.128  29.121  29.216  1.00  0.00     0.074 A 
ATOM     37  C   UNL A   1      38.265  30.582  31.000  1.00  0.00     0.049 A 
ATOM     38  N   UNL A   1      40.207  28.644  29.791  1.00  0.00    -0.248 NA
ATOM     39  C   UNL A   1      38.974  28.703  27.814  1.00  0.00     0.031 C 
ATOM     40  C   UNL A   1      37.365  31.525  31.664  1.00  0.00     0.029 A 
ATOM     41  N   UNL A   1      39.299  30.427  31.894  1.00  0.00    -0.354 N 
ATOM     42  C   UNL A   1      40.843  27.867  28.830  1.00  0.00     0.074 A 
ATOM     43  C   UNL A   1      40.034  27.929  27.633  1.00  0.00     0.031 C 
ATOM     44  C   UNL A   1      37.895  31.884  32.841  1.00  0.00     0.029 A 
ATOM     45  C   UNL A   1      39.121  31.125  33.063  1.00  0.00     0.049 A 
ATOM     46  H   UNL A   1      40.090  29.870  31.713  1.00  0.00     0.167 HD
ATOM     47  C   UNL A   1      41.995  27.162  28.932  1.00  0.00     0.037 A 
ATOM     48  C   UNL A   1      39.822  31.115  34.213  1.00  0.00     0.037 A 
ATOM     49  C   UNL A   1      42.813  27.088  30.113  1.00  0.00     0.049 A 
ATOM     50  C   UNL A   1      41.022  30.224  34.348  1.00  0.00     0.074 A 
ATOM     51  C   UNL A   1      43.993  26.389  30.304  1.00  0.00     0.029 A 
ATOM     52  N   UNL A   1      42.533  27.733  31.307  1.00  0.00    -0.354 N 
ATOM     53  N   UNL A   1      41.576  29.447  33.452  1.00  0.00    -0.248 NA
ATOM     54  C   UNL A   1      41.675  30.187  35.665  1.00  0.00     0.031 C 
ATOM     55  C   UNL A   1      44.403  26.574  31.629  1.00  0.00     0.029 A 
ATOM     56  C   UNL A   1      43.501  27.421  32.249  1.00  0.00     0.049 A 
ATOM     57  H   UNL A   1      41.761  28.322  31.464  1.00  0.00     0.167 HD
ATOM     58  C   UNL A   1      42.639  28.825  34.094  1.00  0.00     0.074 A 
ATOM     59  C   UNL A   1      42.667  29.334  35.449  1.00  0.00     0.031 C 
ATOM     60  C   UNL A   1      43.508  27.910  33.602  1.00  0.00     0.037 A 
BRANCH  47  61
ATOM     61  C   UNL A   1      42.436  26.372  27.736  1.00  0.00     0.064 A 
ATOM     62  C   UNL A   1      43.393  26.866  26.839  1.00  0.00     0.173 A 
ATOM     63  C   UNL A   1      41.948  25.073  27.531  1.00  0.00     0.173 A 
ATOM     64  F   UNL A   1      43.880  28.107  26.988  1.00  0.00    -0.203 F 
ATOM     65  C   UNL A   1      43.844  26.087  25.776  1.00  0.00     0.198 A 
ATOM     66  C   UNL A   1      42.413  24.291  26.478  1.00  0.00     0.198 A 
ATOM     67  F   UNL A   1      41.033  24.557  28.365  1.00  0.00    -0.203 F 
ATOM     68  F   UNL A   1      44.747  26.583  24.919  1.00  0.00    -0.200 F 
ATOM     69  C   UNL A   1      43.360  24.799  25.602  1.00  0.00     0.200 A 
ATOM     70  F   UNL A   1      41.951  23.043  26.316  1.00  0.00    -0.200 F 
ATOM     71  F   UNL A   1      43.807  24.045  24.587  1.00  0.00    -0.200 F 
ENDBRANCH  47  61
BRANCH  48  72
ATOM     72  C   UNL A   1      39.341  31.926  35.363  1.00  0.00     0.064 A 
ATOM     73  C   UNL A   1      39.695  33.273  35.499  1.00  0.00     0.173 A 
ATOM     74  C   UNL A   1      38.496  31.367  36.334  1.00  0.00     0.173 A 
ATOM     75  F   UNL A   1      40.528  33.840  34.614  1.00  0.00    -0.203 F 
ATOM     76  C   UNL A   1      39.213  34.036  36.561  1.00  0.00     0.198 A 
ATOM     77  C   UNL A   1      37.991  32.138  37.376  1.00  0.00     0.198 A 
ATOM     78  F   UNL A   1      38.138  30.077  36.250  1.00  0.00    -0.203 F 
ATOM     79  F   UNL A   1      39.585  35.317  36.686  1.00  0.00    -0.200 F 
ATOM     80  C   UNL A   1      38.351  33.471  37.490  1.00  0.00     0.200 A 
ATOM     81  F   UNL A   1      37.149  31.591  38.263  1.00  0.00    -0.200 F 
ATOM     82  F   UNL A   1      37.872  34.211  38.500  1.00  0.00    -0.200 F 
ENDBRANCH  48  72
BRANCH  60  83
ATOM     83  C   UNL A   1      44.562  27.399  34.535  1.00  0.00     0.064 A 
ATOM     84  C   UNL A   1      44.368  26.227  35.282  1.00  0.00     0.173 A 
ATOM     85  C   UNL A   1      45.785  28.073  34.674  1.00  0.00     0.173 A 
ATOM     86  F   UNL A   1      43.209  25.557  35.195  1.00  0.00    -0.203 F 
ATOM     87  C   UNL A   1      45.351  25.762  36.150  1.00  0.00     0.198 A 
ATOM     88  C   UNL A   1      46.774  27.593  35.527  1.00  0.00     0.198 A 
ATOM     89  F   UNL A   1      46.019  29.195  33.978  1.00  0.00    -0.203 F 
ATOM     90  F   UNL A   1      45.128  24.665  36.887  1.00  0.00    -0.200 F 
ATOM     91  C   UNL A   1      46.553  26.442  36.270  1.00  0.00     0.200 A 
ATOM     92  F   UNL A   1      47.938  28.247  35.635  1.00  0.00    -0.200 F 
ATOM     93  F   UNL A   1      47.498  25.995  37.108  1.00  0.00    -0.200 F 
ENDBRANCH  60  83
ENDBRANCH  34  35
ENDBRANCH  27  29
ENDBRANCH  26  27
ENDBRANCH  25  26
ENDBRANCH   1  25
TORSDOF 17
ENDMDL
MODEL 2
REMARK VINA RESULT:     -10.8      4.437      9.879
REMARK SMILES CCC[NH2+][C@]1(C(=O)OCCOC(=O)c2ccc(-c3c4nc(c(-c5c(F)c(F)c(F)c(F)c5F)c5ccc([nH]5)c(-c5c(F)c(F)c(F)c(F)c5F)c5nc(c(-c6c(F)c(F)c(F)c(F)c6F)c6ccc3[nH]6)C=C5)C=C4)cc2)CCC[C@@H]([N@@H+](C)[C@@H](C)C2CC2)C1
REMARK SMILES IDX 9 1 8 2 6 3 7 4 5 5 77 6 88 7 78 8 80 9 79 10 4 11 3 14 2 15
REMARK SMILES IDX 1 16 81 17 82 18 83 20 84 21 85 22 86 23 87 24 10 25 11 26
REMARK SMILES IDX 12 27 13 28 14 29 15 30 76 31 16 32 75 33 17 34 18 35 19 36
REMARK SMILES IDX 69 37 20 38 74 39 68 40 70 41 21 42 73 43 67 44 66 45 22 47
REMARK SMILES IDX 54 48 34 49 53 50 35 51 38 52 52 53 71 54 36 55 37 56 51 58
REMARK SMILES IDX 72 59 39 60 23 61 24 62 32 63 25 64 26 65 30 66 33 67 27 68
REMARK SMILES IDX 28 69 31 70 29 71 55 72 56 73 64 74 57 75 58 76 62 77 65 78
REMARK SMILES IDX 59 79 60 80 63 81 61 82 40 83 41 84 49 85 42 86 43 87 47 88
REMARK SMILES IDX 50 89 44 90 45 91 48 92 46 93
REMARK H PARENT 4 12 4 13 81 19 70 46 38 57
REMARK Flexibility Score: inf
ROOT
ATOM      1  C   UNL A   1      36.095  20.329  25.017  1.00  0.00     0.274 C 
ENDROOT
BRANCH   1   2
ATOM      2  O   UNL A   1      35.823  21.695  25.392  1.00  0.00    -0.457 OA
BRANCH   2   3
ATOM      3  C   UNL A   1      35.337  22.503  24.401  1.00  0.00     0.368 C 
ATOM      4  O   UNL A   1      35.913  22.715  23.340  1.00  0.00    -0.245 OA
BRANCH   3   5
ATOM      5  C   UNL A   1      33.957  23.119  24.774  1.00  0.00     0.200 C 
ATOM      6  C   UNL A   1      33.791  23.079  26.307  1.00  0.00     0.081 C 
ATOM      7  C   UNL A   1      33.958  24.600  24.309  1.00  0.00     0.146 C 
ATOM      8  C   UNL A   1      32.542  23.810  26.782  1.00  0.00     0.013 C 
ATOM      9  C   UNL A   1      32.744  25.417  24.810  1.00  0.00     0.190 C 
ATOM     10  C   UNL A   1      32.562  25.271  26.339  1.00  0.00     0.065 C 
BRANCH   5  11
ATOM     11  N   UNL A   1      32.840  22.432  24.055  1.00  0.00    -0.332 N 
ATOM     12  H   UNL A   1      31.973  22.919  24.285  1.00  0.00     0.347 HD
ATOM     13  H   UNL A   1      33.083  22.467  23.065  1.00  0.00     0.347 HD
BRANCH  11  14
ATOM     14  C   UNL A   1      32.658  21.016  24.371  1.00  0.00     0.261 C 
BRANCH  14  15
ATOM     15  C   UNL A   1      32.145  20.241  23.150  1.00  0.00     0.058 C 
ATOM     16  C   UNL A   1      31.949  21.098  21.906  1.00  0.00     0.010 C 
ENDBRANCH  14  15
ENDBRANCH  11  14
ENDBRANCH   5  11
BRANCH   9  17
ATOM     17  N   UNL A   1      32.656  26.799  24.269  1.00  0.00    -0.332 N 
ATOM     18  C   UNL A   1      33.266  26.883  22.934  1.00  0.00     0.333 C 
ATOM     19  H   UNL A   1      33.178  27.272  25.008  1.00  0.00     0.348 HD
BRANCH  17  20
ATOM     20  C   UNL A   1      31.414  27.590  24.299  1.00  0.00     0.184 C 
ATOM     21  C   UNL A   1      30.092  26.854  24.062  1.00  0.00     0.075 C 
BRANCH  20  22
ATOM     22  C   UNL A   1      31.306  28.557  25.463  1.00  0.00     0.047 C 
ATOM     23  C   UNL A   1      32.382  28.996  26.429  1.00  0.00     0.010 C 
ATOM     24  C   UNL A   1      31.934  29.930  25.351  1.00  0.00     0.010 C 
ENDBRANCH  20  22
ENDBRANCH  17  20
ENDBRANCH   9  17
ENDBRANCH   3   5
ENDBRANCH   2   3
ENDBRANCH   1   2
BRANCH   1  25
ATOM     25  C   UNL A   1      37.594  20.064  24.996  1.00  0.00     0.275 C 
BRANCH  25  26
ATOM     26  O   UNL A   1      38.280  21.272  25.355  1.00  0.00    -0.458 OA
BRANCH  26  27
ATOM     27  C   UNL A   1      39.385  21.108  26.114  1.00  0.00     0.338 C 
ATOM     28  O   UNL A   1      39.969  20.057  26.332  1.00  0.00    -0.246 OA
BRANCH  27  29
ATOM     29  C   UNL A   1      39.840  22.415  26.640  1.00  0.00     0.060 A 
ATOM     30  C   UNL A   1      39.310  23.612  26.157  1.00  0.00     0.016 A 
ATOM     31  C   UNL A   1      40.894  22.450  27.557  1.00  0.00     0.016 A 
ATOM     32  C   UNL A   1      39.895  24.827  26.515  1.00  0.00     0.010 A 
ATOM     33  C   UNL A   1      41.429  23.676  27.969  1.00  0.00     0.010 A 
ATOM     34  C   UNL A   1      40.973  24.882  27.413  1.00  0.00    -0.014 A 
BRANCH  34  35
ATOM     35  C   UNL A   1      41.650  26.177  27.721  1.00  0.00     0.031 A 
ATOM     36  C   UNL A   1      40.939  27.247  28.521  1.00  0.00     0.074 A 
ATOM     37  C   UNL A   1      42.920  26.400  27.328  1.00  0.00     0.049 A 
ATOM     38  N   UNL A   1      41.321  28.472  28.791  1.00  0.00    -0.248 NA
ATOM     39  C   UNL A   1      39.638  26.892  29.107  1.00  0.00     0.031 C 
ATOM     40  C   UNL A   1      43.763  25.450  26.603  1.00  0.00     0.029 A 
ATOM     41  N   UNL A   1      43.726  27.505  27.485  1.00  0.00    -0.354 N 
ATOM     42  C   UNL A   1      40.307  29.030  29.560  1.00  0.00     0.074 A 
ATOM     43  C   UNL A   1      39.288  28.015  29.716  1.00  0.00     0.031 C 
ATOM     44  C   UNL A   1      44.970  25.997  26.402  1.00  0.00     0.029 A 
ATOM     45  C   UNL A   1      44.958  27.370  26.893  1.00  0.00     0.049 A 
ATOM     46  H   UNL A   1      43.446  28.312  27.974  1.00  0.00     0.167 HD
ATOM     47  C   UNL A   1      40.227  30.274  30.090  1.00  0.00     0.037 A 
ATOM     48  C   UNL A   1      45.949  28.263  26.706  1.00  0.00     0.037 A 
ATOM     49  C   UNL A   1      41.230  31.296  29.946  1.00  0.00     0.049 A 
ATOM     50  C   UNL A   1      45.783  29.675  27.186  1.00  0.00     0.074 A 
ATOM     51  C   UNL A   1      41.223  32.588  30.444  1.00  0.00     0.029 A 
ATOM     52  N   UNL A   1      42.416  31.143  29.248  1.00  0.00    -0.354 N 
ATOM     53  N   UNL A   1      44.792  30.206  27.857  1.00  0.00    -0.248 NA
ATOM     54  C   UNL A   1      46.860  30.619  26.854  1.00  0.00     0.031 C 
ATOM     55  C   UNL A   1      42.386  33.232  30.008  1.00  0.00     0.029 A 
ATOM     56  C   UNL A   1      43.135  32.328  29.275  1.00  0.00     0.049 A 
ATOM     57  H   UNL A   1      42.705  30.317  28.799  1.00  0.00     0.167 HD
ATOM     58  C   UNL A   1      45.122  31.544  28.026  1.00  0.00     0.074 A 
ATOM     59  C   UNL A   1      46.416  31.739  27.407  1.00  0.00     0.031 C 
ATOM     60  C   UNL A   1      44.409  32.522  28.635  1.00  0.00     0.037 A 
BRANCH  47  61
ATOM     61  C   UNL A   1      38.986  30.627  30.855  1.00  0.00     0.064 A 
ATOM     62  C   UNL A   1      38.930  30.527  32.252  1.00  0.00     0.173 A 
ATOM     63  C   UNL A   1      37.868  31.143  30.184  1.00  0.00     0.173 A 
ATOM     64  F   UNL A   1      39.971  30.029  32.936  1.00  0.00    -0.203 F 
ATOM     65  C   UNL A   1      37.794  30.930  32.950  1.00  0.00     0.198 A 
ATOM     66  C   UNL A   1      36.741  31.559  30.886  1.00  0.00     0.198 A 
ATOM     67  F   UNL A   1      37.877  31.259  28.847  1.00  0.00    -0.203 F 
ATOM     68  F   UNL A   1      37.752  30.811  34.284  1.00  0.00    -0.200 F 
ATOM     69  C   UNL A   1      36.705  31.452  32.268  1.00  0.00     0.200 A 
ATOM     70  F   UNL A   1      35.693  32.074  30.226  1.00  0.00    -0.200 F 
ATOM     71  F   UNL A   1      35.619  31.854  32.944  1.00  0.00    -0.200 F 
ENDBRANCH  47  61
BRANCH  48  72
ATOM     72  C   UNL A   1      47.160  27.854  25.947  1.00  0.00     0.064 A 
ATOM     73  C   UNL A   1      47.160  27.809  24.548  1.00  0.00     0.173 A 
ATOM     74  C   UNL A   1      48.350  27.525  26.615  1.00  0.00     0.173 A 
ATOM     75  F   UNL A   1      46.036  28.082  23.868  1.00  0.00    -0.203 F 
ATOM     76  C   UNL A   1      48.309  27.457  23.843  1.00  0.00     0.198 A 
ATOM     77  C   UNL A   1      49.505  27.203  25.908  1.00  0.00     0.198 A 
ATOM     78  F   UNL A   1      48.395  27.544  27.954  1.00  0.00    -0.203 F 
ATOM     79  F   UNL A   1      48.279  27.396  22.505  1.00  0.00    -0.200 F 
ATOM     80  C   UNL A   1      49.484  27.168  24.523  1.00  0.00     0.200 A 
ATOM     81  F   UNL A   1      50.640  26.938  26.570  1.00  0.00    -0.200 F 
ATOM     82  F   UNL A   1      50.594  26.850  23.843  1.00  0.00    -0.200 F 
ENDBRANCH  48  72
BRANCH  60  83
ATOM     83  C   UNL A   1      45.014  33.892  28.661  1.00  0.00     0.064 A 
ATOM     84  C   UNL A   1      45.914  34.273  29.668  1.00  0.00     0.173 A 
ATOM     85  C   UNL A   1      44.708  34.829  27.663  1.00  0.00     0.173 A 
ATOM     86  F   UNL A   1      46.225  33.416  30.652  1.00  0.00    -0.203 F 
ATOM     87  C   UNL A   1      46.467  35.549  29.687  1.00  0.00     0.198 A 
ATOM     88  C   UNL A   1      45.279  36.098  27.673  1.00  0.00     0.198 A 
ATOM     89  F   UNL A   1      43.856  34.511  26.677  1.00  0.00    -0.203 F 
ATOM     90  F   UNL A   1      47.290  35.907  30.682  1.00  0.00    -0.200 F 
ATOM     91  C   UNL A   1      46.152  36.459  28.688  1.00  0.00     0.200 A 
ATOM     92  F   UNL A   1      44.981  36.973  26.703  1.00  0.00    -0.200 F 
ATOM     93  F   UNL A   1      46.684  37.689  28.709  1.00  0.00    -0.200 F 
ENDBRANCH  60  83
ENDBRANCH  34  35
ENDBRANCH  27  29
ENDBRANCH  26  27
ENDBRANCH  25  26
ENDBRANCH   1  25
TORSDOF 17
ENDMDL
MODEL 3
REMARK VINA RESULT:     -10.7      4.513      9.838
REMARK SMILES CCC[NH2+][C@]1(C(=O)OCCOC(=O)c2ccc(-c3c4nc(c(-c5c(F)c(F)c(F)c(F)c5F)c5ccc([nH]5)c(-c5c(F)c(F)c(F)c(F)c5F)c5nc(c(-c6c(F)c(F)c(F)c(F)c6F)c6ccc3[nH]6)C=C5)C=C4)cc2)CCC[C@@H]([N@@H+](C)[C@@H](C)C2CC2)C1
REMARK SMILES IDX 9 1 8 2 6 3 7 4 5 5 77 6 88 7 78 8 80 9 79 10 4 11 3 14 2 15
REMARK SMILES IDX 1 16 81 17 82 18 83 20 84 21 85 22 86 23 87 24 10 25 11 26
REMARK SMILES IDX 12 27 13 28 14 29 15 30 76 31 16 32 75 33 17 34 18 35 19 36
REMARK SMILES IDX 69 37 20 38 74 39 68 40 70 41 21 42 73 43 67 44 66 45 22 47
REMARK SMILES IDX 54 48 34 49 53 50 35 51 38 52 52 53 71 54 36 55 37 56 51 58
REMARK SMILES IDX 72 59 39 60 23 61 24 62 32 63 25 64 26 65 30 66 33 67 27 68
REMARK SMILES IDX 28 69 31 70 29 71 55 72 56 73 64 74 57 75 58 76 62 77 65 78
REMARK SMILES IDX 59 79 60 80 63 81 61 82 40 83 41 84 49 85 42 86 43 87 47 88
REMARK SMILES IDX 50 89 44 90 45 91 48 92 46 93
REMARK H PARENT 4 12 4 13 81 19 70 46 38 57
REMARK Flexibility Score: inf
ROOT
ATOM      1  C   UNL A   1      36.780  22.270  23.953  1.00  0.00     0.274 C 
ENDROOT
BRANCH   1   2
ATOM      2  O   UNL A   1      35.393  22.352  24.341  1.00  0.00    -0.457 OA
BRANCH   2   3
ATOM      3  C   UNL A   1      34.589  23.108  23.533  1.00  0.00     0.368 C 
ATOM      4  O   UNL A   1      34.856  23.400  22.373  1.00  0.00    -0.245 OA
BRANCH   3   5
ATOM      5  C   UNL A   1      33.284  23.550  24.258  1.00  0.00     0.200 C 
ATOM      6  C   UNL A   1      33.519  23.503  25.781  1.00  0.00     0.081 C 
ATOM      7  C   UNL A   1      32.985  25.016  23.842  1.00  0.00     0.146 C 
ATOM      8  C   UNL A   1      32.352  24.077  26.574  1.00  0.00     0.013 C 
ATOM      9  C   UNL A   1      31.847  25.679  24.653  1.00  0.00     0.190 C 
ATOM     10  C   UNL A   1      32.078  25.525  26.174  1.00  0.00     0.065 C 
BRANCH   5  11
ATOM     11  N   UNL A   1      32.114  22.723  23.828  1.00  0.00    -0.332 N 
ATOM     12  H   UNL A   1      31.493  22.619  24.631  1.00  0.00     0.347 HD
ATOM     13  H   UNL A   1      31.694  23.221  23.043  1.00  0.00     0.347 HD
BRANCH  11  14
ATOM     14  C   UNL A   1      32.432  21.386  23.329  1.00  0.00     0.261 C 
BRANCH  14  15
ATOM     15  C   UNL A   1      32.205  20.326  24.414  1.00  0.00     0.058 C 
ATOM     16  C   UNL A   1      33.487  19.777  25.027  1.00  0.00     0.010 C 
ENDBRANCH  14  15
ENDBRANCH  11  14
ENDBRANCH   5  11
BRANCH   9  17
ATOM     17  N   UNL A   1      31.456  27.035  24.185  1.00  0.00    -0.332 N 
ATOM     18  C   UNL A   1      32.563  27.685  23.467  1.00  0.00     0.333 C 
ATOM     19  H   UNL A   1      31.241  27.441  25.096  1.00  0.00     0.348 HD
BRANCH  17  20
ATOM     20  C   UNL A   1      30.186  27.302  23.487  1.00  0.00     0.184 C 
ATOM     21  C   UNL A   1      28.960  26.482  23.896  1.00  0.00     0.075 C 
BRANCH  20  22
ATOM     22  C   UNL A   1      29.844  28.772  23.337  1.00  0.00     0.047 C 
ATOM     23  C   UNL A   1      29.814  29.612  22.081  1.00  0.00     0.010 C 
ATOM     24  C   UNL A   1      28.527  29.169  22.702  1.00  0.00     0.010 C 
ENDBRANCH  20  22
ENDBRANCH  17  20
ENDBRANCH   9  17
ENDBRANCH   3   5
ENDBRANCH   2   3
ENDBRANCH   1   2
BRANCH   1  25
ATOM     25  C   UNL A   1      37.471  21.115  24.667  1.00  0.00     0.275 C 
BRANCH  25  26
ATOM     26  O   UNL A   1      37.863  21.552  25.976  1.00  0.00    -0.458 OA
BRANCH  26  27
ATOM     27  C   UNL A   1      39.181  21.449  26.252  1.00  0.00     0.338 C 
ATOM     28  O   UNL A   1      39.887  20.467  26.077  1.00  0.00    -0.246 OA
BRANCH  27  29
ATOM     29  C   UNL A   1      39.691  22.735  26.779  1.00  0.00     0.060 A 
ATOM     30  C   UNL A   1      39.217  23.954  26.294  1.00  0.00     0.016 A 
ATOM     31  C   UNL A   1      40.743  22.723  27.699  1.00  0.00     0.016 A 
ATOM     32  C   UNL A   1      39.854  25.142  26.654  1.00  0.00     0.010 A 
ATOM     33  C   UNL A   1      41.331  23.924  28.114  1.00  0.00     0.010 A 
ATOM     34  C   UNL A   1      40.931  25.149  27.556  1.00  0.00    -0.014 A 
BRANCH  34  35
ATOM     35  C   UNL A   1      41.663  26.413  27.866  1.00  0.00     0.031 A 
ATOM     36  C   UNL A   1      40.998  27.514  28.662  1.00  0.00     0.074 A 
ATOM     37  C   UNL A   1      42.944  26.579  27.478  1.00  0.00     0.049 A 
ATOM     38  N   UNL A   1      41.434  28.721  28.933  1.00  0.00    -0.248 NA
ATOM     39  C   UNL A   1      39.680  27.218  29.243  1.00  0.00     0.031 C 
ATOM     40  C   UNL A   1      43.747  25.591  26.757  1.00  0.00     0.029 A 
ATOM     41  N   UNL A   1      43.798  27.646  27.637  1.00  0.00    -0.354 N 
ATOM     42  C   UNL A   1      40.442  29.325  29.697  1.00  0.00     0.074 A 
ATOM     43  C   UNL A   1      39.378  28.357  29.850  1.00  0.00     0.031 C 
ATOM     44  C   UNL A   1      44.978  26.083  26.560  1.00  0.00     0.029 A 
ATOM     45  C   UNL A   1      45.025  27.456  27.051  1.00  0.00     0.049 A 
ATOM     46  H   UNL A   1      43.553  28.465  28.125  1.00  0.00     0.167 HD
ATOM     47  C   UNL A   1      40.416  30.571  30.226  1.00  0.00     0.037 A 
ATOM     48  C   UNL A   1      46.056  28.303  26.867  1.00  0.00     0.037 A 
ATOM     49  C   UNL A   1      41.464  31.547  30.086  1.00  0.00     0.049 A 
ATOM     50  C   UNL A   1      45.951  29.722  27.346  1.00  0.00     0.074 A 
ATOM     51  C   UNL A   1      41.513  32.839  30.583  1.00  0.00     0.029 A 
ATOM     52  N   UNL A   1      42.645  31.340  29.393  1.00  0.00    -0.354 N 
ATOM     53  N   UNL A   1      44.982  30.297  28.013  1.00  0.00    -0.248 NA
ATOM     54  C   UNL A   1      47.071  30.616  27.018  1.00  0.00     0.031 C 
ATOM     55  C   UNL A   1      42.706  33.430  30.151  1.00  0.00     0.029 A 
ATOM     56  C   UNL A   1      43.416  32.492  29.422  1.00  0.00     0.049 A 
ATOM     57  H   UNL A   1      42.899  30.502  28.946  1.00  0.00     0.167 HD
ATOM     58  C   UNL A   1      45.371  31.619  28.182  1.00  0.00     0.074 A 
ATOM     59  C   UNL A   1      46.675  31.756  27.568  1.00  0.00     0.031 C 
ATOM     60  C   UNL A   1      44.700  32.628  28.788  1.00  0.00     0.037 A 
BRANCH  47  61
ATOM     61  C   UNL A   1      39.189  30.980  30.986  1.00  0.00     0.064 A 
ATOM     62  C   UNL A   1      38.086  31.560  30.345  1.00  0.00     0.173 A 
ATOM     63  C   UNL A   1      39.091  30.716  32.360  1.00  0.00     0.173 A 
ATOM     64  F   UNL A   1      38.137  31.841  29.035  1.00  0.00    -0.203 F 
ATOM     65  C   UNL A   1      36.927  31.865  31.056  1.00  0.00     0.198 A 
ATOM     66  C   UNL A   1      37.926  31.007  33.063  1.00  0.00     0.198 A 
ATOM     67  F   UNL A   1      40.121  30.159  33.016  1.00  0.00    -0.203 F 
ATOM     68  F   UNL A   1      35.889  32.435  30.429  1.00  0.00    -0.200 F 
ATOM     69  C   UNL A   1      36.846  31.581  32.411  1.00  0.00     0.200 A 
ATOM     70  F   UNL A   1      37.846  30.722  34.371  1.00  0.00    -0.200 F 
ATOM     71  F   UNL A   1      35.724  31.860  33.090  1.00  0.00    -0.200 F 
ENDBRANCH  47  61
BRANCH  48  72
ATOM     72  C   UNL A   1      47.251  27.840  26.114  1.00  0.00     0.064 A 
ATOM     73  C   UNL A   1      48.396  27.387  26.777  1.00  0.00     0.173 A 
ATOM     74  C   UNL A   1      47.253  27.820  24.710  1.00  0.00     0.173 A 
ATOM     75  F   UNL A   1      48.453  27.419  28.117  1.00  0.00    -0.203 F 
ATOM     76  C   UNL A   1      49.500  26.921  26.064  1.00  0.00     0.198 A 
ATOM     77  C   UNL A   1      48.343  27.326  24.000  1.00  0.00     0.198 A 
ATOM     78  F   UNL A   1      46.181  28.253  24.031  1.00  0.00    -0.203 F 
ATOM     79  F   UNL A   1      50.596  26.516  26.719  1.00  0.00    -0.200 F 
ATOM     80  C   UNL A   1      49.467  26.879  24.677  1.00  0.00     0.200 A 
ATOM     81  F   UNL A   1      48.300  27.276  22.662  1.00  0.00    -0.200 F 
ATOM     82  F   UNL A   1      50.520  26.412  23.993  1.00  0.00    -0.200 F 
ENDBRANCH  48  72
BRANCH  60  83
ATOM     83  C   UNL A   1      45.366  33.970  28.815  1.00  0.00     0.064 A 
ATOM     84  C   UNL A   1      45.117  34.927  27.820  1.00  0.00     0.173 A 
ATOM     85  C   UNL A   1      46.246  34.313  29.852  1.00  0.00     0.173 A 
ATOM     86  F   UNL A   1      44.295  34.640  26.799  1.00  0.00    -0.203 F 
ATOM     87  C   UNL A   1      45.743  36.170  27.850  1.00  0.00     0.198 A 
ATOM     88  C   UNL A   1      46.854  35.564  29.891  1.00  0.00     0.198 A 
ATOM     89  F   UNL A   1      46.513  33.433  30.829  1.00  0.00    -0.203 F 
ATOM     90  F   UNL A   1      45.525  37.053  26.866  1.00  0.00    -0.200 F 
ATOM     91  C   UNL A   1      46.607  36.488  28.886  1.00  0.00     0.200 A 
ATOM     92  F   UNL A   1      47.682  35.873  30.897  1.00  0.00    -0.200 F 
ATOM     93  F   UNL A   1      47.212  37.684  28.913  1.00  0.00    -0.200 F 
ENDBRANCH  60  83
ENDBRANCH  34  35
ENDBRANCH  27  29
ENDBRANCH  26  27
ENDBRANCH  25  26
ENDBRANCH   1  25
TORSDOF 17
ENDMDL
