MODEL 1
REMARK VINA RESULT:     -12.1      0.000      0.000
REMARK SMILES C[C@@H]1CN(C(=O)C[NH+]2CCC(CC(=O)OCCOC(=O)c3ccc(-c4c5nc(c(-c6c(F)c(F)c(F)c(F)c6F)c6ccc([nH]6)c(-c6c(F)c(F)c(F)c(F)c6F)c6nc(c(-c7c(F)c(F)c(F)c(F)c7F)c7ccc4[nH]7)C=C6)C=C5)cc3)CC2)C[C@@H](C)O1
REMARK SMILES IDX 16 1 15 2 13 3 14 4 12 5 11 6 8 7 9 8 85 9 10 11 84 12 7 13
REMARK SMILES IDX 5 14 1 15 2 16 3 17 89 18 4 19 87 20 86 21 88 22 6 23 17 24
REMARK SMILES IDX 18 25 19 26 20 27 21 28 22 29 83 30 23 31 82 32 24 33 25 34
REMARK SMILES IDX 26 35 76 36 27 37 81 38 75 39 77 40 28 41 80 42 74 43 73 44
REMARK SMILES IDX 29 46 61 47 41 48 60 49 42 50 45 51 59 52 78 53 43 54 44 55
REMARK SMILES IDX 58 57 79 58 46 59 30 60 31 61 39 62 32 63 33 64 37 65 40 66
REMARK SMILES IDX 34 67 35 68 38 69 36 70 62 71 63 72 71 73 64 74 65 75 69 76
REMARK SMILES IDX 72 77 66 78 67 79 70 80 68 81 47 82 48 83 56 84 49 85 50 86
REMARK SMILES IDX 54 87 57 88 51 89 52 90 55 91 53 92
REMARK H PARENT 8 10 77 45 45 56
REMARK Flexibility Score: inf
ROOT
ATOM      1  C   UNL A   1      32.661  28.420  23.708  1.00  0.00     0.274 C 
ENDROOT
BRANCH   1   2
ATOM      2  O   UNL A   1      33.204  27.095  23.601  1.00  0.00    -0.462 OA
BRANCH   2   3
ATOM      3  C   UNL A   1      32.871  26.434  22.467  1.00  0.00     0.306 C 
ATOM      4  O   UNL A   1      33.653  25.998  21.630  1.00  0.00    -0.252 OA
BRANCH   3   5
ATOM      5  C   UNL A   1      31.395  26.138  22.424  1.00  0.00     0.126 C 
BRANCH   5   6
ATOM      6  C   UNL A   1      30.828  25.033  23.331  1.00  0.00     0.011 C 
ATOM      7  N   UNL A   1      31.531  23.910  25.988  1.00  0.00    -0.327 N 
ATOM      8  C   UNL A   1      30.505  24.935  25.954  1.00  0.00     0.262 C 
ATOM      9  C   UNL A   1      31.441  23.054  24.803  1.00  0.00     0.262 C 
ATOM     10  H   UNL A   1      31.281  23.419  26.847  1.00  0.00     0.348 HD
ATOM     11  C   UNL A   1      30.310  25.686  24.636  1.00  0.00     0.066 C 
ATOM     12  C   UNL A   1      31.759  23.833  23.528  1.00  0.00     0.066 C 
BRANCH   7  13
ATOM     13  C   UNL A   1      32.931  24.250  26.305  1.00  0.00     0.363 C 
BRANCH  13  14
ATOM     14  C   UNL A   1      33.893  23.136  26.748  1.00  0.00     0.277 C 
ATOM     15  C   UNL A   1      37.748  24.077  26.140  1.00  0.00     0.040 C 
ATOM     16  C   UNL A   1      37.036  23.627  24.864  1.00  0.00     0.135 C 
ATOM     17  C   UNL A   1      35.503  23.746  24.900  1.00  0.00     0.151 C 
ATOM     18  O   UNL A   1      37.403  22.282  24.535  1.00  0.00    -0.372 OA
ATOM     19  N   UNL A   1      34.926  22.822  25.864  1.00  0.00    -0.333 N 
ATOM     20  C   UNL A   1      36.889  21.305  25.461  1.00  0.00     0.135 C 
ATOM     21  C   UNL A   1      35.371  21.439  25.702  1.00  0.00     0.151 C 
ATOM     22  C   UNL A   1      37.225  19.954  24.841  1.00  0.00     0.040 C 
ATOM     23  O   UNL A   1      33.676  22.458  27.753  1.00  0.00    -0.268 OA
ENDBRANCH  13  14
ENDBRANCH   7  13
ENDBRANCH   5   6
ENDBRANCH   3   5
ENDBRANCH   2   3
ENDBRANCH   1   2
BRANCH   1  24
ATOM     24  C   UNL A   1      32.632  28.807  25.186  1.00  0.00     0.275 C 
BRANCH  24  25
ATOM     25  O   UNL A   1      33.464  29.965  25.426  1.00  0.00    -0.458 OA
BRANCH  25  26
ATOM     26  C   UNL A   1      33.205  30.636  26.573  1.00  0.00     0.338 C 
ATOM     27  O   UNL A   1      32.174  31.212  26.877  1.00  0.00    -0.246 OA
BRANCH  26  28
ATOM     28  C   UNL A   1      34.379  30.632  27.461  1.00  0.00     0.060 A 
ATOM     29  C   UNL A   1      35.190  31.760  27.626  1.00  0.00     0.016 A 
ATOM     30  C   UNL A   1      34.747  29.411  28.027  1.00  0.00     0.016 A 
ATOM     31  C   UNL A   1      36.402  31.648  28.322  1.00  0.00     0.010 A 
ATOM     32  C   UNL A   1      35.921  29.320  28.774  1.00  0.00     0.010 A 
ATOM     33  C   UNL A   1      36.778  30.426  28.906  1.00  0.00    -0.014 A 
BRANCH  33  34
ATOM     34  C   UNL A   1      38.057  30.243  29.648  1.00  0.00     0.031 A 
ATOM     35  C   UNL A   1      39.105  29.300  29.117  1.00  0.00     0.074 A 
ATOM     36  C   UNL A   1      38.247  30.829  30.845  1.00  0.00     0.049 A 
ATOM     37  N   UNL A   1      40.141  28.775  29.723  1.00  0.00    -0.248 NA
ATOM     38  C   UNL A   1      38.949  28.876  27.717  1.00  0.00     0.031 C 
ATOM     39  C   UNL A   1      37.344  31.790  31.473  1.00  0.00     0.029 A 
ATOM     40  N   UNL A   1      39.259  30.670  31.763  1.00  0.00    -0.354 N 
ATOM     41  C   UNL A   1      40.730  27.922  28.797  1.00  0.00     0.074 A 
ATOM     42  C   UNL A   1      39.932  27.996  27.590  1.00  0.00     0.031 C 
ATOM     43  C   UNL A   1      37.837  32.134  32.674  1.00  0.00     0.029 A 
ATOM     44  C   UNL A   1      39.051  31.364  32.928  1.00  0.00     0.049 A 
ATOM     45  H   UNL A   1      40.054  30.112  31.600  1.00  0.00     0.167 HD
ATOM     46  C   UNL A   1      41.832  27.145  28.943  1.00  0.00     0.037 A 
ATOM     47  C   UNL A   1      39.730  31.349  34.091  1.00  0.00     0.037 A 
ATOM     48  C   UNL A   1      42.648  27.099  30.129  1.00  0.00     0.049 A 
ATOM     49  C   UNL A   1      40.922  30.445  34.249  1.00  0.00     0.074 A 
ATOM     50  C   UNL A   1      43.806  26.373  30.356  1.00  0.00     0.029 A 
ATOM     51  N   UNL A   1      42.395  27.816  31.290  1.00  0.00    -0.354 N 
ATOM     52  N   UNL A   1      41.457  29.621  33.383  1.00  0.00    -0.248 NA
ATOM     53  C   UNL A   1      41.594  30.460  35.558  1.00  0.00     0.031 C 
ATOM     54  C   UNL A   1      44.231  26.620  31.665  1.00  0.00     0.029 A 
ATOM     55  C   UNL A   1      43.364  27.534  32.241  1.00  0.00     0.049 A 
ATOM     56  H   UNL A   1      41.640  28.434  31.419  1.00  0.00     0.167 HD
ATOM     57  C   UNL A   1      42.537  29.035  34.030  1.00  0.00     0.074 A 
ATOM     58  C   UNL A   1      42.587  29.605  35.360  1.00  0.00     0.031 C 
ATOM     59  C   UNL A   1      43.408  28.108  33.561  1.00  0.00     0.037 A 
BRANCH  46  60
ATOM     60  C   UNL A   1      42.206  26.252  27.795  1.00  0.00     0.064 A 
ATOM     61  C   UNL A   1      41.556  25.032  27.562  1.00  0.00     0.173 A 
ATOM     62  C   UNL A   1      43.212  26.641  26.896  1.00  0.00     0.173 A 
ATOM     63  F   UNL A   1      40.595  24.609  28.396  1.00  0.00    -0.203 F 
ATOM     64  C   UNL A   1      41.922  24.218  26.491  1.00  0.00     0.198 A 
ATOM     65  C   UNL A   1      43.556  25.839  25.811  1.00  0.00     0.198 A 
ATOM     66  F   UNL A   1      43.860  27.803  27.068  1.00  0.00    -0.203 F 
ATOM     67  F   UNL A   1      41.321  23.033  26.318  1.00  0.00    -0.200 F 
ATOM     68  C   UNL A   1      42.916  24.625  25.614  1.00  0.00     0.200 A 
ATOM     69  F   UNL A   1      44.509  26.239  24.959  1.00  0.00    -0.200 F 
ATOM     70  F   UNL A   1      43.265  23.842  24.584  1.00  0.00    -0.200 F 
ENDBRANCH  46  60
BRANCH  47  71
ATOM     71  C   UNL A   1      39.282  32.214  35.212  1.00  0.00     0.064 A 
ATOM     72  C   UNL A   1      38.492  31.692  36.244  1.00  0.00     0.173 A 
ATOM     73  C   UNL A   1      39.647  33.566  35.285  1.00  0.00     0.173 A 
ATOM     74  F   UNL A   1      38.095  30.412  36.200  1.00  0.00    -0.203 F 
ATOM     75  C   UNL A   1      38.083  32.490  37.308  1.00  0.00     0.198 A 
ATOM     76  C   UNL A   1      39.259  34.357  36.364  1.00  0.00     0.198 A 
ATOM     77  F   UNL A   1      40.400  34.112  34.318  1.00  0.00    -0.203 F 
ATOM     78  F   UNL A   1      37.302  31.974  38.268  1.00  0.00    -0.200 F 
ATOM     79  C   UNL A   1      38.474  33.820  37.373  1.00  0.00     0.200 A 
ATOM     80  F   UNL A   1      39.648  35.638  36.427  1.00  0.00    -0.200 F 
ATOM     81  F   UNL A   1      38.091  34.583  38.404  1.00  0.00    -0.200 F 
ENDBRANCH  47  71
BRANCH  59  82
ATOM     82  C   UNL A   1      44.514  27.678  34.479  1.00  0.00     0.064 A 
ATOM     83  C   UNL A   1      44.384  26.560  35.315  1.00  0.00     0.173 A 
ATOM     84  C   UNL A   1      45.730  28.377  34.501  1.00  0.00     0.173 A 
ATOM     85  F   UNL A   1      43.234  25.869  35.344  1.00  0.00    -0.203 F 
ATOM     86  C   UNL A   1      45.424  26.170  36.156  1.00  0.00     0.198 A 
ATOM     87  C   UNL A   1      46.777  27.970  35.324  1.00  0.00     0.198 A 
ATOM     88  F   UNL A   1      45.907  29.452  33.718  1.00  0.00    -0.203 F 
ATOM     89  F   UNL A   1      45.262  25.123  36.977  1.00  0.00    -0.200 F 
ATOM     90  C   UNL A   1      46.620  26.871  36.155  1.00  0.00     0.200 A 
ATOM     91  F   UNL A   1      47.935  28.643  35.315  1.00  0.00    -0.200 F 
ATOM     92  F   UNL A   1      47.621  26.492  36.962  1.00  0.00    -0.200 F 
ENDBRANCH  59  82
ENDBRANCH  33  34
ENDBRANCH  26  28
ENDBRANCH  25  26
ENDBRANCH  24  25
ENDBRANCH   1  24
TORSDOF 14
ENDMDL
MODEL 2
REMARK VINA RESULT:     -12.0      0.143      1.134
REMARK SMILES C[C@@H]1CN(C(=O)C[NH+]2CCC(CC(=O)OCCOC(=O)c3ccc(-c4c5nc(c(-c6c(F)c(F)c(F)c(F)c6F)c6ccc([nH]6)c(-c6c(F)c(F)c(F)c(F)c6F)c6nc(c(-c7c(F)c(F)c(F)c(F)c7F)c7ccc4[nH]7)C=C6)C=C5)cc3)CC2)C[C@@H](C)O1
REMARK SMILES IDX 16 1 15 2 13 3 14 4 12 5 11 6 8 7 9 8 85 9 10 11 84 12 7 13
REMARK SMILES IDX 5 14 1 15 2 16 3 17 89 18 4 19 87 20 86 21 88 22 6 23 17 24
REMARK SMILES IDX 18 25 19 26 20 27 21 28 22 29 83 30 23 31 82 32 24 33 25 34
REMARK SMILES IDX 26 35 76 36 27 37 81 38 75 39 77 40 28 41 80 42 74 43 73 44
REMARK SMILES IDX 29 46 61 47 41 48 60 49 42 50 45 51 59 52 78 53 43 54 44 55
REMARK SMILES IDX 58 57 79 58 46 59 30 60 31 61 39 62 32 63 33 64 37 65 40 66
REMARK SMILES IDX 34 67 35 68 38 69 36 70 62 71 63 72 71 73 64 74 65 75 69 76
REMARK SMILES IDX 72 77 66 78 67 79 70 80 68 81 47 82 48 83 56 84 49 85 50 86
REMARK SMILES IDX 54 87 57 88 51 89 52 90 55 91 53 92
REMARK H PARENT 8 10 77 45 45 56
REMARK Flexibility Score: inf
ROOT
ATOM      1  C   UNL A   1      32.262  28.551  23.834  1.00  0.00     0.274 C 
ENDROOT
BRANCH   1   2
ATOM      2  O   UNL A   1      33.100  27.397  23.656  1.00  0.00    -0.462 OA
BRANCH   2   3
ATOM      3  C   UNL A   1      32.829  26.664  22.551  1.00  0.00     0.306 C 
ATOM      4  O   UNL A   1      33.655  26.202  21.772  1.00  0.00    -0.252 OA
BRANCH   3   5
ATOM      5  C   UNL A   1      31.364  26.326  22.469  1.00  0.00     0.126 C 
BRANCH   5   6
ATOM      6  C   UNL A   1      30.820  25.150  23.297  1.00  0.00     0.011 C 
ATOM      7  N   UNL A   1      31.529  23.884  25.889  1.00  0.00    -0.327 N 
ATOM      8  C   UNL A   1      30.473  24.879  25.905  1.00  0.00     0.262 C 
ATOM      9  C   UNL A   1      31.476  23.102  24.651  1.00  0.00     0.262 C 
ATOM     10  H   UNL A   1      31.285  23.334  26.712  1.00  0.00     0.348 HD
ATOM     11  C   UNL A   1      30.270  25.705  24.635  1.00  0.00     0.066 C 
ATOM     12  C   UNL A   1      31.785  23.968  23.432  1.00  0.00     0.066 C 
BRANCH   7  13
ATOM     13  C   UNL A   1      32.915  24.244  26.243  1.00  0.00     0.363 C 
BRANCH  13  14
ATOM     14  C   UNL A   1      33.875  23.147  26.730  1.00  0.00     0.277 C 
ATOM     15  C   UNL A   1      37.734  24.077  26.128  1.00  0.00     0.040 C 
ATOM     16  C   UNL A   1      37.034  23.584  24.860  1.00  0.00     0.135 C 
ATOM     17  C   UNL A   1      35.500  23.702  24.878  1.00  0.00     0.151 C 
ATOM     18  O   UNL A   1      37.407  22.230  24.578  1.00  0.00    -0.372 OA
ATOM     19  N   UNL A   1      34.916  22.807  25.867  1.00  0.00    -0.333 N 
ATOM     20  C   UNL A   1      36.886  21.283  25.530  1.00  0.00     0.135 C 
ATOM     21  C   UNL A   1      35.365  21.421  25.753  1.00  0.00     0.151 C 
ATOM     22  C   UNL A   1      37.231  19.913  24.958  1.00  0.00     0.040 C 
ATOM     23  O   UNL A   1      33.649  22.501  27.755  1.00  0.00    -0.268 OA
ENDBRANCH  13  14
ENDBRANCH   7  13
ENDBRANCH   5   6
ENDBRANCH   3   5
ENDBRANCH   2   3
ENDBRANCH   1   2
BRANCH   1  24
ATOM     24  C   UNL A   1      32.297  28.944  25.310  1.00  0.00     0.275 C 
BRANCH  24  25
ATOM     25  O   UNL A   1      33.449  29.774  25.589  1.00  0.00    -0.458 OA
BRANCH  25  26
ATOM     26  C   UNL A   1      33.297  30.651  26.609  1.00  0.00     0.338 C 
ATOM     27  O   UNL A   1      32.356  31.400  26.807  1.00  0.00    -0.246 OA
BRANCH  26  28
ATOM     28  C   UNL A   1      34.473  30.635  27.496  1.00  0.00     0.060 A 
ATOM     29  C   UNL A   1      35.273  31.766  27.689  1.00  0.00     0.016 A 
ATOM     30  C   UNL A   1      34.853  29.403  28.029  1.00  0.00     0.016 A 
ATOM     31  C   UNL A   1      36.487  31.647  28.380  1.00  0.00     0.010 A 
ATOM     32  C   UNL A   1      36.029  29.303  28.771  1.00  0.00     0.010 A 
ATOM     33  C   UNL A   1      36.875  30.414  28.932  1.00  0.00    -0.014 A 
BRANCH  33  34
ATOM     34  C   UNL A   1      38.157  30.224  29.667  1.00  0.00     0.031 A 
ATOM     35  C   UNL A   1      39.202  29.284  29.123  1.00  0.00     0.074 A 
ATOM     36  C   UNL A   1      38.352  30.799  30.868  1.00  0.00     0.049 A 
ATOM     37  N   UNL A   1      40.240  28.754  29.720  1.00  0.00    -0.248 NA
ATOM     38  C   UNL A   1      39.040  28.873  27.721  1.00  0.00     0.031 C 
ATOM     39  C   UNL A   1      37.451  31.755  31.508  1.00  0.00     0.029 A 
ATOM     40  N   UNL A   1      39.367  30.631  31.781  1.00  0.00    -0.354 N 
ATOM     41  C   UNL A   1      40.825  27.909  28.785  1.00  0.00     0.074 A 
ATOM     42  C   UNL A   1      40.023  27.994  27.582  1.00  0.00     0.031 C 
ATOM     43  C   UNL A   1      37.949  32.088  32.710  1.00  0.00     0.029 A 
ATOM     44  C   UNL A   1      39.164  31.315  32.953  1.00  0.00     0.049 A 
ATOM     45  H   UNL A   1      40.161  30.075  31.610  1.00  0.00     0.167 HD
ATOM     46  C   UNL A   1      41.928  27.131  28.920  1.00  0.00     0.037 A 
ATOM     47  C   UNL A   1      39.848  31.289  34.113  1.00  0.00     0.037 A 
ATOM     48  C   UNL A   1      42.748  27.074  30.103  1.00  0.00     0.049 A 
ATOM     49  C   UNL A   1      41.040  30.383  34.258  1.00  0.00     0.074 A 
ATOM     50  C   UNL A   1      43.906  26.345  30.318  1.00  0.00     0.029 A 
ATOM     51  N   UNL A   1      42.500  27.780  31.270  1.00  0.00    -0.354 N 
ATOM     52  N   UNL A   1      41.571  29.567  33.383  1.00  0.00    -0.248 NA
ATOM     53  C   UNL A   1      41.716  30.386  35.565  1.00  0.00     0.031 C 
ATOM     54  C   UNL A   1      44.337  26.580  31.628  1.00  0.00     0.029 A 
ATOM     55  C   UNL A   1      43.472  27.490  32.215  1.00  0.00     0.049 A 
ATOM     56  H   UNL A   1      41.746  28.397  31.408  1.00  0.00     0.167 HD
ATOM     57  C   UNL A   1      42.653  28.975  34.021  1.00  0.00     0.074 A 
ATOM     58  C   UNL A   1      42.709  29.533  35.356  1.00  0.00     0.031 C 
ATOM     59  C   UNL A   1      43.522  28.052  33.540  1.00  0.00     0.037 A 
BRANCH  46  60
ATOM     60  C   UNL A   1      42.297  26.248  27.763  1.00  0.00     0.064 A 
ATOM     61  C   UNL A   1      41.660  25.020  27.533  1.00  0.00     0.173 A 
ATOM     62  C   UNL A   1      43.285  26.653  26.852  1.00  0.00     0.173 A 
ATOM     63  F   UNL A   1      40.716  24.580  28.380  1.00  0.00    -0.203 F 
ATOM     64  C   UNL A   1      42.021  24.216  26.454  1.00  0.00     0.198 A 
ATOM     65  C   UNL A   1      43.623  25.861  25.757  1.00  0.00     0.198 A 
ATOM     66  F   UNL A   1      43.920  27.823  27.019  1.00  0.00    -0.203 F 
ATOM     67  F   UNL A   1      41.434  23.023  26.283  1.00  0.00    -0.200 F 
ATOM     68  C   UNL A   1      42.997  24.639  25.565  1.00  0.00     0.200 A 
ATOM     69  F   UNL A   1      44.559  26.278  24.893  1.00  0.00    -0.200 F 
ATOM     70  F   UNL A   1      43.341  23.865  24.526  1.00  0.00    -0.200 F 
ENDBRANCH  46  60
BRANCH  47  71
ATOM     71  C   UNL A   1      39.404  32.145  35.243  1.00  0.00     0.064 A 
ATOM     72  C   UNL A   1      39.800  33.486  35.321  1.00  0.00     0.173 A 
ATOM     73  C   UNL A   1      38.564  31.649  36.250  1.00  0.00     0.173 A 
ATOM     74  F   UNL A   1      40.627  33.994  34.395  1.00  0.00    -0.203 F 
ATOM     75  C   UNL A   1      39.374  34.301  36.366  1.00  0.00     0.198 A 
ATOM     76  C   UNL A   1      38.116  32.472  37.281  1.00  0.00     0.198 A 
ATOM     77  F   UNL A   1      38.160  30.371  36.220  1.00  0.00    -0.203 F 
ATOM     78  F   UNL A   1      39.792  35.572  36.434  1.00  0.00    -0.200 F 
ATOM     79  C   UNL A   1      38.524  33.796  37.340  1.00  0.00     0.200 A 
ATOM     80  F   UNL A   1      37.287  31.984  38.214  1.00  0.00    -0.200 F 
ATOM     81  F   UNL A   1      38.103  34.585  38.338  1.00  0.00    -0.200 F 
ENDBRANCH  47  71
BRANCH  59  82
ATOM     82  C   UNL A   1      44.632  27.613  34.450  1.00  0.00     0.064 A 
ATOM     83  C   UNL A   1      44.509  26.479  35.266  1.00  0.00     0.173 A 
ATOM     84  C   UNL A   1      45.843  28.320  34.484  1.00  0.00     0.173 A 
ATOM     85  F   UNL A   1      43.364  25.780  35.282  1.00  0.00    -0.203 F 
ATOM     86  C   UNL A   1      45.552  26.081  36.100  1.00  0.00     0.198 A 
ATOM     87  C   UNL A   1      46.893  27.905  35.300  1.00  0.00     0.198 A 
ATOM     88  F   UNL A   1      46.012  29.410  33.720  1.00  0.00    -0.203 F 
ATOM     89  F   UNL A   1      45.399  25.019  36.902  1.00  0.00    -0.200 F 
ATOM     90  C   UNL A   1      46.744  26.790  36.111  1.00  0.00     0.200 A 
ATOM     91  F   UNL A   1      48.046  28.586  35.303  1.00  0.00    -0.200 F 
ATOM     92  F   UNL A   1      47.748  26.404  36.911  1.00  0.00    -0.200 F 
ENDBRANCH  59  82
ENDBRANCH  33  34
ENDBRANCH  26  28
ENDBRANCH  25  26
ENDBRANCH  24  25
ENDBRANCH   1  24
TORSDOF 14
ENDMDL
MODEL 3
REMARK VINA RESULT:     -11.8      0.553      1.799
REMARK SMILES C[C@@H]1CN(C(=O)C[NH+]2CCC(CC(=O)OCCOC(=O)c3ccc(-c4c5nc(c(-c6c(F)c(F)c(F)c(F)c6F)c6ccc([nH]6)c(-c6c(F)c(F)c(F)c(F)c6F)c6nc(c(-c7c(F)c(F)c(F)c(F)c7F)c7ccc4[nH]7)C=C6)C=C5)cc3)CC2)C[C@@H](C)O1
REMARK SMILES IDX 16 1 15 2 13 3 14 4 12 5 11 6 8 7 9 8 85 9 10 11 84 12 7 13
REMARK SMILES IDX 5 14 1 15 2 16 3 17 89 18 4 19 87 20 86 21 88 22 6 23 17 24
REMARK SMILES IDX 18 25 19 26 20 27 21 28 22 29 83 30 23 31 82 32 24 33 25 34
REMARK SMILES IDX 26 35 76 36 27 37 81 38 75 39 77 40 28 41 80 42 74 43 73 44
REMARK SMILES IDX 29 46 61 47 41 48 60 49 42 50 45 51 59 52 78 53 43 54 44 55
REMARK SMILES IDX 58 57 79 58 46 59 30 60 31 61 39 62 32 63 33 64 37 65 40 66
REMARK SMILES IDX 34 67 35 68 38 69 36 70 62 71 63 72 71 73 64 74 65 75 69 76
REMARK SMILES IDX 72 77 66 78 67 79 70 80 68 81 47 82 48 83 56 84 49 85 50 86
REMARK SMILES IDX 54 87 57 88 51 89 52 90 55 91 53 92
REMARK H PARENT 8 10 77 45 45 56
REMARK Flexibility Score: inf
ROOT
ATOM      1  C   UNL A   1      31.088  29.511  24.599  1.00  0.00     0.274 C 
ENDROOT
BRANCH   1   2
ATOM      2  O   UNL A   1      32.330  29.159  23.968  1.00  0.00    -0.462 OA
BRANCH   2   3
ATOM      3  C   UNL A   1      32.585  27.830  23.920  1.00  0.00     0.306 C 
ATOM      4  O   UNL A   1      33.462  27.242  24.543  1.00  0.00    -0.252 OA
BRANCH   3   5
ATOM      5  C   UNL A   1      31.536  27.103  23.122  1.00  0.00     0.126 C 
BRANCH   5   6
ATOM      6  C   UNL A   1      31.013  25.749  23.630  1.00  0.00     0.011 C 
ATOM      7  N   UNL A   1      31.685  23.936  25.884  1.00  0.00    -0.327 N 
ATOM      8  C   UNL A   1      30.589  24.865  26.086  1.00  0.00     0.262 C 
ATOM      9  C   UNL A   1      31.707  23.464  24.498  1.00  0.00     0.262 C 
ATOM     10  H   UNL A   1      31.436  23.201  26.546  1.00  0.00     0.348 HD
ATOM     11  C   UNL A   1      30.395  25.958  25.035  1.00  0.00     0.066 C 
ATOM     12  C   UNL A   1      32.021  24.600  23.528  1.00  0.00     0.066 C 
BRANCH   7  13
ATOM     13  C   UNL A   1      33.042  24.248  26.372  1.00  0.00     0.363 C 
BRANCH  13  14
ATOM     14  C   UNL A   1      33.973  23.098  26.790  1.00  0.00     0.277 C 
ATOM     15  C   UNL A   1      37.856  23.975  26.275  1.00  0.00     0.040 C 
ATOM     16  C   UNL A   1      37.155  23.585  24.973  1.00  0.00     0.135 C 
ATOM     17  C   UNL A   1      35.625  23.737  24.990  1.00  0.00     0.151 C 
ATOM     18  O   UNL A   1      37.498  22.245  24.603  1.00  0.00    -0.372 OA
ATOM     19  N   UNL A   1      35.013  22.793  25.912  1.00  0.00    -0.333 N 
ATOM     20  C   UNL A   1      36.949  21.249  25.486  1.00  0.00     0.135 C 
ATOM     21  C   UNL A   1      35.430  21.407  25.708  1.00  0.00     0.151 C 
ATOM     22  C   UNL A   1      37.266  19.912  24.825  1.00  0.00     0.040 C 
ATOM     23  O   UNL A   1      33.724  22.391  27.768  1.00  0.00    -0.268 OA
ENDBRANCH  13  14
ENDBRANCH   7  13
ENDBRANCH   5   6
ENDBRANCH   3   5
ENDBRANCH   2   3
ENDBRANCH   1   2
BRANCH   1  24
ATOM     24  C   UNL A   1      31.393  30.466  25.753  1.00  0.00     0.275 C 
BRANCH  24  25
ATOM     25  O   UNL A   1      32.792  30.399  26.113  1.00  0.00    -0.458 OA
BRANCH  25  26
ATOM     26  C   UNL A   1      33.209  31.342  26.991  1.00  0.00     0.338 C 
ATOM     27  O   UNL A   1      32.634  32.371  27.300  1.00  0.00    -0.246 OA
BRANCH  26  28
ATOM     28  C   UNL A   1      34.529  30.997  27.545  1.00  0.00     0.060 A 
ATOM     29  C   UNL A   1      34.870  29.685  27.892  1.00  0.00     0.016 A 
ATOM     30  C   UNL A   1      35.388  32.053  27.852  1.00  0.00     0.016 A 
ATOM     31  C   UNL A   1      36.057  29.440  28.596  1.00  0.00     0.010 A 
ATOM     32  C   UNL A   1      36.598  31.796  28.495  1.00  0.00     0.010 A 
ATOM     33  C   UNL A   1      36.935  30.494  28.902  1.00  0.00    -0.014 A 
BRANCH  33  34
ATOM     34  C   UNL A   1      38.205  30.296  29.656  1.00  0.00     0.031 A 
ATOM     35  C   UNL A   1      39.272  29.388  29.104  1.00  0.00     0.074 A 
ATOM     36  C   UNL A   1      38.369  30.835  30.878  1.00  0.00     0.049 A 
ATOM     37  N   UNL A   1      40.305  28.851  29.705  1.00  0.00    -0.248 NA
ATOM     38  C   UNL A   1      39.143  29.019  27.686  1.00  0.00     0.031 C 
ATOM     39  C   UNL A   1      37.444  31.760  31.530  1.00  0.00     0.029 A 
ATOM     40  N   UNL A   1      39.368  30.652  31.805  1.00  0.00    -0.354 N 
ATOM     41  C   UNL A   1      40.919  28.043  28.755  1.00  0.00     0.074 A 
ATOM     42  C   UNL A   1      40.139  28.157  27.540  1.00  0.00     0.031 C 
ATOM     43  C   UNL A   1      37.914  32.060  32.751  1.00  0.00     0.029 A 
ATOM     44  C   UNL A   1      39.134  31.295  32.995  1.00  0.00     0.049 A 
ATOM     45  H   UNL A   1      40.172  30.110  31.633  1.00  0.00     0.167 HD
ATOM     46  C   UNL A   1      42.029  27.275  28.887  1.00  0.00     0.037 A 
ATOM     47  C   UNL A   1      39.795  31.241  34.166  1.00  0.00     0.037 A 
ATOM     48  C   UNL A   1      42.826  27.190  30.084  1.00  0.00     0.049 A 
ATOM     49  C   UNL A   1      40.995  30.346  34.307  1.00  0.00     0.074 A 
ATOM     50  C   UNL A   1      43.989  26.469  30.299  1.00  0.00     0.029 A 
ATOM     51  N   UNL A   1      42.547  27.856  31.268  1.00  0.00    -0.354 N 
ATOM     52  N   UNL A   1      41.553  29.564  33.417  1.00  0.00    -0.248 NA
ATOM     53  C   UNL A   1      41.646  30.315  35.626  1.00  0.00     0.031 C 
ATOM     54  C   UNL A   1      44.391  26.668  31.625  1.00  0.00     0.029 A 
ATOM     55  C   UNL A   1      43.504  27.548  32.222  1.00  0.00     0.049 A 
ATOM     56  H   UNL A   1      41.782  28.459  31.409  1.00  0.00     0.167 HD
ATOM     57  C   UNL A   1      42.631  28.965  34.057  1.00  0.00     0.074 A 
ATOM     58  C   UNL A   1      42.653  29.481  35.410  1.00  0.00     0.031 C 
ATOM     59  C   UNL A   1      43.520  28.068  33.565  1.00  0.00     0.037 A 
BRANCH  46  60
ATOM     60  C   UNL A   1      42.432  26.433  27.710  1.00  0.00     0.064 A 
ATOM     61  C   UNL A   1      43.442  26.833  26.823  1.00  0.00     0.173 A 
ATOM     62  C   UNL A   1      41.816  25.192  27.485  1.00  0.00     0.173 A 
ATOM     63  F   UNL A   1      44.054  28.015  26.987  1.00  0.00    -0.203 F 
ATOM     64  C   UNL A   1      43.797  26.037  25.736  1.00  0.00     0.198 A 
ATOM     65  C   UNL A   1      42.194  24.385  26.415  1.00  0.00     0.198 A 
ATOM     66  F   UNL A   1      40.850  24.758  28.309  1.00  0.00    -0.203 F 
ATOM     67  F   UNL A   1      44.730  26.463  24.873  1.00  0.00    -0.200 F 
ATOM     68  C   UNL A   1      43.178  24.813  25.537  1.00  0.00     0.200 A 
ATOM     69  F   UNL A   1      41.601  23.198  26.231  1.00  0.00    -0.200 F 
ATOM     70  F   UNL A   1      43.523  24.047  24.492  1.00  0.00    -0.200 F 
ENDBRANCH  46  60
BRANCH  47  71
ATOM     71  C   UNL A   1      39.318  32.055  35.314  1.00  0.00     0.064 A 
ATOM     72  C   UNL A   1      38.503  31.487  36.301  1.00  0.00     0.173 A 
ATOM     73  C   UNL A   1      39.682  33.401  35.458  1.00  0.00     0.173 A 
ATOM     74  F   UNL A   1      38.107  30.210  36.189  1.00  0.00    -0.203 F 
ATOM     75  C   UNL A   1      38.067  32.236  37.390  1.00  0.00     0.198 A 
ATOM     76  C   UNL A   1      39.266  34.143  36.561  1.00  0.00     0.198 A 
ATOM     77  F   UNL A   1      40.459  33.990  34.536  1.00  0.00    -0.203 F 
ATOM     78  F   UNL A   1      37.262  31.678  38.305  1.00  0.00    -0.200 F 
ATOM     79  C   UNL A   1      38.456  33.561  37.525  1.00  0.00     0.200 A 
ATOM     80  F   UNL A   1      39.653  35.419  36.693  1.00  0.00    -0.200 F 
ATOM     81  F   UNL A   1      38.047  34.277  38.580  1.00  0.00    -0.200 F 
ENDBRANCH  47  71
BRANCH  59  82
ATOM     82  C   UNL A   1      44.618  27.614  34.483  1.00  0.00     0.064 A 
ATOM     83  C   UNL A   1      45.826  28.318  34.589  1.00  0.00     0.173 A 
ATOM     84  C   UNL A   1      44.445  26.478  35.287  1.00  0.00     0.173 A 
ATOM     85  F   UNL A   1      46.046  29.401  33.827  1.00  0.00    -0.203 F 
ATOM     86  C   UNL A   1      46.832  27.887  35.451  1.00  0.00     0.198 A 
ATOM     87  C   UNL A   1      45.443  26.064  36.167  1.00  0.00     0.198 A 
ATOM     88  F   UNL A   1      43.307  25.772  35.226  1.00  0.00    -0.203 F 
ATOM     89  F   UNL A   1      47.995  28.550  35.506  1.00  0.00    -0.200 F 
ATOM     90  C   UNL A   1      46.637  26.765  36.243  1.00  0.00     0.200 A 
ATOM     91  F   UNL A   1      45.249  24.985  36.937  1.00  0.00    -0.200 F 
ATOM     92  F   UNL A   1      47.604  26.354  37.075  1.00  0.00    -0.200 F 
ENDBRANCH  59  82
ENDBRANCH  33  34
ENDBRANCH  26  28
ENDBRANCH  25  26
ENDBRANCH  24  25
ENDBRANCH   1  24
TORSDOF 14
ENDMDL
