MODEL 1
REMARK VINA RESULT:     -12.2      0.000      0.000
REMARK SMILES C[C@@H]1CCC[C@@H](C)C1[N@H+]1CCO[C@H](CC(=O)OCCOC(=O)c2ccc(-c3c4nc(c(-c5c(F)c(F)c(F)c(F)c5F)c5ccc([nH]5)c(-c5c(F)c(F)c(F)c(F)c5F)c5nc(c(-c6c(F)c(F)c(F)c(F)c6F)c6ccc3[nH]6)C=C5)C=C4)cc2)C1
REMARK SMILES IDX 18 1 17 2 15 3 16 4 14 5 13 6 9 7 10 8 86 9 11 11 12 12 8 13
REMARK SMILES IDX 1 14 2 15 3 16 4 17 6 18 5 19 7 20 19 21 20 22 21 23 22 24
REMARK SMILES IDX 23 25 24 26 85 27 25 28 84 29 26 30 27 31 28 32 78 33 29 34
REMARK SMILES IDX 83 35 77 36 79 37 30 38 82 39 76 40 75 41 31 43 63 44 43 45
REMARK SMILES IDX 62 46 44 47 47 48 61 49 80 50 45 51 46 52 60 54 81 55 48 56
REMARK SMILES IDX 32 57 33 58 41 59 34 60 35 61 39 62 42 63 36 64 37 65 40 66
REMARK SMILES IDX 38 67 64 68 65 69 73 70 66 71 67 72 71 73 74 74 68 75 69 76
REMARK SMILES IDX 72 77 70 78 49 79 50 80 58 81 51 82 52 83 56 84 59 85 53 86
REMARK SMILES IDX 54 87 57 88 55 89
REMARK H PARENT 9 10 79 42 47 53
REMARK Flexibility Score: inf
ROOT
ATOM      1  C   UNL A   1      31.604  29.228  24.402  1.00  0.00     0.274 C 
ENDROOT
BRANCH   1   2
ATOM      2  O   UNL A   1      30.245  28.941  24.021  1.00  0.00    -0.462 OA
BRANCH   2   3
ATOM      3  C   UNL A   1      30.092  27.884  23.179  1.00  0.00     0.308 C 
ATOM      4  O   UNL A   1      30.436  27.868  22.002  1.00  0.00    -0.252 OA
BRANCH   3   5
ATOM      5  C   UNL A   1      29.417  26.704  23.841  1.00  0.00     0.160 C 
BRANCH   5   6
ATOM      6  C   UNL A   1      30.357  25.699  24.529  1.00  0.00     0.184 C 
ATOM      7  N   UNL A   1      31.174  23.281  24.378  1.00  0.00    -0.328 N 
ATOM      8  C   UNL A   1      30.657  23.137  25.739  1.00  0.00     0.291 C 
ATOM      9  C   UNL A   1      30.458  24.388  23.712  1.00  0.00     0.295 C 
ATOM     10  H   UNL A   1      30.958  22.390  23.930  1.00  0.00     0.348 HD
ATOM     11  C   UNL A   1      30.607  24.436  26.549  1.00  0.00     0.222 C 
ATOM     12  O   UNL A   1      29.916  25.477  25.870  1.00  0.00    -0.366 OA
BRANCH   7  13
ATOM     13  C   UNL A   1      32.627  23.205  24.116  1.00  0.00     0.189 C 
ATOM     14  C   UNL A   1      34.902  24.185  24.687  1.00  0.00     0.014 C 
ATOM     15  C   UNL A   1      33.596  23.613  25.266  1.00  0.00     0.045 C 
ATOM     16  C   UNL A   1      33.914  22.477  26.258  1.00  0.00     0.009 C 
ATOM     17  C   UNL A   1      34.296  21.157  25.605  1.00  0.00     0.001 C 
ATOM     18  C   UNL A   1      33.070  21.832  23.501  1.00  0.00     0.045 C 
ATOM     19  C   UNL A   1      33.303  20.723  24.533  1.00  0.00     0.009 C 
ATOM     20  C   UNL A   1      32.153  21.347  22.375  1.00  0.00     0.014 C 
ENDBRANCH   7  13
ENDBRANCH   5   6
ENDBRANCH   3   5
ENDBRANCH   2   3
ENDBRANCH   1   2
BRANCH   1  21
ATOM     21  C   UNL A   1      31.648  30.074  25.681  1.00  0.00     0.275 C 
BRANCH  21  22
ATOM     22  O   UNL A   1      33.006  30.443  25.983  1.00  0.00    -0.458 OA
BRANCH  22  23
ATOM     23  C   UNL A   1      33.149  31.349  26.979  1.00  0.00     0.338 C 
ATOM     24  O   UNL A   1      32.392  32.266  27.251  1.00  0.00    -0.246 OA
BRANCH  23  25
ATOM     25  C   UNL A   1      34.438  31.122  27.675  1.00  0.00     0.060 A 
ATOM     26  C   UNL A   1      35.333  32.167  27.930  1.00  0.00     0.016 A 
ATOM     27  C   UNL A   1      34.761  29.821  28.063  1.00  0.00     0.016 A 
ATOM     28  C   UNL A   1      36.545  31.911  28.582  1.00  0.00     0.010 A 
ATOM     29  C   UNL A   1      35.948  29.576  28.759  1.00  0.00     0.010 A 
ATOM     30  C   UNL A   1      36.853  30.617  29.026  1.00  0.00    -0.014 A 
BRANCH  30  31
ATOM     31  C   UNL A   1      38.095  30.324  29.797  1.00  0.00     0.031 A 
ATOM     32  C   UNL A   1      39.128  29.385  29.238  1.00  0.00     0.074 A 
ATOM     33  C   UNL A   1      38.255  30.834  31.033  1.00  0.00     0.049 A 
ATOM     34  N   UNL A   1      40.164  28.842  29.828  1.00  0.00    -0.248 NA
ATOM     35  C   UNL A   1      38.968  28.995  27.829  1.00  0.00     0.031 C 
ATOM     36  C   UNL A   1      37.340  31.765  31.691  1.00  0.00     0.029 A 
ATOM     37  N   UNL A   1      39.236  30.615  31.972  1.00  0.00    -0.354 N 
ATOM     38  C   UNL A   1      40.763  28.030  28.874  1.00  0.00     0.074 A 
ATOM     39  C   UNL A   1      39.966  28.136  27.670  1.00  0.00     0.031 C 
ATOM     40  C   UNL A   1      37.793  32.030  32.927  1.00  0.00     0.029 A 
ATOM     41  C   UNL A   1      38.998  31.243  33.171  1.00  0.00     0.049 A 
ATOM     42  H   UNL A   1      40.033  30.062  31.801  1.00  0.00     0.167 HD
ATOM     43  C   UNL A   1      41.880  27.271  28.991  1.00  0.00     0.037 A 
ATOM     44  C   UNL A   1      39.649  31.160  34.348  1.00  0.00     0.037 A 
ATOM     45  C   UNL A   1      42.682  27.177  30.184  1.00  0.00     0.049 A 
ATOM     46  C   UNL A   1      40.850  30.262  34.469  1.00  0.00     0.074 A 
ATOM     47  C   UNL A   1      43.844  26.453  30.390  1.00  0.00     0.029 A 
ATOM     48  N   UNL A   1      42.404  27.830  31.376  1.00  0.00    -0.354 N 
ATOM     49  N   UNL A   1      41.413  29.505  33.559  1.00  0.00    -0.248 NA
ATOM     50  C   UNL A   1      41.502  30.201  35.785  1.00  0.00     0.031 C 
ATOM     51  C   UNL A   1      44.247  26.635  31.716  1.00  0.00     0.029 A 
ATOM     52  C   UNL A   1      43.363  27.509  32.325  1.00  0.00     0.049 A 
ATOM     53  H   UNL A   1      41.640  28.432  31.527  1.00  0.00     0.167 HD
ATOM     54  C   UNL A   1      42.495  28.898  34.183  1.00  0.00     0.074 A 
ATOM     55  C   UNL A   1      42.522  29.387  35.545  1.00  0.00     0.031 C 
ATOM     56  C   UNL A   1      43.384  28.011  33.674  1.00  0.00     0.037 A 
BRANCH  43  57
ATOM     57  C   UNL A   1      42.307  26.464  27.800  1.00  0.00     0.064 A 
ATOM     58  C   UNL A   1      43.295  26.924  26.917  1.00  0.00     0.173 A 
ATOM     59  C   UNL A   1      41.774  25.184  27.580  1.00  0.00     0.173 A 
ATOM     60  F   UNL A   1      43.830  28.143  27.078  1.00  0.00    -0.203 F 
ATOM     61  C   UNL A   1      43.723  26.139  25.849  1.00  0.00     0.198 A 
ATOM     62  C   UNL A   1      42.222  24.392  26.526  1.00  0.00     0.198 A 
ATOM     63  F   UNL A   1      40.832  24.693  28.399  1.00  0.00    -0.203 F 
ATOM     64  F   UNL A   1      44.645  26.612  25.000  1.00  0.00    -0.200 F 
ATOM     65  C   UNL A   1      43.193  24.871  25.659  1.00  0.00     0.200 A 
ATOM     66  F   UNL A   1      41.720  23.161  26.352  1.00  0.00    -0.200 F 
ATOM     67  F   UNL A   1      43.616  24.112  24.639  1.00  0.00    -0.200 F 
ENDBRANCH  43  57
BRANCH  44  68
ATOM     68  C   UNL A   1      39.160  31.926  35.525  1.00  0.00     0.064 A 
ATOM     69  C   UNL A   1      39.566  33.249  35.743  1.00  0.00     0.173 A 
ATOM     70  C   UNL A   1      38.302  31.343  36.471  1.00  0.00     0.173 A 
ATOM     71  F   UNL A   1      40.410  33.840  34.883  1.00  0.00    -0.203 F 
ATOM     72  C   UNL A   1      39.151  33.955  36.871  1.00  0.00     0.198 A 
ATOM     73  C   UNL A   1      37.862  32.060  37.582  1.00  0.00     0.198 A 
ATOM     74  F   UNL A   1      37.888  30.077  36.312  1.00  0.00    -0.203 F 
ATOM     75  F   UNL A   1      39.598  35.199  37.082  1.00  0.00    -0.200 F 
ATOM     76  C   UNL A   1      38.294  33.361  37.786  1.00  0.00     0.200 A 
ATOM     77  F   UNL A   1      37.027  31.486  38.459  1.00  0.00    -0.200 F 
ATOM     78  F   UNL A   1      37.896  34.039  38.871  1.00  0.00    -0.200 F 
ENDBRANCH  44  68
BRANCH  56  79
ATOM     79  C   UNL A   1      44.482  27.540  34.582  1.00  0.00     0.064 A 
ATOM     80  C   UNL A   1      45.689  28.244  34.704  1.00  0.00     0.173 A 
ATOM     81  C   UNL A   1      44.312  26.386  35.362  1.00  0.00     0.173 A 
ATOM     82  F   UNL A   1      45.906  29.344  33.967  1.00  0.00    -0.203 F 
ATOM     83  C   UNL A   1      46.694  27.797  35.557  1.00  0.00     0.198 A 
ATOM     84  C   UNL A   1      45.308  25.958  36.234  1.00  0.00     0.198 A 
ATOM     85  F   UNL A   1      43.175  25.679  35.285  1.00  0.00    -0.203 F 
ATOM     86  F   UNL A   1      47.857  28.460  35.625  1.00  0.00    -0.200 F 
ATOM     87  C   UNL A   1      46.500  26.659  36.327  1.00  0.00     0.200 A 
ATOM     88  F   UNL A   1      45.115  24.864  36.986  1.00  0.00    -0.200 F 
ATOM     89  F   UNL A   1      47.467  26.234  37.152  1.00  0.00    -0.200 F 
ENDBRANCH  56  79
ENDBRANCH  30  31
ENDBRANCH  23  25
ENDBRANCH  22  23
ENDBRANCH  21  22
ENDBRANCH   1  21
TORSDOF 13
ENDMDL
MODEL 2
REMARK VINA RESULT:     -12.0      1.052      2.072
REMARK SMILES C[C@@H]1CCC[C@@H](C)C1[N@H+]1CCO[C@H](CC(=O)OCCOC(=O)c2ccc(-c3c4nc(c(-c5c(F)c(F)c(F)c(F)c5F)c5ccc([nH]5)c(-c5c(F)c(F)c(F)c(F)c5F)c5nc(c(-c6c(F)c(F)c(F)c(F)c6F)c6ccc3[nH]6)C=C5)C=C4)cc2)C1
REMARK SMILES IDX 18 1 17 2 15 3 16 4 14 5 13 6 9 7 10 8 86 9 11 11 12 12 8 13
REMARK SMILES IDX 1 14 2 15 3 16 4 17 6 18 5 19 7 20 19 21 20 22 21 23 22 24
REMARK SMILES IDX 23 25 24 26 85 27 25 28 84 29 26 30 27 31 28 32 78 33 29 34
REMARK SMILES IDX 83 35 77 36 79 37 30 38 82 39 76 40 75 41 31 43 63 44 43 45
REMARK SMILES IDX 62 46 44 47 47 48 61 49 80 50 45 51 46 52 60 54 81 55 48 56
REMARK SMILES IDX 32 57 33 58 41 59 34 60 35 61 39 62 42 63 36 64 37 65 40 66
REMARK SMILES IDX 38 67 64 68 65 69 73 70 66 71 67 72 71 73 74 74 68 75 69 76
REMARK SMILES IDX 72 77 70 78 49 79 50 80 58 81 51 82 52 83 56 84 59 85 53 86
REMARK SMILES IDX 54 87 57 88 55 89
REMARK H PARENT 9 10 79 42 47 53
REMARK Flexibility Score: inf
ROOT
ATOM      1  C   UNL A   1      32.158  28.199  26.552  1.00  0.00     0.274 C 
ENDROOT
BRANCH   1   2
ATOM      2  O   UNL A   1      31.010  27.424  26.946  1.00  0.00    -0.462 OA
BRANCH   2   3
ATOM      3  C   UNL A   1      30.711  26.379  26.129  1.00  0.00     0.308 C 
ATOM      4  O   UNL A   1      29.838  25.545  26.345  1.00  0.00    -0.252 OA
BRANCH   3   5
ATOM      5  C   UNL A   1      31.594  26.325  24.904  1.00  0.00     0.160 C 
BRANCH   5   6
ATOM      6  C   UNL A   1      32.386  25.020  24.709  1.00  0.00     0.184 C 
ATOM      7  N   UNL A   1      34.773  24.108  24.636  1.00  0.00    -0.328 N 
ATOM      8  C   UNL A   1      34.441  23.651  23.287  1.00  0.00     0.291 C 
ATOM      9  C   UNL A   1      33.892  25.241  24.985  1.00  0.00     0.295 C 
ATOM     10  H   UNL A   1      35.744  24.413  24.567  1.00  0.00     0.348 HD
ATOM     11  C   UNL A   1      32.950  23.393  23.044  1.00  0.00     0.222 C 
ATOM     12  O   UNL A   1      32.138  24.505  23.399  1.00  0.00    -0.366 OA
BRANCH   7  13
ATOM     13  C   UNL A   1      35.024  23.131  25.718  1.00  0.00     0.189 C 
ATOM     14  C   UNL A   1      33.955  21.454  27.301  1.00  0.00     0.014 C 
ATOM     15  C   UNL A   1      34.060  21.912  25.835  1.00  0.00     0.045 C 
ATOM     16  C   UNL A   1      34.439  20.718  24.937  1.00  0.00     0.009 C 
ATOM     17  C   UNL A   1      35.906  20.320  25.002  1.00  0.00     0.001 C 
ATOM     18  C   UNL A   1      36.514  22.647  25.776  1.00  0.00     0.045 C 
ATOM     19  C   UNL A   1      36.845  21.504  24.809  1.00  0.00     0.009 C 
ATOM     20  C   UNL A   1      37.529  23.786  25.644  1.00  0.00     0.014 C 
ENDBRANCH   7  13
ENDBRANCH   5   6
ENDBRANCH   3   5
ENDBRANCH   2   3
ENDBRANCH   1   2
BRANCH   1  21
ATOM     21  C   UNL A   1      31.770  29.660  26.289  1.00  0.00     0.275 C 
BRANCH  21  22
ATOM     22  O   UNL A   1      32.951  30.460  26.101  1.00  0.00    -0.458 OA
BRANCH  22  23
ATOM     23  C   UNL A   1      33.149  31.423  27.032  1.00  0.00     0.338 C 
ATOM     24  O   UNL A   1      32.437  32.389  27.252  1.00  0.00    -0.246 OA
BRANCH  23  25
ATOM     25  C   UNL A   1      34.438  31.187  27.724  1.00  0.00     0.060 A 
ATOM     26  C   UNL A   1      35.330  32.230  28.001  1.00  0.00     0.016 A 
ATOM     27  C   UNL A   1      34.766  29.879  28.086  1.00  0.00     0.016 A 
ATOM     28  C   UNL A   1      36.542  31.965  28.648  1.00  0.00     0.010 A 
ATOM     29  C   UNL A   1      35.954  29.624  28.778  1.00  0.00     0.010 A 
ATOM     30  C   UNL A   1      36.855  30.663  29.067  1.00  0.00    -0.014 A 
BRANCH  30  31
ATOM     31  C   UNL A   1      38.097  30.359  29.831  1.00  0.00     0.031 A 
ATOM     32  C   UNL A   1      39.123  29.417  29.265  1.00  0.00     0.074 A 
ATOM     33  C   UNL A   1      38.264  30.863  31.070  1.00  0.00     0.049 A 
ATOM     34  N   UNL A   1      40.158  28.865  29.850  1.00  0.00    -0.248 NA
ATOM     35  C   UNL A   1      38.957  29.036  27.855  1.00  0.00     0.031 C 
ATOM     36  C   UNL A   1      37.356  31.796  31.735  1.00  0.00     0.029 A 
ATOM     37  N   UNL A   1      39.247  30.633  32.005  1.00  0.00    -0.354 N 
ATOM     38  C   UNL A   1      40.749  28.055  28.889  1.00  0.00     0.074 A 
ATOM     39  C   UNL A   1      39.950  28.172  27.688  1.00  0.00     0.031 C 
ATOM     40  C   UNL A   1      37.815  32.052  32.971  1.00  0.00     0.029 A 
ATOM     41  C   UNL A   1      39.016  31.256  33.207  1.00  0.00     0.049 A 
ATOM     42  H   UNL A   1      40.040  30.076  31.829  1.00  0.00     0.167 HD
ATOM     43  C   UNL A   1      41.863  27.289  29.000  1.00  0.00     0.037 A 
ATOM     44  C   UNL A   1      39.669  31.164  34.383  1.00  0.00     0.037 A 
ATOM     45  C   UNL A   1      42.667  27.185  30.189  1.00  0.00     0.049 A 
ATOM     46  C   UNL A   1      40.866  30.259  34.495  1.00  0.00     0.074 A 
ATOM     47  C   UNL A   1      43.826  26.453  30.388  1.00  0.00     0.029 A 
ATOM     48  N   UNL A   1      42.396  27.833  31.386  1.00  0.00    -0.354 N 
ATOM     49  N   UNL A   1      41.422  29.503  33.580  1.00  0.00    -0.248 NA
ATOM     50  C   UNL A   1      41.522  30.187  35.809  1.00  0.00     0.031 C 
ATOM     51  C   UNL A   1      44.234  26.625  31.714  1.00  0.00     0.029 A 
ATOM     52  C   UNL A   1      43.357  27.502  32.329  1.00  0.00     0.049 A 
ATOM     53  H   UNL A   1      41.636  28.438  31.541  1.00  0.00     0.167 HD
ATOM     54  C   UNL A   1      42.502  28.886  34.198  1.00  0.00     0.074 A 
ATOM     55  C   UNL A   1      42.536  29.369  35.561  1.00  0.00     0.031 C 
ATOM     56  C   UNL A   1      43.385  27.997  33.682  1.00  0.00     0.037 A 
BRANCH  43  57
ATOM     57  C   UNL A   1      42.281  26.485  27.803  1.00  0.00     0.064 A 
ATOM     58  C   UNL A   1      43.272  26.942  26.921  1.00  0.00     0.173 A 
ATOM     59  C   UNL A   1      41.736  25.212  27.576  1.00  0.00     0.173 A 
ATOM     60  F   UNL A   1      43.818  28.156  27.090  1.00  0.00    -0.203 F 
ATOM     61  C   UNL A   1      43.692  26.160  25.848  1.00  0.00     0.198 A 
ATOM     62  C   UNL A   1      42.177  24.422  26.516  1.00  0.00     0.198 A 
ATOM     63  F   UNL A   1      40.792  24.724  28.393  1.00  0.00    -0.203 F 
ATOM     64  F   UNL A   1      44.618  26.630  25.001  1.00  0.00    -0.200 F 
ATOM     65  C   UNL A   1      43.151  24.898  25.652  1.00  0.00     0.200 A 
ATOM     66  F   UNL A   1      41.663  23.197  26.336  1.00  0.00    -0.200 F 
ATOM     67  F   UNL A   1      43.566  24.141  24.627  1.00  0.00    -0.200 F 
ENDBRANCH  43  57
BRANCH  44  68
ATOM     68  C   UNL A   1      39.189  31.927  35.565  1.00  0.00     0.064 A 
ATOM     69  C   UNL A   1      39.603  33.247  35.788  1.00  0.00     0.173 A 
ATOM     70  C   UNL A   1      38.330  31.344  36.511  1.00  0.00     0.173 A 
ATOM     71  F   UNL A   1      40.447  33.837  34.928  1.00  0.00    -0.203 F 
ATOM     72  C   UNL A   1      39.195  33.949  36.920  1.00  0.00     0.198 A 
ATOM     73  C   UNL A   1      37.898  32.058  37.626  1.00  0.00     0.198 A 
ATOM     74  F   UNL A   1      37.908  30.082  36.347  1.00  0.00    -0.203 F 
ATOM     75  F   UNL A   1      39.650  35.190  37.136  1.00  0.00    -0.200 F 
ATOM     76  C   UNL A   1      38.338  33.355  37.835  1.00  0.00     0.200 A 
ATOM     77  F   UNL A   1      37.062  31.484  38.503  1.00  0.00    -0.200 F 
ATOM     78  F   UNL A   1      37.947  34.030  38.925  1.00  0.00    -0.200 F 
ENDBRANCH  44  68
BRANCH  56  79
ATOM     79  C   UNL A   1      44.482  27.515  34.584  1.00  0.00     0.064 A 
ATOM     80  C   UNL A   1      44.363  26.324  35.316  1.00  0.00     0.173 A 
ATOM     81  C   UNL A   1      45.680  28.236  34.693  1.00  0.00     0.173 A 
ATOM     82  F   UNL A   1      43.230  25.608  35.258  1.00  0.00    -0.203 F 
ATOM     83  C   UNL A   1      45.394  25.887  36.142  1.00  0.00     0.198 A 
ATOM     84  C   UNL A   1      46.720  27.781  35.498  1.00  0.00     0.198 A 
ATOM     85  F   UNL A   1      45.847  29.379  34.010  1.00  0.00    -0.203 F 
ATOM     86  F   UNL A   1      45.241  24.770  36.868  1.00  0.00    -0.200 F 
ATOM     87  C   UNL A   1      46.574  26.611  36.227  1.00  0.00     0.200 A 
ATOM     88  F   UNL A   1      47.864  28.476  35.570  1.00  0.00    -0.200 F 
ATOM     89  F   UNL A   1      47.568  26.185  37.019  1.00  0.00    -0.200 F 
ENDBRANCH  56  79
ENDBRANCH  30  31
ENDBRANCH  23  25
ENDBRANCH  22  23
ENDBRANCH  21  22
ENDBRANCH   1  21
TORSDOF 13
ENDMDL
MODEL 3
REMARK VINA RESULT:     -12.0      0.339      2.012
REMARK SMILES C[C@@H]1CCC[C@@H](C)C1[N@H+]1CCO[C@H](CC(=O)OCCOC(=O)c2ccc(-c3c4nc(c(-c5c(F)c(F)c(F)c(F)c5F)c5ccc([nH]5)c(-c5c(F)c(F)c(F)c(F)c5F)c5nc(c(-c6c(F)c(F)c(F)c(F)c6F)c6ccc3[nH]6)C=C5)C=C4)cc2)C1
REMARK SMILES IDX 18 1 17 2 15 3 16 4 14 5 13 6 9 7 10 8 86 9 11 11 12 12 8 13
REMARK SMILES IDX 1 14 2 15 3 16 4 17 6 18 5 19 7 20 19 21 20 22 21 23 22 24
REMARK SMILES IDX 23 25 24 26 85 27 25 28 84 29 26 30 27 31 28 32 78 33 29 34
REMARK SMILES IDX 83 35 77 36 79 37 30 38 82 39 76 40 75 41 31 43 63 44 43 45
REMARK SMILES IDX 62 46 44 47 47 48 61 49 80 50 45 51 46 52 60 54 81 55 48 56
REMARK SMILES IDX 32 57 33 58 41 59 34 60 35 61 39 62 42 63 36 64 37 65 40 66
REMARK SMILES IDX 38 67 64 68 65 69 73 70 66 71 67 72 71 73 74 74 68 75 69 76
REMARK SMILES IDX 72 77 70 78 49 79 50 80 58 81 51 82 52 83 56 84 59 85 53 86
REMARK SMILES IDX 54 87 57 88 55 89
REMARK H PARENT 9 10 79 42 47 53
REMARK Flexibility Score: inf
ROOT
ATOM      1  C   UNL A   1      31.711  29.067  24.473  1.00  0.00     0.274 C 
ENDROOT
BRANCH   1   2
ATOM      2  O   UNL A   1      30.351  28.674  24.207  1.00  0.00    -0.462 OA
BRANCH   2   3
ATOM      3  C   UNL A   1      30.196  27.775  23.198  1.00  0.00     0.308 C 
ATOM      4  O   UNL A   1      30.417  28.003  22.014  1.00  0.00    -0.252 OA
BRANCH   3   5
ATOM      5  C   UNL A   1      29.689  26.436  23.684  1.00  0.00     0.160 C 
BRANCH   5   6
ATOM      6  C   UNL A   1      30.730  25.540  24.377  1.00  0.00     0.184 C 
ATOM      7  N   UNL A   1      31.478  23.103  24.567  1.00  0.00    -0.328 N 
ATOM      8  C   UNL A   1      31.225  23.251  25.999  1.00  0.00     0.291 C 
ATOM      9  C   UNL A   1      30.663  24.093  23.834  1.00  0.00     0.295 C 
ATOM     10  H   UNL A   1      31.173  22.154  24.353  1.00  0.00     0.348 HD
ATOM     11  C   UNL A   1      31.341  24.684  26.529  1.00  0.00     0.222 C 
ATOM     12  O   UNL A   1      30.546  25.605  25.793  1.00  0.00    -0.366 OA
BRANCH   7  13
ATOM     13  C   UNL A   1      32.856  22.908  24.066  1.00  0.00     0.189 C 
ATOM     14  C   UNL A   1      35.266  23.699  24.232  1.00  0.00     0.014 C 
ATOM     15  C   UNL A   1      34.035  23.236  25.031  1.00  0.00     0.045 C 
ATOM     16  C   UNL A   1      34.423  22.079  25.972  1.00  0.00     0.009 C 
ATOM     17  C   UNL A   1      34.581  20.731  25.283  1.00  0.00     0.001 C 
ATOM     18  C   UNL A   1      33.077  21.503  23.405  1.00  0.00     0.045 C 
ATOM     19  C   UNL A   1      33.391  20.380  24.399  1.00  0.00     0.009 C 
ATOM     20  C   UNL A   1      31.947  21.093  22.456  1.00  0.00     0.014 C 
ENDBRANCH   7  13
ENDBRANCH   5   6
ENDBRANCH   3   5
ENDBRANCH   2   3
ENDBRANCH   1   2
BRANCH   1  21
ATOM     21  C   UNL A   1      31.771  30.105  25.601  1.00  0.00     0.275 C 
BRANCH  21  22
ATOM     22  O   UNL A   1      33.116  30.213  26.103  1.00  0.00    -0.458 OA
BRANCH  22  23
ATOM     23  C   UNL A   1      33.324  31.219  26.984  1.00  0.00     0.338 C 
ATOM     24  O   UNL A   1      32.614  32.194  27.166  1.00  0.00    -0.246 OA
BRANCH  23  25
ATOM     25  C   UNL A   1      34.620  31.016  27.673  1.00  0.00     0.060 A 
ATOM     26  C   UNL A   1      35.511  32.071  27.895  1.00  0.00     0.016 A 
ATOM     27  C   UNL A   1      34.955  29.726  28.088  1.00  0.00     0.016 A 
ATOM     28  C   UNL A   1      36.731  31.838  28.542  1.00  0.00     0.010 A 
ATOM     29  C   UNL A   1      36.150  29.503  28.778  1.00  0.00     0.010 A 
ATOM     30  C   UNL A   1      37.051  30.556  29.013  1.00  0.00    -0.014 A 
BRANCH  30  31
ATOM     31  C   UNL A   1      38.301  30.288  29.778  1.00  0.00     0.031 A 
ATOM     32  C   UNL A   1      39.327  29.329  29.239  1.00  0.00     0.074 A 
ATOM     33  C   UNL A   1      38.478  30.840  30.994  1.00  0.00     0.049 A 
ATOM     34  N   UNL A   1      40.369  28.805  29.836  1.00  0.00    -0.248 NA
ATOM     35  C   UNL A   1      39.150  28.891  27.847  1.00  0.00     0.031 C 
ATOM     36  C   UNL A   1      37.571  31.795  31.630  1.00  0.00     0.029 A 
ATOM     37  N   UNL A   1      39.470  30.652  31.928  1.00  0.00    -0.354 N 
ATOM     38  C   UNL A   1      40.956  27.960  28.903  1.00  0.00     0.074 A 
ATOM     39  C   UNL A   1      40.145  28.026  27.705  1.00  0.00     0.031 C 
ATOM     40  C   UNL A   1      38.039  32.101  32.850  1.00  0.00     0.029 A 
ATOM     41  C   UNL A   1      39.246  31.322  33.107  1.00  0.00     0.049 A 
ATOM     42  H   UNL A   1      40.263  30.093  31.767  1.00  0.00     0.167 HD
ATOM     43  C   UNL A   1      42.074  27.203  29.033  1.00  0.00     0.037 A 
ATOM     44  C   UNL A   1      39.911  31.279  34.279  1.00  0.00     0.037 A 
ATOM     45  C   UNL A   1      42.890  27.150  30.219  1.00  0.00     0.049 A 
ATOM     46  C   UNL A   1      41.113  30.384  34.416  1.00  0.00     0.074 A 
ATOM     47  C   UNL A   1      44.054  26.432  30.435  1.00  0.00     0.029 A 
ATOM     48  N   UNL A   1      42.627  27.844  31.391  1.00  0.00    -0.354 N 
ATOM     49  N   UNL A   1      41.664  29.595  33.526  1.00  0.00    -0.248 NA
ATOM     50  C   UNL A   1      41.780  30.367  35.726  1.00  0.00     0.031 C 
ATOM     51  C   UNL A   1      44.473  26.659  31.750  1.00  0.00     0.029 A 
ATOM     52  C   UNL A   1      43.597  27.555  32.338  1.00  0.00     0.049 A 
ATOM     53  H   UNL A   1      41.865  28.452  31.530  1.00  0.00     0.167 HD
ATOM     54  C   UNL A   1      42.752  29.008  34.158  1.00  0.00     0.074 A 
ATOM     55  C   UNL A   1      42.796  29.544  35.502  1.00  0.00     0.031 C 
ATOM     56  C   UNL A   1      43.635  28.103  33.670  1.00  0.00     0.037 A 
BRANCH  43  57
ATOM     57  C   UNL A   1      42.486  26.355  27.865  1.00  0.00     0.064 A 
ATOM     58  C   UNL A   1      41.936  25.083  27.651  1.00  0.00     0.173 A 
ATOM     59  C   UNL A   1      43.387  26.851  26.910  1.00  0.00     0.173 A 
ATOM     60  F   UNL A   1      41.077  24.561  28.539  1.00  0.00    -0.203 F 
ATOM     61  C   UNL A   1      42.283  24.332  26.531  1.00  0.00     0.198 A 
ATOM     62  C   UNL A   1      43.712  26.107  25.778  1.00  0.00     0.198 A 
ATOM     63  F   UNL A   1      43.936  28.065  27.062  1.00  0.00    -0.203 F 
ATOM     64  F   UNL A   1      41.768  23.106  26.363  1.00  0.00    -0.200 F 
ATOM     65  C   UNL A   1      43.164  24.847  25.591  1.00  0.00     0.200 A 
ATOM     66  F   UNL A   1      44.552  26.613  24.864  1.00  0.00    -0.200 F 
ATOM     67  F   UNL A   1      43.486  24.129  24.508  1.00  0.00    -0.200 F 
ENDBRANCH  43  57
BRANCH  44  68
ATOM     68  C   UNL A   1      39.437  32.086  35.435  1.00  0.00     0.064 A 
ATOM     69  C   UNL A   1      38.575  31.535  36.393  1.00  0.00     0.173 A 
ATOM     70  C   UNL A   1      39.812  33.429  35.590  1.00  0.00     0.173 A 
ATOM     71  F   UNL A   1      38.164  30.264  36.271  1.00  0.00    -0.203 F 
ATOM     72  C   UNL A   1      38.089  32.302  37.450  1.00  0.00     0.198 A 
ATOM     73  C   UNL A   1      39.351  34.185  36.665  1.00  0.00     0.198 A 
ATOM     74  F   UNL A   1      40.632  34.005  34.698  1.00  0.00    -0.203 F 
ATOM     75  F   UNL A   1      37.223  31.767  38.320  1.00  0.00    -0.200 F 
ATOM     76  C   UNL A   1      38.483  33.625  37.588  1.00  0.00     0.200 A 
ATOM     77  F   UNL A   1      39.741  35.461  36.800  1.00  0.00    -0.200 F 
ATOM     78  F   UNL A   1      38.014  34.362  38.604  1.00  0.00    -0.200 F 
ENDBRANCH  44  68
BRANCH  56  79
ATOM     79  C   UNL A   1      44.743  27.662  34.580  1.00  0.00     0.064 A 
ATOM     80  C   UNL A   1      44.615  26.529  35.398  1.00  0.00     0.173 A 
ATOM     81  C   UNL A   1      45.958  28.362  34.612  1.00  0.00     0.173 A 
ATOM     82  F   UNL A   1      43.467  25.836  35.416  1.00  0.00    -0.203 F 
ATOM     83  C   UNL A   1      45.656  26.128  36.231  1.00  0.00     0.198 A 
ATOM     84  C   UNL A   1      47.006  27.942  35.424  1.00  0.00     0.198 A 
ATOM     85  F   UNL A   1      46.132  29.449  33.845  1.00  0.00    -0.203 F 
ATOM     86  F   UNL A   1      45.497  25.070  37.038  1.00  0.00    -0.200 F 
ATOM     87  C   UNL A   1      46.853  26.830  36.238  1.00  0.00     0.200 A 
ATOM     88  F   UNL A   1      48.166  28.615  35.422  1.00  0.00    -0.200 F 
ATOM     89  F   UNL A   1      47.856  26.440  37.037  1.00  0.00    -0.200 F 
ENDBRANCH  56  79
ENDBRANCH  30  31
ENDBRANCH  23  25
ENDBRANCH  22  23
ENDBRANCH  21  22
ENDBRANCH   1  21
TORSDOF 13
ENDMDL
