MODEL 1
REMARK VINA RESULT:     -11.1      0.000      0.000
REMARK SMILES COc1ccc2cc([C@H](C)C(=O)OCCOC(=O)c3ccc(-c4c5nc(c(-c6c(F)c(F)c(F)c(F)c6F)c6ccc([nH]6)c(-c6c(F)c(F)c(F)c(F)c6F)c6nc(c(-c7c(F)c(F)c(F)c(F)c7F)c7ccc4[nH]7)C=C6)C=C5)cc3)ccc2c1
REMARK SMILES IDX 14 1 13 2 11 3 12 4 9 5 10 6 8 7 3 8 4 9 85 10 5 11 84 12
REMARK SMILES IDX 6 13 83 14 7 15 82 16 2 17 1 18 15 19 16 20 17 21 18 22
REMARK SMILES IDX 19 23 20 24 81 25 21 26 80 27 22 28 23 29 24 30 74 31 25 32
REMARK SMILES IDX 79 33 73 34 75 35 26 36 78 37 72 38 71 39 27 41 59 42 39 43
REMARK SMILES IDX 58 44 40 45 43 46 57 47 76 48 41 49 42 50 56 52 77 53 44 54
REMARK SMILES IDX 28 55 29 56 37 57 30 58 31 59 35 60 38 61 32 62 33 63 36 64
REMARK SMILES IDX 34 65 60 66 61 67 69 68 62 69 63 70 67 71 70 72 64 73 65 74
REMARK SMILES IDX 68 75 66 76 45 77 46 78 54 79 47 80 48 81 52 82 55 83 49 84
REMARK SMILES IDX 50 85 53 86 51 87
REMARK H PARENT 75 40 43 51
REMARK Flexibility Score: inf
ROOT
ATOM      1  C   UNL A   1      33.463  35.394  28.826  1.00  0.00     0.274 C 
ENDROOT
BRANCH   1   2
ATOM      2  O   UNL A   1      34.701  34.859  29.330  1.00  0.00    -0.462 OA
BRANCH   2   3
ATOM      3  C   UNL A   1      34.806  33.502  29.351  1.00  0.00     0.313 C 
ATOM      4  O   UNL A   1      34.286  32.781  30.197  1.00  0.00    -0.252 OA
BRANCH   3   5
ATOM      5  C   UNL A   1      35.662  32.954  28.210  1.00  0.00     0.126 C 
ATOM      6  C   UNL A   1      37.165  32.971  28.472  1.00  0.00     0.025 C 
BRANCH   5   7
ATOM      7  C   UNL A   1      35.185  31.590  27.746  1.00  0.00    -0.033 A 
ATOM      8  C   UNL A   1      32.456  27.645  26.086  1.00  0.00     0.119 A 
ATOM      9  C   UNL A   1      31.603  28.745  26.033  1.00  0.00     0.047 A 
ATOM     10  C   UNL A   1      33.761  27.796  26.554  1.00  0.00     0.055 A 
ATOM     11  C   UNL A   1      32.068  30.004  26.426  1.00  0.00     0.012 A 
ATOM     12  C   UNL A   1      34.245  29.056  26.938  1.00  0.00    -0.015 A 
ATOM     13  C   UNL A   1      33.386  30.175  26.879  1.00  0.00    -0.018 A 
ATOM     14  C   UNL A   1      35.566  29.224  27.378  1.00  0.00     0.009 A 
ATOM     15  C   UNL A   1      33.868  31.430  27.285  1.00  0.00     0.013 A 
ATOM     16  C   UNL A   1      36.034  30.479  27.768  1.00  0.00     0.005 A 
BRANCH   8  17
ATOM     17  O   UNL A   1      32.086  26.371  25.751  1.00  0.00    -0.497 OA
ATOM     18  C   UNL A   1      30.741  26.052  26.094  1.00  0.00     0.278 C 
ENDBRANCH   8  17
ENDBRANCH   5   7
ENDBRANCH   3   5
ENDBRANCH   2   3
ENDBRANCH   1   2
BRANCH   1  19
ATOM     19  C   UNL A   1      32.714  36.204  29.889  1.00  0.00     0.275 C 
BRANCH  19  20
ATOM     20  O   UNL A   1      32.353  35.400  31.028  1.00  0.00    -0.458 OA
BRANCH  20  21
ATOM     21  C   UNL A   1      32.734  35.899  32.227  1.00  0.00     0.338 C 
ATOM     22  O   UNL A   1      32.180  36.765  32.881  1.00  0.00    -0.246 OA
BRANCH  21  23
ATOM     23  C   UNL A   1      33.887  35.142  32.736  1.00  0.00     0.060 A 
ATOM     24  C   UNL A   1      35.158  35.695  32.562  1.00  0.00     0.016 A 
ATOM     25  C   UNL A   1      33.734  33.872  33.291  1.00  0.00     0.016 A 
ATOM     26  C   UNL A   1      36.289  34.981  32.938  1.00  0.00     0.010 A 
ATOM     27  C   UNL A   1      34.872  33.154  33.672  1.00  0.00     0.010 A 
ATOM     28  C   UNL A   1      36.155  33.702  33.489  1.00  0.00    -0.014 A 
BRANCH  28  29
ATOM     29  C   UNL A   1      37.366  32.924  33.833  1.00  0.00     0.031 A 
ATOM     30  C   UNL A   1      38.073  33.179  35.129  1.00  0.00     0.074 A 
ATOM     31  C   UNL A   1      37.810  31.974  32.991  1.00  0.00     0.049 A 
ATOM     32  N   UNL A   1      39.200  32.681  35.572  1.00  0.00    -0.248 NA
ATOM     33  C   UNL A   1      37.424  34.120  36.056  1.00  0.00     0.031 C 
ATOM     34  C   UNL A   1      37.166  31.598  31.732  1.00  0.00     0.029 A 
ATOM     35  N   UNL A   1      38.907  31.155  33.066  1.00  0.00    -0.354 N 
ATOM     36  C   UNL A   1      39.407  33.263  36.814  1.00  0.00     0.074 A 
ATOM     37  C   UNL A   1      38.295  34.158  37.055  1.00  0.00     0.031 C 
ATOM     38  C   UNL A   1      37.883  30.622  31.151  1.00  0.00     0.029 A 
ATOM     39  C   UNL A   1      39.059  30.344  31.971  1.00  0.00     0.049 A 
ATOM     40  H   UNL A   1      39.525  31.151  33.833  1.00  0.00     0.167 HD
ATOM     41  C   UNL A   1      40.435  33.064  37.672  1.00  0.00     0.037 A 
ATOM     42  C   UNL A   1      40.055  29.497  31.650  1.00  0.00     0.037 A 
ATOM     43  C   UNL A   1      41.529  32.160  37.431  1.00  0.00     0.049 A 
ATOM     44  C   UNL A   1      41.220  29.347  32.589  1.00  0.00     0.074 A 
ATOM     45  C   UNL A   1      42.616  31.881  38.242  1.00  0.00     0.029 A 
ATOM     46  N   UNL A   1      41.674  31.386  36.289  1.00  0.00    -0.354 N 
ATOM     47  N   UNL A   1      41.424  29.916  33.753  1.00  0.00    -0.248 NA
ATOM     48  C   UNL A   1      42.301  28.447  32.164  1.00  0.00     0.031 C 
ATOM     49  C   UNL A   1      43.436  30.965  37.575  1.00  0.00     0.029 A 
ATOM     50  C   UNL A   1      42.841  30.645  36.364  1.00  0.00     0.049 A 
ATOM     51  H   UNL A   1      41.040  31.367  35.536  1.00  0.00     0.167 HD
ATOM     52  C   UNL A   1      42.645  29.437  34.205  1.00  0.00     0.074 A 
ATOM     53  C   UNL A   1      43.130  28.516  33.197  1.00  0.00     0.031 C 
ATOM     54  C   UNL A   1      43.307  29.735  35.349  1.00  0.00     0.037 A 
BRANCH  41  55
ATOM     55  C   UNL A   1      40.443  33.864  38.939  1.00  0.00     0.064 A 
ATOM     56  C   UNL A   1      41.124  35.087  39.034  1.00  0.00     0.173 A 
ATOM     57  C   UNL A   1      39.734  33.417  40.063  1.00  0.00     0.173 A 
ATOM     58  F   UNL A   1      41.829  35.549  37.991  1.00  0.00    -0.203 F 
ATOM     59  C   UNL A   1      41.109  35.823  40.216  1.00  0.00     0.198 A 
ATOM     60  C   UNL A   1      39.703  34.166  41.236  1.00  0.00     0.198 A 
ATOM     61  F   UNL A   1      39.065  32.254  40.022  1.00  0.00    -0.203 F 
ATOM     62  F   UNL A   1      41.797  36.970  40.298  1.00  0.00    -0.200 F 
ATOM     63  C   UNL A   1      40.395  35.366  41.314  1.00  0.00     0.200 A 
ATOM     64  F   UNL A   1      39.006  33.726  42.293  1.00  0.00    -0.200 F 
ATOM     65  F   UNL A   1      40.378  36.077  42.449  1.00  0.00    -0.200 F 
ENDBRANCH  41  55
BRANCH  42  66
ATOM     66  C   UNL A   1      40.007  28.752  30.368  1.00  0.00     0.064 A 
ATOM     67  C   UNL A   1      40.534  29.304  29.193  1.00  0.00     0.173 A 
ATOM     68  C   UNL A   1      39.435  27.474  30.292  1.00  0.00     0.173 A 
ATOM     69  F   UNL A   1      41.067  30.535  29.211  1.00  0.00    -0.203 F 
ATOM     70  C   UNL A   1      40.483  28.608  27.987  1.00  0.00     0.198 A 
ATOM     71  C   UNL A   1      39.408  26.768  29.091  1.00  0.00     0.198 A 
ATOM     72  F   UNL A   1      38.912  26.905  31.388  1.00  0.00    -0.203 F 
ATOM     73  F   UNL A   1      40.961  29.172  26.870  1.00  0.00    -0.200 F 
ATOM     74  C   UNL A   1      39.928  27.338  27.938  1.00  0.00     0.200 A 
ATOM     75  F   UNL A   1      38.876  25.539  29.051  1.00  0.00    -0.200 F 
ATOM     76  F   UNL A   1      39.884  26.667  26.780  1.00  0.00    -0.200 F 
ENDBRANCH  42  66
BRANCH  54  77
ATOM     77  C   UNL A   1      44.617  29.045  35.577  1.00  0.00     0.064 A 
ATOM     78  C   UNL A   1      44.686  27.806  36.228  1.00  0.00     0.173 A 
ATOM     79  C   UNL A   1      45.811  29.612  35.108  1.00  0.00     0.173 A 
ATOM     80  F   UNL A   1      43.572  27.232  36.709  1.00  0.00    -0.203 F 
ATOM     81  C   UNL A   1      45.908  27.166  36.418  1.00  0.00     0.198 A 
ATOM     82  C   UNL A   1      47.028  28.959  35.280  1.00  0.00     0.198 A 
ATOM     83  F   UNL A   1      45.795  30.795  34.475  1.00  0.00    -0.203 F 
ATOM     84  F   UNL A   1      45.956  26.000  37.077  1.00  0.00    -0.200 F 
ATOM     85  C   UNL A   1      47.076  27.739  35.938  1.00  0.00     0.200 A 
ATOM     86  F   UNL A   1      48.154  29.510  34.808  1.00  0.00    -0.200 F 
ATOM     87  F   UNL A   1      48.251  27.120  36.118  1.00  0.00    -0.200 F 
ENDBRANCH  54  77
ENDBRANCH  28  29
ENDBRANCH  21  23
ENDBRANCH  20  21
ENDBRANCH  19  20
ENDBRANCH   1  19
TORSDOF 13
ENDMDL
MODEL 2
REMARK VINA RESULT:     -10.9      4.328     10.578
REMARK SMILES COc1ccc2cc([C@H](C)C(=O)OCCOC(=O)c3ccc(-c4c5nc(c(-c6c(F)c(F)c(F)c(F)c6F)c6ccc([nH]6)c(-c6c(F)c(F)c(F)c(F)c6F)c6nc(c(-c7c(F)c(F)c(F)c(F)c7F)c7ccc4[nH]7)C=C6)C=C5)cc3)ccc2c1
REMARK SMILES IDX 14 1 13 2 11 3 12 4 9 5 10 6 8 7 3 8 4 9 85 10 5 11 84 12
REMARK SMILES IDX 6 13 83 14 7 15 82 16 2 17 1 18 15 19 16 20 17 21 18 22
REMARK SMILES IDX 19 23 20 24 81 25 21 26 80 27 22 28 23 29 24 30 74 31 25 32
REMARK SMILES IDX 79 33 73 34 75 35 26 36 78 37 72 38 71 39 27 41 59 42 39 43
REMARK SMILES IDX 58 44 40 45 43 46 57 47 76 48 41 49 42 50 56 52 77 53 44 54
REMARK SMILES IDX 28 55 29 56 37 57 30 58 31 59 35 60 38 61 32 62 33 63 36 64
REMARK SMILES IDX 34 65 60 66 61 67 69 68 62 69 63 70 67 71 70 72 64 73 65 74
REMARK SMILES IDX 68 75 66 76 45 77 46 78 54 79 47 80 48 81 52 82 55 83 49 84
REMARK SMILES IDX 50 85 53 86 51 87
REMARK H PARENT 75 40 43 51
REMARK Flexibility Score: inf
ROOT
ATOM      1  C   UNL A   1      44.037  21.924  25.103  1.00  0.00     0.274 C 
ENDROOT
BRANCH   1   2
ATOM      2  O   UNL A   1      42.653  22.078  25.470  1.00  0.00    -0.462 OA
BRANCH   2   3
ATOM      3  C   UNL A   1      42.071  21.010  26.082  1.00  0.00     0.313 C 
ATOM      4  O   UNL A   1      42.247  19.842  25.750  1.00  0.00    -0.252 OA
BRANCH   3   5
ATOM      5  C   UNL A   1      41.147  21.413  27.230  1.00  0.00     0.126 C 
ATOM      6  C   UNL A   1      41.828  22.179  28.361  1.00  0.00     0.025 C 
BRANCH   5   7
ATOM      7  C   UNL A   1      39.903  22.126  26.736  1.00  0.00    -0.033 A 
ATOM      8  C   UNL A   1      35.559  23.401  24.438  1.00  0.00     0.119 A 
ATOM      9  C   UNL A   1      35.778  22.062  24.120  1.00  0.00     0.047 A 
ATOM     10  C   UNL A   1      36.480  24.090  25.227  1.00  0.00     0.055 A 
ATOM     11  C   UNL A   1      36.909  21.406  24.616  1.00  0.00     0.012 A 
ATOM     12  C   UNL A   1      37.611  23.440  25.743  1.00  0.00    -0.015 A 
ATOM     13  C   UNL A   1      37.832  22.081  25.430  1.00  0.00    -0.018 A 
ATOM     14  C   UNL A   1      38.525  24.115  26.566  1.00  0.00     0.009 A 
ATOM     15  C   UNL A   1      38.978  21.441  25.931  1.00  0.00     0.013 A 
ATOM     16  C   UNL A   1      39.653  23.463  27.065  1.00  0.00     0.005 A 
BRANCH   8  17
ATOM     17  O   UNL A   1      34.500  24.135  23.979  1.00  0.00    -0.497 OA
ATOM     18  C   UNL A   1      33.753  23.490  22.951  1.00  0.00     0.278 C 
ENDBRANCH   8  17
ENDBRANCH   5   7
ENDBRANCH   3   5
ENDBRANCH   2   3
ENDBRANCH   1   2
BRANCH   1  19
ATOM     19  C   UNL A   1      44.561  23.136  24.326  1.00  0.00     0.275 C 
BRANCH  19  20
ATOM     20  O   UNL A   1      43.817  24.334  24.624  1.00  0.00    -0.458 OA
BRANCH  20  21
ATOM     21  C   UNL A   1      44.551  25.357  25.119  1.00  0.00     0.338 C 
ATOM     22  O   UNL A   1      45.605  25.792  24.688  1.00  0.00    -0.246 OA
BRANCH  21  23
ATOM     23  C   UNL A   1      43.824  26.001  26.221  1.00  0.00     0.060 A 
ATOM     24  C   UNL A   1      44.144  27.326  26.529  1.00  0.00     0.016 A 
ATOM     25  C   UNL A   1      42.909  25.293  27.000  1.00  0.00     0.016 A 
ATOM     26  C   UNL A   1      43.556  27.954  27.620  1.00  0.00     0.010 A 
ATOM     27  C   UNL A   1      42.315  25.925  28.097  1.00  0.00     0.010 A 
ATOM     28  C   UNL A   1      42.643  27.255  28.417  1.00  0.00    -0.014 A 
BRANCH  28  29
ATOM     29  C   UNL A   1      42.066  27.911  29.612  1.00  0.00     0.031 A 
ATOM     30  C   UNL A   1      40.769  28.652  29.502  1.00  0.00     0.074 A 
ATOM     31  C   UNL A   1      42.697  27.814  30.796  1.00  0.00     0.049 A 
ATOM     32  N   UNL A   1      40.149  29.376  30.399  1.00  0.00    -0.248 NA
ATOM     33  C   UNL A   1      40.072  28.567  28.209  1.00  0.00     0.031 C 
ATOM     34  C   UNL A   1      43.933  27.066  31.033  1.00  0.00     0.029 A 
ATOM     35  N   UNL A   1      42.388  28.350  32.019  1.00  0.00    -0.354 N 
ATOM     36  C   UNL A   1      39.004  29.850  29.776  1.00  0.00     0.074 A 
ATOM     37  C   UNL A   1      39.016  29.340  28.420  1.00  0.00     0.031 C 
ATOM     38  C   UNL A   1      44.277  27.193  32.325  1.00  0.00     0.029 A 
ATOM     39  C   UNL A   1      43.317  28.070  32.989  1.00  0.00     0.049 A 
ATOM     40  H   UNL A   1      41.577  28.883  32.185  1.00  0.00     0.167 HD
ATOM     41  C   UNL A   1      38.033  30.639  30.292  1.00  0.00     0.037 A 
ATOM     42  C   UNL A   1      43.401  28.504  34.261  1.00  0.00     0.037 A 
ATOM     43  C   UNL A   1      38.020  31.129  31.645  1.00  0.00     0.049 A 
ATOM     44  C   UNL A   1      42.346  29.437  34.788  1.00  0.00     0.074 A 
ATOM     45  C   UNL A   1      37.078  31.929  32.268  1.00  0.00     0.029 A 
ATOM     46  N   UNL A   1      39.003  30.862  32.588  1.00  0.00    -0.354 N 
ATOM     47  N   UNL A   1      41.277  29.902  34.187  1.00  0.00    -0.248 NA
ATOM     48  C   UNL A   1      42.516  29.917  36.166  1.00  0.00     0.031 C 
ATOM     49  C   UNL A   1      37.507  32.175  33.576  1.00  0.00     0.029 A 
ATOM     50  C   UNL A   1      38.699  31.498  33.780  1.00  0.00     0.049 A 
ATOM     51  H   UNL A   1      39.798  30.304  32.432  1.00  0.00     0.167 HD
ATOM     52  C   UNL A   1      40.642  30.716  35.113  1.00  0.00     0.074 A 
ATOM     53  C   UNL A   1      41.436  30.669  36.324  1.00  0.00     0.031 C 
ATOM     54  C   UNL A   1      39.505  31.440  34.973  1.00  0.00     0.037 A 
BRANCH  41  55
ATOM     55  C   UNL A   1      36.919  31.052  29.378  1.00  0.00     0.064 A 
ATOM     56  C   UNL A   1      35.884  30.170  29.033  1.00  0.00     0.173 A 
ATOM     57  C   UNL A   1      36.870  32.356  28.866  1.00  0.00     0.173 A 
ATOM     58  F   UNL A   1      35.895  28.907  29.485  1.00  0.00    -0.203 F 
ATOM     59  C   UNL A   1      34.851  30.575  28.193  1.00  0.00     0.198 A 
ATOM     60  C   UNL A   1      35.823  32.765  28.045  1.00  0.00     0.198 A 
ATOM     61  F   UNL A   1      37.836  33.238  29.168  1.00  0.00    -0.203 F 
ATOM     62  F   UNL A   1      33.891  29.707  27.845  1.00  0.00    -0.200 F 
ATOM     63  C   UNL A   1      34.817  31.874  27.704  1.00  0.00     0.200 A 
ATOM     64  F   UNL A   1      35.790  34.022  27.579  1.00  0.00    -0.200 F 
ATOM     65  F   UNL A   1      33.820  32.263  26.899  1.00  0.00    -0.200 F 
ENDBRANCH  41  55
BRANCH  42  66
ATOM     66  C   UNL A   1      44.544  28.085  35.109  1.00  0.00     0.064 A 
ATOM     67  C   UNL A   1      44.460  26.949  35.923  1.00  0.00     0.173 A 
ATOM     68  C   UNL A   1      45.745  28.811  35.119  1.00  0.00     0.173 A 
ATOM     69  F   UNL A   1      43.323  26.239  35.967  1.00  0.00    -0.203 F 
ATOM     70  C   UNL A   1      45.531  26.558  36.724  1.00  0.00     0.198 A 
ATOM     71  C   UNL A   1      46.824  28.405  35.900  1.00  0.00     0.198 A 
ATOM     72  F   UNL A   1      45.873  29.909  34.360  1.00  0.00    -0.203 F 
ATOM     73  F   UNL A   1      45.414  25.489  37.522  1.00  0.00    -0.200 F 
ATOM     74  C   UNL A   1      46.715  27.281  36.706  1.00  0.00     0.200 A 
ATOM     75  F   UNL A   1      47.967  29.103  35.874  1.00  0.00    -0.200 F 
ATOM     76  F   UNL A   1      47.746  26.903  37.472  1.00  0.00    -0.200 F 
ENDBRANCH  42  66
BRANCH  54  77
ATOM     77  C   UNL A   1      39.046  32.225  36.164  1.00  0.00     0.064 A 
ATOM     78  C   UNL A   1      38.209  31.658  37.135  1.00  0.00     0.173 A 
ATOM     79  C   UNL A   1      39.479  33.546  36.355  1.00  0.00     0.173 A 
ATOM     80  F   UNL A   1      37.757  30.403  36.986  1.00  0.00    -0.203 F 
ATOM     81  C   UNL A   1      37.805  32.392  38.246  1.00  0.00     0.198 A 
ATOM     82  C   UNL A   1      39.091  34.270  37.479  1.00  0.00     0.198 A 
ATOM     83  F   UNL A   1      40.284  34.131  35.455  1.00  0.00    -0.203 F 
ATOM     84  F   UNL A   1      36.973  31.844  39.142  1.00  0.00    -0.200 F 
ATOM     85  C   UNL A   1      38.250  33.694  38.421  1.00  0.00     0.200 A 
ATOM     86  F   UNL A   1      39.529  35.524  37.651  1.00  0.00    -0.200 F 
ATOM     87  F   UNL A   1      37.864  34.397  39.494  1.00  0.00    -0.200 F 
ENDBRANCH  54  77
ENDBRANCH  28  29
ENDBRANCH  21  23
ENDBRANCH  20  21
ENDBRANCH  19  20
ENDBRANCH   1  19
TORSDOF 13
ENDMDL
MODEL 3
REMARK VINA RESULT:     -10.8      2.766      5.838
REMARK SMILES COc1ccc2cc([C@H](C)C(=O)OCCOC(=O)c3ccc(-c4c5nc(c(-c6c(F)c(F)c(F)c(F)c6F)c6ccc([nH]6)c(-c6c(F)c(F)c(F)c(F)c6F)c6nc(c(-c7c(F)c(F)c(F)c(F)c7F)c7ccc4[nH]7)C=C6)C=C5)cc3)ccc2c1
REMARK SMILES IDX 14 1 13 2 11 3 12 4 9 5 10 6 8 7 3 8 4 9 85 10 5 11 84 12
REMARK SMILES IDX 6 13 83 14 7 15 82 16 2 17 1 18 15 19 16 20 17 21 18 22
REMARK SMILES IDX 19 23 20 24 81 25 21 26 80 27 22 28 23 29 24 30 74 31 25 32
REMARK SMILES IDX 79 33 73 34 75 35 26 36 78 37 72 38 71 39 27 41 59 42 39 43
REMARK SMILES IDX 58 44 40 45 43 46 57 47 76 48 41 49 42 50 56 52 77 53 44 54
REMARK SMILES IDX 28 55 29 56 37 57 30 58 31 59 35 60 38 61 32 62 33 63 36 64
REMARK SMILES IDX 34 65 60 66 61 67 69 68 62 69 63 70 67 71 70 72 64 73 65 74
REMARK SMILES IDX 68 75 66 76 45 77 46 78 54 79 47 80 48 81 52 82 55 83 49 84
REMARK SMILES IDX 50 85 53 86 51 87
REMARK H PARENT 75 40 43 51
REMARK Flexibility Score: inf
ROOT
ATOM      1  C   UNL A   1      33.279  34.709  29.209  1.00  0.00     0.274 C 
ENDROOT
BRANCH   1   2
ATOM      2  O   UNL A   1      34.605  34.418  29.687  1.00  0.00    -0.462 OA
BRANCH   2   3
ATOM      3  C   UNL A   1      34.685  33.742  30.865  1.00  0.00     0.313 C 
ATOM      4  O   UNL A   1      34.403  32.556  31.003  1.00  0.00    -0.252 OA
BRANCH   3   5
ATOM      5  C   UNL A   1      35.150  34.621  32.025  1.00  0.00     0.126 C 
ATOM      6  C   UNL A   1      34.414  34.387  33.341  1.00  0.00     0.025 C 
BRANCH   5   7
ATOM      7  C   UNL A   1      36.656  34.576  32.205  1.00  0.00    -0.033 A 
ATOM      8  C   UNL A   1      41.674  34.202  31.528  1.00  0.00     0.119 A 
ATOM      9  C   UNL A   1      41.113  34.137  30.254  1.00  0.00     0.047 A 
ATOM     10  C   UNL A   1      40.850  34.323  32.647  1.00  0.00     0.055 A 
ATOM     11  C   UNL A   1      39.725  34.221  30.101  1.00  0.00     0.012 A 
ATOM     12  C   UNL A   1      39.457  34.422  32.506  1.00  0.00    -0.015 A 
ATOM     13  C   UNL A   1      38.886  34.365  31.216  1.00  0.00    -0.018 A 
ATOM     14  C   UNL A   1      38.623  34.578  33.623  1.00  0.00     0.009 A 
ATOM     15  C   UNL A   1      37.490  34.442  31.082  1.00  0.00     0.013 A 
ATOM     16  C   UNL A   1      37.239  34.665  33.473  1.00  0.00     0.005 A 
BRANCH   8  17
ATOM     17  O   UNL A   1      43.014  34.101  31.783  1.00  0.00    -0.497 OA
ATOM     18  C   UNL A   1      43.429  32.796  32.178  1.00  0.00     0.278 C 
ENDBRANCH   8  17
ENDBRANCH   5   7
ENDBRANCH   3   5
ENDBRANCH   2   3
ENDBRANCH   1   2
BRANCH   1  19
ATOM     19  C   UNL A   1      32.902  33.845  28.001  1.00  0.00     0.275 C 
BRANCH  19  20
ATOM     20  O   UNL A   1      34.052  33.209  27.410  1.00  0.00    -0.458 OA
BRANCH  20  21
ATOM     21  C   UNL A   1      34.012  31.857  27.388  1.00  0.00     0.338 C 
ATOM     22  O   UNL A   1      33.169  31.147  26.867  1.00  0.00    -0.246 OA
BRANCH  21  23
ATOM     23  C   UNL A   1      35.237  31.314  27.990  1.00  0.00     0.060 A 
ATOM     24  C   UNL A   1      35.178  30.037  28.553  1.00  0.00     0.016 A 
ATOM     25  C   UNL A   1      36.400  32.079  28.083  1.00  0.00     0.016 A 
ATOM     26  C   UNL A   1      36.280  29.513  29.218  1.00  0.00     0.010 A 
ATOM     27  C   UNL A   1      37.510  31.551  28.751  1.00  0.00     0.010 A 
ATOM     28  C   UNL A   1      37.451  30.269  29.329  1.00  0.00    -0.014 A 
BRANCH  28  29
ATOM     29  C   UNL A   1      38.600  29.728  30.089  1.00  0.00     0.031 A 
ATOM     30  C   UNL A   1      38.834  30.170  31.502  1.00  0.00     0.074 A 
ATOM     31  C   UNL A   1      39.412  28.822  29.515  1.00  0.00     0.049 A 
ATOM     32  N   UNL A   1      39.833  29.896  32.302  1.00  0.00    -0.248 NA
ATOM     33  C   UNL A   1      37.805  31.036  32.096  1.00  0.00     0.031 C 
ATOM     34  C   UNL A   1      39.244  28.273  28.170  1.00  0.00     0.029 A 
ATOM     35  N   UNL A   1      40.541  28.207  29.991  1.00  0.00    -0.354 N 
ATOM     36  C   UNL A   1      39.566  30.571  33.483  1.00  0.00     0.074 A 
ATOM     37  C   UNL A   1      38.315  31.277  33.297  1.00  0.00     0.031 C 
ATOM     38  C   UNL A   1      40.237  27.403  27.927  1.00  0.00     0.029 A 
ATOM     39  C   UNL A   1      41.135  27.373  29.078  1.00  0.00     0.049 A 
ATOM     40  H   UNL A   1      40.890  28.349  30.901  1.00  0.00     0.167 HD
ATOM     41  C   UNL A   1      40.301  30.597  34.620  1.00  0.00     0.037 A 
ATOM     42  C   UNL A   1      42.294  26.692  29.151  1.00  0.00     0.037 A 
ATOM     43  C   UNL A   1      41.536  29.881  34.803  1.00  0.00     0.049 A 
ATOM     44  C   UNL A   1      43.127  26.793  30.399  1.00  0.00     0.074 A 
ATOM     45  C   UNL A   1      42.353  29.834  35.919  1.00  0.00     0.029 A 
ATOM     46  N   UNL A   1      42.132  29.080  33.838  1.00  0.00    -0.354 N 
ATOM     47  N   UNL A   1      42.882  27.452  31.506  1.00  0.00    -0.248 NA
ATOM     48  C   UNL A   1      44.405  26.068  30.403  1.00  0.00     0.031 C 
ATOM     49  C   UNL A   1      43.461  29.035  35.618  1.00  0.00     0.029 A 
ATOM     50  C   UNL A   1      43.316  28.553  34.327  1.00  0.00     0.049 A 
ATOM     51  H   UNL A   1      41.768  28.913  32.940  1.00  0.00     0.167 HD
ATOM     52  C   UNL A   1      43.964  27.213  32.341  1.00  0.00     0.074 A 
ATOM     53  C   UNL A   1      44.861  26.333  31.619  1.00  0.00     0.031 C 
ATOM     54  C   UNL A   1      44.196  27.681  33.591  1.00  0.00     0.037 A 
BRANCH  41  55
ATOM     55  C   UNL A   1      39.807  31.456  35.744  1.00  0.00     0.064 A 
ATOM     56  C   UNL A   1      38.689  31.096  36.510  1.00  0.00     0.173 A 
ATOM     57  C   UNL A   1      40.480  32.640  36.078  1.00  0.00     0.173 A 
ATOM     58  F   UNL A   1      38.003  29.981  36.220  1.00  0.00    -0.203 F 
ATOM     59  C   UNL A   1      38.252  31.901  37.559  1.00  0.00     0.198 A 
ATOM     60  C   UNL A   1      40.055  33.431  37.141  1.00  0.00     0.198 A 
ATOM     61  F   UNL A   1      41.556  33.028  35.375  1.00  0.00    -0.203 F 
ATOM     62  F   UNL A   1      37.160  31.558  38.255  1.00  0.00    -0.200 F 
ATOM     63  C   UNL A   1      38.938  33.064  37.878  1.00  0.00     0.200 A 
ATOM     64  F   UNL A   1      40.722  34.551  37.451  1.00  0.00    -0.200 F 
ATOM     65  F   UNL A   1      38.519  33.836  38.890  1.00  0.00    -0.200 F 
ENDBRANCH  41  55
BRANCH  42  66
ATOM     66  C   UNL A   1      42.747  25.880  27.994  1.00  0.00     0.064 A 
ATOM     67  C   UNL A   1      42.327  24.554  27.834  1.00  0.00     0.173 A 
ATOM     68  C   UNL A   1      43.605  26.417  27.023  1.00  0.00     0.173 A 
ATOM     69  F   UNL A   1      41.528  23.989  28.751  1.00  0.00    -0.203 F 
ATOM     70  C   UNL A   1      42.756  23.790  26.751  1.00  0.00     0.198 A 
ATOM     71  C   UNL A   1      44.013  25.662  25.926  1.00  0.00     0.198 A 
ATOM     72  F   UNL A   1      44.038  27.682  27.134  1.00  0.00    -0.203 F 
ATOM     73  F   UNL A   1      42.371  22.512  26.640  1.00  0.00    -0.200 F 
ATOM     74  C   UNL A   1      43.592  24.347  25.794  1.00  0.00     0.200 A 
ATOM     75  F   UNL A   1      44.814  26.206  25.001  1.00  0.00    -0.200 F 
ATOM     76  F   UNL A   1      44.000  23.613  24.750  1.00  0.00    -0.200 F 
ENDBRANCH  42  66
BRANCH  54  77
ATOM     77  C   UNL A   1      45.460  27.237  34.261  1.00  0.00     0.064 A 
ATOM     78  C   UNL A   1      45.488  26.110  35.094  1.00  0.00     0.173 A 
ATOM     79  C   UNL A   1      46.663  27.925  34.039  1.00  0.00     0.173 A 
ATOM     80  F   UNL A   1      44.359  25.430  35.348  1.00  0.00    -0.203 F 
ATOM     81  C   UNL A   1      46.673  25.697  35.696  1.00  0.00     0.198 A 
ATOM     82  C   UNL A   1      47.850  27.496  34.625  1.00  0.00     0.198 A 
ATOM     83  F   UNL A   1      46.686  29.007  33.247  1.00  0.00    -0.203 F 
ATOM     84  F   UNL A   1      46.671  24.639  36.519  1.00  0.00    -0.200 F 
ATOM     85  C   UNL A   1      47.854  26.385  35.456  1.00  0.00     0.200 A 
ATOM     86  F   UNL A   1      48.990  28.156  34.385  1.00  0.00    -0.200 F 
ATOM     87  F   UNL A   1      48.994  25.983  36.034  1.00  0.00    -0.200 F 
ENDBRANCH  54  77
ENDBRANCH  28  29
ENDBRANCH  21  23
ENDBRANCH  20  21
ENDBRANCH  19  20
ENDBRANCH   1  19
TORSDOF 13
ENDMDL
