MODEL 1
REMARK VINA RESULT:     -13.2      0.000      0.000
REMARK SMILES Cc1ncc(CC(=O)N2CCC(Cc3cccc(C(=O)OCCOC(=O)c4ccc(-c5c6nc(c(-c7c(F)c(F)c(F)c(F)c7F)c7ccc([nH]7)c(-c7c(F)c(F)c(F)c(F)c7F)c7nc(c(-c8c(F)c(F)c(F)c(F)c8F)c8ccc5[nH]8)C=C7)C=C6)cc4)c3)CC2)c(=O)[nH]1
REMARK SMILES IDX 22 1 21 2 19 3 20 4 18 5 14 6 15 7 90 8 16 9 17 10 13 11
REMARK SMILES IDX 12 12 7 13 8 14 9 15 10 16 92 17 11 18 91 19 6 20 5 21 1 22
REMARK SMILES IDX 2 23 3 24 95 25 4 26 93 27 94 29 23 30 24 31 25 32 26 33
REMARK SMILES IDX 27 34 28 35 89 36 29 37 88 38 30 39 31 40 32 41 82 42 33 43
REMARK SMILES IDX 87 44 81 45 83 46 34 47 86 48 80 49 79 50 35 52 67 53 47 54
REMARK SMILES IDX 66 55 48 56 51 57 65 58 84 59 49 60 50 61 64 63 85 64 52 65
REMARK SMILES IDX 36 66 37 67 45 68 38 69 39 70 43 71 46 72 40 73 41 74 44 75
REMARK SMILES IDX 42 76 68 77 69 78 77 79 70 80 71 81 75 82 78 83 72 84 73 85
REMARK SMILES IDX 76 86 74 87 53 88 54 89 62 90 55 91 56 92 60 93 63 94 57 95
REMARK SMILES IDX 58 96 61 97 59 98
REMARK H PARENT 95 28 83 51 51 62
REMARK Flexibility Score: inf
ROOT
ATOM      1  C   UNL A   1      42.835  20.538  26.228  1.00  0.00     0.275 C 
ENDROOT
BRANCH   1   2
ATOM      2  O   UNL A   1      41.468  20.512  25.775  1.00  0.00    -0.458 OA
BRANCH   2   3
ATOM      3  C   UNL A   1      40.527  20.909  26.666  1.00  0.00     0.338 C 
ATOM      4  O   UNL A   1      40.715  21.214  27.832  1.00  0.00    -0.246 OA
BRANCH   3   5
ATOM      5  C   UNL A   1      39.202  21.033  26.004  1.00  0.00     0.060 A 
ATOM      6  C   UNL A   1      37.295  22.347  25.283  1.00  0.00    -0.047 A 
ATOM      7  C   UNL A   1      36.720  21.202  24.715  1.00  0.00     0.004 A 
ATOM      8  C   UNL A   1      38.502  22.238  25.993  1.00  0.00     0.019 A 
ATOM      9  C   UNL A   1      37.402  19.989  24.749  1.00  0.00     0.001 A 
ATOM     10  C   UNL A   1      38.663  19.920  25.341  1.00  0.00     0.016 A 
BRANCH   6  11
ATOM     11  C   UNL A   1      36.741  23.718  24.967  1.00  0.00     0.039 C 
BRANCH  11  12
ATOM     12  C   UNL A   1      35.201  23.644  24.883  1.00  0.00    -0.003 C 
ATOM     13  C   UNL A   1      31.813  25.925  24.450  1.00  0.00     0.227 C 
ATOM     14  O   UNL A   1      31.721  26.704  25.409  1.00  0.00    -0.275 OA
ATOM     15  N   UNL A   1      32.546  24.751  24.564  1.00  0.00    -0.342 N 
ATOM     16  C   UNL A   1      32.993  24.347  25.894  1.00  0.00     0.120 C 
ATOM     17  C   UNL A   1      33.146  23.963  23.488  1.00  0.00     0.120 C 
ATOM     18  C   UNL A   1      34.510  24.440  26.013  1.00  0.00     0.025 C 
ATOM     19  C   UNL A   1      34.673  24.113  23.521  1.00  0.00     0.025 C 
BRANCH  13  20
ATOM     20  C   UNL A   1      30.904  26.173  23.238  1.00  0.00     0.143 C 
BRANCH  20  21
ATOM     21  C   UNL A   1      30.440  27.557  22.951  1.00  0.00     0.045 A 
ATOM     22  C   UNL A   1      29.064  31.323  21.624  1.00  0.00     0.087 C 
ATOM     23  C   UNL A   1      29.515  29.995  22.153  1.00  0.00     0.105 A 
ATOM     24  N   UNL A   1      28.670  29.166  22.672  1.00  0.00    -0.243 NA
ATOM     25  N   UNL A   1      30.851  29.734  22.038  1.00  0.00    -0.311 N 
ATOM     26  C   UNL A   1      29.164  27.954  23.073  1.00  0.00     0.123 A 
ATOM     27  C   UNL A   1      31.401  28.549  22.433  1.00  0.00     0.254 A 
ATOM     28  H   UNL A   1      31.438  30.425  21.655  1.00  0.00     0.171 HD
ATOM     29  O   UNL A   1      32.599  28.322  22.334  1.00  0.00    -0.269 OA
ENDBRANCH  20  21
ENDBRANCH  13  20
ENDBRANCH  11  12
ENDBRANCH   6  11
ENDBRANCH   3   5
ENDBRANCH   2   3
ENDBRANCH   1   2
BRANCH   1  30
ATOM     30  C   UNL A   1      43.683  21.426  25.319  1.00  0.00     0.275 C 
BRANCH  30  31
ATOM     31  O   UNL A   1      42.939  22.604  24.953  1.00  0.00    -0.458 OA
BRANCH  31  32
ATOM     32  C   UNL A   1      43.628  23.767  24.966  1.00  0.00     0.338 C 
ATOM     33  O   UNL A   1      44.561  24.095  24.253  1.00  0.00    -0.246 OA
BRANCH  32  34
ATOM     34  C   UNL A   1      43.018  24.674  25.948  1.00  0.00     0.060 A 
ATOM     35  C   UNL A   1      43.464  25.992  25.980  1.00  0.00     0.016 A 
ATOM     36  C   UNL A   1      42.120  24.218  26.907  1.00  0.00     0.016 A 
ATOM     37  C   UNL A   1      43.063  26.855  26.992  1.00  0.00     0.010 A 
ATOM     38  C   UNL A   1      41.663  25.105  27.892  1.00  0.00     0.010 A 
ATOM     39  C   UNL A   1      42.150  26.426  27.960  1.00  0.00    -0.014 A 
BRANCH  39  40
ATOM     40  C   UNL A   1      41.768  27.341  29.071  1.00  0.00     0.031 A 
ATOM     41  C   UNL A   1      42.589  27.378  30.331  1.00  0.00     0.074 A 
ATOM     42  C   UNL A   1      40.710  28.166  28.944  1.00  0.00     0.049 A 
ATOM     43  N   UNL A   1      42.348  27.992  31.462  1.00  0.00    -0.248 NA
ATOM     44  C   UNL A   1      43.847  26.614  30.319  1.00  0.00     0.031 C 
ATOM     45  C   UNL A   1      39.859  28.276  27.759  1.00  0.00     0.029 A 
ATOM     46  N   UNL A   1      40.175  29.077  29.822  1.00  0.00    -0.354 N 
ATOM     47  C   UNL A   1      43.389  27.642  32.312  1.00  0.00     0.074 A 
ATOM     48  C   UNL A   1      44.265  26.761  31.568  1.00  0.00     0.031 C 
ATOM     49  C   UNL A   1      38.926  29.217  27.974  1.00  0.00     0.029 A 
ATOM     50  C   UNL A   1      39.062  29.721  29.337  1.00  0.00     0.049 A 
ATOM     51  H   UNL A   1      40.552  29.253  30.714  1.00  0.00     0.167 HD
ATOM     52  C   UNL A   1      43.593  28.019  33.597  1.00  0.00     0.037 A 
ATOM     53  C   UNL A   1      38.218  30.586  29.933  1.00  0.00     0.037 A 
ATOM     54  C   UNL A   1      42.754  28.943  34.316  1.00  0.00     0.049 A 
ATOM     55  C   UNL A   1      38.455  30.974  31.365  1.00  0.00     0.074 A 
ATOM     56  C   UNL A   1      42.896  29.410  35.611  1.00  0.00     0.029 A 
ATOM     57  N   UNL A   1      41.622  29.552  33.795  1.00  0.00    -0.354 N 
ATOM     58  N   UNL A   1      39.416  30.604  32.175  1.00  0.00    -0.248 NA
ATOM     59  C   UNL A   1      37.479  31.890  31.972  1.00  0.00     0.031 C 
ATOM     60  C   UNL A   1      41.827  30.270  35.888  1.00  0.00     0.029 A 
ATOM     61  C   UNL A   1      41.045  30.376  34.750  1.00  0.00     0.049 A 
ATOM     62  H   UNL A   1      41.277  29.418  32.883  1.00  0.00     0.167 HD
ATOM     63  C   UNL A   1      39.168  31.245  33.381  1.00  0.00     0.074 A 
ATOM     64  C   UNL A   1      37.978  32.049  33.190  1.00  0.00     0.031 C 
ATOM     65  C   UNL A   1      39.860  31.169  34.545  1.00  0.00     0.037 A 
BRANCH  52  66
ATOM     66  C   UNL A   1      44.751  27.401  34.328  1.00  0.00     0.064 A 
ATOM     67  C   UNL A   1      46.008  28.017  34.391  1.00  0.00     0.173 A 
ATOM     68  C   UNL A   1      44.582  26.181  35.000  1.00  0.00     0.173 A 
ATOM     69  F   UNL A   1      46.225  29.178  33.754  1.00  0.00    -0.203 F 
ATOM     70  C   UNL A   1      47.063  27.420  35.079  1.00  0.00     0.198 A 
ATOM     71  C   UNL A   1      45.630  25.601  35.710  1.00  0.00     0.198 A 
ATOM     72  F   UNL A   1      43.397  25.552  34.976  1.00  0.00    -0.203 F 
ATOM     73  F   UNL A   1      48.270  28.002  35.086  1.00  0.00    -0.200 F 
ATOM     74  C   UNL A   1      46.871  26.217  35.741  1.00  0.00     0.200 A 
ATOM     75  F   UNL A   1      45.439  24.446  36.361  1.00  0.00    -0.200 F 
ATOM     76  F   UNL A   1      47.886  25.647  36.407  1.00  0.00    -0.200 F 
ENDBRANCH  52  66
BRANCH  53  77
ATOM     77  C   UNL A   1      37.045  31.108  29.183  1.00  0.00     0.064 A 
ATOM     78  C   UNL A   1      35.942  30.290  28.904  1.00  0.00     0.173 A 
ATOM     79  C   UNL A   1      37.003  32.436  28.736  1.00  0.00     0.173 A 
ATOM     80  F   UNL A   1      35.948  29.004  29.284  1.00  0.00    -0.203 F 
ATOM     81  C   UNL A   1      34.846  30.780  28.197  1.00  0.00     0.198 A 
ATOM     82  C   UNL A   1      35.893  32.935  28.058  1.00  0.00     0.198 A 
ATOM     83  F   UNL A   1      38.035  33.260  28.975  1.00  0.00    -0.203 F 
ATOM     84  F   UNL A   1      33.821  29.966  27.905  1.00  0.00    -0.200 F 
ATOM     85  C   UNL A   1      34.818  32.103  27.783  1.00  0.00     0.200 A 
ATOM     86  F   UNL A   1      35.865  34.217  27.673  1.00  0.00    -0.200 F 
ATOM     87  F   UNL A   1      33.757  32.576  27.114  1.00  0.00    -0.200 F 
ENDBRANCH  53  77
BRANCH  65  88
ATOM     88  C   UNL A   1      39.358  31.993  35.693  1.00  0.00     0.064 A 
ATOM     89  C   UNL A   1      39.769  33.321  35.879  1.00  0.00     0.173 A 
ATOM     90  C   UNL A   1      38.434  31.456  36.604  1.00  0.00     0.173 A 
ATOM     91  F   UNL A   1      40.664  33.874  35.046  1.00  0.00    -0.203 F 
ATOM     92  C   UNL A   1      39.293  34.073  36.950  1.00  0.00     0.198 A 
ATOM     93  C   UNL A   1      37.940  32.221  37.656  1.00  0.00     0.198 A 
ATOM     94  F   UNL A   1      38.006  30.193  36.466  1.00  0.00    -0.203 F 
ATOM     95  F   UNL A   1      39.736  35.325  37.136  1.00  0.00    -0.200 F 
ATOM     96  C   UNL A   1      38.375  33.525  37.833  1.00  0.00     0.200 A 
ATOM     97  F   UNL A   1      37.044  31.693  38.502  1.00  0.00    -0.200 F 
ATOM     98  F   UNL A   1      37.916  34.253  38.861  1.00  0.00    -0.200 F 
ENDBRANCH  65  88
ENDBRANCH  39  40
ENDBRANCH  32  34
ENDBRANCH  31  32
ENDBRANCH  30  31
ENDBRANCH   1  30
TORSDOF 15
ENDMDL
MODEL 2
REMARK VINA RESULT:     -13.1      5.563      8.245
REMARK SMILES Cc1ncc(CC(=O)N2CCC(Cc3cccc(C(=O)OCCOC(=O)c4ccc(-c5c6nc(c(-c7c(F)c(F)c(F)c(F)c7F)c7ccc([nH]7)c(-c7c(F)c(F)c(F)c(F)c7F)c7nc(c(-c8c(F)c(F)c(F)c(F)c8F)c8ccc5[nH]8)C=C7)C=C6)cc4)c3)CC2)c(=O)[nH]1
REMARK SMILES IDX 22 1 21 2 19 3 20 4 18 5 14 6 15 7 90 8 16 9 17 10 13 11
REMARK SMILES IDX 12 12 7 13 8 14 9 15 10 16 92 17 11 18 91 19 6 20 5 21 1 22
REMARK SMILES IDX 2 23 3 24 95 25 4 26 93 27 94 29 23 30 24 31 25 32 26 33
REMARK SMILES IDX 27 34 28 35 89 36 29 37 88 38 30 39 31 40 32 41 82 42 33 43
REMARK SMILES IDX 87 44 81 45 83 46 34 47 86 48 80 49 79 50 35 52 67 53 47 54
REMARK SMILES IDX 66 55 48 56 51 57 65 58 84 59 49 60 50 61 64 63 85 64 52 65
REMARK SMILES IDX 36 66 37 67 45 68 38 69 39 70 43 71 46 72 40 73 41 74 44 75
REMARK SMILES IDX 42 76 68 77 69 78 77 79 70 80 71 81 75 82 78 83 72 84 73 85
REMARK SMILES IDX 76 86 74 87 53 88 54 89 62 90 55 91 56 92 60 93 63 94 57 95
REMARK SMILES IDX 58 96 61 97 59 98
REMARK H PARENT 95 28 83 51 51 62
REMARK Flexibility Score: inf
ROOT
ATOM      1  C   UNL A   1      42.659  18.904  26.775  1.00  0.00     0.275 C 
ENDROOT
BRANCH   1   2
ATOM      2  O   UNL A   1      42.138  20.177  26.347  1.00  0.00    -0.458 OA
BRANCH   2   3
ATOM      3  C   UNL A   1      40.798  20.249  26.157  1.00  0.00     0.338 C 
ATOM      4  O   UNL A   1      40.068  19.346  25.781  1.00  0.00    -0.246 OA
BRANCH   3   5
ATOM      5  C   UNL A   1      40.285  21.580  26.574  1.00  0.00     0.060 A 
ATOM      6  C   UNL A   1      38.706  23.411  26.379  1.00  0.00    -0.047 A 
ATOM      7  C   UNL A   1      39.351  24.080  27.428  1.00  0.00     0.004 A 
ATOM      8  C   UNL A   1      39.227  22.196  25.907  1.00  0.00     0.019 A 
ATOM      9  C   UNL A   1      40.427  23.482  28.079  1.00  0.00     0.001 A 
ATOM     10  C   UNL A   1      40.854  22.213  27.689  1.00  0.00     0.016 A 
BRANCH   6  11
ATOM     11  C   UNL A   1      37.352  23.878  25.892  1.00  0.00     0.039 C 
BRANCH  11  12
ATOM     12  C   UNL A   1      36.329  22.729  26.035  1.00  0.00    -0.003 C 
ATOM     13  C   UNL A   1      32.757  21.303  24.596  1.00  0.00     0.227 C 
ATOM     14  O   UNL A   1      31.863  22.126  24.837  1.00  0.00    -0.275 OA
ATOM     15  N   UNL A   1      33.918  21.280  25.359  1.00  0.00    -0.342 N 
ATOM     16  C   UNL A   1      33.950  22.075  26.583  1.00  0.00     0.120 C 
ATOM     17  C   UNL A   1      35.225  20.745  24.982  1.00  0.00     0.120 C 
ATOM     18  C   UNL A   1      34.931  23.234  26.457  1.00  0.00     0.025 C 
ATOM     19  C   UNL A   1      36.214  21.895  24.754  1.00  0.00     0.025 C 
BRANCH  13  20
ATOM     20  C   UNL A   1      32.440  20.171  23.609  1.00  0.00     0.143 C 
BRANCH  20  21
ATOM     21  C   UNL A   1      32.458  18.763  24.090  1.00  0.00     0.045 A 
ATOM     22  C   UNL A   1      33.051  14.805  25.441  1.00  0.00     0.087 C 
ATOM     23  C   UNL A   1      32.788  16.216  25.006  1.00  0.00     0.105 A 
ATOM     24  N   UNL A   1      32.599  17.153  25.876  1.00  0.00    -0.243 NA
ATOM     25  N   UNL A   1      32.775  16.428  23.657  1.00  0.00    -0.311 N 
ATOM     26  C   UNL A   1      32.426  18.420  25.388  1.00  0.00     0.123 A 
ATOM     27  C   UNL A   1      32.593  17.666  23.113  1.00  0.00     0.254 A 
ATOM     28  H   UNL A   1      32.901  15.659  23.055  1.00  0.00     0.171 HD
ATOM     29  O   UNL A   1      32.575  17.851  21.904  1.00  0.00    -0.269 OA
ENDBRANCH  20  21
ENDBRANCH  13  20
ENDBRANCH  11  12
ENDBRANCH   6  11
ENDBRANCH   3   5
ENDBRANCH   2   3
ENDBRANCH   1   2
BRANCH   1  30
ATOM     30  C   UNL A   1      43.414  18.224  25.634  1.00  0.00     0.275 C 
BRANCH  30  31
ATOM     31  O   UNL A   1      44.660  18.906  25.397  1.00  0.00    -0.458 OA
BRANCH  31  32
ATOM     32  C   UNL A   1      44.745  19.599  24.240  1.00  0.00     0.338 C 
ATOM     33  O   UNL A   1      44.520  19.204  23.109  1.00  0.00    -0.246 OA
BRANCH  32  34
ATOM     34  C   UNL A   1      45.081  20.997  24.543  1.00  0.00     0.060 A 
ATOM     35  C   UNL A   1      45.645  21.276  25.785  1.00  0.00     0.016 A 
ATOM     36  C   UNL A   1      44.735  22.036  23.686  1.00  0.00     0.016 A 
ATOM     37  C   UNL A   1      45.823  22.587  26.208  1.00  0.00     0.010 A 
ATOM     38  C   UNL A   1      44.974  23.360  24.082  1.00  0.00     0.010 A 
ATOM     39  C   UNL A   1      45.496  23.649  25.359  1.00  0.00    -0.014 A 
BRANCH  39  40
ATOM     40  C   UNL A   1      45.641  25.051  25.841  1.00  0.00     0.031 A 
ATOM     41  C   UNL A   1      46.968  25.750  25.729  1.00  0.00     0.074 A 
ATOM     42  C   UNL A   1      44.582  25.714  26.344  1.00  0.00     0.049 A 
ATOM     43  N   UNL A   1      47.341  26.908  26.215  1.00  0.00    -0.248 NA
ATOM     44  C   UNL A   1      48.021  25.048  24.978  1.00  0.00     0.031 C 
ATOM     45  C   UNL A   1      43.225  25.180  26.461  1.00  0.00     0.029 A 
ATOM     46  N   UNL A   1      44.480  26.989  26.848  1.00  0.00    -0.354 N 
ATOM     47  C   UNL A   1      48.682  27.045  25.880  1.00  0.00     0.074 A 
ATOM     48  C   UNL A   1      49.059  25.853  25.151  1.00  0.00     0.031 C 
ATOM     49  C   UNL A   1      42.423  26.125  26.976  1.00  0.00     0.029 A 
ATOM     50  C   UNL A   1      43.221  27.303  27.300  1.00  0.00     0.049 A 
ATOM     51  H   UNL A   1      45.236  27.618  26.881  1.00  0.00     0.167 HD
ATOM     52  C   UNL A   1      49.521  28.072  26.159  1.00  0.00     0.037 A 
ATOM     53  C   UNL A   1      42.766  28.397  27.942  1.00  0.00     0.037 A 
ATOM     54  C   UNL A   1      49.128  29.283  26.833  1.00  0.00     0.049 A 
ATOM     55  C   UNL A   1      43.721  29.514  28.257  1.00  0.00     0.074 A 
ATOM     56  C   UNL A   1      49.899  30.392  27.134  1.00  0.00     0.029 A 
ATOM     57  N   UNL A   1      47.848  29.549  27.297  1.00  0.00    -0.354 N 
ATOM     58  N   UNL A   1      44.997  29.616  27.976  1.00  0.00    -0.248 NA
ATOM     59  C   UNL A   1      43.176  30.662  28.994  1.00  0.00     0.031 C 
ATOM     60  C   UNL A   1      49.097  31.313  27.818  1.00  0.00     0.029 A 
ATOM     61  C   UNL A   1      47.813  30.798  27.899  1.00  0.00     0.049 A 
ATOM     62  H   UNL A   1      47.079  28.942  27.213  1.00  0.00     0.167 HD
ATOM     63  C   UNL A   1      45.405  30.838  28.492  1.00  0.00     0.074 A 
ATOM     64  C   UNL A   1      44.235  31.455  29.082  1.00  0.00     0.031 C 
ATOM     65  C   UNL A   1      46.641  31.397  28.483  1.00  0.00     0.037 A 
BRANCH  52  66
ATOM     66  C   UNL A   1      50.963  27.914  25.773  1.00  0.00     0.064 A 
ATOM     67  C   UNL A   1      51.429  28.218  24.486  1.00  0.00     0.173 A 
ATOM     68  C   UNL A   1      51.899  27.479  26.724  1.00  0.00     0.173 A 
ATOM     69  F   UNL A   1      50.573  28.625  23.536  1.00  0.00    -0.203 F 
ATOM     70  C   UNL A   1      52.774  28.064  24.157  1.00  0.00     0.198 A 
ATOM     71  C   UNL A   1      53.247  27.353  26.400  1.00  0.00     0.198 A 
ATOM     72  F   UNL A   1      51.508  27.181  27.972  1.00  0.00    -0.203 F 
ATOM     73  F   UNL A   1      53.189  28.312  22.907  1.00  0.00    -0.200 F 
ATOM     74  C   UNL A   1      53.682  27.638  25.115  1.00  0.00     0.200 A 
ATOM     75  F   UNL A   1      54.125  26.956  27.331  1.00  0.00    -0.200 F 
ATOM     76  F   UNL A   1      54.977  27.497  24.799  1.00  0.00    -0.200 F 
ENDBRANCH  52  66
BRANCH  53  77
ATOM     77  C   UNL A   1      41.344  28.464  28.368  1.00  0.00     0.064 A 
ATOM     78  C   UNL A   1      40.358  28.989  27.521  1.00  0.00     0.173 A 
ATOM     79  C   UNL A   1      40.941  28.000  29.629  1.00  0.00     0.173 A 
ATOM     80  F   UNL A   1      40.698  29.472  26.317  1.00  0.00    -0.203 F 
ATOM     81  C   UNL A   1      39.026  29.055  27.924  1.00  0.00     0.198 A 
ATOM     82  C   UNL A   1      39.605  28.037  30.018  1.00  0.00     0.198 A 
ATOM     83  F   UNL A   1      41.846  27.491  30.479  1.00  0.00    -0.203 F 
ATOM     84  F   UNL A   1      38.109  29.600  27.112  1.00  0.00    -0.200 F 
ATOM     85  C   UNL A   1      38.649  28.571  29.168  1.00  0.00     0.200 A 
ATOM     86  F   UNL A   1      39.244  27.555  31.214  1.00  0.00    -0.200 F 
ATOM     87  F   UNL A   1      37.365  28.625  29.549  1.00  0.00    -0.200 F 
ENDBRANCH  53  77
BRANCH  65  88
ATOM     88  C   UNL A   1      46.783  32.751  29.112  1.00  0.00     0.064 A 
ATOM     89  C   UNL A   1      46.608  33.929  28.370  1.00  0.00     0.173 A 
ATOM     90  C   UNL A   1      47.071  32.873  30.481  1.00  0.00     0.173 A 
ATOM     91  F   UNL A   1      46.348  33.865  27.056  1.00  0.00    -0.203 F 
ATOM     92  C   UNL A   1      46.742  35.178  28.969  1.00  0.00     0.198 A 
ATOM     93  C   UNL A   1      47.176  34.124  31.081  1.00  0.00     0.198 A 
ATOM     94  F   UNL A   1      47.241  31.777  31.236  1.00  0.00    -0.203 F 
ATOM     95  F   UNL A   1      46.618  36.290  28.230  1.00  0.00    -0.200 F 
ATOM     96  C   UNL A   1      47.019  35.275  30.324  1.00  0.00     0.200 A 
ATOM     97  F   UNL A   1      47.433  34.215  32.394  1.00  0.00    -0.200 F 
ATOM     98  F   UNL A   1      47.144  36.479  30.900  1.00  0.00    -0.200 F 
ENDBRANCH  65  88
ENDBRANCH  39  40
ENDBRANCH  32  34
ENDBRANCH  31  32
ENDBRANCH  30  31
ENDBRANCH   1  30
TORSDOF 15
ENDMDL
MODEL 3
REMARK VINA RESULT:     -12.9      5.674      9.955
REMARK SMILES Cc1ncc(CC(=O)N2CCC(Cc3cccc(C(=O)OCCOC(=O)c4ccc(-c5c6nc(c(-c7c(F)c(F)c(F)c(F)c7F)c7ccc([nH]7)c(-c7c(F)c(F)c(F)c(F)c7F)c7nc(c(-c8c(F)c(F)c(F)c(F)c8F)c8ccc5[nH]8)C=C7)C=C6)cc4)c3)CC2)c(=O)[nH]1
REMARK SMILES IDX 22 1 21 2 19 3 20 4 18 5 14 6 15 7 90 8 16 9 17 10 13 11
REMARK SMILES IDX 12 12 7 13 8 14 9 15 10 16 92 17 11 18 91 19 6 20 5 21 1 22
REMARK SMILES IDX 2 23 3 24 95 25 4 26 93 27 94 29 23 30 24 31 25 32 26 33
REMARK SMILES IDX 27 34 28 35 89 36 29 37 88 38 30 39 31 40 32 41 82 42 33 43
REMARK SMILES IDX 87 44 81 45 83 46 34 47 86 48 80 49 79 50 35 52 67 53 47 54
REMARK SMILES IDX 66 55 48 56 51 57 65 58 84 59 49 60 50 61 64 63 85 64 52 65
REMARK SMILES IDX 36 66 37 67 45 68 38 69 39 70 43 71 46 72 40 73 41 74 44 75
REMARK SMILES IDX 42 76 68 77 69 78 77 79 70 80 71 81 75 82 78 83 72 84 73 85
REMARK SMILES IDX 76 86 74 87 53 88 54 89 62 90 55 91 56 92 60 93 63 94 57 95
REMARK SMILES IDX 58 96 61 97 59 98
REMARK H PARENT 95 28 83 51 51 62
REMARK Flexibility Score: inf
ROOT
ATOM      1  C   UNL A   1      42.856  18.493  26.784  1.00  0.00     0.275 C 
ENDROOT
BRANCH   1   2
ATOM      2  O   UNL A   1      42.287  19.812  26.900  1.00  0.00    -0.458 OA
BRANCH   2   3
ATOM      3  C   UNL A   1      41.047  19.983  26.381  1.00  0.00     0.338 C 
ATOM      4  O   UNL A   1      40.385  19.146  25.790  1.00  0.00    -0.246 OA
BRANCH   3   5
ATOM      5  C   UNL A   1      40.524  21.333  26.718  1.00  0.00     0.060 A 
ATOM      6  C   UNL A   1      38.995  23.179  26.348  1.00  0.00    -0.047 A 
ATOM      7  C   UNL A   1      39.567  23.870  27.425  1.00  0.00     0.004 A 
ATOM      8  C   UNL A   1      39.532  21.943  25.953  1.00  0.00     0.019 A 
ATOM      9  C   UNL A   1      40.579  23.277  28.174  1.00  0.00     0.001 A 
ATOM     10  C   UNL A   1      41.015  21.991  27.856  1.00  0.00     0.016 A 
BRANCH   6  11
ATOM     11  C   UNL A   1      37.691  23.650  25.744  1.00  0.00     0.039 C 
BRANCH  11  12
ATOM     12  C   UNL A   1      36.613  22.559  25.931  1.00  0.00    -0.003 C 
ATOM     13  C   UNL A   1      32.912  21.332  24.642  1.00  0.00     0.227 C 
ATOM     14  O   UNL A   1      32.075  22.202  24.917  1.00  0.00    -0.275 OA
ATOM     15  N   UNL A   1      34.100  21.245  25.357  1.00  0.00    -0.342 N 
ATOM     16  C   UNL A   1      34.226  22.038  26.577  1.00  0.00     0.120 C 
ATOM     17  C   UNL A   1      35.360  20.638  24.929  1.00  0.00     0.120 C 
ATOM     18  C   UNL A   1      35.263  23.141  26.408  1.00  0.00     0.025 C 
ATOM     19  C   UNL A   1      36.400  21.732  24.657  1.00  0.00     0.025 C 
BRANCH  13  20
ATOM     20  C   UNL A   1      32.493  20.218  23.671  1.00  0.00     0.143 C 
BRANCH  20  21
ATOM     21  C   UNL A   1      32.507  18.806  24.139  1.00  0.00     0.045 A 
ATOM     22  C   UNL A   1      33.086  14.831  25.446  1.00  0.00     0.087 C 
ATOM     23  C   UNL A   1      32.828  16.248  25.027  1.00  0.00     0.105 A 
ATOM     24  N   UNL A   1      32.655  17.178  25.908  1.00  0.00    -0.243 NA
ATOM     25  N   UNL A   1      32.803  16.473  23.680  1.00  0.00    -0.311 N 
ATOM     26  C   UNL A   1      32.486  18.450  25.433  1.00  0.00     0.123 A 
ATOM     27  C   UNL A   1      32.624  17.718  23.151  1.00  0.00     0.254 A 
ATOM     28  H   UNL A   1      32.918  15.709  23.070  1.00  0.00     0.171 HD
ATOM     29  O   UNL A   1      32.595  17.914  21.943  1.00  0.00    -0.269 OA
ENDBRANCH  20  21
ENDBRANCH  13  20
ENDBRANCH  11  12
ENDBRANCH   6  11
ENDBRANCH   3   5
ENDBRANCH   2   3
ENDBRANCH   1   2
BRANCH   1  30
ATOM     30  C   UNL A   1      43.424  18.278  25.382  1.00  0.00     0.275 C 
BRANCH  30  31
ATOM     31  O   UNL A   1      44.656  19.009  25.236  1.00  0.00    -0.458 OA
BRANCH  31  32
ATOM     32  C   UNL A   1      44.672  19.955  24.271  1.00  0.00     0.338 C 
ATOM     33  O   UNL A   1      44.550  19.803  23.067  1.00  0.00    -0.246 OA
BRANCH  32  34
ATOM     34  C   UNL A   1      44.775  21.279  24.900  1.00  0.00     0.060 A 
ATOM     35  C   UNL A   1      44.483  22.394  24.120  1.00  0.00     0.016 A 
ATOM     36  C   UNL A   1      45.270  21.440  26.190  1.00  0.00     0.016 A 
ATOM     37  C   UNL A   1      44.727  23.677  24.593  1.00  0.00     0.010 A 
ATOM     38  C   UNL A   1      45.456  22.735  26.694  1.00  0.00     0.010 A 
ATOM     39  C   UNL A   1      45.211  23.867  25.891  1.00  0.00    -0.014 A 
BRANCH  39  40
ATOM     40  C   UNL A   1      45.520  25.243  26.369  1.00  0.00     0.031 A 
ATOM     41  C   UNL A   1      44.445  26.073  27.015  1.00  0.00     0.074 A 
ATOM     42  C   UNL A   1      46.768  25.740  26.262  1.00  0.00     0.049 A 
ATOM     43  N   UNL A   1      44.467  27.334  27.367  1.00  0.00    -0.248 NA
ATOM     44  C   UNL A   1      43.169  25.395  27.294  1.00  0.00     0.031 C 
ATOM     45  C   UNL A   1      47.920  25.028  25.709  1.00  0.00     0.029 A 
ATOM     46  N   UNL A   1      47.278  26.965  26.623  1.00  0.00    -0.354 N 
ATOM     47  C   UNL A   1      43.196  27.614  27.853  1.00  0.00     0.074 A 
ATOM     48  C   UNL A   1      42.426  26.393  27.750  1.00  0.00     0.031 C 
ATOM     49  C   UNL A   1      49.004  25.816  25.789  1.00  0.00     0.029 A 
ATOM     50  C   UNL A   1      48.611  27.114  26.324  1.00  0.00     0.049 A 
ATOM     51  H   UNL A   1      46.740  27.668  27.053  1.00  0.00     0.167 HD
ATOM     52  C   UNL A   1      42.717  28.785  28.337  1.00  0.00     0.037 A 
ATOM     53  C   UNL A   1      49.418  28.188  26.429  1.00  0.00     0.037 A 
ATOM     54  C   UNL A   1      43.502  29.982  28.494  1.00  0.00     0.049 A 
ATOM     55  C   UNL A   1      48.858  29.481  26.952  1.00  0.00     0.074 A 
ATOM     56  C   UNL A   1      43.114  31.209  29.004  1.00  0.00     0.029 A 
ATOM     57  N   UNL A   1      44.842  30.098  28.156  1.00  0.00    -0.354 N 
ATOM     58  N   UNL A   1      47.644  29.750  27.367  1.00  0.00    -0.248 NA
ATOM     59  C   UNL A   1      49.777  30.627  27.005  1.00  0.00     0.031 C 
ATOM     60  C   UNL A   1      44.207  32.080  28.936  1.00  0.00     0.029 A 
ATOM     61  C   UNL A   1      45.291  31.382  28.429  1.00  0.00     0.049 A 
ATOM     62  H   UNL A   1      45.394  29.377  27.778  1.00  0.00     0.167 HD
ATOM     63  C   UNL A   1      47.654  31.087  27.737  1.00  0.00     0.074 A 
ATOM     64  C   UNL A   1      49.002  31.570  27.522  1.00  0.00     0.031 C 
ATOM     65  C   UNL A   1      46.635  31.849  28.208  1.00  0.00     0.037 A 
BRANCH  52  66
ATOM     66  C   UNL A   1      41.260  28.844  28.696  1.00  0.00     0.064 A 
ATOM     67  C   UNL A   1      40.267  29.120  27.746  1.00  0.00     0.173 A 
ATOM     68  C   UNL A   1      40.854  28.588  30.015  1.00  0.00     0.173 A 
ATOM     69  F   UNL A   1      40.603  29.385  26.475  1.00  0.00    -0.203 F 
ATOM     70  C   UNL A   1      38.922  29.165  28.109  1.00  0.00     0.198 A 
ATOM     71  C   UNL A   1      39.508  28.606  30.369  1.00  0.00     0.198 A 
ATOM     72  F   UNL A   1      41.763  28.313  30.962  1.00  0.00    -0.203 F 
ATOM     73  F   UNL A   1      37.993  29.479  27.196  1.00  0.00    -0.200 F 
ATOM     74  C   UNL A   1      38.544  28.903  29.417  1.00  0.00     0.200 A 
ATOM     75  F   UNL A   1      39.143  28.338  31.630  1.00  0.00    -0.200 F 
ATOM     76  F   UNL A   1      37.250  28.941  29.764  1.00  0.00    -0.200 F 
ENDBRANCH  52  66
BRANCH  53  77
ATOM     77  C   UNL A   1      50.834  28.092  25.987  1.00  0.00     0.064 A 
ATOM     78  C   UNL A   1      51.176  28.161  24.630  1.00  0.00     0.173 A 
ATOM     79  C   UNL A   1      51.875  27.934  26.915  1.00  0.00     0.173 A 
ATOM     80  F   UNL A   1      50.215  28.282  23.703  1.00  0.00    -0.203 F 
ATOM     81  C   UNL A   1      52.504  28.067  24.218  1.00  0.00     0.198 A 
ATOM     82  C   UNL A   1      53.204  27.872  26.505  1.00  0.00     0.198 A 
ATOM     83  F   UNL A   1      51.601  27.859  28.226  1.00  0.00    -0.203 F 
ATOM     84  F   UNL A   1      52.801  28.093  22.911  1.00  0.00    -0.200 F 
ATOM     85  C   UNL A   1      53.517  27.932  25.155  1.00  0.00     0.200 A 
ATOM     86  F   UNL A   1      54.179  27.755  27.414  1.00  0.00    -0.200 F 
ATOM     87  F   UNL A   1      54.794  27.852  24.758  1.00  0.00    -0.200 F 
ENDBRANCH  53  77
BRANCH  65  88
ATOM     88  C   UNL A   1      46.947  33.277  28.541  1.00  0.00     0.064 A 
ATOM     89  C   UNL A   1      46.782  34.304  27.600  1.00  0.00     0.173 A 
ATOM     90  C   UNL A   1      47.391  33.627  29.826  1.00  0.00     0.173 A 
ATOM     91  F   UNL A   1      46.377  34.018  26.353  1.00  0.00    -0.203 F 
ATOM     92  C   UNL A   1      47.075  35.626  27.925  1.00  0.00     0.198 A 
ATOM     93  C   UNL A   1      47.655  34.954  30.154  1.00  0.00     0.198 A 
ATOM     94  F   UNL A   1      47.559  32.683  30.764  1.00  0.00    -0.203 F 
ATOM     95  F   UNL A   1      46.956  36.585  26.995  1.00  0.00    -0.200 F 
ATOM     96  C   UNL A   1      47.504  35.950  29.202  1.00  0.00     0.200 A 
ATOM     97  F   UNL A   1      48.060  35.267  31.394  1.00  0.00    -0.200 F 
ATOM     98  F   UNL A   1      47.782  37.224  29.514  1.00  0.00    -0.200 F 
ENDBRANCH  65  88
ENDBRANCH  39  40
ENDBRANCH  32  34
ENDBRANCH  31  32
ENDBRANCH  30  31
ENDBRANCH   1  30
TORSDOF 15
ENDMDL
