MODEL 1
REMARK VINA RESULT:     -13.5      0.000      0.000
REMARK SMILES Cc1ccc(Nc2c(Cl)cc(Cl)cc2Cl)c(CC(=O)OCCOC(=O)c2ccc(-c3c4nc(c(-c5c(F)c(F)c(F)c(F)c5F)c5ccc([nH]5)c(-c5c(F)c(F)c(F)c(F)c5F)c5nc(c(-c6c(F)c(F)c(F)c(F)c6F)c6ccc3[nH]6)C=C5)C=C4)cc2)c1
REMARK SMILES IDX 21 1 20 2 18 3 19 4 17 5 16 6 1 7 2 8 3 9 89 10 4 11 5 12
REMARK SMILES IDX 6 13 7 15 8 16 14 17 9 18 10 19 13 20 15 21 11 22 12 23
REMARK SMILES IDX 22 24 23 25 24 26 25 27 26 28 27 29 88 30 28 31 87 32 29 33
REMARK SMILES IDX 30 34 31 35 81 36 32 37 86 38 80 39 82 40 33 41 85 42 79 43
REMARK SMILES IDX 78 44 34 46 66 47 46 48 65 49 47 50 50 51 64 52 83 53 48 54
REMARK SMILES IDX 49 55 63 57 84 58 51 59 35 60 36 61 44 62 37 63 38 64 42 65
REMARK SMILES IDX 45 66 39 67 40 68 43 69 41 70 67 71 68 72 76 73 69 74 70 75
REMARK SMILES IDX 74 76 77 77 71 78 72 79 75 80 73 81 52 82 53 83 61 84 54 85
REMARK SMILES IDX 55 86 59 87 62 88 56 89 57 90 60 91 58 92
REMARK H PARENT 6 14 82 45 50 56
REMARK Flexibility Score: inf
ROOT
ATOM      1  C   UNL A   1      33.715  28.833  25.991  1.00  0.00     0.274 C 
ENDROOT
BRANCH   1   2
ATOM      2  O   UNL A   1      32.511  28.172  26.352  1.00  0.00    -0.462 OA
BRANCH   2   3
ATOM      3  C   UNL A   1      32.508  26.810  26.342  1.00  0.00     0.310 C 
ATOM      4  O   UNL A   1      31.605  26.101  26.717  1.00  0.00    -0.252 OA
BRANCH   3   5
ATOM      5  C   UNL A   1      33.833  26.328  25.783  1.00  0.00     0.160 C 
BRANCH   5   6
ATOM      6  C   UNL A   1      33.678  24.903  25.325  1.00  0.00    -0.013 A 
ATOM      7  C   UNL A   1      34.470  21.574  26.980  1.00  0.00     0.044 C 
ATOM      8  C   UNL A   1      34.076  22.586  25.949  1.00  0.00    -0.051 A 
ATOM      9  C   UNL A   1      33.899  22.222  24.615  1.00  0.00     0.005 A 
ATOM     10  C   UNL A   1      33.945  23.924  26.299  1.00  0.00     0.009 A 
ATOM     11  C   UNL A   1      33.593  23.185  23.646  1.00  0.00     0.026 A 
ATOM     12  C   UNL A   1      33.483  24.540  23.972  1.00  0.00     0.042 A 
BRANCH  12  13
ATOM     13  N   UNL A   1      33.268  25.495  22.959  1.00  0.00    -0.353 N 
ATOM     14  H   UNL A   1      33.924  25.480  22.225  1.00  0.00     0.167 HD
BRANCH  13  15
ATOM     15  C   UNL A   1      32.250  26.475  22.837  1.00  0.00     0.076 A 
ATOM     16  C   UNL A   1      30.901  26.163  23.089  1.00  0.00     0.067 A 
ATOM     17  C   UNL A   1      32.573  27.839  22.682  1.00  0.00     0.067 A 
ATOM     18  Cl  UNL A   1      30.377  24.528  23.311  1.00  0.00    -0.082 Cl
ATOM     19  C   UNL A   1      29.927  27.163  23.169  1.00  0.00     0.043 A 
ATOM     20  C   UNL A   1      31.618  28.847  22.838  1.00  0.00     0.043 A 
ATOM     21  Cl  UNL A   1      34.125  28.340  22.126  1.00  0.00    -0.082 Cl
ATOM     22  C   UNL A   1      30.296  28.500  23.072  1.00  0.00     0.044 A 
ATOM     23  Cl  UNL A   1      29.106  29.733  23.206  1.00  0.00    -0.084 Cl
ENDBRANCH  13  15
ENDBRANCH  12  13
ENDBRANCH   5   6
ENDBRANCH   3   5
ENDBRANCH   2   3
ENDBRANCH   1   2
BRANCH   1  24
ATOM     24  C   UNL A   1      33.996  29.969  26.988  1.00  0.00     0.275 C 
BRANCH  24  25
ATOM     25  O   UNL A   1      35.081  29.784  27.976  1.00  0.00    -0.458 OA
BRANCH  25  26
ATOM     26  C   UNL A   1      36.223  30.502  28.176  1.00  0.00     0.338 C 
ATOM     27  O   UNL A   1      36.245  31.725  28.164  1.00  0.00    -0.246 OA
BRANCH  26  28
ATOM     28  C   UNL A   1      37.438  29.740  28.506  1.00  0.00     0.060 A 
ATOM     29  C   UNL A   1      37.499  28.860  29.601  1.00  0.00     0.016 A 
ATOM     30  C   UNL A   1      38.452  29.776  27.576  1.00  0.00     0.016 A 
ATOM     31  C   UNL A   1      38.520  27.912  29.652  1.00  0.00     0.010 A 
ATOM     32  C   UNL A   1      39.228  28.666  27.450  1.00  0.00     0.010 A 
ATOM     33  C   UNL A   1      39.355  27.801  28.540  1.00  0.00    -0.014 A 
BRANCH  33  34
ATOM     34  C   UNL A   1      40.622  27.094  28.502  1.00  0.00     0.031 A 
ATOM     35  C   UNL A   1      40.730  25.663  28.215  1.00  0.00     0.074 A 
ATOM     36  C   UNL A   1      41.680  27.927  28.649  1.00  0.00     0.049 A 
ATOM     37  N   UNL A   1      41.555  24.881  28.821  1.00  0.00    -0.248 NA
ATOM     38  C   UNL A   1      39.920  24.980  27.209  1.00  0.00     0.031 C 
ATOM     39  C   UNL A   1      43.101  27.719  28.477  1.00  0.00     0.029 A 
ATOM     40  N   UNL A   1      41.594  29.261  29.104  1.00  0.00    -0.354 N 
ATOM     41  C   UNL A   1      41.635  23.737  28.057  1.00  0.00     0.074 A 
ATOM     42  C   UNL A   1      40.488  23.766  27.183  1.00  0.00     0.031 C 
ATOM     43  C   UNL A   1      43.750  28.711  29.126  1.00  0.00     0.029 A 
ATOM     44  C   UNL A   1      42.755  29.530  29.816  1.00  0.00     0.049 A 
ATOM     45  H   UNL A   1      40.849  29.885  28.945  1.00  0.00     0.167 HD
ATOM     46  C   UNL A   1      42.794  23.018  28.048  1.00  0.00     0.037 A 
ATOM     47  C   UNL A   1      42.622  29.730  31.158  1.00  0.00     0.037 A 
ATOM     48  C   UNL A   1      43.819  23.718  28.817  1.00  0.00     0.049 A 
ATOM     49  C   UNL A   1      43.249  28.591  31.912  1.00  0.00     0.074 A 
ATOM     50  C   UNL A   1      44.813  24.595  28.410  1.00  0.00     0.029 A 
ATOM     51  N   UNL A   1      43.654  23.921  30.184  1.00  0.00    -0.354 N 
ATOM     52  N   UNL A   1      43.391  27.391  31.423  1.00  0.00    -0.248 NA
ATOM     53  C   UNL A   1      43.810  28.731  33.249  1.00  0.00     0.031 C 
ATOM     54  C   UNL A   1      45.206  25.369  29.527  1.00  0.00     0.029 A 
ATOM     55  C   UNL A   1      44.457  24.962  30.616  1.00  0.00     0.049 A 
ATOM     56  H   UNL A   1      43.052  23.398  30.761  1.00  0.00     0.167 HD
ATOM     57  C   UNL A   1      44.107  26.629  32.302  1.00  0.00     0.074 A 
ATOM     58  C   UNL A   1      44.329  27.506  33.438  1.00  0.00     0.031 C 
ATOM     59  C   UNL A   1      44.489  25.350  32.015  1.00  0.00     0.037 A 
BRANCH  46  60
ATOM     60  C   UNL A   1      43.087  21.923  27.053  1.00  0.00     0.064 A 
ATOM     61  C   UNL A   1      42.403  20.688  27.089  1.00  0.00     0.173 A 
ATOM     62  C   UNL A   1      44.040  22.047  26.023  1.00  0.00     0.173 A 
ATOM     63  F   UNL A   1      41.432  20.448  27.979  1.00  0.00    -0.203 F 
ATOM     64  C   UNL A   1      42.694  19.639  26.216  1.00  0.00     0.198 A 
ATOM     65  C   UNL A   1      44.351  20.984  25.163  1.00  0.00     0.198 A 
ATOM     66  F   UNL A   1      44.677  23.208  25.816  1.00  0.00    -0.203 F 
ATOM     67  F   UNL A   1      42.014  18.487  26.312  1.00  0.00    -0.200 F 
ATOM     68  C   UNL A   1      43.681  19.779  25.264  1.00  0.00     0.200 A 
ATOM     69  F   UNL A   1      45.306  21.134  24.235  1.00  0.00    -0.200 F 
ATOM     70  F   UNL A   1      43.975  18.763  24.440  1.00  0.00    -0.200 F 
ENDBRANCH  46  60
BRANCH  47  71
ATOM     71  C   UNL A   1      41.360  30.455  31.540  1.00  0.00     0.064 A 
ATOM     72  C   UNL A   1      41.114  31.720  30.958  1.00  0.00     0.173 A 
ATOM     73  C   UNL A   1      40.278  29.845  32.189  1.00  0.00     0.173 A 
ATOM     74  F   UNL A   1      42.102  32.363  30.312  1.00  0.00    -0.203 F 
ATOM     75  C   UNL A   1      39.842  32.295  30.937  1.00  0.00     0.198 A 
ATOM     76  C   UNL A   1      39.005  30.436  32.187  1.00  0.00     0.198 A 
ATOM     77  F   UNL A   1      40.418  28.642  32.761  1.00  0.00    -0.203 F 
ATOM     78  F   UNL A   1      39.634  33.441  30.274  1.00  0.00    -0.200 F 
ATOM     79  C   UNL A   1      38.782  31.643  31.539  1.00  0.00     0.200 A 
ATOM     80  F   UNL A   1      37.970  29.799  32.758  1.00  0.00    -0.200 F 
ATOM     81  F   UNL A   1      37.547  32.157  31.460  1.00  0.00    -0.200 F 
ENDBRANCH  47  71
BRANCH  59  82
ATOM     82  C   UNL A   1      45.054  24.370  33.003  1.00  0.00     0.064 A 
ATOM     83  C   UNL A   1      44.379  23.210  33.408  1.00  0.00     0.173 A 
ATOM     84  C   UNL A   1      46.394  24.494  33.446  1.00  0.00     0.173 A 
ATOM     85  F   UNL A   1      43.153  22.921  32.954  1.00  0.00    -0.203 F 
ATOM     86  C   UNL A   1      44.975  22.276  34.254  1.00  0.00     0.198 A 
ATOM     87  C   UNL A   1      47.008  23.521  34.228  1.00  0.00     0.198 A 
ATOM     88  F   UNL A   1      47.157  25.544  33.110  1.00  0.00    -0.203 F 
ATOM     89  F   UNL A   1      44.271  21.211  34.660  1.00  0.00    -0.200 F 
ATOM     90  C   UNL A   1      46.292  22.422  34.650  1.00  0.00     0.200 A 
ATOM     91  F   UNL A   1      48.303  23.648  34.548  1.00  0.00    -0.200 F 
ATOM     92  F   UNL A   1      46.875  21.495  35.418  1.00  0.00    -0.200 F 
ENDBRANCH  59  82
ENDBRANCH  33  34
ENDBRANCH  26  28
ENDBRANCH  25  26
ENDBRANCH  24  25
ENDBRANCH   1  24
TORSDOF 14
ENDMDL
MODEL 2
REMARK VINA RESULT:     -13.5      0.606      1.582
REMARK SMILES Cc1ccc(Nc2c(Cl)cc(Cl)cc2Cl)c(CC(=O)OCCOC(=O)c2ccc(-c3c4nc(c(-c5c(F)c(F)c(F)c(F)c5F)c5ccc([nH]5)c(-c5c(F)c(F)c(F)c(F)c5F)c5nc(c(-c6c(F)c(F)c(F)c(F)c6F)c6ccc3[nH]6)C=C5)C=C4)cc2)c1
REMARK SMILES IDX 21 1 20 2 18 3 19 4 17 5 16 6 1 7 2 8 3 9 89 10 4 11 5 12
REMARK SMILES IDX 6 13 7 15 8 16 14 17 9 18 10 19 13 20 15 21 11 22 12 23
REMARK SMILES IDX 22 24 23 25 24 26 25 27 26 28 27 29 88 30 28 31 87 32 29 33
REMARK SMILES IDX 30 34 31 35 81 36 32 37 86 38 80 39 82 40 33 41 85 42 79 43
REMARK SMILES IDX 78 44 34 46 66 47 46 48 65 49 47 50 50 51 64 52 83 53 48 54
REMARK SMILES IDX 49 55 63 57 84 58 51 59 35 60 36 61 44 62 37 63 38 64 42 65
REMARK SMILES IDX 45 66 39 67 40 68 43 69 41 70 67 71 68 72 76 73 69 74 70 75
REMARK SMILES IDX 74 76 77 77 71 78 72 79 75 80 73 81 52 82 53 83 61 84 54 85
REMARK SMILES IDX 55 86 59 87 62 88 56 89 57 90 60 91 58 92
REMARK H PARENT 6 14 82 45 50 56
REMARK Flexibility Score: inf
ROOT
ATOM      1  C   UNL A   1      33.277  29.045  26.401  1.00  0.00     0.274 C 
ENDROOT
BRANCH   1   2
ATOM      2  O   UNL A   1      32.945  27.868  27.123  1.00  0.00    -0.462 OA
BRANCH   2   3
ATOM      3  C   UNL A   1      32.848  26.702  26.424  1.00  0.00     0.310 C 
ATOM      4  O   UNL A   1      31.919  25.931  26.458  1.00  0.00    -0.252 OA
BRANCH   3   5
ATOM      5  C   UNL A   1      34.107  26.529  25.596  1.00  0.00     0.160 C 
BRANCH   5   6
ATOM      6  C   UNL A   1      34.084  25.168  24.955  1.00  0.00    -0.013 A 
ATOM      7  C   UNL A   1      35.629  21.839  25.944  1.00  0.00     0.044 C 
ATOM      8  C   UNL A   1      34.919  22.891  25.151  1.00  0.00    -0.051 A 
ATOM      9  C   UNL A   1      34.567  22.674  23.819  1.00  0.00     0.005 A 
ATOM     10  C   UNL A   1      34.657  24.133  25.717  1.00  0.00     0.009 A 
ATOM     11  C   UNL A   1      33.960  23.686  23.066  1.00  0.00     0.026 A 
ATOM     12  C   UNL A   1      33.712  24.951  23.607  1.00  0.00     0.042 A 
BRANCH  12  13
ATOM     13  N   UNL A   1      33.188  25.976  22.796  1.00  0.00    -0.353 N 
ATOM     14  H   UNL A   1      33.653  26.110  21.939  1.00  0.00     0.167 HD
BRANCH  13  15
ATOM     15  C   UNL A   1      32.091  26.845  23.028  1.00  0.00     0.076 A 
ATOM     16  C   UNL A   1      32.230  28.242  22.919  1.00  0.00     0.067 A 
ATOM     17  C   UNL A   1      30.781  26.340  23.151  1.00  0.00     0.067 A 
ATOM     18  Cl  UNL A   1      33.783  28.987  22.750  1.00  0.00    -0.082 Cl
ATOM     19  C   UNL A   1      31.115  29.086  22.945  1.00  0.00     0.043 A 
ATOM     20  C   UNL A   1      29.660  27.172  23.099  1.00  0.00     0.043 A 
ATOM     21  Cl  UNL A   1      30.485  24.688  23.541  1.00  0.00    -0.082 Cl
ATOM     22  C   UNL A   1      29.836  28.544  23.005  1.00  0.00     0.044 A 
ATOM     23  Cl  UNL A   1      28.462  29.578  23.001  1.00  0.00    -0.084 Cl
ENDBRANCH  13  15
ENDBRANCH  12  13
ENDBRANCH   5   6
ENDBRANCH   3   5
ENDBRANCH   2   3
ENDBRANCH   1   2
BRANCH   1  24
ATOM     24  C   UNL A   1      33.856  30.093  27.365  1.00  0.00     0.275 C 
BRANCH  24  25
ATOM     25  O   UNL A   1      35.119  29.778  28.069  1.00  0.00    -0.458 OA
BRANCH  25  26
ATOM     26  C   UNL A   1      36.276  30.494  28.166  1.00  0.00     0.338 C 
ATOM     27  O   UNL A   1      36.308  31.712  28.063  1.00  0.00    -0.246 OA
BRANCH  26  28
ATOM     28  C   UNL A   1      37.496  29.744  28.502  1.00  0.00     0.060 A 
ATOM     29  C   UNL A   1      37.581  28.915  29.636  1.00  0.00     0.016 A 
ATOM     30  C   UNL A   1      38.487  29.731  27.547  1.00  0.00     0.016 A 
ATOM     31  C   UNL A   1      38.601  27.966  29.705  1.00  0.00     0.010 A 
ATOM     32  C   UNL A   1      39.256  28.614  27.454  1.00  0.00     0.010 A 
ATOM     33  C   UNL A   1      39.407  27.801  28.579  1.00  0.00    -0.014 A 
BRANCH  33  34
ATOM     34  C   UNL A   1      40.671  27.087  28.544  1.00  0.00     0.031 A 
ATOM     35  C   UNL A   1      40.774  25.659  28.239  1.00  0.00     0.074 A 
ATOM     36  C   UNL A   1      41.732  27.913  28.710  1.00  0.00     0.049 A 
ATOM     37  N   UNL A   1      41.590  24.866  28.842  1.00  0.00    -0.248 NA
ATOM     38  C   UNL A   1      39.969  24.994  27.218  1.00  0.00     0.031 C 
ATOM     39  C   UNL A   1      43.153  27.699  28.548  1.00  0.00     0.029 A 
ATOM     40  N   UNL A   1      41.649  29.241  29.181  1.00  0.00    -0.354 N 
ATOM     41  C   UNL A   1      41.670  23.730  28.065  1.00  0.00     0.074 A 
ATOM     42  C   UNL A   1      40.531  23.777  27.181  1.00  0.00     0.031 C 
ATOM     43  C   UNL A   1      43.802  28.679  29.214  1.00  0.00     0.029 A 
ATOM     44  C   UNL A   1      42.805  29.495  29.906  1.00  0.00     0.049 A 
ATOM     45  H   UNL A   1      40.909  29.871  29.024  1.00  0.00     0.167 HD
ATOM     46  C   UNL A   1      42.826  23.006  28.056  1.00  0.00     0.037 A 
ATOM     47  C   UNL A   1      42.661  29.678  31.249  1.00  0.00     0.037 A 
ATOM     48  C   UNL A   1      43.848  23.690  28.843  1.00  0.00     0.049 A 
ATOM     49  C   UNL A   1      43.276  28.527  31.995  1.00  0.00     0.074 A 
ATOM     50  C   UNL A   1      44.849  24.567  28.455  1.00  0.00     0.029 A 
ATOM     51  N   UNL A   1      43.672  23.877  30.211  1.00  0.00    -0.354 N 
ATOM     52  N   UNL A   1      43.416  27.332  31.492  1.00  0.00    -0.248 NA
ATOM     53  C   UNL A   1      43.826  28.647  33.338  1.00  0.00     0.031 C 
ATOM     54  C   UNL A   1      45.237  25.325  29.586  1.00  0.00     0.029 A 
ATOM     55  C   UNL A   1      44.476  24.908  30.663  1.00  0.00     0.049 A 
ATOM     56  H   UNL A   1      43.062  23.350  30.776  1.00  0.00     0.167 HD
ATOM     57  C   UNL A   1      44.120  26.555  32.367  1.00  0.00     0.074 A 
ATOM     58  C   UNL A   1      44.337  27.417  33.516  1.00  0.00     0.031 C 
ATOM     59  C   UNL A   1      44.498  25.278  32.067  1.00  0.00     0.037 A 
BRANCH  46  60
ATOM     60  C   UNL A   1      43.121  21.921  27.050  1.00  0.00     0.064 A 
ATOM     61  C   UNL A   1      42.463  20.673  27.093  1.00  0.00     0.173 A 
ATOM     62  C   UNL A   1      44.051  22.070  26.003  1.00  0.00     0.173 A 
ATOM     63  F   UNL A   1      41.514  20.409  27.999  1.00  0.00    -0.203 F 
ATOM     64  C   UNL A   1      42.758  19.634  26.209  1.00  0.00     0.198 A 
ATOM     65  C   UNL A   1      44.367  21.018  25.132  1.00  0.00     0.198 A 
ATOM     66  F   UNL A   1      44.661  23.245  25.790  1.00  0.00    -0.203 F 
ATOM     67  F   UNL A   1      42.104  18.469  26.311  1.00  0.00    -0.200 F 
ATOM     68  C   UNL A   1      43.724  19.799  25.238  1.00  0.00     0.200 A 
ATOM     69  F   UNL A   1      45.301  21.192  24.186  1.00  0.00    -0.200 F 
ATOM     70  F   UNL A   1      44.022  18.794  24.404  1.00  0.00    -0.200 F 
ENDBRANCH  46  60
BRANCH  47  71
ATOM     71  C   UNL A   1      41.400  30.406  31.630  1.00  0.00     0.064 A 
ATOM     72  C   UNL A   1      40.370  29.673  32.263  1.00  0.00     0.173 A 
ATOM     73  C   UNL A   1      41.292  31.802  31.675  1.00  0.00     0.173 A 
ATOM     74  F   UNL A   1      40.410  28.329  32.267  1.00  0.00    -0.203 F 
ATOM     75  C   UNL A   1      39.350  30.295  32.985  1.00  0.00     0.198 A 
ATOM     76  C   UNL A   1      40.251  32.426  32.381  1.00  0.00     0.198 A 
ATOM     77  F   UNL A   1      42.226  32.577  31.108  1.00  0.00    -0.203 F 
ATOM     78  F   UNL A   1      38.462  29.555  33.664  1.00  0.00    -0.200 F 
ATOM     79  C   UNL A   1      39.300  31.675  33.057  1.00  0.00     0.200 A 
ATOM     80  F   UNL A   1      40.208  33.765  32.465  1.00  0.00    -0.200 F 
ATOM     81  F   UNL A   1      38.364  32.273  33.806  1.00  0.00    -0.200 F 
ENDBRANCH  47  71
BRANCH  59  82
ATOM     82  C   UNL A   1      45.050  24.282  33.047  1.00  0.00     0.064 A 
ATOM     83  C   UNL A   1      44.361  23.128  33.441  1.00  0.00     0.173 A 
ATOM     84  C   UNL A   1      46.390  24.387  33.494  1.00  0.00     0.173 A 
ATOM     85  F   UNL A   1      43.132  22.856  32.981  1.00  0.00    -0.203 F 
ATOM     86  C   UNL A   1      44.944  22.179  34.279  1.00  0.00     0.198 A 
ATOM     87  C   UNL A   1      46.991  23.401  34.268  1.00  0.00     0.198 A 
ATOM     88  F   UNL A   1      47.166  25.431  33.169  1.00  0.00    -0.203 F 
ATOM     89  F   UNL A   1      44.227  21.119  34.674  1.00  0.00    -0.200 F 
ATOM     90  C   UNL A   1      46.261  22.306  34.679  1.00  0.00     0.200 A 
ATOM     91  F   UNL A   1      48.287  23.510  34.592  1.00  0.00    -0.200 F 
ATOM     92  F   UNL A   1      46.832  21.365  35.440  1.00  0.00    -0.200 F 
ENDBRANCH  59  82
ENDBRANCH  33  34
ENDBRANCH  26  28
ENDBRANCH  25  26
ENDBRANCH  24  25
ENDBRANCH   1  24
TORSDOF 14
ENDMDL
MODEL 3
REMARK VINA RESULT:     -13.4      1.409      3.230
REMARK SMILES Cc1ccc(Nc2c(Cl)cc(Cl)cc2Cl)c(CC(=O)OCCOC(=O)c2ccc(-c3c4nc(c(-c5c(F)c(F)c(F)c(F)c5F)c5ccc([nH]5)c(-c5c(F)c(F)c(F)c(F)c5F)c5nc(c(-c6c(F)c(F)c(F)c(F)c6F)c6ccc3[nH]6)C=C5)C=C4)cc2)c1
REMARK SMILES IDX 21 1 20 2 18 3 19 4 17 5 16 6 1 7 2 8 3 9 89 10 4 11 5 12
REMARK SMILES IDX 6 13 7 15 8 16 14 17 9 18 10 19 13 20 15 21 11 22 12 23
REMARK SMILES IDX 22 24 23 25 24 26 25 27 26 28 27 29 88 30 28 31 87 32 29 33
REMARK SMILES IDX 30 34 31 35 81 36 32 37 86 38 80 39 82 40 33 41 85 42 79 43
REMARK SMILES IDX 78 44 34 46 66 47 46 48 65 49 47 50 50 51 64 52 83 53 48 54
REMARK SMILES IDX 49 55 63 57 84 58 51 59 35 60 36 61 44 62 37 63 38 64 42 65
REMARK SMILES IDX 45 66 39 67 40 68 43 69 41 70 67 71 68 72 76 73 69 74 70 75
REMARK SMILES IDX 74 76 77 77 71 78 72 79 75 80 73 81 52 82 53 83 61 84 54 85
REMARK SMILES IDX 55 86 59 87 62 88 56 89 57 90 60 91 58 92
REMARK H PARENT 6 14 82 45 50 56
REMARK Flexibility Score: inf
ROOT
ATOM      1  C   UNL A   1      33.158  30.516  26.787  1.00  0.00     0.274 C 
ENDROOT
BRANCH   1   2
ATOM      2  O   UNL A   1      31.876  29.952  27.016  1.00  0.00    -0.462 OA
BRANCH   2   3
ATOM      3  C   UNL A   1      31.777  28.593  27.049  1.00  0.00     0.310 C 
ATOM      4  O   UNL A   1      31.303  27.940  27.947  1.00  0.00    -0.252 OA
BRANCH   3   5
ATOM      5  C   UNL A   1      32.366  28.035  25.768  1.00  0.00     0.160 C 
BRANCH   5   6
ATOM      6  C   UNL A   1      31.248  27.511  24.908  1.00  0.00    -0.013 A 
ATOM      7  C   UNL A   1      28.752  29.233  22.616  1.00  0.00     0.044 C 
ATOM      8  C   UNL A   1      29.446  28.173  23.413  1.00  0.00    -0.051 A 
ATOM      9  C   UNL A   1      28.888  26.905  23.566  1.00  0.00     0.005 A 
ATOM     10  C   UNL A   1      30.636  28.462  24.071  1.00  0.00     0.009 A 
ATOM     11  C   UNL A   1      29.512  25.940  24.364  1.00  0.00     0.026 A 
ATOM     12  C   UNL A   1      30.694  26.218  25.056  1.00  0.00     0.042 A 
BRANCH  12  13
ATOM     13  N   UNL A   1      31.246  25.258  25.927  1.00  0.00    -0.353 N 
ATOM     14  H   UNL A   1      31.262  25.516  26.877  1.00  0.00     0.167 HD
BRANCH  13  15
ATOM     15  C   UNL A   1      31.783  23.976  25.641  1.00  0.00     0.076 A 
ATOM     16  C   UNL A   1      31.107  22.801  26.020  1.00  0.00     0.067 A 
ATOM     17  C   UNL A   1      32.887  23.829  24.777  1.00  0.00     0.067 A 
ATOM     18  Cl  UNL A   1      29.728  22.846  27.065  1.00  0.00    -0.082 Cl
ATOM     19  C   UNL A   1      31.524  21.546  25.566  1.00  0.00     0.043 A 
ATOM     20  C   UNL A   1      33.260  22.587  24.259  1.00  0.00     0.043 A 
ATOM     21  Cl  UNL A   1      33.947  25.145  24.439  1.00  0.00    -0.082 Cl
ATOM     22  C   UNL A   1      32.580  21.449  24.666  1.00  0.00     0.044 A 
ATOM     23  Cl  UNL A   1      33.072  19.910  24.079  1.00  0.00    -0.084 Cl
ENDBRANCH  13  15
ENDBRANCH  12  13
ENDBRANCH   5   6
ENDBRANCH   3   5
ENDBRANCH   2   3
ENDBRANCH   1   2
BRANCH   1  24
ATOM     24  C   UNL A   1      33.986  30.452  28.081  1.00  0.00     0.275 C 
BRANCH  24  25
ATOM     25  O   UNL A   1      35.394  30.008  27.993  1.00  0.00    -0.458 OA
BRANCH  25  26
ATOM     26  C   UNL A   1      36.550  30.687  28.245  1.00  0.00     0.338 C 
ATOM     27  O   UNL A   1      36.601  31.908  28.293  1.00  0.00    -0.246 OA
BRANCH  26  28
ATOM     28  C   UNL A   1      37.741  29.881  28.556  1.00  0.00     0.060 A 
ATOM     29  C   UNL A   1      37.770  28.965  29.624  1.00  0.00     0.016 A 
ATOM     30  C   UNL A   1      38.761  29.917  27.633  1.00  0.00     0.016 A 
ATOM     31  C   UNL A   1      38.764  27.987  29.649  1.00  0.00     0.010 A 
ATOM     32  C   UNL A   1      39.506  28.790  27.476  1.00  0.00     0.010 A 
ATOM     33  C   UNL A   1      39.601  27.888  28.538  1.00  0.00    -0.014 A 
BRANCH  33  34
ATOM     34  C   UNL A   1      40.848  27.146  28.484  1.00  0.00     0.031 A 
ATOM     35  C   UNL A   1      40.914  25.715  28.184  1.00  0.00     0.074 A 
ATOM     36  C   UNL A   1      41.930  27.949  28.629  1.00  0.00     0.049 A 
ATOM     37  N   UNL A   1      41.722  24.906  28.776  1.00  0.00    -0.248 NA
ATOM     38  C   UNL A   1      40.078  25.064  27.179  1.00  0.00     0.031 C 
ATOM     39  C   UNL A   1      43.343  27.703  28.444  1.00  0.00     0.029 A 
ATOM     40  N   UNL A   1      41.885  29.280  29.095  1.00  0.00    -0.354 N 
ATOM     41  C   UNL A   1      41.764  23.766  28.003  1.00  0.00     0.074 A 
ATOM     42  C   UNL A   1      40.611  23.835  27.138  1.00  0.00     0.031 C 
ATOM     43  C   UNL A   1      44.024  28.671  29.095  1.00  0.00     0.029 A 
ATOM     44  C   UNL A   1      43.059  29.511  29.800  1.00  0.00     0.049 A 
ATOM     45  H   UNL A   1      41.156  29.925  28.949  1.00  0.00     0.167 HD
ATOM     46  C   UNL A   1      42.903  23.016  27.978  1.00  0.00     0.037 A 
ATOM     47  C   UNL A   1      42.941  29.703  31.145  1.00  0.00     0.037 A 
ATOM     48  C   UNL A   1      43.953  23.681  28.745  1.00  0.00     0.049 A 
ATOM     49  C   UNL A   1      43.543  28.541  31.885  1.00  0.00     0.074 A 
ATOM     50  C   UNL A   1      44.967  24.533  28.336  1.00  0.00     0.029 A 
ATOM     51  N   UNL A   1      43.805  23.876  30.114  1.00  0.00    -0.354 N 
ATOM     52  N   UNL A   1      43.647  27.341  31.384  1.00  0.00    -0.248 NA
ATOM     53  C   UNL A   1      44.118  28.654  33.218  1.00  0.00     0.031 C 
ATOM     54  C   UNL A   1      45.391  25.286  29.457  1.00  0.00     0.029 A 
ATOM     55  C   UNL A   1      44.639  24.891  30.548  1.00  0.00     0.049 A 
ATOM     56  H   UNL A   1      43.193  23.365  30.692  1.00  0.00     0.167 HD
ATOM     57  C   UNL A   1      44.349  26.552  32.251  1.00  0.00     0.074 A 
ATOM     58  C   UNL A   1      44.605  27.413  33.393  1.00  0.00     0.031 C 
ATOM     59  C   UNL A   1      44.693  25.266  31.950  1.00  0.00     0.037 A 
BRANCH  46  60
ATOM     60  C   UNL A   1      43.157  21.921  26.971  1.00  0.00     0.064 A 
ATOM     61  C   UNL A   1      42.461  20.693  27.022  1.00  0.00     0.173 A 
ATOM     62  C   UNL A   1      44.083  22.039  25.917  1.00  0.00     0.173 A 
ATOM     63  F   UNL A   1      41.512  20.460  27.936  1.00  0.00    -0.203 F 
ATOM     64  C   UNL A   1      42.718  19.645  26.137  1.00  0.00     0.198 A 
ATOM     65  C   UNL A   1      44.359  20.977  25.045  1.00  0.00     0.198 A 
ATOM     66  F   UNL A   1      44.726  23.195  25.697  1.00  0.00    -0.203 F 
ATOM     67  F   UNL A   1      42.029  18.500  26.247  1.00  0.00    -0.200 F 
ATOM     68  C   UNL A   1      43.681  19.778  25.159  1.00  0.00     0.200 A 
ATOM     69  F   UNL A   1      45.290  21.121  24.092  1.00  0.00    -0.200 F 
ATOM     70  F   UNL A   1      43.941  18.763  24.324  1.00  0.00    -0.200 F 
ENDBRANCH  46  60
BRANCH  47  71
ATOM     71  C   UNL A   1      41.703  30.460  31.543  1.00  0.00     0.064 A 
ATOM     72  C   UNL A   1      40.660  29.748  32.178  1.00  0.00     0.173 A 
ATOM     73  C   UNL A   1      41.633  31.858  31.604  1.00  0.00     0.173 A 
ATOM     74  F   UNL A   1      40.664  28.404  32.168  1.00  0.00    -0.203 F 
ATOM     75  C   UNL A   1      39.662  30.390  32.915  1.00  0.00     0.198 A 
ATOM     76  C   UNL A   1      40.615  32.502  32.325  1.00  0.00     0.198 A 
ATOM     77  F   UNL A   1      42.583  32.613  31.036  1.00  0.00    -0.203 F 
ATOM     78  F   UNL A   1      38.760  29.667  33.594  1.00  0.00    -0.200 F 
ATOM     79  C   UNL A   1      39.650  31.769  33.001  1.00  0.00     0.200 A 
ATOM     80  F   UNL A   1      40.609  33.841  32.423  1.00  0.00    -0.200 F 
ATOM     81  F   UNL A   1      38.736  32.385  33.764  1.00  0.00    -0.200 F 
ENDBRANCH  47  71
BRANCH  59  82
ATOM     82  C   UNL A   1      45.239  24.262  32.925  1.00  0.00     0.064 A 
ATOM     83  C   UNL A   1      46.499  24.380  33.527  1.00  0.00     0.173 A 
ATOM     84  C   UNL A   1      44.414  23.219  33.415  1.00  0.00     0.173 A 
ATOM     85  F   UNL A   1      47.319  25.400  33.237  1.00  0.00    -0.203 F 
ATOM     86  C   UNL A   1      46.932  23.480  34.499  1.00  0.00     0.198 A 
ATOM     87  C   UNL A   1      44.822  22.371  34.438  1.00  0.00     0.198 A 
ATOM     88  F   UNL A   1      43.177  23.013  32.940  1.00  0.00    -0.203 F 
ATOM     89  F   UNL A   1      48.166  23.599  35.005  1.00  0.00    -0.200 F 
ATOM     90  C   UNL A   1      46.090  22.487  34.965  1.00  0.00     0.200 A 
ATOM     91  F   UNL A   1      43.970  21.456  34.921  1.00  0.00    -0.200 F 
ATOM     92  F   UNL A   1      46.492  21.659  35.936  1.00  0.00    -0.200 F 
ENDBRANCH  59  82
ENDBRANCH  33  34
ENDBRANCH  26  28
ENDBRANCH  25  26
ENDBRANCH  24  25
ENDBRANCH   1  24
TORSDOF 14
ENDMDL
