MODEL 1
REMARK VINA RESULT:     -11.1      0.000      0.000
REMARK SMILES C[C@H]1C[NH2+]C[C@@H](CC(=O)OCCOC(=O)c2ccc(-c3c4nc(c(-c5c(F)c(F)c(F)c(F)c5F)c5ccc([nH]5)c(-c5c(F)c(F)c(F)c(F)c5F)c5nc(c(-c6c(F)c(F)c(F)c(F)c6F)c6ccc3[nH]6)C=C5)C=C4)cc2)C1
REMARK SMILES IDX 12 1 11 2 10 3 8 4 9 5 7 6 6 7 1 8 2 9 3 10 79 11 4 12 5 13
REMARK SMILES IDX 13 16 14 17 15 18 16 19 17 20 78 21 18 22 77 23 19 24 20 25
REMARK SMILES IDX 21 26 71 27 22 28 76 29 70 30 72 31 23 32 75 33 69 34 68 35
REMARK SMILES IDX 24 37 56 38 36 39 55 40 37 41 40 42 54 43 73 44 38 45 39 46
REMARK SMILES IDX 53 48 74 49 41 50 25 51 26 52 34 53 27 54 28 55 32 56 35 57
REMARK SMILES IDX 29 58 30 59 33 60 31 61 57 62 58 63 66 64 59 65 60 66 64 67
REMARK SMILES IDX 67 68 61 69 62 70 65 71 63 72 42 73 43 74 51 75 44 76 45 77
REMARK SMILES IDX 49 78 52 79 46 80 47 81 50 82 48 83
REMARK H PARENT 4 14 4 15 72 36 40 47
REMARK Flexibility Score: inf
ROOT
ATOM      1  C   UNL A   1      31.779  30.047  25.915  1.00  0.00     0.275 C 
ENDROOT
BRANCH   1   2
ATOM      2  C   UNL A   1      31.599  28.592  26.353  1.00  0.00     0.274 C 
BRANCH   2   3
ATOM      3  O   UNL A   1      31.987  27.679  25.310  1.00  0.00    -0.462 OA
BRANCH   3   4
ATOM      4  C   UNL A   1      31.048  26.802  24.879  1.00  0.00     0.306 C 
ATOM      5  O   UNL A   1      30.268  26.197  25.603  1.00  0.00    -0.252 OA
BRANCH   4   6
ATOM      6  C   UNL A   1      31.108  26.587  23.382  1.00  0.00     0.132 C 
BRANCH   6   7
ATOM      7  C   UNL A   1      30.430  27.665  22.517  1.00  0.00     0.056 C 
ATOM      8  C   UNL A   1      27.293  29.874  23.155  1.00  0.00     0.013 C 
ATOM      9  C   UNL A   1      28.535  29.372  22.422  1.00  0.00     0.041 C 
ATOM     10  C   UNL A   1      29.601  30.466  22.333  1.00  0.00     0.263 C 
ATOM     11  C   UNL A   1      29.096  28.131  23.126  1.00  0.00     0.019 C 
ATOM     12  N   UNL A   1      30.791  29.982  21.632  1.00  0.00    -0.346 N 
ATOM     13  C   UNL A   1      31.392  28.857  22.350  1.00  0.00     0.264 C 
ATOM     14  H   UNL A   1      31.472  30.738  21.565  1.00  0.00     0.346 HD
ATOM     15  H   UNL A   1      30.518  29.667  20.701  1.00  0.00     0.346 HD
ENDBRANCH   6   7
ENDBRANCH   4   6
ENDBRANCH   3   4
ENDBRANCH   2   3
ENDBRANCH   1   2
BRANCH   1  16
ATOM     16  O   UNL A   1      33.151  30.462  26.044  1.00  0.00    -0.458 OA
BRANCH  16  17
ATOM     17  C   UNL A   1      33.389  31.408  26.982  1.00  0.00     0.338 C 
ATOM     18  O   UNL A   1      32.663  32.330  27.309  1.00  0.00    -0.246 OA
BRANCH  17  19
ATOM     19  C   UNL A   1      34.648  31.093  27.675  1.00  0.00     0.060 A 
ATOM     20  C   UNL A   1      34.884  29.769  28.057  1.00  0.00     0.016 A 
ATOM     21  C   UNL A   1      35.557  32.101  28.000  1.00  0.00     0.016 A 
ATOM     22  C   UNL A   1      36.040  29.443  28.761  1.00  0.00     0.010 A 
ATOM     23  C   UNL A   1      36.715  31.774  28.712  1.00  0.00     0.010 A 
ATOM     24  C   UNL A   1      36.959  30.445  29.102  1.00  0.00    -0.014 A 
BRANCH  24  25
ATOM     25  C   UNL A   1      38.155  30.109  29.910  1.00  0.00     0.031 A 
ATOM     26  C   UNL A   1      39.193  29.179  29.351  1.00  0.00     0.074 A 
ATOM     27  C   UNL A   1      38.312  30.643  31.134  1.00  0.00     0.049 A 
ATOM     28  N   UNL A   1      40.261  28.687  29.926  1.00  0.00    -0.248 NA
ATOM     29  C   UNL A   1      39.002  28.745  27.959  1.00  0.00     0.031 C 
ATOM     30  C   UNL A   1      37.390  31.587  31.767  1.00  0.00     0.029 A 
ATOM     31  N   UNL A   1      39.300  30.459  32.069  1.00  0.00    -0.354 N 
ATOM     32  C   UNL A   1      40.867  27.884  28.971  1.00  0.00     0.074 A 
ATOM     33  C   UNL A   1      40.036  27.933  27.786  1.00  0.00     0.031 C 
ATOM     34  C   UNL A   1      37.850  31.889  32.992  1.00  0.00     0.029 A 
ATOM     35  C   UNL A   1      39.075  31.133  33.244  1.00  0.00     0.049 A 
ATOM     36  H   UNL A   1      40.093  29.898  31.913  1.00  0.00     0.167 HD
ATOM     37  C   UNL A   1      42.017  27.176  29.073  1.00  0.00     0.037 A 
ATOM     38  C   UNL A   1      39.765  31.117  34.401  1.00  0.00     0.037 A 
ATOM     39  C   UNL A   1      42.841  27.128  30.252  1.00  0.00     0.049 A 
ATOM     40  C   UNL A   1      41.009  30.275  34.506  1.00  0.00     0.074 A 
ATOM     41  C   UNL A   1      44.015  26.423  30.459  1.00  0.00     0.029 A 
ATOM     42  N   UNL A   1      42.577  27.819  31.425  1.00  0.00    -0.354 N 
ATOM     43  N   UNL A   1      41.568  29.509  33.601  1.00  0.00    -0.248 NA
ATOM     44  C   UNL A   1      41.717  30.296  35.794  1.00  0.00     0.031 C 
ATOM     45  C   UNL A   1      44.444  26.665  31.769  1.00  0.00     0.029 A 
ATOM     46  C   UNL A   1      43.561  27.551  32.363  1.00  0.00     0.049 A 
ATOM     47  H   UNL A   1      41.805  28.412  31.571  1.00  0.00     0.167 HD
ATOM     48  C   UNL A   1      42.701  28.975  34.201  1.00  0.00     0.074 A 
ATOM     49  C   UNL A   1      42.760  29.518  35.541  1.00  0.00     0.031 C 
ATOM     50  C   UNL A   1      43.609  28.110  33.689  1.00  0.00     0.037 A 
BRANCH  37  51
ATOM     51  C   UNL A   1      42.449  26.381  27.878  1.00  0.00     0.064 A 
ATOM     52  C   UNL A   1      43.357  26.900  26.943  1.00  0.00     0.173 A 
ATOM     53  C   UNL A   1      41.991  25.068  27.692  1.00  0.00     0.173 A 
ATOM     54  F   UNL A   1      43.813  28.155  27.071  1.00  0.00    -0.203 F 
ATOM     55  C   UNL A   1      43.781  26.138  25.858  1.00  0.00     0.198 A 
ATOM     56  C   UNL A   1      42.434  24.301  26.617  1.00  0.00     0.198 A 
ATOM     57  F   UNL A   1      41.124  24.525  28.560  1.00  0.00    -0.203 F 
ATOM     58  F   UNL A   1      44.623  26.664  24.959  1.00  0.00    -0.200 F 
ATOM     59  C   UNL A   1      43.324  24.837  25.700  1.00  0.00     0.200 A 
ATOM     60  F   UNL A   1      42.001  23.041  26.472  1.00  0.00    -0.200 F 
ATOM     61  F   UNL A   1      43.740  24.102  24.660  1.00  0.00    -0.200 F 
ENDBRANCH  37  51
BRANCH  38  62
ATOM     62  C   UNL A   1      39.279  31.901  35.565  1.00  0.00     0.064 A 
ATOM     63  C   UNL A   1      38.403  31.339  36.503  1.00  0.00     0.173 A 
ATOM     64  C   UNL A   1      39.660  33.239  35.746  1.00  0.00     0.173 A 
ATOM     65  F   UNL A   1      37.989  30.071  36.357  1.00  0.00    -0.203 F 
ATOM     66  C   UNL A   1      37.911  32.091  37.568  1.00  0.00     0.198 A 
ATOM     67  C   UNL A   1      39.188  33.982  36.826  1.00  0.00     0.198 A 
ATOM     68  F   UNL A   1      40.492  33.825  34.873  1.00  0.00    -0.203 F 
ATOM     69  F   UNL A   1      37.034  31.545  38.422  1.00  0.00    -0.200 F 
ATOM     70  C   UNL A   1      38.307  33.410  37.731  1.00  0.00     0.200 A 
ATOM     71  F   UNL A   1      39.581  35.253  36.985  1.00  0.00    -0.200 F 
ATOM     72  F   UNL A   1      37.831  34.133  38.754  1.00  0.00    -0.200 F 
ENDBRANCH  38  62
BRANCH  50  73
ATOM     73  C   UNL A   1      44.760  27.724  34.568  1.00  0.00     0.064 A 
ATOM     74  C   UNL A   1      44.702  26.596  35.398  1.00  0.00     0.173 A 
ATOM     75  C   UNL A   1      45.947  28.471  34.551  1.00  0.00     0.173 A 
ATOM     76  F   UNL A   1      43.582  25.860  35.460  1.00  0.00    -0.203 F 
ATOM     77  C   UNL A   1      45.785  26.241  36.199  1.00  0.00     0.198 A 
ATOM     78  C   UNL A   1      47.037  28.099  35.334  1.00  0.00     0.198 A 
ATOM     79  F   UNL A   1      46.054  29.555  33.769  1.00  0.00    -0.203 F 
ATOM     80  F   UNL A   1      45.695  25.183  37.017  1.00  0.00    -0.200 F 
ATOM     81  C   UNL A   1      46.953  26.989  36.160  1.00  0.00     0.200 A 
ATOM     82  F   UNL A   1      48.169  28.817  35.289  1.00  0.00    -0.200 F 
ATOM     83  F   UNL A   1      47.997  26.644  36.928  1.00  0.00    -0.200 F 
ENDBRANCH  50  73
ENDBRANCH  24  25
ENDBRANCH  17  19
ENDBRANCH  16  17
ENDBRANCH   1  16
TORSDOF 12
ENDMDL
MODEL 2
REMARK VINA RESULT:     -11.1      4.670      9.182
REMARK SMILES C[C@H]1C[NH2+]C[C@@H](CC(=O)OCCOC(=O)c2ccc(-c3c4nc(c(-c5c(F)c(F)c(F)c(F)c5F)c5ccc([nH]5)c(-c5c(F)c(F)c(F)c(F)c5F)c5nc(c(-c6c(F)c(F)c(F)c(F)c6F)c6ccc3[nH]6)C=C5)C=C4)cc2)C1
REMARK SMILES IDX 12 1 11 2 10 3 8 4 9 5 7 6 6 7 1 8 2 9 3 10 79 11 4 12 5 13
REMARK SMILES IDX 13 16 14 17 15 18 16 19 17 20 78 21 18 22 77 23 19 24 20 25
REMARK SMILES IDX 21 26 71 27 22 28 76 29 70 30 72 31 23 32 75 33 69 34 68 35
REMARK SMILES IDX 24 37 56 38 36 39 55 40 37 41 40 42 54 43 73 44 38 45 39 46
REMARK SMILES IDX 53 48 74 49 41 50 25 51 26 52 34 53 27 54 28 55 32 56 35 57
REMARK SMILES IDX 29 58 30 59 33 60 31 61 57 62 58 63 66 64 59 65 60 66 64 67
REMARK SMILES IDX 67 68 61 69 62 70 65 71 63 72 42 73 43 74 51 75 44 76 45 77
REMARK SMILES IDX 49 78 52 79 46 80 47 81 50 82 48 83
REMARK H PARENT 4 14 4 15 72 36 40 47
REMARK Flexibility Score: inf
ROOT
ATOM      1  C   UNL A   1      44.256  21.685  25.188  1.00  0.00     0.275 C 
ENDROOT
BRANCH   1   2
ATOM      2  C   UNL A   1      43.495  20.372  25.382  1.00  0.00     0.274 C 
BRANCH   2   3
ATOM      3  O   UNL A   1      42.645  20.426  26.543  1.00  0.00    -0.462 OA
BRANCH   3   4
ATOM      4  C   UNL A   1      41.353  20.049  26.378  1.00  0.00     0.306 C 
ATOM      5  O   UNL A   1      40.985  19.073  25.738  1.00  0.00    -0.252 OA
BRANCH   4   6
ATOM      6  C   UNL A   1      40.385  21.018  27.021  1.00  0.00     0.132 C 
BRANCH   6   7
ATOM      7  C   UNL A   1      39.597  21.924  26.057  1.00  0.00     0.056 C 
ATOM      8  C   UNL A   1      36.049  21.554  24.505  1.00  0.00     0.013 C 
ATOM      9  C   UNL A   1      37.381  22.228  24.827  1.00  0.00     0.041 C 
ATOM     10  C   UNL A   1      37.167  23.503  25.647  1.00  0.00     0.263 C 
ATOM     11  C   UNL A   1      38.296  21.254  25.579  1.00  0.00     0.019 C 
ATOM     12  N   UNL A   1      38.445  24.147  25.956  1.00  0.00    -0.346 N 
ATOM     13  C   UNL A   1      39.289  23.261  26.758  1.00  0.00     0.264 C 
ATOM     14  H   UNL A   1      38.270  25.005  26.478  1.00  0.00     0.346 HD
ATOM     15  H   UNL A   1      38.927  24.355  25.082  1.00  0.00     0.346 HD
ENDBRANCH   6   7
ENDBRANCH   4   6
ENDBRANCH   3   4
ENDBRANCH   2   3
ENDBRANCH   1   2
BRANCH   1  16
ATOM     16  O   UNL A   1      43.358  22.810  25.184  1.00  0.00    -0.458 OA
BRANCH  16  17
ATOM     17  C   UNL A   1      43.947  24.026  25.109  1.00  0.00     0.338 C 
ATOM     18  O   UNL A   1      44.742  24.418  24.273  1.00  0.00    -0.246 OA
BRANCH  17  19
ATOM     19  C   UNL A   1      43.383  24.899  26.151  1.00  0.00     0.060 A 
ATOM     20  C   UNL A   1      43.763  26.244  26.170  1.00  0.00     0.016 A 
ATOM     21  C   UNL A   1      42.536  24.383  27.134  1.00  0.00     0.016 A 
ATOM     22  C   UNL A   1      43.290  27.087  27.172  1.00  0.00     0.010 A 
ATOM     23  C   UNL A   1      42.066  25.230  28.143  1.00  0.00     0.010 A 
ATOM     24  C   UNL A   1      42.446  26.583  28.172  1.00  0.00    -0.014 A 
BRANCH  24  25
ATOM     25  C   UNL A   1      41.999  27.464  29.276  1.00  0.00     0.031 A 
ATOM     26  C   UNL A   1      42.735  27.449  30.584  1.00  0.00     0.074 A 
ATOM     27  C   UNL A   1      40.943  28.278  29.101  1.00  0.00     0.049 A 
ATOM     28  N   UNL A   1      42.453  28.071  31.702  1.00  0.00    -0.248 NA
ATOM     29  C   UNL A   1      43.951  26.624  30.643  1.00  0.00     0.031 C 
ATOM     30  C   UNL A   1      40.173  28.407  27.864  1.00  0.00     0.029 A 
ATOM     31  N   UNL A   1      40.330  29.145  29.971  1.00  0.00    -0.354 N 
ATOM     32  C   UNL A   1      43.451  27.711  32.595  1.00  0.00     0.074 A 
ATOM     33  C   UNL A   1      44.333  26.797  31.901  1.00  0.00     0.031 C 
ATOM     34  C   UNL A   1      39.181  29.291  28.058  1.00  0.00     0.029 A 
ATOM     35  C   UNL A   1      39.223  29.761  29.442  1.00  0.00     0.049 A 
ATOM     36  H   UNL A   1      40.652  29.309  30.886  1.00  0.00     0.167 HD
ATOM     37  C   UNL A   1      43.618  28.114  33.878  1.00  0.00     0.037 A 
ATOM     38  C   UNL A   1      38.328  30.587  30.018  1.00  0.00     0.037 A 
ATOM     39  C   UNL A   1      42.739  29.022  34.566  1.00  0.00     0.049 A 
ATOM     40  C   UNL A   1      38.506  30.973  31.463  1.00  0.00     0.074 A 
ATOM     41  C   UNL A   1      42.813  29.475  35.873  1.00  0.00     0.029 A 
ATOM     42  N   UNL A   1      41.624  29.620  33.999  1.00  0.00    -0.354 N 
ATOM     43  N   UNL A   1      39.446  30.618  32.304  1.00  0.00    -0.248 NA
ATOM     44  C   UNL A   1      37.497  31.875  32.036  1.00  0.00     0.031 C 
ATOM     45  C   UNL A   1      41.725  30.324  36.104  1.00  0.00     0.029 A 
ATOM     46  C   UNL A   1      40.997  30.431  34.931  1.00  0.00     0.049 A 
ATOM     47  H   UNL A   1      41.321  29.488  33.071  1.00  0.00     0.167 HD
ATOM     48  C   UNL A   1      39.155  31.266  33.497  1.00  0.00     0.074 A 
ATOM     49  C   UNL A   1      37.961  32.051  33.266  1.00  0.00     0.031 C 
ATOM     50  C   UNL A   1      39.815  31.214  34.679  1.00  0.00     0.037 A 
BRANCH  37  51
ATOM     51  C   UNL A   1      44.791  27.563  34.630  1.00  0.00     0.064 A 
ATOM     52  C   UNL A   1      46.037  28.207  34.615  1.00  0.00     0.173 A 
ATOM     53  C   UNL A   1      44.658  26.407  35.413  1.00  0.00     0.173 A 
ATOM     54  F   UNL A   1      46.218  29.308  33.869  1.00  0.00    -0.203 F 
ATOM     55  C   UNL A   1      47.110  27.707  35.347  1.00  0.00     0.198 A 
ATOM     56  C   UNL A   1      45.727  25.922  36.162  1.00  0.00     0.198 A 
ATOM     57  F   UNL A   1      43.486  25.756  35.463  1.00  0.00    -0.203 F 
ATOM     58  F   UNL A   1      48.300  28.321  35.294  1.00  0.00    -0.200 F 
ATOM     59  C   UNL A   1      46.952  26.570  36.126  1.00  0.00     0.200 A 
ATOM     60  F   UNL A   1      45.570  24.829  36.922  1.00  0.00    -0.200 F 
ATOM     61  F   UNL A   1      47.984  26.095  36.838  1.00  0.00    -0.200 F 
ENDBRANCH  37  51
BRANCH  38  62
ATOM     62  C   UNL A   1      37.166  31.083  29.238  1.00  0.00     0.064 A 
ATOM     63  C   UNL A   1      37.116  32.404  28.773  1.00  0.00     0.173 A 
ATOM     64  C   UNL A   1      36.069  30.252  28.966  1.00  0.00     0.173 A 
ATOM     65  F   UNL A   1      38.128  33.245  29.031  1.00  0.00    -0.203 F 
ATOM     66  C   UNL A   1      36.002  32.881  28.083  1.00  0.00     0.198 A 
ATOM     67  C   UNL A   1      34.969  30.723  28.253  1.00  0.00     0.198 A 
ATOM     68  F   UNL A   1      36.066  28.982  29.394  1.00  0.00    -0.203 F 
ATOM     69  F   UNL A   1      35.957  34.163  27.695  1.00  0.00    -0.200 F 
ATOM     70  C   UNL A   1      34.932  32.040  27.820  1.00  0.00     0.200 A 
ATOM     71  F   UNL A   1      33.941  29.903  27.993  1.00  0.00    -0.200 F 
ATOM     72  F   UNL A   1      33.862  32.500  27.159  1.00  0.00    -0.200 F 
ENDBRANCH  38  62
BRANCH  50  73
ATOM     73  C   UNL A   1      39.280  32.053  35.801  1.00  0.00     0.064 A 
ATOM     74  C   UNL A   1      38.384  31.531  36.743  1.00  0.00     0.173 A 
ATOM     75  C   UNL A   1      39.700  33.382  35.955  1.00  0.00     0.173 A 
ATOM     76  F   UNL A   1      37.942  30.269  36.628  1.00  0.00    -0.203 F 
ATOM     77  C   UNL A   1      37.907  32.318  37.789  1.00  0.00     0.198 A 
ATOM     78  C   UNL A   1      39.241  34.159  37.015  1.00  0.00     0.198 A 
ATOM     79  F   UNL A   1      40.562  33.926  35.083  1.00  0.00    -0.203 F 
ATOM     80  F   UNL A   1      37.018  31.812  38.655  1.00  0.00    -0.200 F 
ATOM     81  C   UNL A   1      38.342  33.628  37.927  1.00  0.00     0.200 A 
ATOM     82  F   UNL A   1      39.669  35.422  37.154  1.00  0.00    -0.200 F 
ATOM     83  F   UNL A   1      37.886  34.383  38.937  1.00  0.00    -0.200 F 
ENDBRANCH  50  73
ENDBRANCH  24  25
ENDBRANCH  17  19
ENDBRANCH  16  17
ENDBRANCH   1  16
TORSDOF 12
ENDMDL
MODEL 3
REMARK VINA RESULT:     -10.9      0.341      1.723
REMARK SMILES C[C@H]1C[NH2+]C[C@@H](CC(=O)OCCOC(=O)c2ccc(-c3c4nc(c(-c5c(F)c(F)c(F)c(F)c5F)c5ccc([nH]5)c(-c5c(F)c(F)c(F)c(F)c5F)c5nc(c(-c6c(F)c(F)c(F)c(F)c6F)c6ccc3[nH]6)C=C5)C=C4)cc2)C1
REMARK SMILES IDX 12 1 11 2 10 3 8 4 9 5 7 6 6 7 1 8 2 9 3 10 79 11 4 12 5 13
REMARK SMILES IDX 13 16 14 17 15 18 16 19 17 20 78 21 18 22 77 23 19 24 20 25
REMARK SMILES IDX 21 26 71 27 22 28 76 29 70 30 72 31 23 32 75 33 69 34 68 35
REMARK SMILES IDX 24 37 56 38 36 39 55 40 37 41 40 42 54 43 73 44 38 45 39 46
REMARK SMILES IDX 53 48 74 49 41 50 25 51 26 52 34 53 27 54 28 55 32 56 35 57
REMARK SMILES IDX 29 58 30 59 33 60 31 61 57 62 58 63 66 64 59 65 60 66 64 67
REMARK SMILES IDX 67 68 61 69 62 70 65 71 63 72 42 73 43 74 51 75 44 76 45 77
REMARK SMILES IDX 49 78 52 79 46 80 47 81 50 82 48 83
REMARK H PARENT 4 14 4 15 72 36 40 47
REMARK Flexibility Score: inf
ROOT
ATOM      1  C   UNL A   1      31.835  29.524  26.144  1.00  0.00     0.275 C 
ENDROOT
BRANCH   1   2
ATOM      2  C   UNL A   1      32.066  28.013  26.080  1.00  0.00     0.274 C 
BRANCH   2   3
ATOM      3  O   UNL A   1      30.829  27.301  25.891  1.00  0.00    -0.462 OA
BRANCH   3   4
ATOM      4  C   UNL A   1      30.804  26.359  24.918  1.00  0.00     0.306 C 
ATOM      5  O   UNL A   1      30.290  25.253  25.027  1.00  0.00    -0.252 OA
BRANCH   4   6
ATOM      6  C   UNL A   1      31.553  26.793  23.677  1.00  0.00     0.132 C 
BRANCH   6   7
ATOM      7  C   UNL A   1      30.771  27.682  22.693  1.00  0.00     0.056 C 
ATOM      8  C   UNL A   1      27.329  29.464  23.018  1.00  0.00     0.013 C 
ATOM      9  C   UNL A   1      28.661  29.083  22.376  1.00  0.00     0.041 C 
ATOM     10  C   UNL A   1      29.566  30.307  22.220  1.00  0.00     0.263 C 
ATOM     11  C   UNL A   1      29.358  28.002  23.212  1.00  0.00     0.019 C 
ATOM     12  N   UNL A   1      30.843  29.939  21.607  1.00  0.00    -0.346 N 
ATOM     13  C   UNL A   1      31.563  28.981  22.446  1.00  0.00     0.264 C 
ATOM     14  H   UNL A   1      31.414  30.776  21.491  1.00  0.00     0.346 HD
ATOM     15  H   UNL A   1      30.660  29.507  20.701  1.00  0.00     0.346 HD
ENDBRANCH   6   7
ENDBRANCH   4   6
ENDBRANCH   3   4
ENDBRANCH   2   3
ENDBRANCH   1   2
BRANCH   1  16
ATOM     16  O   UNL A   1      33.072  30.245  25.995  1.00  0.00    -0.458 OA
BRANCH  16  17
ATOM     17  C   UNL A   1      33.290  31.223  26.903  1.00  0.00     0.338 C 
ATOM     18  O   UNL A   1      32.542  32.134  27.211  1.00  0.00    -0.246 OA
BRANCH  17  19
ATOM     19  C   UNL A   1      34.563  30.962  27.595  1.00  0.00     0.060 A 
ATOM     20  C   UNL A   1      34.850  29.652  27.988  1.00  0.00     0.016 A 
ATOM     21  C   UNL A   1      35.435  32.007  27.906  1.00  0.00     0.016 A 
ATOM     22  C   UNL A   1      36.020  29.377  28.691  1.00  0.00     0.010 A 
ATOM     23  C   UNL A   1      36.607  31.730  28.617  1.00  0.00     0.010 A 
ATOM     24  C   UNL A   1      36.902  30.415  29.019  1.00  0.00    -0.014 A 
BRANCH  24  25
ATOM     25  C   UNL A   1      38.112  30.132  29.825  1.00  0.00     0.031 A 
ATOM     26  C   UNL A   1      39.170  29.214  29.282  1.00  0.00     0.074 A 
ATOM     27  C   UNL A   1      38.264  30.702  31.033  1.00  0.00     0.049 A 
ATOM     28  N   UNL A   1      40.255  28.766  29.861  1.00  0.00    -0.248 NA
ATOM     29  C   UNL A   1      38.980  28.739  27.903  1.00  0.00     0.031 C 
ATOM     30  C   UNL A   1      37.324  31.638  31.649  1.00  0.00     0.029 A 
ATOM     31  N   UNL A   1      39.264  30.568  31.964  1.00  0.00    -0.354 N 
ATOM     32  C   UNL A   1      40.874  27.954  28.922  1.00  0.00     0.074 A 
ATOM     33  C   UNL A   1      40.033  27.950  27.743  1.00  0.00     0.031 C 
ATOM     34  C   UNL A   1      37.785  31.984  32.862  1.00  0.00     0.029 A 
ATOM     35  C   UNL A   1      39.031  31.267  33.123  1.00  0.00     0.049 A 
ATOM     36  H   UNL A   1      40.071  30.024  31.816  1.00  0.00     0.167 HD
ATOM     37  C   UNL A   1      42.043  27.279  29.033  1.00  0.00     0.037 A 
ATOM     38  C   UNL A   1      39.729  31.300  34.274  1.00  0.00     0.037 A 
ATOM     39  C   UNL A   1      42.877  27.284  30.206  1.00  0.00     0.049 A 
ATOM     40  C   UNL A   1      40.996  30.494  34.391  1.00  0.00     0.074 A 
ATOM     41  C   UNL A   1      44.071  26.615  30.422  1.00  0.00     0.029 A 
ATOM     42  N   UNL A   1      42.604  27.999  31.362  1.00  0.00    -0.354 N 
ATOM     43  N   UNL A   1      41.568  29.718  33.502  1.00  0.00    -0.248 NA
ATOM     44  C   UNL A   1      41.713  30.567  35.672  1.00  0.00     0.031 C 
ATOM     45  C   UNL A   1      44.504  26.902  31.721  1.00  0.00     0.029 A 
ATOM     46  C   UNL A   1      43.602  27.781  32.299  1.00  0.00     0.049 A 
ATOM     47  H   UNL A   1      41.818  28.575  31.499  1.00  0.00     0.167 HD
ATOM     48  C   UNL A   1      42.719  29.230  34.106  1.00  0.00     0.074 A 
ATOM     49  C   UNL A   1      42.774  29.810  35.431  1.00  0.00     0.031 C 
ATOM     50  C   UNL A   1      43.645  28.376  33.609  1.00  0.00     0.037 A 
BRANCH  37  51
ATOM     51  C   UNL A   1      42.487  26.463  27.856  1.00  0.00     0.064 A 
ATOM     52  C   UNL A   1      42.016  25.158  27.652  1.00  0.00     0.173 A 
ATOM     53  C   UNL A   1      43.352  27.008  26.896  1.00  0.00     0.173 A 
ATOM     54  F   UNL A   1      41.197  24.588  28.550  1.00  0.00    -0.203 F 
ATOM     55  C   UNL A   1      42.405  24.423  26.536  1.00  0.00     0.198 A 
ATOM     56  C   UNL A   1      43.722  26.278  25.769  1.00  0.00     0.198 A 
ATOM     57  F   UNL A   1      43.828  28.254  27.044  1.00  0.00    -0.203 F 
ATOM     58  F   UNL A   1      41.968  23.167  26.376  1.00  0.00    -0.200 F 
ATOM     59  C   UNL A   1      43.251  24.987  25.592  1.00  0.00     0.200 A 
ATOM     60  F   UNL A   1      44.531  26.828  24.853  1.00  0.00    -0.200 F 
ATOM     61  F   UNL A   1      43.617  24.281  24.513  1.00  0.00    -0.200 F 
ENDBRANCH  37  51
BRANCH  38  62
ATOM     62  C   UNL A   1      39.232  32.102  35.421  1.00  0.00     0.064 A 
ATOM     63  C   UNL A   1      39.568  33.455  35.560  1.00  0.00     0.173 A 
ATOM     64  C   UNL A   1      38.434  31.521  36.418  1.00  0.00     0.173 A 
ATOM     65  F   UNL A   1      40.352  34.047  34.647  1.00  0.00    -0.203 F 
ATOM     66  C   UNL A   1      39.140  34.192  36.663  1.00  0.00     0.198 A 
ATOM     67  C   UNL A   1      37.985  32.266  37.506  1.00  0.00     0.198 A 
ATOM     68  F   UNL A   1      38.089  30.228  36.335  1.00  0.00    -0.203 F 
ATOM     69  F   UNL A   1      39.519  35.471  36.798  1.00  0.00    -0.200 F 
ATOM     70  C   UNL A   1      38.346  33.599  37.632  1.00  0.00     0.200 A 
ATOM     71  F   UNL A   1      37.209  31.690  38.435  1.00  0.00    -0.200 F 
ATOM     72  F   UNL A   1      37.938  34.308  38.693  1.00  0.00    -0.200 F 
ENDBRANCH  38  62
BRANCH  50  73
ATOM     73  C   UNL A   1      44.814  28.043  34.489  1.00  0.00     0.064 A 
ATOM     74  C   UNL A   1      44.808  26.913  35.318  1.00  0.00     0.173 A 
ATOM     75  C   UNL A   1      45.964  28.845  34.473  1.00  0.00     0.173 A 
ATOM     76  F   UNL A   1      43.723  26.125  35.379  1.00  0.00    -0.203 F 
ATOM     77  C   UNL A   1      45.906  26.609  36.118  1.00  0.00     0.198 A 
ATOM     78  C   UNL A   1      47.070  28.524  35.256  1.00  0.00     0.198 A 
ATOM     79  F   UNL A   1      46.021  29.933  33.692  1.00  0.00    -0.203 F 
ATOM     80  F   UNL A   1      45.865  25.547  36.936  1.00  0.00    -0.200 F 
ATOM     81  C   UNL A   1      47.038  27.411  36.081  1.00  0.00     0.200 A 
ATOM     82  F   UNL A   1      48.167  29.293  35.212  1.00  0.00    -0.200 F 
ATOM     83  F   UNL A   1      48.096  27.113  36.849  1.00  0.00    -0.200 F 
ENDBRANCH  50  73
ENDBRANCH  24  25
ENDBRANCH  17  19
ENDBRANCH  16  17
ENDBRANCH   1  16
TORSDOF 12
ENDMDL
