MODEL 1
REMARK VINA RESULT:     -12.5      0.000      0.000
REMARK SMILES COc1cccc(N2/C(=[NH+]/C(=O)CCC(=O)OCCOC(=O)c3ccc(-c4c5nc(c(-c6c(F)c(F)c(F)c(F)c6F)c6ccc([nH]6)c(-c6c(F)c(F)c(F)c(F)c6F)c6nc(c(-c7c(F)c(F)c(F)c(F)c7F)c7ccc4[nH]7)C=C6)C=C5)cc3)S[C@@H]3CS(=O)(=O)C[C@H]32)c1
REMARK SMILES IDX 18 1 17 2 15 3 16 4 14 5 13 6 11 7 8 8 9 9 93 10 10 11 86 12
REMARK SMILES IDX 87 13 92 14 88 16 89 17 12 18 90 19 91 20 7 21 3 22 4 23
REMARK SMILES IDX 94 24 5 25 6 26 2 27 1 28 19 29 20 30 21 31 22 32 23 33
REMARK SMILES IDX 24 34 85 35 25 36 84 37 26 38 27 39 28 40 78 41 29 42 83 43
REMARK SMILES IDX 77 44 79 45 30 46 82 47 76 48 75 49 31 51 63 52 43 53 62 54
REMARK SMILES IDX 44 55 47 56 61 57 80 58 45 59 46 60 60 62 81 63 48 64 32 65
REMARK SMILES IDX 33 66 41 67 34 68 35 69 39 70 42 71 36 72 37 73 40 74 38 75
REMARK SMILES IDX 64 76 65 77 73 78 66 79 67 80 71 81 74 82 68 83 69 84 72 85
REMARK SMILES IDX 70 86 49 87 50 88 58 89 51 90 52 91 56 92 59 93 53 94 54 95
REMARK SMILES IDX 57 96 55 97
REMARK H PARENT 10 15 79 50 47 61
REMARK Flexibility Score: inf
ROOT
ATOM      1  C   UNL A   1      33.927  35.420  28.377  1.00  0.00     0.274 C 
ENDROOT
BRANCH   1   2
ATOM      2  O   UNL A   1      33.585  34.033  28.345  1.00  0.00    -0.462 OA
BRANCH   2   3
ATOM      3  C   UNL A   1      34.533  33.149  27.986  1.00  0.00     0.306 C 
ATOM      4  O   UNL A   1      35.652  33.426  27.580  1.00  0.00    -0.252 OA
BRANCH   3   5
ATOM      5  C   UNL A   1      34.005  31.749  28.160  1.00  0.00     0.135 C 
BRANCH   5   6
ATOM      6  C   UNL A   1      32.872  31.440  27.192  1.00  0.00     0.139 C 
BRANCH   6   7
ATOM      7  C   UNL A   1      32.797  30.015  26.652  1.00  0.00     0.308 C 
ATOM      8  N   UNL A   1      31.543  28.481  23.551  1.00  0.00    -0.216 N 
ATOM      9  C   UNL A   1      32.286  28.937  24.656  1.00  0.00     0.319 C 
ATOM     10  C   UNL A   1      32.222  27.454  22.755  1.00  0.00     0.212 C 
ATOM     11  N   UNL A   1      31.966  29.793  25.570  1.00  0.00    -0.204 N 
ATOM     12  S   UNL A   1      33.878  28.077  24.618  1.00  0.00    -0.029 SA
ATOM     13  C   UNL A   1      33.076  26.706  23.783  1.00  0.00     0.120 C 
ATOM     14  C   UNL A   1      31.419  26.349  22.100  1.00  0.00     0.188 C 
ATOM     15  H   UNL A   1      31.120  30.293  25.495  1.00  0.00     0.316 HD
ATOM     16  C   UNL A   1      33.874  25.674  23.039  1.00  0.00     0.156 C 
ATOM     17  S   UNL A   1      32.671  25.081  21.842  1.00  0.00     0.155 S 
ATOM     18  O   UNL A   1      33.359  29.123  27.288  1.00  0.00    -0.247 OA
ATOM     19  O   UNL A   1      32.142  23.815  22.300  1.00  0.00    -0.229 OA
ATOM     20  O   UNL A   1      33.233  25.256  20.520  1.00  0.00    -0.229 OA
BRANCH   8  21
ATOM     21  C   UNL A   1      30.289  28.928  23.115  1.00  0.00     0.132 A 
ATOM     22  C   UNL A   1      28.899  30.386  21.723  1.00  0.00     0.123 A 
ATOM     23  C   UNL A   1      27.754  29.727  22.168  1.00  0.00     0.047 A 
ATOM     24  C   UNL A   1      30.160  29.945  22.149  1.00  0.00     0.098 A 
ATOM     25  C   UNL A   1      27.866  28.669  23.068  1.00  0.00     0.008 A 
ATOM     26  C   UNL A   1      29.122  28.285  23.551  1.00  0.00     0.052 A 
BRANCH  22  27
ATOM     27  O   UNL A   1      28.704  31.378  20.800  1.00  0.00    -0.497 OA
ATOM     28  C   UNL A   1      28.018  32.539  21.264  1.00  0.00     0.278 C 
ENDBRANCH  22  27
ENDBRANCH   8  21
ENDBRANCH   6   7
ENDBRANCH   5   6
ENDBRANCH   3   5
ENDBRANCH   2   3
ENDBRANCH   1   2
BRANCH   1  29
ATOM     29  C   UNL A   1      32.979  36.178  29.305  1.00  0.00     0.275 C 
BRANCH  29  30
ATOM     30  O   UNL A   1      32.530  35.271  30.312  1.00  0.00    -0.458 OA
BRANCH  30  31
ATOM     31  C   UNL A   1      32.819  35.604  31.586  1.00  0.00     0.338 C 
ATOM     32  O   UNL A   1      32.208  36.291  32.371  1.00  0.00    -0.246 OA
BRANCH  31  33
ATOM     33  C   UNL A   1      34.019  34.838  31.899  1.00  0.00     0.060 A 
ATOM     34  C   UNL A   1      33.937  33.444  31.922  1.00  0.00     0.016 A 
ATOM     35  C   UNL A   1      35.218  35.517  32.101  1.00  0.00     0.016 A 
ATOM     36  C   UNL A   1      35.081  32.707  32.175  1.00  0.00     0.010 A 
ATOM     37  C   UNL A   1      36.365  34.776  32.341  1.00  0.00     0.010 A 
ATOM     38  C   UNL A   1      36.289  33.374  32.401  1.00  0.00    -0.014 A 
BRANCH  38  39
ATOM     39  C   UNL A   1      37.469  32.602  32.818  1.00  0.00     0.031 A 
ATOM     40  C   UNL A   1      38.087  32.913  34.145  1.00  0.00     0.074 A 
ATOM     41  C   UNL A   1      37.948  31.641  32.013  1.00  0.00     0.049 A 
ATOM     42  N   UNL A   1      39.169  32.426  34.689  1.00  0.00    -0.248 NA
ATOM     43  C   UNL A   1      37.398  33.924  34.967  1.00  0.00     0.031 C 
ATOM     44  C   UNL A   1      37.372  31.258  30.723  1.00  0.00     0.029 A 
ATOM     45  N   UNL A   1      39.030  30.816  32.159  1.00  0.00    -0.354 N 
ATOM     46  C   UNL A   1      39.302  33.084  35.904  1.00  0.00     0.074 A 
ATOM     47  C   UNL A   1      38.212  34.027  36.007  1.00  0.00     0.031 C 
ATOM     48  C   UNL A   1      38.110  30.268  30.194  1.00  0.00     0.029 A 
ATOM     49  C   UNL A   1      39.231  29.988  31.084  1.00  0.00     0.049 A 
ATOM     50  H   UNL A   1      39.606  30.817  32.957  1.00  0.00     0.167 HD
ATOM     51  C   UNL A   1      40.255  32.901  36.846  1.00  0.00     0.037 A 
ATOM     52  C   UNL A   1      40.233  29.124  30.847  1.00  0.00     0.037 A 
ATOM     53  C   UNL A   1      41.321  31.946  36.712  1.00  0.00     0.049 A 
ATOM     54  C   UNL A   1      41.310  28.981  31.890  1.00  0.00     0.074 A 
ATOM     55  C   UNL A   1      42.337  31.653  37.602  1.00  0.00     0.029 A 
ATOM     56  N   UNL A   1      41.511  31.132  35.602  1.00  0.00    -0.354 N 
ATOM     57  N   UNL A   1      41.427  29.588  33.048  1.00  0.00    -0.248 NA
ATOM     58  C   UNL A   1      42.391  28.035  31.597  1.00  0.00     0.031 C 
ATOM     59  C   UNL A   1      43.176  30.707  37.006  1.00  0.00     0.029 A 
ATOM     60  C   UNL A   1      42.644  30.356  35.773  1.00  0.00     0.049 A 
ATOM     61  H   UNL A   1      40.926  31.110  34.811  1.00  0.00     0.167 HD
ATOM     62  C   UNL A   1      42.574  29.076  33.635  1.00  0.00     0.074 A 
ATOM     63  C   UNL A   1      43.108  28.097  32.709  1.00  0.00     0.031 C 
ATOM     64  C   UNL A   1      43.140  29.385  34.830  1.00  0.00     0.037 A 
BRANCH  51  65
ATOM     65  C   UNL A   1      40.203  33.773  38.067  1.00  0.00     0.064 A 
ATOM     66  C   UNL A   1      39.387  33.470  39.167  1.00  0.00     0.173 A 
ATOM     67  C   UNL A   1      40.999  34.926  38.143  1.00  0.00     0.173 A 
ATOM     68  F   UNL A   1      38.589  32.391  39.140  1.00  0.00    -0.203 F 
ATOM     69  C   UNL A   1      39.349  34.302  40.284  1.00  0.00     0.198 A 
ATOM     70  C   UNL A   1      40.984  35.738  39.274  1.00  0.00     0.198 A 
ATOM     71  F   UNL A   1      41.796  35.267  37.119  1.00  0.00    -0.203 F 
ATOM     72  F   UNL A   1      38.521  34.021  41.299  1.00  0.00    -0.200 F 
ATOM     73  C   UNL A   1      40.154  35.430  40.340  1.00  0.00     0.200 A 
ATOM     74  F   UNL A   1      41.771  36.821  39.330  1.00  0.00    -0.200 F 
ATOM     75  F   UNL A   1      40.123  36.225  41.418  1.00  0.00    -0.200 F 
ENDBRANCH  51  65
BRANCH  52  76
ATOM     76  C   UNL A   1      40.268  28.350  29.578  1.00  0.00     0.064 A 
ATOM     77  C   UNL A   1      40.984  28.815  28.466  1.00  0.00     0.173 A 
ATOM     78  C   UNL A   1      39.585  27.132  29.448  1.00  0.00     0.173 A 
ATOM     79  F   UNL A   1      41.642  29.983  28.533  1.00  0.00    -0.203 F 
ATOM     80  C   UNL A   1      40.995  28.105  27.267  1.00  0.00     0.198 A 
ATOM     81  C   UNL A   1      39.624  26.405  28.259  1.00  0.00     0.198 A 
ATOM     82  F   UNL A   1      38.888  26.637  30.481  1.00  0.00    -0.203 F 
ATOM     83  F   UNL A   1      41.644  28.600  26.205  1.00  0.00    -0.200 F 
ATOM     84  C   UNL A   1      40.320  26.898  27.166  1.00  0.00     0.200 A 
ATOM     85  F   UNL A   1      38.986  25.231  28.173  1.00  0.00    -0.200 F 
ATOM     86  F   UNL A   1      40.333  26.214  26.015  1.00  0.00    -0.200 F 
ENDBRANCH  52  76
BRANCH  64  87
ATOM     87  C   UNL A   1      44.372  28.618  35.215  1.00  0.00     0.064 A 
ATOM     88  C   UNL A   1      44.300  27.407  35.916  1.00  0.00     0.173 A 
ATOM     89  C   UNL A   1      45.640  29.088  34.839  1.00  0.00     0.173 A 
ATOM     90  F   UNL A   1      43.112  26.923  36.311  1.00  0.00    -0.203 F 
ATOM     91  C   UNL A   1      45.456  26.710  36.257  1.00  0.00     0.198 A 
ATOM     92  C   UNL A   1      46.790  28.370  35.147  1.00  0.00     0.198 A 
ATOM     93  F   UNL A   1      45.761  30.238  34.158  1.00  0.00    -0.203 F 
ATOM     94  F   UNL A   1      45.368  25.584  36.978  1.00  0.00    -0.200 F 
ATOM     95  C   UNL A   1      46.697  27.186  35.864  1.00  0.00     0.200 A 
ATOM     96  F   UNL A   1      47.987  28.821  34.750  1.00  0.00    -0.200 F 
ATOM     97  F   UNL A   1      47.808  26.508  36.184  1.00  0.00    -0.200 F 
ENDBRANCH  64  87
ENDBRANCH  38  39
ENDBRANCH  31  33
ENDBRANCH  30  31
ENDBRANCH  29  30
ENDBRANCH   1  29
TORSDOF 15
ENDMDL
MODEL 2
REMARK VINA RESULT:     -12.4      4.874      7.164
REMARK SMILES COc1cccc(N2/C(=[NH+]/C(=O)CCC(=O)OCCOC(=O)c3ccc(-c4c5nc(c(-c6c(F)c(F)c(F)c(F)c6F)c6ccc([nH]6)c(-c6c(F)c(F)c(F)c(F)c6F)c6nc(c(-c7c(F)c(F)c(F)c(F)c7F)c7ccc4[nH]7)C=C6)C=C5)cc3)S[C@@H]3CS(=O)(=O)C[C@H]32)c1
REMARK SMILES IDX 18 1 17 2 15 3 16 4 14 5 13 6 11 7 8 8 9 9 93 10 10 11 86 12
REMARK SMILES IDX 87 13 92 14 88 16 89 17 12 18 90 19 91 20 7 21 3 22 4 23
REMARK SMILES IDX 94 24 5 25 6 26 2 27 1 28 19 29 20 30 21 31 22 32 23 33
REMARK SMILES IDX 24 34 85 35 25 36 84 37 26 38 27 39 28 40 78 41 29 42 83 43
REMARK SMILES IDX 77 44 79 45 30 46 82 47 76 48 75 49 31 51 63 52 43 53 62 54
REMARK SMILES IDX 44 55 47 56 61 57 80 58 45 59 46 60 60 62 81 63 48 64 32 65
REMARK SMILES IDX 33 66 41 67 34 68 35 69 39 70 42 71 36 72 37 73 40 74 38 75
REMARK SMILES IDX 64 76 65 77 73 78 66 79 67 80 71 81 74 82 68 83 69 84 72 85
REMARK SMILES IDX 70 86 49 87 50 88 58 89 51 90 52 91 56 92 59 93 53 94 54 95
REMARK SMILES IDX 57 96 55 97
REMARK H PARENT 10 15 79 50 47 61
REMARK Flexibility Score: inf
ROOT
ATOM      1  C   UNL A   1      33.847  34.901  30.059  1.00  0.00     0.274 C 
ENDROOT
BRANCH   1   2
ATOM      2  O   UNL A   1      33.246  34.014  29.114  1.00  0.00    -0.462 OA
BRANCH   2   3
ATOM      3  C   UNL A   1      34.007  33.533  28.114  1.00  0.00     0.306 C 
ATOM      4  O   UNL A   1      34.749  34.193  27.401  1.00  0.00    -0.252 OA
BRANCH   3   5
ATOM      5  C   UNL A   1      33.808  32.045  28.002  1.00  0.00     0.135 C 
BRANCH   5   6
ATOM      6  C   UNL A   1      32.611  31.692  27.131  1.00  0.00     0.139 C 
BRANCH   6   7
ATOM      7  C   UNL A   1      32.522  30.253  26.633  1.00  0.00     0.308 C 
ATOM      8  N   UNL A   1      31.473  28.660  23.486  1.00  0.00    -0.216 N 
ATOM      9  C   UNL A   1      32.138  29.125  24.636  1.00  0.00     0.319 C 
ATOM     10  C   UNL A   1      32.174  27.579  22.785  1.00  0.00     0.212 C 
ATOM     11  N   UNL A   1      31.777  30.025  25.491  1.00  0.00    -0.204 N 
ATOM     12  S   UNL A   1      33.690  28.202  24.764  1.00  0.00    -0.029 SA
ATOM     13  C   UNL A   1      32.904  26.835  23.907  1.00  0.00     0.120 C 
ATOM     14  C   UNL A   1      31.384  26.484  22.098  1.00  0.00     0.188 C 
ATOM     15  H   UNL A   1      30.963  30.555  25.327  1.00  0.00     0.316 HD
ATOM     16  C   UNL A   1      33.718  25.747  23.268  1.00  0.00     0.156 C 
ATOM     17  S   UNL A   1      32.599  25.159  21.992  1.00  0.00     0.155 S 
ATOM     18  O   UNL A   1      32.989  29.362  27.344  1.00  0.00    -0.247 OA
ATOM     19  O   UNL A   1      31.979  23.932  22.443  1.00  0.00    -0.229 OA
ATOM     20  O   UNL A   1      33.279  25.265  20.718  1.00  0.00    -0.229 OA
BRANCH   8  21
ATOM     21  C   UNL A   1      30.281  29.139  22.929  1.00  0.00     0.132 A 
ATOM     22  C   UNL A   1      27.836  29.270  22.887  1.00  0.00     0.123 A 
ATOM     23  C   UNL A   1      27.899  30.212  21.862  1.00  0.00     0.047 A 
ATOM     24  C   UNL A   1      29.023  28.785  23.455  1.00  0.00     0.098 A 
ATOM     25  C   UNL A   1      29.137  30.631  21.378  1.00  0.00     0.008 A 
ATOM     26  C   UNL A   1      30.317  30.085  21.895  1.00  0.00     0.052 A 
BRANCH  22  27
ATOM     27  O   UNL A   1      26.584  28.954  23.341  1.00  0.00    -0.497 OA
ATOM     28  C   UNL A   1      26.426  27.642  23.880  1.00  0.00     0.278 C 
ENDBRANCH  22  27
ENDBRANCH   8  21
ENDBRANCH   6   7
ENDBRANCH   5   6
ENDBRANCH   3   5
ENDBRANCH   2   3
ENDBRANCH   1   2
BRANCH   1  29
ATOM     29  C   UNL A   1      34.192  34.151  31.345  1.00  0.00     0.275 C 
BRANCH  29  30
ATOM     30  O   UNL A   1      35.545  33.706  31.244  1.00  0.00    -0.458 OA
BRANCH  30  31
ATOM     31  C   UNL A   1      35.921  32.742  32.107  1.00  0.00     0.338 C 
ATOM     32  O   UNL A   1      35.397  32.360  33.128  1.00  0.00    -0.246 OA
BRANCH  31  33
ATOM     33  C   UNL A   1      37.085  32.127  31.481  1.00  0.00     0.060 A 
ATOM     34  C   UNL A   1      38.018  31.478  32.293  1.00  0.00     0.016 A 
ATOM     35  C   UNL A   1      37.195  32.151  30.094  1.00  0.00     0.016 A 
ATOM     36  C   UNL A   1      39.103  30.853  31.705  1.00  0.00     0.010 A 
ATOM     37  C   UNL A   1      38.276  31.513  29.505  1.00  0.00     0.010 A 
ATOM     38  C   UNL A   1      39.240  30.886  30.313  1.00  0.00    -0.014 A 
BRANCH  38  39
ATOM     39  C   UNL A   1      40.467  30.355  29.700  1.00  0.00     0.031 A 
ATOM     40  C   UNL A   1      41.630  31.280  29.528  1.00  0.00     0.074 A 
ATOM     41  C   UNL A   1      40.514  29.068  29.325  1.00  0.00     0.049 A 
ATOM     42  N   UNL A   1      42.779  31.066  28.948  1.00  0.00    -0.248 NA
ATOM     43  C   UNL A   1      41.472  32.640  30.075  1.00  0.00     0.031 C 
ATOM     44  C   UNL A   1      39.430  28.099  29.497  1.00  0.00     0.029 A 
ATOM     45  N   UNL A   1      41.512  28.355  28.718  1.00  0.00    -0.354 N 
ATOM     46  C   UNL A   1      43.472  32.266  29.040  1.00  0.00     0.074 A 
ATOM     47  C   UNL A   1      42.606  33.215  29.702  1.00  0.00     0.031 C 
ATOM     48  C   UNL A   1      39.824  26.913  29.006  1.00  0.00     0.029 A 
ATOM     49  C   UNL A   1      41.162  27.057  28.443  1.00  0.00     0.049 A 
ATOM     50  H   UNL A   1      42.392  28.735  28.501  1.00  0.00     0.167 HD
ATOM     51  C   UNL A   1      44.725  32.536  28.609  1.00  0.00     0.037 A 
ATOM     52  C   UNL A   1      41.849  26.108  27.782  1.00  0.00     0.037 A 
ATOM     53  C   UNL A   1      45.560  31.562  27.960  1.00  0.00     0.049 A 
ATOM     54  C   UNL A   1      43.221  26.455  27.266  1.00  0.00     0.074 A 
ATOM     55  C   UNL A   1      46.853  31.706  27.494  1.00  0.00     0.029 A 
ATOM     56  N   UNL A   1      45.173  30.258  27.677  1.00  0.00    -0.354 N 
ATOM     57  N   UNL A   1      43.885  27.582  27.370  1.00  0.00    -0.248 NA
ATOM     58  C   UNL A   1      43.940  25.400  26.544  1.00  0.00     0.031 C 
ATOM     59  C   UNL A   1      47.226  30.509  26.875  1.00  0.00     0.029 A 
ATOM     60  C   UNL A   1      46.193  29.594  27.018  1.00  0.00     0.049 A 
ATOM     61  H   UNL A   1      44.302  29.864  27.913  1.00  0.00     0.167 HD
ATOM     62  C   UNL A   1      45.109  27.365  26.756  1.00  0.00     0.074 A 
ATOM     63  C   UNL A   1      45.099  25.990  26.296  1.00  0.00     0.031 C 
ATOM     64  C   UNL A   1      46.148  28.220  26.583  1.00  0.00     0.037 A 
BRANCH  51  65
ATOM     65  C   UNL A   1      45.238  33.935  28.790  1.00  0.00     0.064 A 
ATOM     66  C   UNL A   1      45.964  34.322  29.926  1.00  0.00     0.173 A 
ATOM     67  C   UNL A   1      45.009  34.903  27.800  1.00  0.00     0.173 A 
ATOM     68  F   UNL A   1      46.194  33.443  30.914  1.00  0.00    -0.203 F 
ATOM     69  C   UNL A   1      46.420  35.630  30.076  1.00  0.00     0.198 A 
ATOM     70  C   UNL A   1      45.494  36.200  27.937  1.00  0.00     0.198 A 
ATOM     71  F   UNL A   1      44.316  34.590  26.695  1.00  0.00    -0.203 F 
ATOM     72  F   UNL A   1      47.065  35.990  31.194  1.00  0.00    -0.200 F 
ATOM     73  C   UNL A   1      46.192  36.566  29.078  1.00  0.00     0.200 A 
ATOM     74  F   UNL A   1      45.282  37.099  26.966  1.00  0.00    -0.200 F 
ATOM     75  F   UNL A   1      46.638  37.821  29.219  1.00  0.00    -0.200 F 
ENDBRANCH  51  65
BRANCH  52  76
ATOM     76  C   UNL A   1      41.249  24.767  27.564  1.00  0.00     0.064 A 
ATOM     77  C   UNL A   1      41.743  23.636  28.228  1.00  0.00     0.173 A 
ATOM     78  C   UNL A   1      40.169  24.585  26.686  1.00  0.00     0.173 A 
ATOM     79  F   UNL A   1      42.785  23.753  29.066  1.00  0.00    -0.203 F 
ATOM     80  C   UNL A   1      41.199  22.372  28.003  1.00  0.00     0.198 A 
ATOM     81  C   UNL A   1      39.604  23.326  26.488  1.00  0.00     0.198 A 
ATOM     82  F   UNL A   1      39.652  25.632  26.028  1.00  0.00    -0.203 F 
ATOM     83  F   UNL A   1      41.726  21.301  28.612  1.00  0.00    -0.200 F 
ATOM     84  C   UNL A   1      40.126  22.219  27.138  1.00  0.00     0.200 A 
ATOM     85  F   UNL A   1      38.556  23.187  25.666  1.00  0.00    -0.200 F 
ATOM     86  F   UNL A   1      39.601  21.006  26.926  1.00  0.00    -0.200 F 
ENDBRANCH  52  76
BRANCH  64  87
ATOM     87  C   UNL A   1      47.374  27.672  25.911  1.00  0.00     0.064 A 
ATOM     88  C   UNL A   1      47.508  27.656  24.517  1.00  0.00     0.173 A 
ATOM     89  C   UNL A   1      48.445  27.192  26.682  1.00  0.00     0.173 A 
ATOM     90  F   UNL A   1      46.507  28.089  23.736  1.00  0.00    -0.203 F 
ATOM     91  C   UNL A   1      48.657  27.149  23.916  1.00  0.00     0.198 A 
ATOM     92  C   UNL A   1      49.606  26.723  26.080  1.00  0.00     0.198 A 
ATOM     93  F   UNL A   1      48.369  27.195  28.022  1.00  0.00    -0.203 F 
ATOM     94  F   UNL A   1      48.740  27.089  22.580  1.00  0.00    -0.200 F 
ATOM     95  C   UNL A   1      49.707  26.693  24.697  1.00  0.00     0.200 A 
ATOM     96  F   UNL A   1      50.628  26.301  26.837  1.00  0.00    -0.200 F 
ATOM     97  F   UNL A   1      50.817  26.214  24.117  1.00  0.00    -0.200 F 
ENDBRANCH  64  87
ENDBRANCH  38  39
ENDBRANCH  31  33
ENDBRANCH  30  31
ENDBRANCH  29  30
ENDBRANCH   1  29
TORSDOF 15
ENDMDL
MODEL 3
REMARK VINA RESULT:     -12.2      2.971      8.948
REMARK SMILES COc1cccc(N2/C(=[NH+]/C(=O)CCC(=O)OCCOC(=O)c3ccc(-c4c5nc(c(-c6c(F)c(F)c(F)c(F)c6F)c6ccc([nH]6)c(-c6c(F)c(F)c(F)c(F)c6F)c6nc(c(-c7c(F)c(F)c(F)c(F)c7F)c7ccc4[nH]7)C=C6)C=C5)cc3)S[C@@H]3CS(=O)(=O)C[C@H]32)c1
REMARK SMILES IDX 18 1 17 2 15 3 16 4 14 5 13 6 11 7 8 8 9 9 93 10 10 11 86 12
REMARK SMILES IDX 87 13 92 14 88 16 89 17 12 18 90 19 91 20 7 21 3 22 4 23
REMARK SMILES IDX 94 24 5 25 6 26 2 27 1 28 19 29 20 30 21 31 22 32 23 33
REMARK SMILES IDX 24 34 85 35 25 36 84 37 26 38 27 39 28 40 78 41 29 42 83 43
REMARK SMILES IDX 77 44 79 45 30 46 82 47 76 48 75 49 31 51 63 52 43 53 62 54
REMARK SMILES IDX 44 55 47 56 61 57 80 58 45 59 46 60 60 62 81 63 48 64 32 65
REMARK SMILES IDX 33 66 41 67 34 68 35 69 39 70 42 71 36 72 37 73 40 74 38 75
REMARK SMILES IDX 64 76 65 77 73 78 66 79 67 80 71 81 74 82 68 83 69 84 72 85
REMARK SMILES IDX 70 86 49 87 50 88 58 89 51 90 52 91 56 92 59 93 53 94 54 95
REMARK SMILES IDX 57 96 55 97
REMARK H PARENT 10 15 79 50 47 61
REMARK Flexibility Score: inf
ROOT
ATOM      1  C   UNL A   1      31.767  29.295  25.338  1.00  0.00     0.274 C 
ENDROOT
BRANCH   1   2
ATOM      2  O   UNL A   1      33.068  28.790  25.031  1.00  0.00    -0.462 OA
BRANCH   2   3
ATOM      3  C   UNL A   1      33.181  27.509  24.636  1.00  0.00     0.306 C 
ATOM      4  O   UNL A   1      33.658  26.598  25.297  1.00  0.00    -0.252 OA
BRANCH   3   5
ATOM      5  C   UNL A   1      32.626  27.361  23.245  1.00  0.00     0.135 C 
BRANCH   5   6
ATOM      6  C   UNL A   1      33.623  26.707  22.298  1.00  0.00     0.139 C 
BRANCH   6   7
ATOM      7  C   UNL A   1      33.596  25.184  22.215  1.00  0.00     0.308 C 
ATOM      8  N   UNL A   1      34.628  22.448  24.449  1.00  0.00    -0.216 N 
ATOM      9  C   UNL A   1      33.960  23.360  23.611  1.00  0.00     0.319 C 
ATOM     10  C   UNL A   1      33.859  21.235  24.749  1.00  0.00     0.212 C 
ATOM     11  N   UNL A   1      34.366  24.488  23.129  1.00  0.00    -0.204 N 
ATOM     12  S   UNL A   1      32.323  22.668  23.269  1.00  0.00    -0.029 SA
ATOM     13  C   UNL A   1      33.011  21.026  23.490  1.00  0.00     0.120 C 
ATOM     14  C   UNL A   1      34.571  19.909  24.914  1.00  0.00     0.188 C 
ATOM     15  H   UNL A   1      35.234  24.857  23.415  1.00  0.00     0.316 HD
ATOM     16  C   UNL A   1      32.127  19.838  23.738  1.00  0.00     0.156 C 
ATOM     17  S   UNL A   1      33.241  18.732  24.612  1.00  0.00     0.155 S 
ATOM     18  O   UNL A   1      33.016  24.664  21.262  1.00  0.00    -0.247 OA
ATOM     19  O   UNL A   1      33.720  17.726  23.689  1.00  0.00    -0.229 OA
ATOM     20  O   UNL A   1      32.632  18.397  25.881  1.00  0.00    -0.229 OA
BRANCH   8  21
ATOM     21  C   UNL A   1      35.884  22.594  25.051  1.00  0.00     0.132 A 
ATOM     22  C   UNL A   1      38.162  21.802  25.475  1.00  0.00     0.123 A 
ATOM     23  C   UNL A   1      38.444  22.972  26.178  1.00  0.00     0.047 A 
ATOM     24  C   UNL A   1      36.909  21.645  24.865  1.00  0.00     0.098 A 
ATOM     25  C   UNL A   1      37.466  23.956  26.310  1.00  0.00     0.008 A 
ATOM     26  C   UNL A   1      36.191  23.760  25.767  1.00  0.00     0.052 A 
BRANCH  22  27
ATOM     27  O   UNL A   1      39.194  20.911  25.346  1.00  0.00    -0.497 OA
ATOM     28  C   UNL A   1      40.015  20.734  26.499  1.00  0.00     0.278 C 
ENDBRANCH  22  27
ENDBRANCH   8  21
ENDBRANCH   6   7
ENDBRANCH   5   6
ENDBRANCH   3   5
ENDBRANCH   2   3
ENDBRANCH   1   2
BRANCH   1  29
ATOM     29  C   UNL A   1      31.875  30.537  26.221  1.00  0.00     0.275 C 
BRANCH  29  30
ATOM     30  O   UNL A   1      33.259  30.773  26.481  1.00  0.00    -0.458 OA
BRANCH  30  31
ATOM     31  C   UNL A   1      33.547  31.845  27.244  1.00  0.00     0.338 C 
ATOM     32  O   UNL A   1      32.930  32.870  27.416  1.00  0.00    -0.246 OA
BRANCH  31  33
ATOM     33  C   UNL A   1      34.759  31.466  27.960  1.00  0.00     0.060 A 
ATOM     34  C   UNL A   1      34.899  30.144  28.388  1.00  0.00     0.016 A 
ATOM     35  C   UNL A   1      35.762  32.416  28.138  1.00  0.00     0.016 A 
ATOM     36  C   UNL A   1      36.064  29.764  29.030  1.00  0.00     0.010 A 
ATOM     37  C   UNL A   1      36.934  32.029  28.769  1.00  0.00     0.010 A 
ATOM     38  C   UNL A   1      37.073  30.710  29.235  1.00  0.00    -0.014 A 
BRANCH  38  39
ATOM     39  C   UNL A   1      38.244  30.348  30.048  1.00  0.00     0.031 A 
ATOM     40  C   UNL A   1      39.270  29.441  29.446  1.00  0.00     0.074 A 
ATOM     41  C   UNL A   1      38.366  30.845  31.288  1.00  0.00     0.049 A 
ATOM     42  N   UNL A   1      40.338  28.923  29.989  1.00  0.00    -0.248 NA
ATOM     43  C   UNL A   1      39.057  29.051  28.041  1.00  0.00     0.031 C 
ATOM     44  C   UNL A   1      37.422  31.765  31.924  1.00  0.00     0.029 A 
ATOM     45  N   UNL A   1      39.331  30.640  32.236  1.00  0.00    -0.354 N 
ATOM     46  C   UNL A   1      40.911  28.132  29.003  1.00  0.00     0.074 A 
ATOM     47  C   UNL A   1      40.060  28.211  27.837  1.00  0.00     0.031 C 
ATOM     48  C   UNL A   1      37.858  32.048  33.163  1.00  0.00     0.029 A 
ATOM     49  C   UNL A   1      39.079  31.290  33.418  1.00  0.00     0.049 A 
ATOM     50  H   UNL A   1      40.128  30.083  32.085  1.00  0.00     0.167 HD
ATOM     51  C   UNL A   1      42.054  27.414  29.076  1.00  0.00     0.037 A 
ATOM     52  C   UNL A   1      39.754  31.245  34.580  1.00  0.00     0.037 A 
ATOM     53  C   UNL A   1      42.880  27.366  30.252  1.00  0.00     0.049 A 
ATOM     54  C   UNL A   1      40.993  30.392  34.647  1.00  0.00     0.074 A 
ATOM     55  C   UNL A   1      44.070  26.690  30.445  1.00  0.00     0.029 A 
ATOM     56  N   UNL A   1      42.590  28.021  31.442  1.00  0.00    -0.354 N 
ATOM     57  N   UNL A   1      41.548  29.660  33.710  1.00  0.00    -0.248 NA
ATOM     58  C   UNL A   1      41.702  30.360  35.931  1.00  0.00     0.031 C 
ATOM     59  C   UNL A   1      44.468  26.886  31.772  1.00  0.00     0.029 A 
ATOM     60  C   UNL A   1      43.564  27.742  32.385  1.00  0.00     0.049 A 
ATOM     61  H   UNL A   1      41.807  28.599  31.593  1.00  0.00     0.167 HD
ATOM     62  C   UNL A   1      42.685  29.105  34.278  1.00  0.00     0.074 A 
ATOM     63  C   UNL A   1      42.747  29.601  35.639  1.00  0.00     0.031 C 
ATOM     64  C   UNL A   1      43.596  28.262  33.730  1.00  0.00     0.037 A 
BRANCH  51  65
ATOM     65  C   UNL A   1      42.444  26.601  27.875  1.00  0.00     0.064 A 
ATOM     66  C   UNL A   1      41.941  25.311  27.652  1.00  0.00     0.173 A 
ATOM     67  C   UNL A   1      43.329  27.131  26.923  1.00  0.00     0.173 A 
ATOM     68  F   UNL A   1      41.108  24.746  28.541  1.00  0.00    -0.203 F 
ATOM     69  C   UNL A   1      42.327  24.572  26.536  1.00  0.00     0.198 A 
ATOM     70  C   UNL A   1      43.687  26.403  25.792  1.00  0.00     0.198 A 
ATOM     71  F   UNL A   1      43.845  28.358  27.088  1.00  0.00    -0.203 F 
ATOM     72  F   UNL A   1      41.875  23.321  26.372  1.00  0.00    -0.200 F 
ATOM     73  C   UNL A   1      43.193  25.122  25.603  1.00  0.00     0.200 A 
ATOM     74  F   UNL A   1      44.515  26.942  24.886  1.00  0.00    -0.200 F 
ATOM     75  F   UNL A   1      43.558  24.414  24.525  1.00  0.00    -0.200 F 
ENDBRANCH  51  65
BRANCH  52  76
ATOM     76  C   UNL A   1      39.267  32.010  35.757  1.00  0.00     0.064 A 
ATOM     77  C   UNL A   1      39.699  33.322  35.997  1.00  0.00     0.173 A 
ATOM     78  C   UNL A   1      38.362  31.447  36.669  1.00  0.00     0.173 A 
ATOM     79  F   UNL A   1      40.576  33.901  35.164  1.00  0.00    -0.203 F 
ATOM     80  C   UNL A   1      39.264  34.030  37.116  1.00  0.00     0.198 A 
ATOM     81  C   UNL A   1      37.902  32.168  37.769  1.00  0.00     0.198 A 
ATOM     82  F   UNL A   1      37.912  30.197  36.487  1.00  0.00    -0.203 F 
ATOM     83  F   UNL A   1      39.734  35.264  37.348  1.00  0.00    -0.200 F 
ATOM     84  C   UNL A   1      38.362  33.456  37.998  1.00  0.00     0.200 A 
ATOM     85  F   UNL A   1      37.016  31.615  38.608  1.00  0.00    -0.200 F 
ATOM     86  F   UNL A   1      37.942  34.138  39.071  1.00  0.00    -0.200 F 
ENDBRANCH  52  76
BRANCH  64  87
ATOM     87  C   UNL A   1      44.759  27.867  34.592  1.00  0.00     0.064 A 
ATOM     88  C   UNL A   1      45.929  28.635  34.654  1.00  0.00     0.173 A 
ATOM     89  C   UNL A   1      44.680  26.720  35.399  1.00  0.00     0.173 A 
ATOM     90  F   UNL A   1      46.060  29.731  33.892  1.00  0.00    -0.203 F 
ATOM     91  C   UNL A   1      46.992  28.252  35.467  1.00  0.00     0.198 A 
ATOM     92  C   UNL A   1      45.728  26.362  36.239  1.00  0.00     0.198 A 
ATOM     93  F   UNL A   1      43.576  25.956  35.383  1.00  0.00    -0.203 F 
ATOM     94  F   UNL A   1      48.125  28.968  35.466  1.00  0.00    -0.200 F 
ATOM     95  C   UNL A   1      46.887  27.123  36.265  1.00  0.00     0.200 A 
ATOM     96  F   UNL A   1      45.617  25.282  37.023  1.00  0.00    -0.200 F 
ATOM     97  F   UNL A   1      47.908  26.761  37.054  1.00  0.00    -0.200 F 
ENDBRANCH  64  87
ENDBRANCH  38  39
ENDBRANCH  31  33
ENDBRANCH  30  31
ENDBRANCH  29  30
ENDBRANCH   1  29
TORSDOF 15
ENDMDL
