MODEL 1
REMARK VINA RESULT:     -13.4      0.000      0.000
REMARK SMILES CCn1ncc(NC(=O)[C@@H]2CCCC[C@@H]2C(=O)OCCOC(=O)c2ccc(-c3c4nc(c(-c5c(F)c(F)c(F)c(F)c5F)c5ccc([nH]5)c(-c5c(F)c(F)c(F)c(F)c5F)c5nc(c(-c6c(F)c(F)c(F)c(F)c6F)c6ccc3[nH]6)C=C5)C=C4)cc2)c1C(=O)Nc1cnn(C)c1C
REMARK SMILES IDX 19 1 18 2 16 3 17 4 15 5 10 6 11 7 12 8 14 9 13 10 8 11 7 12
REMARK SMILES IDX 9 14 6 15 3 16 4 17 87 18 5 19 2 20 1 21 88 22 89 23 90 24
REMARK SMILES IDX 91 26 92 27 96 28 93 29 94 30 97 31 95 32 20 33 21 34 22 35
REMARK SMILES IDX 23 36 24 37 25 38 86 39 26 40 85 41 27 42 28 43 29 44 79 45
REMARK SMILES IDX 30 46 84 47 78 48 80 49 31 50 83 51 77 52 76 53 32 55 64 56
REMARK SMILES IDX 44 57 63 58 45 59 48 60 62 61 81 62 46 63 47 64 61 66 82 67
REMARK SMILES IDX 49 68 33 69 34 70 42 71 35 72 36 73 40 74 43 75 37 76 38 77
REMARK SMILES IDX 41 78 39 79 65 80 66 81 74 82 67 83 68 84 72 85 75 86 69 87
REMARK SMILES IDX 70 88 73 89 71 90 50 91 51 92 59 93 52 94 53 95 57 96 60 97
REMARK SMILES IDX 54 98 55 99 58 100 56 101
REMARK H PARENT 7 13 90 25 80 54 48 65
REMARK Flexibility Score: inf
ROOT
ATOM      1  C   UNL A   1      37.832  22.811  25.754  1.00  0.00     0.274 C 
ENDROOT
BRANCH   1   2
ATOM      2  O   UNL A   1      36.497  22.807  25.204  1.00  0.00    -0.462 OA
BRANCH   2   3
ATOM      3  C   UNL A   1      35.947  21.575  24.981  1.00  0.00     0.309 C 
ATOM      4  O   UNL A   1      36.606  20.542  24.963  1.00  0.00    -0.252 OA
BRANCH   3   5
ATOM      5  C   UNL A   1      34.449  21.673  24.659  1.00  0.00     0.111 C 
ATOM      6  C   UNL A   1      33.850  23.122  24.769  1.00  0.00     0.093 C 
ATOM      7  C   UNL A   1      34.221  23.694  26.135  1.00  0.00     0.014 C 
ATOM      8  C   UNL A   1      33.690  22.802  27.258  1.00  0.00     0.001 C 
ATOM      9  C   UNL A   1      33.708  20.801  25.683  1.00  0.00     0.016 C 
ATOM     10  C   UNL A   1      33.950  21.307  27.106  1.00  0.00     0.001 C 
BRANCH   6  11
ATOM     11  C   UNL A   1      34.044  23.926  23.475  1.00  0.00     0.228 C 
ATOM     12  N   UNL A   1      33.779  25.246  23.293  1.00  0.00    -0.322 N 
ATOM     13  H   UNL A   1      34.024  25.567  22.395  1.00  0.00     0.170 HD
ATOM     14  O   UNL A   1      34.447  23.336  22.460  1.00  0.00    -0.274 OA
BRANCH  12  15
ATOM     15  C   UNL A   1      33.242  26.239  24.088  1.00  0.00     0.092 A 
ATOM     16  N   UNL A   1      32.102  27.362  25.540  1.00  0.00    -0.258 N 
ATOM     17  N   UNL A   1      33.318  27.962  25.553  1.00  0.00    -0.178 NA
ATOM     18  C   UNL A   1      31.920  26.568  24.417  1.00  0.00     0.150 A 
ATOM     19  C   UNL A   1      34.023  27.245  24.688  1.00  0.00     0.162 A 
BRANCH  16  20
ATOM     20  C   UNL A   1      31.328  27.528  26.755  1.00  0.00     0.142 C 
ATOM     21  C   UNL A   1      31.675  28.777  27.550  1.00  0.00     0.029 C 
ENDBRANCH  16  20
BRANCH  18  22
ATOM     22  C   UNL A   1      30.740  26.092  23.695  1.00  0.00     0.276 C 
ATOM     23  O   UNL A   1      30.597  24.891  23.444  1.00  0.00    -0.267 OA
ATOM     24  N   UNL A   1      29.616  26.867  23.550  1.00  0.00    -0.318 N 
ATOM     25  H   UNL A   1      28.806  26.518  23.986  1.00  0.00     0.170 HD
BRANCH  24  26
ATOM     26  C   UNL A   1      29.458  28.055  22.884  1.00  0.00     0.082 A 
ATOM     27  C   UNL A   1      30.367  28.802  22.116  1.00  0.00     0.161 A 
ATOM     28  C   UNL A   1      28.264  28.748  22.811  1.00  0.00     0.059 A 
ATOM     29  N   UNL A   1      29.848  29.970  21.731  1.00  0.00    -0.179 NA
ATOM     30  N   UNL A   1      28.596  29.948  22.227  1.00  0.00    -0.271 N 
ATOM     31  C   UNL A   1      26.913  28.458  23.354  1.00  0.00     0.068 C 
ATOM     32  C   UNL A   1      27.836  31.177  22.237  1.00  0.00     0.174 C 
ENDBRANCH  24  26
ENDBRANCH  18  22
ENDBRANCH  12  15
ENDBRANCH   6  11
ENDBRANCH   3   5
ENDBRANCH   2   3
ENDBRANCH   1   2
BRANCH   1  33
ATOM     33  C   UNL A   1      38.201  24.091  26.504  1.00  0.00     0.275 C 
BRANCH  33  34
ATOM     34  O   UNL A   1      39.380  23.948  27.298  1.00  0.00    -0.458 OA
BRANCH  34  35
ATOM     35  C   UNL A   1      40.037  25.115  27.473  1.00  0.00     0.338 C 
ATOM     36  O   UNL A   1      41.168  25.385  27.101  1.00  0.00    -0.246 OA
BRANCH  35  37
ATOM     37  C   UNL A   1      39.262  26.039  28.302  1.00  0.00     0.060 A 
ATOM     38  C   UNL A   1      38.716  27.140  27.638  1.00  0.00     0.016 A 
ATOM     39  C   UNL A   1      39.441  26.021  29.686  1.00  0.00     0.016 A 
ATOM     40  C   UNL A   1      38.579  28.327  28.315  1.00  0.00     0.010 A 
ATOM     41  C   UNL A   1      39.293  27.209  30.370  1.00  0.00     0.010 A 
ATOM     42  C   UNL A   1      38.988  28.368  29.645  1.00  0.00    -0.014 A 
BRANCH  42  43
ATOM     43  C   UNL A   1      39.193  29.683  30.232  1.00  0.00     0.031 A 
ATOM     44  C   UNL A   1      40.541  30.276  30.047  1.00  0.00     0.074 A 
ATOM     45  C   UNL A   1      38.155  30.326  30.804  1.00  0.00     0.049 A 
ATOM     46  N   UNL A   1      41.273  30.904  30.911  1.00  0.00    -0.248 NA
ATOM     47  C   UNL A   1      41.190  30.082  28.739  1.00  0.00     0.031 C 
ATOM     48  C   UNL A   1      36.753  29.896  30.861  1.00  0.00     0.029 A 
ATOM     49  N   UNL A   1      38.106  31.590  31.305  1.00  0.00    -0.354 N 
ATOM     50  C   UNL A   1      42.412  31.308  30.223  1.00  0.00     0.074 A 
ATOM     51  C   UNL A   1      42.357  30.695  28.921  1.00  0.00     0.031 C 
ATOM     52  C   UNL A   1      35.973  30.976  31.080  1.00  0.00     0.029 A 
ATOM     53  C   UNL A   1      36.829  32.132  31.277  1.00  0.00     0.049 A 
ATOM     54  H   UNL A   1      38.892  32.069  31.652  1.00  0.00     0.167 HD
ATOM     55  C   UNL A   1      43.250  32.269  30.695  1.00  0.00     0.037 A 
ATOM     56  C   UNL A   1      36.519  33.450  31.266  1.00  0.00     0.037 A 
ATOM     57  C   UNL A   1      43.128  32.456  32.111  1.00  0.00     0.049 A 
ATOM     58  C   UNL A   1      37.702  34.196  31.768  1.00  0.00     0.074 A 
ATOM     59  C   UNL A   1      43.347  31.644  33.207  1.00  0.00     0.029 A 
ATOM     60  N   UNL A   1      42.425  33.535  32.582  1.00  0.00    -0.354 N 
ATOM     61  N   UNL A   1      38.123  34.152  33.003  1.00  0.00    -0.248 NA
ATOM     62  C   UNL A   1      38.685  34.651  30.793  1.00  0.00     0.031 C 
ATOM     63  C   UNL A   1      42.364  32.031  34.161  1.00  0.00     0.029 A 
ATOM     64  C   UNL A   1      41.625  33.070  33.595  1.00  0.00     0.049 A 
ATOM     65  H   UNL A   1      42.483  34.463  32.258  1.00  0.00     0.167 HD
ATOM     66  C   UNL A   1      39.507  34.160  32.904  1.00  0.00     0.074 A 
ATOM     67  C   UNL A   1      39.793  34.575  31.534  1.00  0.00     0.031 C 
ATOM     68  C   UNL A   1      40.288  33.550  33.844  1.00  0.00     0.037 A 
BRANCH  55  69
ATOM     69  C   UNL A   1      43.973  33.234  29.804  1.00  0.00     0.064 A 
ATOM     70  C   UNL A   1      43.250  34.172  29.045  1.00  0.00     0.173 A 
ATOM     71  C   UNL A   1      45.334  33.076  29.463  1.00  0.00     0.173 A 
ATOM     72  F   UNL A   1      41.942  34.367  29.268  1.00  0.00    -0.203 F 
ATOM     73  C   UNL A   1      43.842  34.868  27.989  1.00  0.00     0.198 A 
ATOM     74  C   UNL A   1      45.933  33.810  28.444  1.00  0.00     0.198 A 
ATOM     75  F   UNL A   1      46.096  32.132  30.032  1.00  0.00    -0.203 F 
ATOM     76  F   UNL A   1      43.095  35.673  27.221  1.00  0.00    -0.200 F 
ATOM     77  C   UNL A   1      45.181  34.686  27.688  1.00  0.00     0.200 A 
ATOM     78  F   UNL A   1      47.225  33.602  28.153  1.00  0.00    -0.200 F 
ATOM     79  F   UNL A   1      45.735  35.313  26.643  1.00  0.00    -0.200 F 
ENDBRANCH  55  69
BRANCH  56  80
ATOM     80  C   UNL A   1      35.389  34.090  30.549  1.00  0.00     0.064 A 
ATOM     81  C   UNL A   1      34.362  34.742  31.247  1.00  0.00     0.173 A 
ATOM     82  C   UNL A   1      35.394  34.266  29.147  1.00  0.00     0.173 A 
ATOM     83  F   UNL A   1      34.315  34.684  32.586  1.00  0.00    -0.203 F 
ATOM     84  C   UNL A   1      33.397  35.513  30.585  1.00  0.00     0.198 A 
ATOM     85  C   UNL A   1      34.420  35.015  28.487  1.00  0.00     0.198 A 
ATOM     86  F   UNL A   1      36.393  33.793  28.391  1.00  0.00    -0.203 F 
ATOM     87  F   UNL A   1      32.463  36.164  31.292  1.00  0.00    -0.200 F 
ATOM     88  C   UNL A   1      33.426  35.646  29.206  1.00  0.00     0.200 A 
ATOM     89  F   UNL A   1      34.485  35.161  27.156  1.00  0.00    -0.200 F 
ATOM     90  F   UNL A   1      32.526  36.413  28.577  1.00  0.00    -0.200 F 
ENDBRANCH  56  80
BRANCH  68  91
ATOM     91  C   UNL A   1      39.626  33.075  35.106  1.00  0.00     0.064 A 
ATOM     92  C   UNL A   1      39.359  33.917  36.198  1.00  0.00     0.173 A 
ATOM     93  C   UNL A   1      39.099  31.778  35.149  1.00  0.00     0.173 A 
ATOM     94  F   UNL A   1      39.724  35.204  36.181  1.00  0.00    -0.203 F 
ATOM     95  C   UNL A   1      38.646  33.465  37.306  1.00  0.00     0.198 A 
ATOM     96  C   UNL A   1      38.353  31.340  36.241  1.00  0.00     0.198 A 
ATOM     97  F   UNL A   1      39.262  30.950  34.105  1.00  0.00    -0.203 F 
ATOM     98  F   UNL A   1      38.419  34.289  38.340  1.00  0.00    -0.200 F 
ATOM     99  C   UNL A   1      38.138  32.179  37.323  1.00  0.00     0.200 A 
ATOM    100  F   UNL A   1      37.816  30.112  36.231  1.00  0.00    -0.200 F 
ATOM    101  F   UNL A   1      37.414  31.756  38.369  1.00  0.00    -0.200 F 
ENDBRANCH  68  91
ENDBRANCH  42  43
ENDBRANCH  35  37
ENDBRANCH  34  35
ENDBRANCH  33  34
ENDBRANCH   1  33
TORSDOF 16
ENDMDL
MODEL 2
REMARK VINA RESULT:     -13.3      1.466      2.631
REMARK SMILES CCn1ncc(NC(=O)[C@@H]2CCCC[C@@H]2C(=O)OCCOC(=O)c2ccc(-c3c4nc(c(-c5c(F)c(F)c(F)c(F)c5F)c5ccc([nH]5)c(-c5c(F)c(F)c(F)c(F)c5F)c5nc(c(-c6c(F)c(F)c(F)c(F)c6F)c6ccc3[nH]6)C=C5)C=C4)cc2)c1C(=O)Nc1cnn(C)c1C
REMARK SMILES IDX 19 1 18 2 16 3 17 4 15 5 10 6 11 7 12 8 14 9 13 10 8 11 7 12
REMARK SMILES IDX 9 14 6 15 3 16 4 17 87 18 5 19 2 20 1 21 88 22 89 23 90 24
REMARK SMILES IDX 91 26 92 27 96 28 93 29 94 30 97 31 95 32 20 33 21 34 22 35
REMARK SMILES IDX 23 36 24 37 25 38 86 39 26 40 85 41 27 42 28 43 29 44 79 45
REMARK SMILES IDX 30 46 84 47 78 48 80 49 31 50 83 51 77 52 76 53 32 55 64 56
REMARK SMILES IDX 44 57 63 58 45 59 48 60 62 61 81 62 46 63 47 64 61 66 82 67
REMARK SMILES IDX 49 68 33 69 34 70 42 71 35 72 36 73 40 74 43 75 37 76 38 77
REMARK SMILES IDX 41 78 39 79 65 80 66 81 74 82 67 83 68 84 72 85 75 86 69 87
REMARK SMILES IDX 70 88 73 89 71 90 50 91 51 92 59 93 52 94 53 95 57 96 60 97
REMARK SMILES IDX 54 98 55 99 58 100 56 101
REMARK H PARENT 7 13 90 25 80 54 48 65
REMARK Flexibility Score: inf
ROOT
ATOM      1  C   UNL A   1      37.697  23.334  25.781  1.00  0.00     0.274 C 
ENDROOT
BRANCH   1   2
ATOM      2  O   UNL A   1      36.470  24.096  25.769  1.00  0.00    -0.462 OA
BRANCH   2   3
ATOM      3  C   UNL A   1      35.341  23.413  26.125  1.00  0.00     0.309 C 
ATOM      4  O   UNL A   1      35.329  22.540  26.985  1.00  0.00    -0.252 OA
BRANCH   3   5
ATOM      5  C   UNL A   1      34.143  23.805  25.247  1.00  0.00     0.111 C 
ATOM      6  C   UNL A   1      32.807  23.051  25.589  1.00  0.00     0.093 C 
ATOM      7  C   UNL A   1      33.092  21.550  25.602  1.00  0.00     0.014 C 
ATOM      8  C   UNL A   1      33.642  21.093  24.250  1.00  0.00     0.001 C 
ATOM      9  C   UNL A   1      34.505  23.445  23.799  1.00  0.00     0.016 C 
ATOM     10  C   UNL A   1      34.761  21.943  23.659  1.00  0.00     0.001 C 
BRANCH   6  11
ATOM     11  C   UNL A   1      32.031  23.737  26.722  1.00  0.00     0.228 C 
ATOM     12  N   UNL A   1      31.265  24.855  26.618  1.00  0.00    -0.322 N 
ATOM     13  H   UNL A   1      30.818  25.094  27.463  1.00  0.00     0.170 HD
ATOM     14  O   UNL A   1      32.117  23.275  27.870  1.00  0.00    -0.274 OA
BRANCH  12  15
ATOM     15  C   UNL A   1      30.973  25.731  25.592  1.00  0.00     0.092 A 
ATOM     16  N   UNL A   1      31.042  26.975  23.826  1.00  0.00    -0.258 N 
ATOM     17  N   UNL A   1      29.763  26.527  23.853  1.00  0.00    -0.178 NA
ATOM     18  C   UNL A   1      31.683  26.809  25.046  1.00  0.00     0.150 A 
ATOM     19  C   UNL A   1      29.738  25.735  24.917  1.00  0.00     0.162 A 
BRANCH  16  20
ATOM     20  C   UNL A   1      31.524  27.363  22.515  1.00  0.00     0.142 C 
ATOM     21  C   UNL A   1      32.211  26.245  21.746  1.00  0.00     0.029 C 
ENDBRANCH  16  20
BRANCH  18  22
ATOM     22  C   UNL A   1      32.816  27.471  25.691  1.00  0.00     0.276 C 
ATOM     23  O   UNL A   1      33.713  26.810  26.223  1.00  0.00    -0.267 OA
ATOM     24  N   UNL A   1      33.108  28.795  25.469  1.00  0.00    -0.318 N 
ATOM     25  H   UNL A   1      33.970  28.966  25.027  1.00  0.00     0.170 HD
BRANCH  24  26
ATOM     26  C   UNL A   1      32.372  29.911  25.772  1.00  0.00     0.082 A 
ATOM     27  C   UNL A   1      31.163  30.385  25.234  1.00  0.00     0.161 A 
ATOM     28  C   UNL A   1      32.699  30.804  26.775  1.00  0.00     0.059 A 
ATOM     29  N   UNL A   1      30.835  31.579  25.729  1.00  0.00    -0.179 NA
ATOM     30  N   UNL A   1      31.820  31.848  26.608  1.00  0.00    -0.271 N 
ATOM     31  C   UNL A   1      33.818  30.835  27.750  1.00  0.00     0.068 C 
ATOM     32  C   UNL A   1      31.934  33.192  27.127  1.00  0.00     0.174 C 
ENDBRANCH  24  26
ENDBRANCH  18  22
ENDBRANCH  12  15
ENDBRANCH   6  11
ENDBRANCH   3   5
ENDBRANCH   2   3
ENDBRANCH   1   2
BRANCH   1  33
ATOM     33  C   UNL A   1      38.672  23.726  26.891  1.00  0.00     0.275 C 
BRANCH  33  34
ATOM     34  O   UNL A   1      39.437  24.890  26.572  1.00  0.00    -0.458 OA
BRANCH  34  35
ATOM     35  C   UNL A   1      40.112  25.379  27.634  1.00  0.00     0.338 C 
ATOM     36  O   UNL A   1      41.240  25.075  27.992  1.00  0.00    -0.246 OA
BRANCH  35  37
ATOM     37  C   UNL A   1      39.271  26.272  28.430  1.00  0.00     0.060 A 
ATOM     38  C   UNL A   1      38.772  27.394  27.763  1.00  0.00     0.016 A 
ATOM     39  C   UNL A   1      39.341  26.208  29.822  1.00  0.00     0.016 A 
ATOM     40  C   UNL A   1      38.578  28.557  28.466  1.00  0.00     0.010 A 
ATOM     41  C   UNL A   1      39.135  27.372  30.532  1.00  0.00     0.010 A 
ATOM     42  C   UNL A   1      38.882  28.555  29.825  1.00  0.00    -0.014 A 
BRANCH  42  43
ATOM     43  C   UNL A   1      39.034  29.849  30.470  1.00  0.00     0.031 A 
ATOM     44  C   UNL A   1      40.389  30.452  30.409  1.00  0.00     0.074 A 
ATOM     45  C   UNL A   1      37.952  30.469  30.982  1.00  0.00     0.049 A 
ATOM     46  N   UNL A   1      41.049  31.053  31.347  1.00  0.00    -0.248 NA
ATOM     47  C   UNL A   1      41.137  30.304  29.149  1.00  0.00     0.031 C 
ATOM     48  C   UNL A   1      36.551  30.034  30.916  1.00  0.00     0.029 A 
ATOM     49  N   UNL A   1      37.857  31.716  31.520  1.00  0.00    -0.354 N 
ATOM     50  C   UNL A   1      42.235  31.483  30.763  1.00  0.00     0.074 A 
ATOM     51  C   UNL A   1      42.284  30.914  29.440  1.00  0.00     0.031 C 
ATOM     52  C   UNL A   1      35.752  31.103  31.111  1.00  0.00     0.029 A 
ATOM     53  C   UNL A   1      36.583  32.255  31.412  1.00  0.00     0.049 A 
ATOM     54  H   UNL A   1      38.612  32.185  31.942  1.00  0.00     0.167 HD
ATOM     55  C   UNL A   1      43.029  32.429  31.330  1.00  0.00     0.037 A 
ATOM     56  C   UNL A   1      36.268  33.571  31.421  1.00  0.00     0.037 A 
ATOM     57  C   UNL A   1      42.798  32.568  32.738  1.00  0.00     0.049 A 
ATOM     58  C   UNL A   1      37.405  34.303  32.038  1.00  0.00     0.074 A 
ATOM     59  C   UNL A   1      42.936  31.719  33.820  1.00  0.00     0.029 A 
ATOM     60  N   UNL A   1      42.055  33.628  33.190  1.00  0.00    -0.354 N 
ATOM     61  N   UNL A   1      37.730  34.219  33.299  1.00  0.00    -0.248 NA
ATOM     62  C   UNL A   1      38.458  34.794  31.157  1.00  0.00     0.031 C 
ATOM     63  C   UNL A   1      41.881  32.072  34.707  1.00  0.00     0.029 A 
ATOM     64  C   UNL A   1      41.182  33.127  34.122  1.00  0.00     0.049 A 
ATOM     65  H   UNL A   1      42.133  34.567  32.902  1.00  0.00     0.167 HD
ATOM     66  C   UNL A   1      39.118  34.233  33.307  1.00  0.00     0.074 A 
ATOM     67  C   UNL A   1      39.506  34.696  31.978  1.00  0.00     0.031 C 
ATOM     68  C   UNL A   1      39.828  33.594  34.283  1.00  0.00     0.037 A 
BRANCH  55  69
ATOM     69  C   UNL A   1      43.813  33.427  30.530  1.00  0.00     0.064 A 
ATOM     70  C   UNL A   1      43.148  34.445  29.825  1.00  0.00     0.173 A 
ATOM     71  C   UNL A   1      45.175  33.238  30.211  1.00  0.00     0.173 A 
ATOM     72  F   UNL A   1      41.843  34.677  30.031  1.00  0.00    -0.203 F 
ATOM     73  C   UNL A   1      43.795  35.192  28.838  1.00  0.00     0.198 A 
ATOM     74  C   UNL A   1      45.830  34.019  29.264  1.00  0.00     0.198 A 
ATOM     75  F   UNL A   1      45.884  32.225  30.727  1.00  0.00    -0.203 F 
ATOM     76  F   UNL A   1      43.101  36.080  28.113  1.00  0.00    -0.200 F 
ATOM     77  C   UNL A   1      45.134  34.977  28.557  1.00  0.00     0.200 A 
ATOM     78  F   UNL A   1      47.120  33.780  28.990  1.00  0.00    -0.200 F 
ATOM     79  F   UNL A   1      45.740  35.655  27.574  1.00  0.00    -0.200 F 
ENDBRANCH  55  69
BRANCH  56  80
ATOM     80  C   UNL A   1      35.193  34.232  30.641  1.00  0.00     0.064 A 
ATOM     81  C   UNL A   1      34.128  34.884  31.280  1.00  0.00     0.173 A 
ATOM     82  C   UNL A   1      35.291  34.428  29.246  1.00  0.00     0.173 A 
ATOM     83  F   UNL A   1      33.993  34.808  32.612  1.00  0.00    -0.203 F 
ATOM     84  C   UNL A   1      33.215  35.673  30.569  1.00  0.00     0.198 A 
ATOM     85  C   UNL A   1      34.369  35.195  28.534  1.00  0.00     0.198 A 
ATOM     86  F   UNL A   1      36.334  33.956  28.549  1.00  0.00    -0.203 F 
ATOM     87  F   UNL A   1      32.243  36.323  31.222  1.00  0.00    -0.200 F 
ATOM     88  C   UNL A   1      33.336  35.826  29.197  1.00  0.00     0.200 A 
ATOM     89  F   UNL A   1      34.523  35.360  27.213  1.00  0.00    -0.200 F 
ATOM     90  F   UNL A   1      32.485  36.610  28.521  1.00  0.00    -0.200 F 
ENDBRANCH  56  80
BRANCH  68  91
ATOM     91  C   UNL A   1      39.073  33.075  35.474  1.00  0.00     0.064 A 
ATOM     92  C   UNL A   1      38.632  31.745  35.584  1.00  0.00     0.173 A 
ATOM     93  C   UNL A   1      38.936  33.894  36.601  1.00  0.00     0.173 A 
ATOM     94  F   UNL A   1      38.835  30.868  34.596  1.00  0.00    -0.203 F 
ATOM     95  C   UNL A   1      38.032  31.274  36.750  1.00  0.00     0.198 A 
ATOM     96  C   UNL A   1      38.370  33.410  37.778  1.00  0.00     0.198 A 
ATOM     97  F   UNL A   1      39.401  35.153  36.578  1.00  0.00    -0.203 F 
ATOM     98  F   UNL A   1      37.609  30.003  36.820  1.00  0.00    -0.200 F 
ATOM     99  C   UNL A   1      37.908  32.106  37.848  1.00  0.00     0.200 A 
ATOM    100  F   UNL A   1      38.301  34.202  38.858  1.00  0.00    -0.200 F 
ATOM    101  F   UNL A   1      37.370  31.642  38.985  1.00  0.00    -0.200 F 
ENDBRANCH  68  91
ENDBRANCH  42  43
ENDBRANCH  35  37
ENDBRANCH  34  35
ENDBRANCH  33  34
ENDBRANCH   1  33
TORSDOF 16
ENDMDL
MODEL 3
REMARK VINA RESULT:     -13.3      5.862     10.945
REMARK SMILES CCn1ncc(NC(=O)[C@@H]2CCCC[C@@H]2C(=O)OCCOC(=O)c2ccc(-c3c4nc(c(-c5c(F)c(F)c(F)c(F)c5F)c5ccc([nH]5)c(-c5c(F)c(F)c(F)c(F)c5F)c5nc(c(-c6c(F)c(F)c(F)c(F)c6F)c6ccc3[nH]6)C=C5)C=C4)cc2)c1C(=O)Nc1cnn(C)c1C
REMARK SMILES IDX 19 1 18 2 16 3 17 4 15 5 10 6 11 7 12 8 14 9 13 10 8 11 7 12
REMARK SMILES IDX 9 14 6 15 3 16 4 17 87 18 5 19 2 20 1 21 88 22 89 23 90 24
REMARK SMILES IDX 91 26 92 27 96 28 93 29 94 30 97 31 95 32 20 33 21 34 22 35
REMARK SMILES IDX 23 36 24 37 25 38 86 39 26 40 85 41 27 42 28 43 29 44 79 45
REMARK SMILES IDX 30 46 84 47 78 48 80 49 31 50 83 51 77 52 76 53 32 55 64 56
REMARK SMILES IDX 44 57 63 58 45 59 48 60 62 61 81 62 46 63 47 64 61 66 82 67
REMARK SMILES IDX 49 68 33 69 34 70 42 71 35 72 36 73 40 74 43 75 37 76 38 77
REMARK SMILES IDX 41 78 39 79 65 80 66 81 74 82 67 83 68 84 72 85 75 86 69 87
REMARK SMILES IDX 70 88 73 89 71 90 50 91 51 92 59 93 52 94 53 95 57 96 60 97
REMARK SMILES IDX 54 98 55 99 58 100 56 101
REMARK H PARENT 7 13 90 25 80 54 48 65
REMARK Flexibility Score: inf
ROOT
ATOM      1  C   UNL A   1      34.797  28.937  26.400  1.00  0.00     0.274 C 
ENDROOT
BRANCH   1   2
ATOM      2  O   UNL A   1      33.793  29.402  25.473  1.00  0.00    -0.462 OA
BRANCH   2   3
ATOM      3  C   UNL A   1      33.636  28.656  24.339  1.00  0.00     0.309 C 
ATOM      4  O   UNL A   1      34.234  28.890  23.295  1.00  0.00    -0.252 OA
BRANCH   3   5
ATOM      5  C   UNL A   1      32.557  27.577  24.516  1.00  0.00     0.111 C 
ATOM      6  C   UNL A   1      31.981  27.001  23.172  1.00  0.00     0.093 C 
ATOM      7  C   UNL A   1      31.540  28.171  22.296  1.00  0.00     0.014 C 
ATOM      8  C   UNL A   1      30.489  29.018  23.016  1.00  0.00     0.001 C 
ATOM      9  C   UNL A   1      31.385  28.229  25.264  1.00  0.00     0.016 C 
ATOM     10  C   UNL A   1      30.804  29.393  24.460  1.00  0.00     0.001 C 
BRANCH   6  11
ATOM     11  C   UNL A   1      32.844  25.857  22.620  1.00  0.00     0.228 C 
ATOM     12  N   UNL A   1      32.903  24.584  23.094  1.00  0.00    -0.322 N 
ATOM     13  H   UNL A   1      33.487  24.001  22.556  1.00  0.00     0.170 HD
ATOM     14  O   UNL A   1      33.607  26.089  21.669  1.00  0.00    -0.274 OA
BRANCH  12  15
ATOM     15  C   UNL A   1      32.324  23.926  24.161  1.00  0.00     0.092 A 
ATOM     16  N   UNL A   1      31.951  22.878  26.013  1.00  0.00    -0.258 N 
ATOM     17  N   UNL A   1      30.864  23.676  25.872  1.00  0.00    -0.178 NA
ATOM     18  C   UNL A   1      32.659  22.740  24.828  1.00  0.00     0.150 A 
ATOM     19  C   UNL A   1      31.117  24.344  24.753  1.00  0.00     0.162 A 
BRANCH  16  20
ATOM     20  C   UNL A   1      32.243  22.484  27.377  1.00  0.00     0.142 C 
ATOM     21  C   UNL A   1      33.719  22.531  27.737  1.00  0.00     0.029 C 
ENDBRANCH  16  20
BRANCH  18  22
ATOM     22  C   UNL A   1      33.570  21.722  24.307  1.00  0.00     0.276 C 
ATOM     23  O   UNL A   1      33.137  20.644  23.887  1.00  0.00    -0.267 OA
ATOM     24  N   UNL A   1      34.868  22.014  23.964  1.00  0.00    -0.318 N 
ATOM     25  H   UNL A   1      35.085  21.904  23.011  1.00  0.00     0.170 HD
BRANCH  24  26
ATOM     26  C   UNL A   1      35.903  22.436  24.757  1.00  0.00     0.082 A 
ATOM     27  C   UNL A   1      36.173  23.698  25.316  1.00  0.00     0.161 A 
ATOM     28  C   UNL A   1      36.912  21.611  25.217  1.00  0.00     0.059 A 
ATOM     29  N   UNL A   1      37.354  23.722  25.936  1.00  0.00    -0.179 NA
ATOM     30  N   UNL A   1      37.819  22.465  25.800  1.00  0.00    -0.271 N 
ATOM     31  C   UNL A   1      37.167  20.159  25.037  1.00  0.00     0.068 C 
ATOM     32  C   UNL A   1      39.205  22.203  26.113  1.00  0.00     0.174 C 
ENDBRANCH  24  26
ENDBRANCH  18  22
ENDBRANCH  12  15
ENDBRANCH   6  11
ENDBRANCH   3   5
ENDBRANCH   2   3
ENDBRANCH   1   2
BRANCH   1  33
ATOM     33  C   UNL A   1      35.126  29.922  27.522  1.00  0.00     0.275 C 
BRANCH  33  34
ATOM     34  O   UNL A   1      35.974  29.358  28.524  1.00  0.00    -0.458 OA
BRANCH  34  35
ATOM     35  C   UNL A   1      37.205  29.912  28.539  1.00  0.00     0.338 C 
ATOM     36  O   UNL A   1      37.521  30.987  29.024  1.00  0.00    -0.246 OA
BRANCH  35  37
ATOM     37  C   UNL A   1      38.156  29.109  27.771  1.00  0.00     0.060 A 
ATOM     38  C   UNL A   1      38.154  27.738  28.041  1.00  0.00     0.016 A 
ATOM     39  C   UNL A   1      39.239  29.742  27.159  1.00  0.00     0.016 A 
ATOM     40  C   UNL A   1      39.328  27.035  27.936  1.00  0.00     0.010 A 
ATOM     41  C   UNL A   1      40.416  29.034  27.041  1.00  0.00     0.010 A 
ATOM     42  C   UNL A   1      40.471  27.731  27.551  1.00  0.00    -0.014 A 
BRANCH  42  43
ATOM     43  C   UNL A   1      41.751  27.087  27.802  1.00  0.00     0.031 A 
ATOM     44  C   UNL A   1      42.401  27.410  29.097  1.00  0.00     0.074 A 
ATOM     45  C   UNL A   1      42.222  26.178  26.925  1.00  0.00     0.049 A 
ATOM     46  N   UNL A   1      43.646  27.674  29.332  1.00  0.00    -0.248 NA
ATOM     47  C   UNL A   1      41.529  27.520  30.279  1.00  0.00     0.031 C 
ATOM     48  C   UNL A   1      41.557  25.661  25.722  1.00  0.00     0.029 A 
ATOM     49  N   UNL A   1      43.326  25.389  27.023  1.00  0.00    -0.354 N 
ATOM     50  C   UNL A   1      43.745  27.846  30.709  1.00  0.00     0.074 A 
ATOM     51  C   UNL A   1      42.403  27.837  31.232  1.00  0.00     0.031 C 
ATOM     52  C   UNL A   1      42.110  24.476  25.392  1.00  0.00     0.029 A 
ATOM     53  C   UNL A   1      43.217  24.214  26.294  1.00  0.00     0.049 A 
ATOM     54  H   UNL A   1      44.119  25.628  27.555  1.00  0.00     0.167 HD
ATOM     55  C   UNL A   1      44.933  27.805  31.367  1.00  0.00     0.037 A 
ATOM     56  C   UNL A   1      43.893  23.064  26.524  1.00  0.00     0.037 A 
ATOM     57  C   UNL A   1      46.049  28.054  30.504  1.00  0.00     0.049 A 
ATOM     58  C   UNL A   1      45.087  23.398  27.343  1.00  0.00     0.074 A 
ATOM     59  C   UNL A   1      46.445  29.132  29.735  1.00  0.00     0.029 A 
ATOM     60  N   UNL A   1      46.812  26.996  30.079  1.00  0.00    -0.354 N 
ATOM     61  N   UNL A   1      46.106  24.084  26.903  1.00  0.00    -0.248 NA
ATOM     62  C   UNL A   1      44.955  23.345  28.794  1.00  0.00     0.031 C 
ATOM     63  C   UNL A   1      47.062  28.565  28.585  1.00  0.00     0.029 A 
ATOM     64  C   UNL A   1      47.025  27.179  28.736  1.00  0.00     0.049 A 
ATOM     65  H   UNL A   1      47.143  26.250  30.631  1.00  0.00     0.167 HD
ATOM     66  C   UNL A   1      46.483  24.883  27.974  1.00  0.00     0.074 A 
ATOM     67  C   UNL A   1      45.812  24.309  29.136  1.00  0.00     0.031 C 
ATOM     68  C   UNL A   1      47.064  26.103  27.777  1.00  0.00     0.037 A 
BRANCH  55  69
ATOM     69  C   UNL A   1      45.083  27.250  32.753  1.00  0.00     0.064 A 
ATOM     70  C   UNL A   1      45.646  28.038  33.772  1.00  0.00     0.173 A 
ATOM     71  C   UNL A   1      44.948  25.873  33.035  1.00  0.00     0.173 A 
ATOM     72  F   UNL A   1      45.849  29.351  33.586  1.00  0.00    -0.203 F 
ATOM     73  C   UNL A   1      46.083  27.475  34.973  1.00  0.00     0.198 A 
ATOM     74  C   UNL A   1      45.337  25.325  34.253  1.00  0.00     0.198 A 
ATOM     75  F   UNL A   1      44.537  25.002  32.104  1.00  0.00    -0.203 F 
ATOM     76  F   UNL A   1      46.712  28.239  35.877  1.00  0.00    -0.200 F 
ATOM     77  C   UNL A   1      45.931  26.119  35.212  1.00  0.00     0.200 A 
ATOM     78  F   UNL A   1      45.202  24.006  34.456  1.00  0.00    -0.200 F 
ATOM     79  F   UNL A   1      46.398  25.570  36.340  1.00  0.00    -0.200 F 
ENDBRANCH  55  69
BRANCH  56  80
ATOM     80  C   UNL A   1      43.382  21.683  26.344  1.00  0.00     0.064 A 
ATOM     81  C   UNL A   1      43.985  20.798  25.439  1.00  0.00     0.173 A 
ATOM     82  C   UNL A   1      42.417  21.121  27.210  1.00  0.00     0.173 A 
ATOM     83  F   UNL A   1      44.958  21.227  24.622  1.00  0.00    -0.203 F 
ATOM     84  C   UNL A   1      43.641  19.440  25.397  1.00  0.00     0.198 A 
ATOM     85  C   UNL A   1      42.058  19.775  27.153  1.00  0.00     0.198 A 
ATOM     86  F   UNL A   1      41.864  21.842  28.194  1.00  0.00    -0.203 F 
ATOM     87  F   UNL A   1      44.278  18.615  24.556  1.00  0.00    -0.200 F 
ATOM     88  C   UNL A   1      42.676  18.932  26.252  1.00  0.00     0.200 A 
ATOM     89  F   UNL A   1      41.148  19.295  28.012  1.00  0.00    -0.200 F 
ATOM     90  F   UNL A   1      42.373  17.627  26.237  1.00  0.00    -0.200 F 
ENDBRANCH  56  80
BRANCH  68  91
ATOM     91  C   UNL A   1      47.499  26.457  26.384  1.00  0.00     0.064 A 
ATOM     92  C   UNL A   1      46.681  27.150  25.476  1.00  0.00     0.173 A 
ATOM     93  C   UNL A   1      48.831  26.239  26.013  1.00  0.00     0.173 A 
ATOM     94  F   UNL A   1      45.433  27.501  25.803  1.00  0.00    -0.203 F 
ATOM     95  C   UNL A   1      47.158  27.555  24.232  1.00  0.00     0.198 A 
ATOM     96  C   UNL A   1      49.317  26.679  24.784  1.00  0.00     0.198 A 
ATOM     97  F   UNL A   1      49.679  25.644  26.867  1.00  0.00    -0.203 F 
ATOM     98  F   UNL A   1      46.349  28.202  23.380  1.00  0.00    -0.200 F 
ATOM     99  C   UNL A   1      48.479  27.325  23.890  1.00  0.00     0.200 A 
ATOM    100  F   UNL A   1      50.611  26.504  24.478  1.00  0.00    -0.200 F 
ATOM    101  F   UNL A   1      48.952  27.754  22.711  1.00  0.00    -0.200 F 
ENDBRANCH  68  91
ENDBRANCH  42  43
ENDBRANCH  35  37
ENDBRANCH  34  35
ENDBRANCH  33  34
ENDBRANCH   1  33
TORSDOF 16
ENDMDL
