MODEL 1
REMARK VINA RESULT:     -14.5      0.000      0.000
REMARK SMILES O=C(OCCOC(=O)[C@H]1CCCN(c2cc(-c3ccccn3)nc(-c3ccccc3F)n2)C1)c1ccc(-c2c3nc(c(-c4c(F)c(F)c(F)c(F)c4F)c4ccc([nH]4)c(-c4c(F)c(F)c(F)c(F)c4F)c4nc(c(-c5c(F)c(F)c(F)c(F)c5F)c5ccc2[nH]5)C=C4)C=C3)cc1
REMARK SMILES IDX 4 1 3 2 2 3 1 4 34 5 35 6 96 7 36 8 95 9 37 10 38 11 39 12
REMARK SMILES IDX 89 13 40 14 94 15 88 16 90 17 41 18 93 19 87 20 86 21 42 23
REMARK SMILES IDX 74 24 54 25 73 26 55 27 58 28 72 29 91 30 56 31 57 32 71 34
REMARK SMILES IDX 92 35 59 36 43 37 44 38 52 39 45 40 46 41 50 42 53 43 47 44
REMARK SMILES IDX 48 45 51 46 49 47 75 48 76 49 84 50 77 51 78 52 82 53 85 54
REMARK SMILES IDX 79 55 80 56 83 57 81 58 60 59 61 60 69 61 62 62 63 63 67 64
REMARK SMILES IDX 70 65 64 66 65 67 68 68 66 69 5 70 6 71 7 72 8 73 9 74 10 75
REMARK SMILES IDX 33 76 11 77 13 78 12 79 14 80 15 81 32 82 16 83 24 84 23 85
REMARK SMILES IDX 17 86 18 87 22 88 19 89 21 90 20 91 25 92 26 93 30 94 27 95
REMARK SMILES IDX 29 96 31 97 28 98
REMARK H PARENT 90 22 58 33
REMARK Flexibility Score: inf
ROOT
ATOM      1  C   UNL A   1      44.118  22.513  25.120  1.00  0.00     0.275 C 
ENDROOT
BRANCH   1   2
ATOM      2  O   UNL A   1      43.713  23.826  24.700  1.00  0.00    -0.458 OA
BRANCH   2   3
ATOM      3  C   UNL A   1      44.110  25.041  25.144  1.00  0.00     0.338 C 
ATOM      4  O   UNL A   1      45.242  25.438  24.873  1.00  0.00    -0.246 OA
BRANCH   3   5
ATOM      5  C   UNL A   1      43.296  25.857  26.094  1.00  0.00     0.060 A 
ATOM      6  C   UNL A   1      42.329  25.360  26.968  1.00  0.00     0.016 A 
ATOM      7  C   UNL A   1      43.595  27.229  26.147  1.00  0.00     0.016 A 
ATOM      8  C   UNL A   1      41.833  26.144  28.005  1.00  0.00     0.010 A 
ATOM      9  C   UNL A   1      43.099  28.021  27.187  1.00  0.00     0.010 A 
ATOM     10  C   UNL A   1      42.274  27.455  28.172  1.00  0.00    -0.014 A 
BRANCH  10  11
ATOM     11  C   UNL A   1      41.833  28.218  29.363  1.00  0.00     0.031 A 
ATOM     12  C   UNL A   1      40.645  29.110  29.218  1.00  0.00     0.074 A 
ATOM     13  C   UNL A   1      42.457  28.062  30.553  1.00  0.00     0.049 A 
ATOM     14  N   UNL A   1      40.075  29.878  30.106  1.00  0.00    -0.248 NA
ATOM     15  C   UNL A   1      39.982  29.121  27.900  1.00  0.00     0.031 C 
ATOM     16  C   UNL A   1      43.585  27.162  30.805  1.00  0.00     0.029 A 
ATOM     17  N   UNL A   1      42.273  28.682  31.770  1.00  0.00    -0.354 N 
ATOM     18  C   UNL A   1      38.933  30.358  29.489  1.00  0.00     0.074 A 
ATOM     19  C   UNL A   1      38.972  29.948  28.108  1.00  0.00     0.031 C 
ATOM     20  C   UNL A   1      44.071  27.383  32.037  1.00  0.00     0.029 A 
ATOM     21  C   UNL A   1      43.317  28.455  32.650  1.00  0.00     0.049 A 
ATOM     22  H   UNL A   1      41.483  29.229  31.990  1.00  0.00     0.167 HD
ATOM     23  C   UNL A   1      37.889  30.995  30.058  1.00  0.00     0.037 A 
ATOM     24  C   UNL A   1      43.664  29.141  33.759  1.00  0.00     0.037 A 
ATOM     25  C   UNL A   1      37.866  31.415  31.423  1.00  0.00     0.049 A 
ATOM     26  C   UNL A   1      42.485  29.987  34.372  1.00  0.00     0.074 A 
ATOM     27  C   UNL A   1      36.863  32.073  32.106  1.00  0.00     0.029 A 
ATOM     28  N   UNL A   1      38.911  31.219  32.311  1.00  0.00    -0.354 N 
ATOM     29  N   UNL A   1      41.378  30.420  33.787  1.00  0.00    -0.248 NA
ATOM     30  C   UNL A   1      42.512  30.336  35.803  1.00  0.00     0.031 C 
ATOM     31  C   UNL A   1      37.324  32.325  33.400  1.00  0.00     0.029 A 
ATOM     32  C   UNL A   1      38.582  31.757  33.537  1.00  0.00     0.049 A 
ATOM     33  H   UNL A   1      39.759  30.766  32.099  1.00  0.00     0.167 HD
ATOM     34  C   UNL A   1      40.629  31.080  34.767  1.00  0.00     0.074 A 
ATOM     35  C   UNL A   1      41.373  30.981  35.993  1.00  0.00     0.031 C 
ATOM     36  C   UNL A   1      39.418  31.692  34.704  1.00  0.00     0.037 A 
BRANCH  23  37
ATOM     37  C   UNL A   1      36.683  31.207  29.207  1.00  0.00     0.064 A 
ATOM     38  C   UNL A   1      35.848  30.140  28.863  1.00  0.00     0.173 A 
ATOM     39  C   UNL A   1      36.363  32.488  28.725  1.00  0.00     0.173 A 
ATOM     40  F   UNL A   1      36.108  28.905  29.319  1.00  0.00    -0.203 F 
ATOM     41  C   UNL A   1      34.733  30.345  28.058  1.00  0.00     0.198 A 
ATOM     42  C   UNL A   1      35.232  32.693  27.943  1.00  0.00     0.198 A 
ATOM     43  F   UNL A   1      37.122  33.544  29.056  1.00  0.00    -0.203 F 
ATOM     44  F   UNL A   1      33.948  29.309  27.731  1.00  0.00    -0.200 F 
ATOM     45  C   UNL A   1      34.423  31.620  27.604  1.00  0.00     0.200 A 
ATOM     46  F   UNL A   1      34.916  33.931  27.538  1.00  0.00    -0.200 F 
ATOM     47  F   UNL A   1      33.334  31.816  26.849  1.00  0.00    -0.200 F 
ENDBRANCH  23  37
BRANCH  24  48
ATOM     48  C   UNL A   1      45.205  29.103  34.463  1.00  0.00     0.064 A 
ATOM     49  C   UNL A   1      46.699  30.394  34.951  1.00  0.00     0.173 A 
ATOM     50  C   UNL A   1      44.935  27.739  35.618  1.00  0.00     0.173 A 
ATOM     51  F   UNL A   1      47.103  31.593  34.419  1.00  0.00    -0.203 F 
ATOM     52  C   UNL A   1      47.566  30.164  36.514  1.00  0.00     0.198 A 
ATOM     53  C   UNL A   1      45.846  27.672  37.108  1.00  0.00     0.198 A 
ATOM     54  F   UNL A   1      44.005  26.806  35.363  1.00  0.00    -0.203 F 
ATOM     55  F   UNL A   1      48.495  31.042  36.914  1.00  0.00    -0.200 F 
ATOM     56  C   UNL A   1      47.098  28.833  37.539  1.00  0.00     0.200 A 
ATOM     57  F   UNL A   1      45.620  26.643  37.941  1.00  0.00    -0.200 F 
ATOM     58  F   UNL A   1      47.748  28.655  38.700  1.00  0.00    -0.200 F 
ENDBRANCH  24  48
BRANCH  36  59
ATOM     59  C   UNL A   1      38.869  32.343  35.951  1.00  0.00     0.064 A 
ATOM     60  C   UNL A   1      39.185  33.677  36.259  1.00  0.00     0.173 A 
ATOM     61  C   UNL A   1      38.156  31.604  36.906  1.00  0.00     0.173 A 
ATOM     62  F   UNL A   1      39.877  34.427  35.387  1.00  0.00    -0.203 F 
ATOM     63  C   UNL A   1      38.842  34.232  37.489  1.00  0.00     0.198 A 
ATOM     64  C   UNL A   1      37.786  32.174  38.124  1.00  0.00     0.198 A 
ATOM     65  F   UNL A   1      37.819  30.329  36.662  1.00  0.00    -0.203 F 
ATOM     66  F   UNL A   1      39.212  35.487  37.783  1.00  0.00    -0.200 F 
ATOM     67  C   UNL A   1      38.143  33.480  38.420  1.00  0.00     0.200 A 
ATOM     68  F   UNL A   1      37.095  31.452  39.017  1.00  0.00    -0.200 F 
ATOM     69  F   UNL A   1      37.821  34.013  39.607  1.00  0.00    -0.200 F 
ENDBRANCH  36  59
ENDBRANCH  10  11
ENDBRANCH   3   5
ENDBRANCH   2   3
ENDBRANCH   1   2
BRANCH   1  70
ATOM     70  C   UNL A   1      43.050  21.670  25.837  1.00  0.00     0.274 C 
BRANCH  70  71
ATOM     71  O   UNL A   1      41.676  22.095  25.656  1.00  0.00    -0.462 OA
BRANCH  71  72
ATOM     72  C   UNL A   1      40.745  21.251  26.182  1.00  0.00     0.310 C 
ATOM     73  O   UNL A   1      40.989  20.073  26.435  1.00  0.00    -0.252 OA
BRANCH  72  74
ATOM     74  C   UNL A   1      39.352  21.848  26.436  1.00  0.00     0.118 C 
ATOM     75  C   UNL A   1      39.524  23.371  26.411  1.00  0.00     0.019 C 
ATOM     76  C   UNL A   1      38.200  21.373  25.538  1.00  0.00     0.133 C 
ATOM     77  C   UNL A   1      38.197  24.092  26.574  1.00  0.00     0.022 C 
ATOM     78  N   UNL A   1      37.024  22.276  25.467  1.00  0.00    -0.356 N 
ATOM     79  C   UNL A   1      37.236  23.714  25.455  1.00  0.00     0.118 C 
BRANCH  78  80
ATOM     80  C   UNL A   1      35.754  21.763  25.241  1.00  0.00     0.133 A 
ATOM     81  C   UNL A   1      35.453  20.422  25.134  1.00  0.00     0.077 A 
ATOM     82  N   UNL A   1      34.768  22.638  25.069  1.00  0.00    -0.211 NA
ATOM     83  C   UNL A   1      34.128  20.062  24.854  1.00  0.00     0.095 A 
ATOM     84  C   UNL A   1      33.507  22.232  24.762  1.00  0.00     0.165 A 
ATOM     85  N   UNL A   1      33.132  20.966  24.663  1.00  0.00    -0.226 NA
BRANCH  83  86
ATOM     86  C   UNL A   1      33.727  18.648  24.751  1.00  0.00     0.089 A 
ATOM     87  C   UNL A   1      34.414  17.739  23.945  1.00  0.00     0.030 A 
ATOM     88  N   UNL A   1      32.656  18.273  25.499  1.00  0.00    -0.255 NA
ATOM     89  C   UNL A   1      34.013  16.403  23.928  1.00  0.00     0.004 A 
ATOM     90  C   UNL A   1      32.302  16.969  25.478  1.00  0.00     0.112 A 
ATOM     91  C   UNL A   1      32.940  16.007  24.715  1.00  0.00     0.020 A 
ENDBRANCH  83  86
BRANCH  84  92
ATOM     92  C   UNL A   1      32.556  23.357  24.667  1.00  0.00     0.055 A 
ATOM     93  C   UNL A   1      32.488  24.003  22.997  1.00  0.00     0.015 A 
ATOM     94  C   UNL A   1      31.597  24.095  25.979  1.00  0.00     0.134 A 
ATOM     95  C   UNL A   1      31.582  25.363  22.475  1.00  0.00     0.001 A 
ATOM     96  C   UNL A   1      30.600  25.577  25.592  1.00  0.00     0.040 A 
ATOM     97  F   UNL A   1      31.637  23.639  27.236  1.00  0.00    -0.206 F 
ATOM     98  C   UNL A   1      30.614  26.208  23.676  1.00  0.00     0.003 A 
ENDBRANCH  84  92
ENDBRANCH  78  80
ENDBRANCH  72  74
ENDBRANCH  71  72
ENDBRANCH  70  71
ENDBRANCH   1  70
TORSDOF 14
ENDMDL
MODEL 2
REMARK VINA RESULT:     -14.4      4.821      9.426
REMARK SMILES O=C(OCCOC(=O)[C@H]1CCCN(c2cc(-c3ccccn3)nc(-c3ccccc3F)n2)C1)c1ccc(-c2c3nc(c(-c4c(F)c(F)c(F)c(F)c4F)c4ccc([nH]4)c(-c4c(F)c(F)c(F)c(F)c4F)c4nc(c(-c5c(F)c(F)c(F)c(F)c5F)c5ccc2[nH]5)C=C4)C=C3)cc1
REMARK SMILES IDX 4 1 3 2 2 3 1 4 34 5 35 6 96 7 36 8 95 9 37 10 38 11 39 12
REMARK SMILES IDX 89 13 40 14 94 15 88 16 90 17 41 18 93 19 87 20 86 21 42 23
REMARK SMILES IDX 74 24 54 25 73 26 55 27 58 28 72 29 91 30 56 31 57 32 71 34
REMARK SMILES IDX 92 35 59 36 43 37 44 38 52 39 45 40 46 41 50 42 53 43 47 44
REMARK SMILES IDX 48 45 51 46 49 47 75 48 76 49 84 50 77 51 78 52 82 53 85 54
REMARK SMILES IDX 79 55 80 56 83 57 81 58 60 59 61 60 69 61 62 62 63 63 67 64
REMARK SMILES IDX 70 65 64 66 65 67 68 68 66 69 5 70 6 71 7 72 8 73 9 74 10 75
REMARK SMILES IDX 33 76 11 77 13 78 12 79 14 80 15 81 32 82 16 83 24 84 23 85
REMARK SMILES IDX 17 86 18 87 22 88 19 89 21 90 20 91 25 92 26 93 30 94 27 95
REMARK SMILES IDX 29 96 31 97 28 98
REMARK H PARENT 90 22 58 33
REMARK Flexibility Score: inf
ROOT
ATOM      1  C   UNL A   1      42.987  18.529  25.966  1.00  0.00     0.275 C 
ENDROOT
BRANCH   1   2
ATOM      2  O   UNL A   1      43.334  19.146  24.716  1.00  0.00    -0.458 OA
BRANCH   2   3
ATOM      3  C   UNL A   1      44.518  19.649  24.295  1.00  0.00     0.338 C 
ATOM      4  O   UNL A   1      45.321  18.904  23.737  1.00  0.00    -0.246 OA
BRANCH   3   5
ATOM      5  C   UNL A   1      44.968  21.034  24.625  1.00  0.00     0.060 A 
ATOM      6  C   UNL A   1      44.905  22.134  23.768  1.00  0.00     0.016 A 
ATOM      7  C   UNL A   1      45.423  21.243  25.938  1.00  0.00     0.016 A 
ATOM      8  C   UNL A   1      45.075  23.427  24.252  1.00  0.00     0.010 A 
ATOM      9  C   UNL A   1      45.595  22.540  26.429  1.00  0.00     0.010 A 
ATOM     10  C   UNL A   1      45.342  23.646  25.602  1.00  0.00    -0.014 A 
BRANCH  10  11
ATOM     11  C   UNL A   1      45.382  25.037  26.112  1.00  0.00     0.031 A 
ATOM     12  C   UNL A   1      46.720  25.676  26.287  1.00  0.00     0.074 A 
ATOM     13  C   UNL A   1      44.238  25.717  26.355  1.00  0.00     0.049 A 
ATOM     14  N   UNL A   1      47.013  26.872  26.720  1.00  0.00    -0.248 NA
ATOM     15  C   UNL A   1      47.894  24.875  25.892  1.00  0.00     0.031 C 
ATOM     16  C   UNL A   1      42.884  25.195  26.149  1.00  0.00     0.029 A 
ATOM     17  N   UNL A   1      44.014  26.975  26.871  1.00  0.00    -0.354 N 
ATOM     18  C   UNL A   1      48.379  26.998  26.534  1.00  0.00     0.074 A 
ATOM     19  C   UNL A   1      48.888  25.715  26.120  1.00  0.00     0.031 C 
ATOM     20  C   UNL A   1      41.988  26.059  26.652  1.00  0.00     0.029 A 
ATOM     21  C   UNL A   1      42.695  27.174  27.242  1.00  0.00     0.049 A 
ATOM     22  H   UNL A   1      44.717  27.659  26.965  1.00  0.00     0.167 HD
ATOM     23  C   UNL A   1      49.124  28.120  26.601  1.00  0.00     0.037 A 
ATOM     24  C   UNL A   1      42.173  28.101  28.072  1.00  0.00     0.037 A 
ATOM     25  C   UNL A   1      48.616  29.383  27.031  1.00  0.00     0.049 A 
ATOM     26  C   UNL A   1      43.087  29.371  28.255  1.00  0.00     0.074 A 
ATOM     27  C   UNL A   1      49.282  30.588  27.143  1.00  0.00     0.029 A 
ATOM     28  N   UNL A   1      47.307  29.596  27.432  1.00  0.00    -0.354 N 
ATOM     29  N   UNL A   1      44.389  29.497  28.048  1.00  0.00    -0.248 NA
ATOM     30  C   UNL A   1      42.477  30.652  28.653  1.00  0.00     0.031 C 
ATOM     31  C   UNL A   1      48.385  31.523  27.664  1.00  0.00     0.029 A 
ATOM     32  C   UNL A   1      47.146  30.914  27.805  1.00  0.00     0.049 A 
ATOM     33  H   UNL A   1      46.600  28.911  27.447  1.00  0.00     0.167 HD
ATOM     34  C   UNL A   1      44.716  30.833  28.303  1.00  0.00     0.074 A 
ATOM     35  C   UNL A   1      43.493  31.498  28.657  1.00  0.00     0.031 C 
ATOM     36  C   UNL A   1      45.902  31.492  28.229  1.00  0.00     0.037 A 
BRANCH  23  37
ATOM     37  C   UNL A   1      50.538  28.019  26.138  1.00  0.00     0.064 A 
ATOM     38  C   UNL A   1      51.591  27.930  27.055  1.00  0.00     0.173 A 
ATOM     39  C   UNL A   1      50.845  28.017  24.767  1.00  0.00     0.173 A 
ATOM     40  F   UNL A   1      51.339  27.908  28.372  1.00  0.00    -0.203 F 
ATOM     41  C   UNL A   1      52.907  27.848  26.614  1.00  0.00     0.198 A 
ATOM     42  C   UNL A   1      52.160  27.908  24.330  1.00  0.00     0.198 A 
ATOM     43  F   UNL A   1      49.862  28.071  23.854  1.00  0.00    -0.203 F 
ATOM     44  F   UNL A   1      53.904  27.773  27.506  1.00  0.00    -0.200 F 
ATOM     45  C   UNL A   1      53.190  27.832  25.255  1.00  0.00     0.200 A 
ATOM     46  F   UNL A   1      52.426  27.855  23.018  1.00  0.00    -0.200 F 
ATOM     47  F   UNL A   1      54.458  27.730  24.836  1.00  0.00    -0.200 F 
ENDBRANCH  23  37
BRANCH  24  48
ATOM     48  C   UNL A   1      40.672  27.954  28.844  1.00  0.00     0.064 A 
ATOM     49  C   UNL A   1      39.909  27.980  30.729  1.00  0.00     0.173 A 
ATOM     50  C   UNL A   1      39.642  28.715  27.568  1.00  0.00     0.173 A 
ATOM     51  F   UNL A   1      40.436  27.640  31.950  1.00  0.00    -0.203 F 
ATOM     52  C   UNL A   1      38.346  28.830  31.020  1.00  0.00     0.198 A 
ATOM     53  C   UNL A   1      38.159  29.524  28.018  1.00  0.00     0.198 A 
ATOM     54  F   UNL A   1      40.033  28.708  26.285  1.00  0.00    -0.203 F 
ATOM     55  F   UNL A   1      37.854  28.947  32.260  1.00  0.00    -0.200 F 
ATOM     56  C   UNL A   1      37.544  29.584  29.667  1.00  0.00     0.200 A 
ATOM     57  F   UNL A   1      37.420  30.076  27.044  1.00  0.00    -0.200 F 
ATOM     58  F   UNL A   1      36.376  30.211  29.880  1.00  0.00    -0.200 F 
ENDBRANCH  24  48
BRANCH  36  59
ATOM     59  C   UNL A   1      45.941  32.957  28.592  1.00  0.00     0.064 A 
ATOM     60  C   UNL A   1      45.764  33.943  27.606  1.00  0.00     0.173 A 
ATOM     61  C   UNL A   1      46.296  33.381  29.881  1.00  0.00     0.173 A 
ATOM     62  F   UNL A   1      45.436  33.594  26.352  1.00  0.00    -0.203 F 
ATOM     63  C   UNL A   1      45.980  35.290  27.887  1.00  0.00     0.198 A 
ATOM     64  C   UNL A   1      46.479  34.733  30.167  1.00  0.00     0.198 A 
ATOM     65  F   UNL A   1      46.469  32.484  30.863  1.00  0.00    -0.203 F 
ATOM     66  F   UNL A   1      45.868  36.203  26.913  1.00  0.00    -0.200 F 
ATOM     67  C   UNL A   1      46.337  35.683  29.167  1.00  0.00     0.200 A 
ATOM     68  F   UNL A   1      46.808  35.115  31.409  1.00  0.00    -0.200 F 
ATOM     69  F   UNL A   1      46.553  36.979  29.435  1.00  0.00    -0.200 F 
ENDBRANCH  36  59
ENDBRANCH  10  11
ENDBRANCH   3   5
ENDBRANCH   2   3
ENDBRANCH   1   2
BRANCH   1  70
ATOM     70  C   UNL A   1      42.151  19.381  26.936  1.00  0.00     0.274 C 
BRANCH  70  71
ATOM     71  O   UNL A   1      40.868  19.836  26.439  1.00  0.00    -0.462 OA
BRANCH  71  72
ATOM     72  C   UNL A   1      40.777  21.181  26.245  1.00  0.00     0.310 C 
ATOM     73  O   UNL A   1      41.746  21.872  25.938  1.00  0.00    -0.252 OA
BRANCH  72  74
ATOM     74  C   UNL A   1      39.385  21.805  26.443  1.00  0.00     0.118 C 
ATOM     75  C   UNL A   1      39.587  23.323  26.423  1.00  0.00     0.019 C 
ATOM     76  C   UNL A   1      38.262  21.350  25.499  1.00  0.00     0.133 C 
ATOM     77  C   UNL A   1      38.269  24.070  26.531  1.00  0.00     0.022 C 
ATOM     78  N   UNL A   1      37.108  22.275  25.379  1.00  0.00    -0.356 N 
ATOM     79  C   UNL A   1      37.347  23.708  25.375  1.00  0.00     0.118 C 
BRANCH  78  80
ATOM     80  C   UNL A   1      35.838  21.786  25.102  1.00  0.00     0.133 A 
ATOM     81  C   UNL A   1      35.505  20.449  25.039  1.00  0.00     0.077 A 
ATOM     82  N   UNL A   1      34.890  22.677  24.832  1.00  0.00    -0.211 NA
ATOM     83  C   UNL A   1      34.188  20.112  24.698  1.00  0.00     0.095 A 
ATOM     84  C   UNL A   1      33.638  22.291  24.470  1.00  0.00     0.165 A 
ATOM     85  N   UNL A   1      33.232  21.032  24.406  1.00  0.00    -0.226 NA
BRANCH  83  86
ATOM     86  C   UNL A   1      33.753  18.705  24.636  1.00  0.00     0.089 A 
ATOM     87  C   UNL A   1      34.467  17.738  23.927  1.00  0.00     0.030 A 
ATOM     88  N   UNL A   1      32.621  18.398  25.323  1.00  0.00    -0.255 NA
ATOM     89  C   UNL A   1      34.028  16.415  23.948  1.00  0.00     0.004 A 
ATOM     90  C   UNL A   1      32.230  17.105  25.341  1.00  0.00     0.112 A 
ATOM     91  C   UNL A   1      32.891  16.088  24.674  1.00  0.00     0.020 A 
ENDBRANCH  83  86
BRANCH  84  92
ATOM     92  C   UNL A   1      32.727  23.435  24.268  1.00  0.00     0.055 A 
ATOM     93  C   UNL A   1      31.826  23.814  25.770  1.00  0.00     0.015 A 
ATOM     94  C   UNL A   1      32.437  24.351  22.765  1.00  0.00     0.134 A 
ATOM     95  C   UNL A   1      30.605  25.006  25.943  1.00  0.00     0.001 A 
ATOM     96  C   UNL A   1      31.139  25.639  22.774  1.00  0.00     0.040 A 
ATOM     97  F   UNL A   1      33.088  24.083  21.627  1.00  0.00    -0.206 F 
ATOM     98  C   UNL A   1      30.193  25.964  24.526  1.00  0.00     0.003 A 
ENDBRANCH  84  92
ENDBRANCH  78  80
ENDBRANCH  72  74
ENDBRANCH  71  72
ENDBRANCH  70  71
ENDBRANCH   1  70
TORSDOF 14
ENDMDL
MODEL 3
REMARK VINA RESULT:     -14.4      1.243      7.341
REMARK SMILES O=C(OCCOC(=O)[C@H]1CCCN(c2cc(-c3ccccn3)nc(-c3ccccc3F)n2)C1)c1ccc(-c2c3nc(c(-c4c(F)c(F)c(F)c(F)c4F)c4ccc([nH]4)c(-c4c(F)c(F)c(F)c(F)c4F)c4nc(c(-c5c(F)c(F)c(F)c(F)c5F)c5ccc2[nH]5)C=C4)C=C3)cc1
REMARK SMILES IDX 4 1 3 2 2 3 1 4 34 5 35 6 96 7 36 8 95 9 37 10 38 11 39 12
REMARK SMILES IDX 89 13 40 14 94 15 88 16 90 17 41 18 93 19 87 20 86 21 42 23
REMARK SMILES IDX 74 24 54 25 73 26 55 27 58 28 72 29 91 30 56 31 57 32 71 34
REMARK SMILES IDX 92 35 59 36 43 37 44 38 52 39 45 40 46 41 50 42 53 43 47 44
REMARK SMILES IDX 48 45 51 46 49 47 75 48 76 49 84 50 77 51 78 52 82 53 85 54
REMARK SMILES IDX 79 55 80 56 83 57 81 58 60 59 61 60 69 61 62 62 63 63 67 64
REMARK SMILES IDX 70 65 64 66 65 67 68 68 66 69 5 70 6 71 7 72 8 73 9 74 10 75
REMARK SMILES IDX 33 76 11 77 13 78 12 79 14 80 15 81 32 82 16 83 24 84 23 85
REMARK SMILES IDX 17 86 18 87 22 88 19 89 21 90 20 91 25 92 26 93 30 94 27 95
REMARK SMILES IDX 29 96 31 97 28 98
REMARK H PARENT 90 22 58 33
REMARK Flexibility Score: inf
ROOT
ATOM      1  C   UNL A   1      44.350  22.211  24.583  1.00  0.00     0.275 C 
ENDROOT
BRANCH   1   2
ATOM      2  O   UNL A   1      45.270  23.105  25.229  1.00  0.00    -0.458 OA
BRANCH   2   3
ATOM      3  C   UNL A   1      45.329  24.457  25.207  1.00  0.00     0.338 C 
ATOM      4  O   UNL A   1      46.278  25.007  24.651  1.00  0.00    -0.246 OA
BRANCH   3   5
ATOM      5  C   UNL A   1      44.377  25.316  25.972  1.00  0.00     0.060 A 
ATOM      6  C   UNL A   1      43.163  24.898  26.517  1.00  0.00     0.016 A 
ATOM      7  C   UNL A   1      44.792  26.637  26.214  1.00  0.00     0.016 A 
ATOM      8  C   UNL A   1      42.490  25.683  27.448  1.00  0.00     0.010 A 
ATOM      9  C   UNL A   1      44.119  27.430  27.148  1.00  0.00     0.010 A 
ATOM     10  C   UNL A   1      43.003  26.919  27.832  1.00  0.00    -0.014 A 
BRANCH  10  11
ATOM     11  C   UNL A   1      42.338  27.669  28.923  1.00  0.00     0.031 A 
ATOM     12  C   UNL A   1      42.765  27.386  30.325  1.00  0.00     0.074 A 
ATOM     13  C   UNL A   1      41.416  28.620  28.645  1.00  0.00     0.049 A 
ATOM     14  N   UNL A   1      42.332  27.904  31.441  1.00  0.00    -0.248 NA
ATOM     15  C   UNL A   1      43.853  26.404  30.500  1.00  0.00     0.031 C 
ATOM     16  C   UNL A   1      40.984  29.012  27.300  1.00  0.00     0.029 A 
ATOM     17  N   UNL A   1      40.634  29.402  29.466  1.00  0.00    -0.354 N 
ATOM     18  C   UNL A   1      43.171  27.403  32.421  1.00  0.00     0.074 A 
ATOM     19  C   UNL A   1      44.020  26.412  31.811  1.00  0.00     0.031 C 
ATOM     20  C   UNL A   1      39.939  29.849  27.390  1.00  0.00     0.029 A 
ATOM     21  C   UNL A   1      39.604  30.030  28.786  1.00  0.00     0.049 A 
ATOM     22  H   UNL A   1      40.791  29.506  30.433  1.00  0.00     0.167 HD
ATOM     23  C   UNL A   1      43.291  27.816  33.700  1.00  0.00     0.037 A 
ATOM     24  C   UNL A   1      38.467  30.572  29.270  1.00  0.00     0.037 A 
ATOM     25  C   UNL A   1      42.432  28.785  34.303  1.00  0.00     0.049 A 
ATOM     26  C   UNL A   1      38.550  30.953  30.796  1.00  0.00     0.074 A 
ATOM     27  C   UNL A   1      42.458  29.277  35.593  1.00  0.00     0.029 A 
ATOM     28  N   UNL A   1      41.380  29.403  33.646  1.00  0.00    -0.354 N 
ATOM     29  N   UNL A   1      39.373  30.494  31.726  1.00  0.00    -0.248 NA
ATOM     30  C   UNL A   1      37.662  32.001  31.330  1.00  0.00     0.031 C 
ATOM     31  C   UNL A   1      41.384  30.157  35.734  1.00  0.00     0.029 A 
ATOM     32  C   UNL A   1      40.739  30.265  34.510  1.00  0.00     0.049 A 
ATOM     33  H   UNL A   1      41.129  29.250  32.706  1.00  0.00     0.167 HD
ATOM     34  C   UNL A   1      39.080  31.182  32.909  1.00  0.00     0.074 A 
ATOM     35  C   UNL A   1      38.026  32.109  32.597  1.00  0.00     0.031 C 
ATOM     36  C   UNL A   1      39.632  31.106  34.147  1.00  0.00     0.037 A 
BRANCH  23  37
ATOM     37  C   UNL A   1      44.428  27.257  34.485  1.00  0.00     0.064 A 
ATOM     38  C   UNL A   1      44.282  26.077  35.222  1.00  0.00     0.173 A 
ATOM     39  C   UNL A   1      45.674  27.907  34.506  1.00  0.00     0.173 A 
ATOM     40  F   UNL A   1      43.115  25.415  35.213  1.00  0.00    -0.203 F 
ATOM     41  C   UNL A   1      45.344  25.569  35.962  1.00  0.00     0.198 A 
ATOM     42  C   UNL A   1      46.740  27.382  35.225  1.00  0.00     0.198 A 
ATOM     43  F   UNL A   1      45.863  29.026  33.788  1.00  0.00    -0.203 F 
ATOM     44  F   UNL A   1      45.184  24.443  36.670  1.00  0.00    -0.200 F 
ATOM     45  C   UNL A   1      46.572  26.218  35.958  1.00  0.00     0.200 A 
ATOM     46  F   UNL A   1      47.934  27.990  35.189  1.00  0.00    -0.200 F 
ATOM     47  F   UNL A   1      47.599  25.711  36.653  1.00  0.00    -0.200 F 
ENDBRANCH  23  37
BRANCH  24  48
ATOM     48  C   UNL A   1      37.073  30.849  28.348  1.00  0.00     0.064 A 
ATOM     49  C   UNL A   1      35.284  29.958  27.969  1.00  0.00     0.173 A 
ATOM     50  C   UNL A   1      37.049  32.654  28.438  1.00  0.00     0.173 A 
ATOM     51  F   UNL A   1      34.881  28.646  27.966  1.00  0.00    -0.203 F 
ATOM     52  C   UNL A   1      33.809  30.988  27.856  1.00  0.00     0.198 A 
ATOM     53  C   UNL A   1      35.527  33.508  28.333  1.00  0.00     0.198 A 
ATOM     54  F   UNL A   1      38.185  33.340  28.636  1.00  0.00    -0.203 F 
ATOM     55  F   UNL A   1      32.601  30.434  27.695  1.00  0.00    -0.200 F 
ATOM     56  C   UNL A   1      33.980  32.711  28.061  1.00  0.00     0.200 A 
ATOM     57  F   UNL A   1      35.549  34.848  28.402  1.00  0.00    -0.200 F 
ATOM     58  F   UNL A   1      32.884  33.482  27.969  1.00  0.00    -0.200 F 
ENDBRANCH  24  48
BRANCH  36  59
ATOM     59  C   UNL A   1      39.075  31.980  35.244  1.00  0.00     0.064 A 
ATOM     60  C   UNL A   1      39.462  33.327  35.351  1.00  0.00     0.173 A 
ATOM     61  C   UNL A   1      38.278  31.449  36.269  1.00  0.00     0.173 A 
ATOM     62  F   UNL A   1      40.236  33.886  34.406  1.00  0.00    -0.203 F 
ATOM     63  C   UNL A   1      39.106  34.094  36.458  1.00  0.00     0.198 A 
ATOM     64  C   UNL A   1      37.895  32.228  37.359  1.00  0.00     0.198 A 
ATOM     65  F   UNL A   1      37.871  30.171  36.214  1.00  0.00    -0.203 F 
ATOM     66  F   UNL A   1      39.542  35.356  36.566  1.00  0.00    -0.200 F 
ATOM     67  C   UNL A   1      38.323  33.544  37.461  1.00  0.00     0.200 A 
ATOM     68  F   UNL A   1      37.124  31.701  38.320  1.00  0.00    -0.200 F 
ATOM     69  F   UNL A   1      37.987  34.279  38.529  1.00  0.00    -0.200 F 
ENDBRANCH  36  59
ENDBRANCH  10  11
ENDBRANCH   3   5
ENDBRANCH   2   3
ENDBRANCH   1   2
BRANCH   1  70
ATOM     70  C   UNL A   1      43.395  21.436  25.507  1.00  0.00     0.274 C 
BRANCH  70  71
ATOM     71  O   UNL A   1      42.021  21.899  25.534  1.00  0.00    -0.462 OA
BRANCH  71  72
ATOM     72  C   UNL A   1      41.181  21.145  26.297  1.00  0.00     0.310 C 
ATOM     73  O   UNL A   1      41.501  20.045  26.743  1.00  0.00    -0.252 OA
BRANCH  72  74
ATOM     74  C   UNL A   1      39.790  21.740  26.569  1.00  0.00     0.118 C 
ATOM     75  C   UNL A   1      39.990  23.250  26.728  1.00  0.00     0.019 C 
ATOM     76  C   UNL A   1      38.665  21.398  25.580  1.00  0.00     0.133 C 
ATOM     77  C   UNL A   1      38.672  23.978  26.925  1.00  0.00     0.022 C 
ATOM     78  N   UNL A   1      37.510  22.330  25.571  1.00  0.00    -0.356 N 
ATOM     79  C   UNL A   1      37.748  23.754  25.736  1.00  0.00     0.118 C 
BRANCH  78  80
ATOM     80  C   UNL A   1      36.240  21.876  25.241  1.00  0.00     0.133 A 
ATOM     81  C   UNL A   1      35.870  20.549  25.176  1.00  0.00     0.077 A 
ATOM     82  N   UNL A   1      35.333  22.791  24.919  1.00  0.00    -0.211 NA
ATOM     83  C   UNL A   1      34.561  20.247  24.778  1.00  0.00     0.095 A 
ATOM     84  C   UNL A   1      34.087  22.438  24.504  1.00  0.00     0.165 A 
ATOM     85  N   UNL A   1      33.647  21.191  24.433  1.00  0.00    -0.226 NA
BRANCH  83  86
ATOM     86  C   UNL A   1      34.087  18.853  24.709  1.00  0.00     0.089 A 
ATOM     87  C   UNL A   1      34.912  17.809  24.289  1.00  0.00     0.030 A 
ATOM     88  N   UNL A   1      32.801  18.639  25.094  1.00  0.00    -0.255 NA
ATOM     89  C   UNL A   1      34.416  16.505  24.292  1.00  0.00     0.004 A 
ATOM     90  C   UNL A   1      32.355  17.364  25.105  1.00  0.00     0.112 A 
ATOM     91  C   UNL A   1      33.114  16.274  24.715  1.00  0.00     0.020 A 
ENDBRANCH  83  86
BRANCH  84  92
ATOM     92  C   UNL A   1      33.221  23.606  24.249  1.00  0.00     0.055 A 
ATOM     93  C   UNL A   1      33.235  24.050  22.512  1.00  0.00     0.015 A 
ATOM     94  C   UNL A   1      32.291  24.560  25.435  1.00  0.00     0.134 A 
ATOM     95  C   UNL A   1      32.440  25.397  21.807  1.00  0.00     0.001 A 
ATOM     96  C   UNL A   1      31.410  26.051  24.846  1.00  0.00     0.040 A 
ATOM     97  F   UNL A   1      32.271  24.257  26.738  1.00  0.00    -0.206 F 
ATOM     98  C   UNL A   1      31.510  26.445  22.870  1.00  0.00     0.003 A 
ENDBRANCH  84  92
ENDBRANCH  78  80
ENDBRANCH  72  74
ENDBRANCH  71  72
ENDBRANCH  70  71
ENDBRANCH   1  70
TORSDOF 14
ENDMDL
