MODEL 1
REMARK VINA RESULT:     -11.9      0.000      0.000
REMARK SMILES CC(C)(O)C#Cc1ccc(C(=O)N[C@@H](CCC(N)=O)C(=O)OCCOC(=O)c2ccc(-c3c4nc(c(-c5c(F)c(F)c(F)c(F)c5F)c5ccc([nH]5)c(-c5c(F)c(F)c(F)c(F)c5F)c5nc(c(-c6c(F)c(F)c(F)c(F)c6F)c6ccc3[nH]6)C=C5)C=C4)cc2)s1
REMARK SMILES IDX 22 1 20 2 21 3 14 4 13 5 11 6 12 7 10 9 7 10 8 11 91 12 9 13
REMARK SMILES IDX 6 14 5 15 2 16 1 17 3 18 4 19 15 21 16 22 17 23 18 24 19 25
REMARK SMILES IDX 23 28 24 29 25 30 26 31 27 32 28 33 29 34 90 35 30 36 89 37
REMARK SMILES IDX 31 38 32 39 33 40 83 41 34 42 88 43 82 44 84 45 35 46 87 47
REMARK SMILES IDX 81 48 80 49 36 51 68 52 48 53 67 54 49 55 52 56 66 57 85 58
REMARK SMILES IDX 50 59 51 60 65 62 86 63 53 64 37 65 38 66 46 67 39 68 40 69
REMARK SMILES IDX 44 70 47 71 41 72 42 73 45 74 43 75 69 76 70 77 78 78 71 79
REMARK SMILES IDX 72 80 76 81 79 82 73 83 74 84 77 85 75 86 54 87 55 88 63 89
REMARK SMILES IDX 56 90 57 91 61 92 64 93 58 94 59 95 62 96 60 97
REMARK H PARENT 13 8 4 20 18 26 18 27 84 50 52 61
REMARK Flexibility Score: inf
ROOT
ATOM      1  O   UNL A   1      35.439  21.937  24.548  1.00  0.00    -0.461 OA
ENDROOT
BRANCH   1   2
ATOM      2  C   UNL A   1      34.909  23.090  25.023  1.00  0.00     0.328 C 
ATOM      3  O   UNL A   1      35.341  23.715  25.988  1.00  0.00    -0.250 OA
BRANCH   2   4
ATOM      4  C   UNL A   1      33.587  23.451  24.338  1.00  0.00     0.193 C 
BRANCH   4   5
ATOM      5  N   UNL A   1      33.572  23.758  22.900  1.00  0.00    -0.338 N 
ATOM      6  C   UNL A   1      32.930  24.731  22.153  1.00  0.00     0.262 C 
ATOM      7  O   UNL A   1      33.190  24.745  20.947  1.00  0.00    -0.268 OA
ATOM      8  H   UNL A   1      34.129  23.151  22.361  1.00  0.00     0.164 HD
BRANCH   6   9
ATOM      9  C   UNL A   1      32.063  25.755  22.736  1.00  0.00     0.093 A 
ATOM     10  C   UNL A   1      30.760  27.809  23.066  1.00  0.00     0.078 A 
ATOM     11  C   UNL A   1      30.116  26.727  23.622  1.00  0.00     0.030 A 
ATOM     12  S   UNL A   1      32.389  27.432  22.732  1.00  0.00    -0.121 S 
ATOM     13  C   UNL A   1      30.893  25.533  23.460  1.00  0.00     0.027 A 
BRANCH  10  14
ATOM     14  C   UNL A   1      30.203  29.075  22.751  1.00  0.00    -0.053 C 
ATOM     15  C   UNL A   1      29.560  30.075  22.538  1.00  0.00    -0.063 C 
BRANCH  15  16
ATOM     16  C   UNL A   1      28.677  31.213  22.268  1.00  0.00     0.120 C 
ATOM     17  C   UNL A   1      27.669  31.363  23.405  1.00  0.00     0.056 C 
ATOM     18  C   UNL A   1      27.980  31.048  20.920  1.00  0.00     0.056 C 
BRANCH  16  19
ATOM     19  O   UNL A   1      29.471  32.400  22.214  1.00  0.00    -0.378 OA
ATOM     20  H   UNL A   1      29.726  32.576  21.294  1.00  0.00     0.212 HD
ENDBRANCH  16  19
ENDBRANCH  15  16
ENDBRANCH  10  14
ENDBRANCH   6   9
ENDBRANCH   4   5
BRANCH   4  21
ATOM     21  C   UNL A   1      32.585  22.328  24.664  1.00  0.00     0.047 C 
BRANCH  21  22
ATOM     22  C   UNL A   1      32.253  22.132  26.153  1.00  0.00     0.102 C 
BRANCH  22  23
ATOM     23  C   UNL A   1      31.148  22.990  26.737  1.00  0.00     0.217 C 
ATOM     24  N   UNL A   1      29.882  22.501  26.641  1.00  0.00    -0.370 N 
ATOM     25  O   UNL A   1      31.358  24.064  27.292  1.00  0.00    -0.275 OA
ATOM     26  H   UNL A   1      29.720  21.639  26.194  1.00  0.00     0.159 HD
ATOM     27  H   UNL A   1      29.128  23.010  27.018  1.00  0.00     0.159 HD
ENDBRANCH  22  23
ENDBRANCH  21  22
ENDBRANCH   4  21
ENDBRANCH   2   4
ENDBRANCH   1   2
BRANCH   1  28
ATOM     28  C   UNL A   1      36.337  21.241  25.429  1.00  0.00     0.274 C 
BRANCH  28  29
ATOM     29  C   UNL A   1      37.679  21.108  24.744  1.00  0.00     0.275 C 
BRANCH  29  30
ATOM     30  O   UNL A   1      38.711  21.306  25.707  1.00  0.00    -0.458 OA
BRANCH  30  31
ATOM     31  C   UNL A   1      39.663  20.346  25.727  1.00  0.00     0.338 C 
ATOM     32  O   UNL A   1      39.544  19.162  25.459  1.00  0.00    -0.246 OA
BRANCH  31  33
ATOM     33  C   UNL A   1      40.845  20.878  26.394  1.00  0.00     0.060 A 
ATOM     34  C   UNL A   1      40.828  20.850  27.791  1.00  0.00     0.016 A 
ATOM     35  C   UNL A   1      41.569  21.823  25.666  1.00  0.00     0.016 A 
ATOM     36  C   UNL A   1      41.263  21.974  28.454  1.00  0.00     0.010 A 
ATOM     37  C   UNL A   1      41.995  22.935  26.325  1.00  0.00     0.010 A 
ATOM     38  C   UNL A   1      41.719  23.050  27.687  1.00  0.00    -0.014 A 
BRANCH  38  39
ATOM     39  C   UNL A   1      42.168  24.267  28.325  1.00  0.00     0.031 A 
ATOM     40  C   UNL A   1      41.133  25.307  28.115  1.00  0.00     0.074 A 
ATOM     41  C   UNL A   1      43.256  24.296  29.123  1.00  0.00     0.049 A 
ATOM     42  N   UNL A   1      41.180  26.285  27.270  1.00  0.00    -0.248 NA
ATOM     43  C   UNL A   1      39.769  25.042  28.625  1.00  0.00     0.031 C 
ATOM     44  C   UNL A   1      44.158  23.196  29.486  1.00  0.00     0.029 A 
ATOM     45  N   UNL A   1      43.734  25.331  29.880  1.00  0.00    -0.354 N 
ATOM     46  C   UNL A   1      39.946  26.914  27.401  1.00  0.00     0.074 A 
ATOM     47  C   UNL A   1      39.057  25.922  27.919  1.00  0.00     0.031 C 
ATOM     48  C   UNL A   1      44.901  23.549  30.564  1.00  0.00     0.029 A 
ATOM     49  C   UNL A   1      44.621  24.931  30.896  1.00  0.00     0.049 A 
ATOM     50  H   UNL A   1      43.481  26.270  29.726  1.00  0.00     0.167 HD
ATOM     51  C   UNL A   1      39.906  28.266  27.558  1.00  0.00     0.037 A 
ATOM     52  C   UNL A   1      44.997  25.707  31.953  1.00  0.00     0.037 A 
ATOM     53  C   UNL A   1      41.148  28.841  27.083  1.00  0.00     0.049 A 
ATOM     54  C   UNL A   1      44.694  27.115  31.570  1.00  0.00     0.074 A 
ATOM     55  C   UNL A   1      41.831  28.855  25.883  1.00  0.00     0.029 A 
ATOM     56  N   UNL A   1      42.069  29.154  28.050  1.00  0.00    -0.354 N 
ATOM     57  N   UNL A   1      45.304  27.735  30.597  1.00  0.00    -0.248 NA
ATOM     58  C   UNL A   1      43.358  27.596  31.888  1.00  0.00     0.031 C 
ATOM     59  C   UNL A   1      43.214  28.771  26.235  1.00  0.00     0.029 A 
ATOM     60  C   UNL A   1      43.321  28.816  27.624  1.00  0.00     0.049 A 
ATOM     61  H   UNL A   1      41.859  29.560  28.921  1.00  0.00     0.167 HD
ATOM     62  C   UNL A   1      44.279  28.337  29.881  1.00  0.00     0.074 A 
ATOM     63  C   UNL A   1      43.102  28.244  30.749  1.00  0.00     0.031 C 
ATOM     64  C   UNL A   1      44.408  28.562  28.539  1.00  0.00     0.037 A 
BRANCH  51  65
ATOM     65  C   UNL A   1      39.063  28.967  28.622  1.00  0.00     0.064 A 
ATOM     66  C   UNL A   1      38.185  29.979  28.181  1.00  0.00     0.173 A 
ATOM     67  C   UNL A   1      39.294  28.952  30.020  1.00  0.00     0.173 A 
ATOM     68  F   UNL A   1      37.858  30.078  26.884  1.00  0.00    -0.203 F 
ATOM     69  C   UNL A   1      37.713  30.978  29.036  1.00  0.00     0.198 A 
ATOM     70  C   UNL A   1      38.794  29.933  30.875  1.00  0.00     0.198 A 
ATOM     71  F   UNL A   1      40.064  28.055  30.637  1.00  0.00    -0.203 F 
ATOM     72  F   UNL A   1      37.005  31.997  28.534  1.00  0.00    -0.200 F 
ATOM     73  C   UNL A   1      38.038  30.967  30.378  1.00  0.00     0.200 A 
ATOM     74  F   UNL A   1      39.125  29.900  32.173  1.00  0.00    -0.200 F 
ATOM     75  F   UNL A   1      37.652  31.963  31.185  1.00  0.00    -0.200 F 
ENDBRANCH  51  65
BRANCH  52  76
ATOM     76  C   UNL A   1      45.215  25.322  33.377  1.00  0.00     0.064 A 
ATOM     77  C   UNL A   1      44.136  25.071  34.248  1.00  0.00     0.173 A 
ATOM     78  C   UNL A   1      46.478  24.894  33.824  1.00  0.00     0.173 A 
ATOM     79  F   UNL A   1      42.885  25.388  33.881  1.00  0.00    -0.203 F 
ATOM     80  C   UNL A   1      44.312  24.421  35.479  1.00  0.00     0.198 A 
ATOM     81  C   UNL A   1      46.653  24.246  35.051  1.00  0.00     0.198 A 
ATOM     82  F   UNL A   1      47.556  25.004  33.036  1.00  0.00    -0.203 F 
ATOM     83  F   UNL A   1      43.252  24.148  36.254  1.00  0.00    -0.200 F 
ATOM     84  C   UNL A   1      45.570  23.999  35.873  1.00  0.00     0.200 A 
ATOM     85  F   UNL A   1      47.869  23.801  35.398  1.00  0.00    -0.200 F 
ATOM     86  F   UNL A   1      45.733  23.320  37.018  1.00  0.00    -0.200 F 
ENDBRANCH  52  76
BRANCH  64  87
ATOM     87  C   UNL A   1      45.771  28.389  27.928  1.00  0.00     0.064 A 
ATOM     88  C   UNL A   1      46.255  27.190  27.376  1.00  0.00     0.173 A 
ATOM     89  C   UNL A   1      46.554  29.538  27.768  1.00  0.00     0.173 A 
ATOM     90  F   UNL A   1      45.520  26.071  27.408  1.00  0.00    -0.203 F 
ATOM     91  C   UNL A   1      47.489  27.145  26.724  1.00  0.00     0.198 A 
ATOM     92  C   UNL A   1      47.766  29.498  27.088  1.00  0.00     0.198 A 
ATOM     93  F   UNL A   1      46.112  30.719  28.229  1.00  0.00    -0.203 F 
ATOM     94  F   UNL A   1      47.937  25.990  26.208  1.00  0.00    -0.200 F 
ATOM     95  C   UNL A   1      48.239  28.301  26.575  1.00  0.00     0.200 A 
ATOM     96  F   UNL A   1      48.458  30.629  26.901  1.00  0.00    -0.200 F 
ATOM     97  F   UNL A   1      49.406  28.269  25.916  1.00  0.00    -0.200 F 
ENDBRANCH  64  87
ENDBRANCH  38  39
ENDBRANCH  31  33
ENDBRANCH  30  31
ENDBRANCH  29  30
ENDBRANCH  28  29
ENDBRANCH   1  28
TORSDOF 19
ENDMDL
MODEL 2
REMARK VINA RESULT:     -11.2      2.977      8.118
REMARK SMILES CC(C)(O)C#Cc1ccc(C(=O)N[C@@H](CCC(N)=O)C(=O)OCCOC(=O)c2ccc(-c3c4nc(c(-c5c(F)c(F)c(F)c(F)c5F)c5ccc([nH]5)c(-c5c(F)c(F)c(F)c(F)c5F)c5nc(c(-c6c(F)c(F)c(F)c(F)c6F)c6ccc3[nH]6)C=C5)C=C4)cc2)s1
REMARK SMILES IDX 22 1 20 2 21 3 14 4 13 5 11 6 12 7 10 9 7 10 8 11 91 12 9 13
REMARK SMILES IDX 6 14 5 15 2 16 1 17 3 18 4 19 15 21 16 22 17 23 18 24 19 25
REMARK SMILES IDX 23 28 24 29 25 30 26 31 27 32 28 33 29 34 90 35 30 36 89 37
REMARK SMILES IDX 31 38 32 39 33 40 83 41 34 42 88 43 82 44 84 45 35 46 87 47
REMARK SMILES IDX 81 48 80 49 36 51 68 52 48 53 67 54 49 55 52 56 66 57 85 58
REMARK SMILES IDX 50 59 51 60 65 62 86 63 53 64 37 65 38 66 46 67 39 68 40 69
REMARK SMILES IDX 44 70 47 71 41 72 42 73 45 74 43 75 69 76 70 77 78 78 71 79
REMARK SMILES IDX 72 80 76 81 79 82 73 83 74 84 77 85 75 86 54 87 55 88 63 89
REMARK SMILES IDX 56 90 57 91 61 92 64 93 58 94 59 95 62 96 60 97
REMARK H PARENT 13 8 4 20 18 26 18 27 84 50 52 61
REMARK Flexibility Score: inf
ROOT
ATOM      1  O   UNL A   1      35.923  24.450  25.708  1.00  0.00    -0.461 OA
ENDROOT
BRANCH   1   2
ATOM      2  C   UNL A   1      34.578  24.482  25.868  1.00  0.00     0.328 C 
ATOM      3  O   UNL A   1      33.886  23.517  26.178  1.00  0.00    -0.250 OA
BRANCH   2   4
ATOM      4  C   UNL A   1      33.971  25.823  25.443  1.00  0.00     0.193 C 
BRANCH   4   5
ATOM      5  N   UNL A   1      33.978  26.208  24.023  1.00  0.00    -0.338 N 
ATOM      6  C   UNL A   1      33.554  25.565  22.872  1.00  0.00     0.262 C 
ATOM      7  O   UNL A   1      33.651  26.212  21.826  1.00  0.00    -0.268 OA
ATOM      8  H   UNL A   1      34.360  27.101  23.859  1.00  0.00     0.164 HD
BRANCH   6   9
ATOM      9  C   UNL A   1      32.939  24.239  22.869  1.00  0.00     0.093 A 
ATOM     10  C   UNL A   1      32.503  21.858  23.285  1.00  0.00     0.078 A 
ATOM     11  C   UNL A   1      31.327  22.573  23.256  1.00  0.00     0.030 A 
ATOM     12  S   UNL A   1      33.777  22.771  22.613  1.00  0.00    -0.121 S 
ATOM     13  C   UNL A   1      31.579  23.957  22.979  1.00  0.00     0.027 A 
BRANCH  10  14
ATOM     14  C   UNL A   1      32.710  20.560  23.815  1.00  0.00    -0.053 C 
ATOM     15  C   UNL A   1      33.031  19.442  24.140  1.00  0.00    -0.063 C 
BRANCH  15  16
ATOM     16  C   UNL A   1      33.473  18.071  24.416  1.00  0.00     0.120 C 
ATOM     17  C   UNL A   1      33.540  17.280  23.112  1.00  0.00     0.056 C 
ATOM     18  C   UNL A   1      32.550  17.401  25.431  1.00  0.00     0.056 C 
BRANCH  16  19
ATOM     19  O   UNL A   1      34.785  18.122  24.978  1.00  0.00    -0.378 OA
ATOM     20  H   UNL A   1      35.389  17.591  24.435  1.00  0.00     0.212 HD
ENDBRANCH  16  19
ENDBRANCH  15  16
ENDBRANCH  10  14
ENDBRANCH   6   9
ENDBRANCH   4   5
BRANCH   4  21
ATOM     21  C   UNL A   1      32.543  25.876  26.013  1.00  0.00     0.047 C 
BRANCH  21  22
ATOM     22  C   UNL A   1      31.655  27.025  25.505  1.00  0.00     0.102 C 
BRANCH  22  23
ATOM     23  C   UNL A   1      30.366  26.647  24.803  1.00  0.00     0.217 C 
ATOM     24  N   UNL A   1      29.617  25.673  25.387  1.00  0.00    -0.370 N 
ATOM     25  O   UNL A   1      29.982  27.191  23.773  1.00  0.00    -0.275 OA
ATOM     26  H   UNL A   1      29.930  25.241  26.214  1.00  0.00     0.159 HD
ATOM     27  H   UNL A   1      28.762  25.400  24.982  1.00  0.00     0.159 HD
ENDBRANCH  22  23
ENDBRANCH  21  22
ENDBRANCH   4  21
ENDBRANCH   2   4
ENDBRANCH   1   2
BRANCH   1  28
ATOM     28  C   UNL A   1      36.436  23.413  24.854  1.00  0.00     0.274 C 
BRANCH  28  29
ATOM     29  C   UNL A   1      37.254  22.457  25.694  1.00  0.00     0.275 C 
BRANCH  29  30
ATOM     30  O   UNL A   1      38.190  23.204  26.467  1.00  0.00    -0.458 OA
BRANCH  30  31
ATOM     31  C   UNL A   1      39.404  22.625  26.607  1.00  0.00     0.338 C 
ATOM     32  O   UNL A   1      39.657  21.464  26.878  1.00  0.00    -0.246 OA
BRANCH  31  33
ATOM     33  C   UNL A   1      40.415  23.674  26.655  1.00  0.00     0.060 A 
ATOM     34  C   UNL A   1      41.329  23.602  27.709  1.00  0.00     0.016 A 
ATOM     35  C   UNL A   1      40.057  24.879  26.047  1.00  0.00     0.016 A 
ATOM     36  C   UNL A   1      41.625  24.768  28.374  1.00  0.00     0.010 A 
ATOM     37  C   UNL A   1      40.349  26.030  26.710  1.00  0.00     0.010 A 
ATOM     38  C   UNL A   1      41.017  25.946  27.932  1.00  0.00    -0.014 A 
BRANCH  38  39
ATOM     39  C   UNL A   1      41.270  27.200  28.603  1.00  0.00     0.031 A 
ATOM     40  C   UNL A   1      42.529  27.767  28.065  1.00  0.00     0.074 A 
ATOM     41  C   UNL A   1      40.356  27.774  29.414  1.00  0.00     0.049 A 
ATOM     42  N   UNL A   1      43.687  27.761  28.640  1.00  0.00    -0.248 NA
ATOM     43  C   UNL A   1      42.601  28.044  26.613  1.00  0.00     0.031 C 
ATOM     44  C   UNL A   1      39.017  27.291  29.775  1.00  0.00     0.029 A 
ATOM     45  N   UNL A   1      40.401  28.999  30.022  1.00  0.00    -0.354 N 
ATOM     46  C   UNL A   1      44.543  28.328  27.700  1.00  0.00     0.074 A 
ATOM     47  C   UNL A   1      43.920  28.116  26.430  1.00  0.00     0.031 C 
ATOM     48  C   UNL A   1      38.296  28.302  30.317  1.00  0.00     0.029 A 
ATOM     49  C   UNL A   1      39.147  29.467  30.453  1.00  0.00     0.049 A 
ATOM     50  H   UNL A   1      41.236  29.505  30.149  1.00  0.00     0.167 HD
ATOM     51  C   UNL A   1      45.381  29.328  28.086  1.00  0.00     0.037 A 
ATOM     52  C   UNL A   1      38.875  30.755  30.810  1.00  0.00     0.037 A 
ATOM     53  C   UNL A   1      45.549  29.286  29.524  1.00  0.00     0.049 A 
ATOM     54  C   UNL A   1      40.188  31.396  31.103  1.00  0.00     0.074 A 
ATOM     55  C   UNL A   1      46.007  28.353  30.435  1.00  0.00     0.029 A 
ATOM     56  N   UNL A   1      44.794  30.179  30.240  1.00  0.00    -0.354 N 
ATOM     57  N   UNL A   1      40.950  31.035  32.100  1.00  0.00    -0.248 NA
ATOM     58  C   UNL A   1      40.871  32.012  29.975  1.00  0.00     0.031 C 
ATOM     59  C   UNL A   1      45.167  28.501  31.581  1.00  0.00     0.029 A 
ATOM     60  C   UNL A   1      44.308  29.578  31.365  1.00  0.00     0.049 A 
ATOM     61  H   UNL A   1      44.626  31.113  29.982  1.00  0.00     0.167 HD
ATOM     62  C   UNL A   1      42.216  30.932  31.541  1.00  0.00     0.074 A 
ATOM     63  C   UNL A   1      42.109  31.583  30.233  1.00  0.00     0.031 C 
ATOM     64  C   UNL A   1      43.132  30.055  32.053  1.00  0.00     0.037 A 
BRANCH  51  65
ATOM     65  C   UNL A   1      45.556  30.630  27.306  1.00  0.00     0.064 A 
ATOM     66  C   UNL A   1      46.873  31.110  27.145  1.00  0.00     0.173 A 
ATOM     67  C   UNL A   1      44.543  31.575  27.011  1.00  0.00     0.173 A 
ATOM     68  F   UNL A   1      47.922  30.303  27.360  1.00  0.00    -0.203 F 
ATOM     69  C   UNL A   1      47.146  32.453  26.874  1.00  0.00     0.198 A 
ATOM     70  C   UNL A   1      44.821  32.906  26.708  1.00  0.00     0.198 A 
ATOM     71  F   UNL A   1      43.238  31.307  27.068  1.00  0.00    -0.203 F 
ATOM     72  F   UNL A   1      48.414  32.883  26.881  1.00  0.00    -0.200 F 
ATOM     73  C   UNL A   1      46.120  33.355  26.679  1.00  0.00     0.200 A 
ATOM     74  F   UNL A   1      43.806  33.762  26.524  1.00  0.00    -0.200 F 
ATOM     75  F   UNL A   1      46.376  34.656  26.495  1.00  0.00    -0.200 F 
ENDBRANCH  51  65
BRANCH  52  76
ATOM     76  C   UNL A   1      37.658  31.573  30.541  1.00  0.00     0.064 A 
ATOM     77  C   UNL A   1      37.109  32.426  31.520  1.00  0.00     0.173 A 
ATOM     78  C   UNL A   1      37.195  31.768  29.227  1.00  0.00     0.173 A 
ATOM     79  F   UNL A   1      37.535  32.356  32.790  1.00  0.00    -0.203 F 
ATOM     80  C   UNL A   1      36.170  33.416  31.198  1.00  0.00     0.198 A 
ATOM     81  C   UNL A   1      36.259  32.756  28.906  1.00  0.00     0.198 A 
ATOM     82  F   UNL A   1      37.716  31.072  28.207  1.00  0.00    -0.203 F 
ATOM     83  F   UNL A   1      35.713  34.246  32.148  1.00  0.00    -0.200 F 
ATOM     84  C   UNL A   1      35.754  33.588  29.889  1.00  0.00     0.200 A 
ATOM     85  F   UNL A   1      35.902  32.941  27.628  1.00  0.00    -0.200 F 
ATOM     86  F   UNL A   1      34.906  34.575  29.566  1.00  0.00    -0.200 F 
ENDBRANCH  52  76
BRANCH  64  87
ATOM     87  C   UNL A   1      42.825  29.417  33.378  1.00  0.00     0.064 A 
ATOM     88  C   UNL A   1      42.951  30.056  34.624  1.00  0.00     0.173 A 
ATOM     89  C   UNL A   1      42.234  28.147  33.360  1.00  0.00     0.173 A 
ATOM     90  F   UNL A   1      43.421  31.308  34.711  1.00  0.00    -0.203 F 
ATOM     91  C   UNL A   1      42.535  29.430  35.800  1.00  0.00     0.198 A 
ATOM     92  C   UNL A   1      41.789  27.541  34.528  1.00  0.00     0.198 A 
ATOM     93  F   UNL A   1      42.042  27.517  32.190  1.00  0.00    -0.203 F 
ATOM     94  F   UNL A   1      42.669  30.054  36.981  1.00  0.00    -0.200 F 
ATOM     95  C   UNL A   1      41.948  28.175  35.748  1.00  0.00     0.200 A 
ATOM     96  F   UNL A   1      41.174  26.352  34.463  1.00  0.00    -0.200 F 
ATOM     97  F   UNL A   1      41.511  27.587  36.871  1.00  0.00    -0.200 F 
ENDBRANCH  64  87
ENDBRANCH  38  39
ENDBRANCH  31  33
ENDBRANCH  30  31
ENDBRANCH  29  30
ENDBRANCH  28  29
ENDBRANCH   1  28
TORSDOF 19
ENDMDL
MODEL 3
REMARK VINA RESULT:     -11.2      2.653      7.313
REMARK SMILES CC(C)(O)C#Cc1ccc(C(=O)N[C@@H](CCC(N)=O)C(=O)OCCOC(=O)c2ccc(-c3c4nc(c(-c5c(F)c(F)c(F)c(F)c5F)c5ccc([nH]5)c(-c5c(F)c(F)c(F)c(F)c5F)c5nc(c(-c6c(F)c(F)c(F)c(F)c6F)c6ccc3[nH]6)C=C5)C=C4)cc2)s1
REMARK SMILES IDX 22 1 20 2 21 3 14 4 13 5 11 6 12 7 10 9 7 10 8 11 91 12 9 13
REMARK SMILES IDX 6 14 5 15 2 16 1 17 3 18 4 19 15 21 16 22 17 23 18 24 19 25
REMARK SMILES IDX 23 28 24 29 25 30 26 31 27 32 28 33 29 34 90 35 30 36 89 37
REMARK SMILES IDX 31 38 32 39 33 40 83 41 34 42 88 43 82 44 84 45 35 46 87 47
REMARK SMILES IDX 81 48 80 49 36 51 68 52 48 53 67 54 49 55 52 56 66 57 85 58
REMARK SMILES IDX 50 59 51 60 65 62 86 63 53 64 37 65 38 66 46 67 39 68 40 69
REMARK SMILES IDX 44 70 47 71 41 72 42 73 45 74 43 75 69 76 70 77 78 78 71 79
REMARK SMILES IDX 72 80 76 81 79 82 73 83 74 84 77 85 75 86 54 87 55 88 63 89
REMARK SMILES IDX 56 90 57 91 61 92 64 93 58 94 59 95 62 96 60 97
REMARK H PARENT 13 8 4 20 18 26 18 27 84 50 52 61
REMARK Flexibility Score: inf
ROOT
ATOM      1  O   UNL A   1      35.010  23.336  26.310  1.00  0.00    -0.461 OA
ENDROOT
BRANCH   1   2
ATOM      2  C   UNL A   1      33.778  22.833  26.568  1.00  0.00     0.328 C 
ATOM      3  O   UNL A   1      33.441  22.314  27.628  1.00  0.00    -0.250 OA
BRANCH   2   4
ATOM      4  C   UNL A   1      32.883  22.816  25.325  1.00  0.00     0.193 C 
BRANCH   4   5
ATOM      5  N   UNL A   1      33.450  23.166  24.014  1.00  0.00    -0.338 N 
ATOM      6  C   UNL A   1      33.346  24.292  23.214  1.00  0.00     0.262 C 
ATOM      7  O   UNL A   1      34.016  24.282  22.178  1.00  0.00    -0.268 OA
ATOM      8  H   UNL A   1      34.015  22.458  23.627  1.00  0.00     0.164 HD
BRANCH   6   9
ATOM      9  C   UNL A   1      32.575  25.478  23.586  1.00  0.00     0.093 A 
ATOM     10  C   UNL A   1      30.893  27.266  23.606  1.00  0.00     0.078 A 
ATOM     11  C   UNL A   1      31.214  26.882  24.888  1.00  0.00     0.030 A 
ATOM     12  S   UNL A   1      32.054  26.688  22.498  1.00  0.00    -0.121 S 
ATOM     13  C   UNL A   1      32.221  25.863  24.878  1.00  0.00     0.027 A 
BRANCH  10  14
ATOM     14  C   UNL A   1      29.758  28.004  23.186  1.00  0.00    -0.053 C 
ATOM     15  C   UNL A   1      28.883  28.787  22.902  1.00  0.00    -0.063 C 
BRANCH  15  16
ATOM     16  C   UNL A   1      27.864  29.811  22.652  1.00  0.00     0.120 C 
ATOM     17  C   UNL A   1      27.982  30.313  21.214  1.00  0.00     0.056 C 
ATOM     18  C   UNL A   1      27.990  30.954  23.655  1.00  0.00     0.056 C 
BRANCH  16  19
ATOM     19  O   UNL A   1      26.575  29.218  22.815  1.00  0.00    -0.378 OA
ATOM     20  H   UNL A   1      26.097  29.248  21.971  1.00  0.00     0.212 HD
ENDBRANCH  16  19
ENDBRANCH  15  16
ENDBRANCH  10  14
ENDBRANCH   6   9
ENDBRANCH   4   5
BRANCH   4  21
ATOM     21  C   UNL A   1      32.205  21.435  25.273  1.00  0.00     0.047 C 
BRANCH  21  22
ATOM     22  C   UNL A   1      32.924  20.361  24.440  1.00  0.00     0.102 C 
BRANCH  22  23
ATOM     23  C   UNL A   1      33.163  19.016  25.099  1.00  0.00     0.217 C 
ATOM     24  N   UNL A   1      32.812  18.909  26.409  1.00  0.00    -0.370 N 
ATOM     25  O   UNL A   1      33.626  18.052  24.499  1.00  0.00    -0.275 OA
ATOM     26  H   UNL A   1      32.441  19.687  26.884  1.00  0.00     0.159 HD
ATOM     27  H   UNL A   1      32.931  18.054  26.881  1.00  0.00     0.159 HD
ENDBRANCH  22  23
ENDBRANCH  21  22
ENDBRANCH   4  21
ENDBRANCH   2   4
ENDBRANCH   1   2
BRANCH   1  28
ATOM     28  C   UNL A   1      36.071  22.376  26.176  1.00  0.00     0.274 C 
BRANCH  28  29
ATOM     29  C   UNL A   1      37.247  23.046  25.499  1.00  0.00     0.275 C 
BRANCH  29  30
ATOM     30  O   UNL A   1      38.180  23.458  26.495  1.00  0.00    -0.458 OA
BRANCH  30  31
ATOM     31  C   UNL A   1      39.363  22.803  26.472  1.00  0.00     0.338 C 
ATOM     32  O   UNL A   1      39.560  21.602  26.547  1.00  0.00    -0.246 OA
BRANCH  31  33
ATOM     33  C   UNL A   1      40.436  23.779  26.620  1.00  0.00     0.060 A 
ATOM     34  C   UNL A   1      41.216  23.667  27.773  1.00  0.00     0.016 A 
ATOM     35  C   UNL A   1      40.239  24.991  25.956  1.00  0.00     0.016 A 
ATOM     36  C   UNL A   1      41.520  24.824  28.450  1.00  0.00     0.010 A 
ATOM     37  C   UNL A   1      40.536  26.134  26.631  1.00  0.00     0.010 A 
ATOM     38  C   UNL A   1      41.053  26.032  27.922  1.00  0.00    -0.014 A 
BRANCH  38  39
ATOM     39  C   UNL A   1      41.319  27.280  28.600  1.00  0.00     0.031 A 
ATOM     40  C   UNL A   1      42.582  27.838  28.061  1.00  0.00     0.074 A 
ATOM     41  C   UNL A   1      40.413  27.859  29.416  1.00  0.00     0.049 A 
ATOM     42  N   UNL A   1      43.742  27.820  28.633  1.00  0.00    -0.248 NA
ATOM     43  C   UNL A   1      42.653  28.122  26.610  1.00  0.00     0.031 C 
ATOM     44  C   UNL A   1      39.071  27.385  29.778  1.00  0.00     0.029 A 
ATOM     45  N   UNL A   1      40.470  29.080  30.030  1.00  0.00    -0.354 N 
ATOM     46  C   UNL A   1      44.599  28.383  27.693  1.00  0.00     0.074 A 
ATOM     47  C   UNL A   1      43.972  28.182  26.424  1.00  0.00     0.031 C 
ATOM     48  C   UNL A   1      38.359  28.401  30.327  1.00  0.00     0.029 A 
ATOM     49  C   UNL A   1      39.221  29.557  30.466  1.00  0.00     0.049 A 
ATOM     50  H   UNL A   1      41.310  29.578  30.156  1.00  0.00     0.167 HD
ATOM     51  C   UNL A   1      45.448  29.374  28.082  1.00  0.00     0.037 A 
ATOM     52  C   UNL A   1      38.962  30.846  30.830  1.00  0.00     0.037 A 
ATOM     53  C   UNL A   1      45.619  29.323  29.519  1.00  0.00     0.049 A 
ATOM     54  C   UNL A   1      40.281  31.473  31.123  1.00  0.00     0.074 A 
ATOM     55  C   UNL A   1      46.072  28.382  30.424  1.00  0.00     0.029 A 
ATOM     56  N   UNL A   1      44.873  30.219  30.242  1.00  0.00    -0.354 N 
ATOM     57  N   UNL A   1      41.042  31.100  32.116  1.00  0.00    -0.248 NA
ATOM     58  C   UNL A   1      40.967  32.089  29.996  1.00  0.00     0.031 C 
ATOM     59  C   UNL A   1      45.235  28.532  31.573  1.00  0.00     0.029 A 
ATOM     60  C   UNL A   1      44.386  29.618  31.365  1.00  0.00     0.049 A 
ATOM     61  H   UNL A   1      44.714  31.156  29.988  1.00  0.00     0.167 HD
ATOM     62  C   UNL A   1      42.306  30.989  31.553  1.00  0.00     0.074 A 
ATOM     63  C   UNL A   1      42.202  31.648  30.248  1.00  0.00     0.031 C 
ATOM     64  C   UNL A   1      43.215  30.102  32.058  1.00  0.00     0.037 A 
BRANCH  51  65
ATOM     65  C   UNL A   1      45.632  30.678  27.307  1.00  0.00     0.064 A 
ATOM     66  C   UNL A   1      46.957  31.093  27.056  1.00  0.00     0.173 A 
ATOM     67  C   UNL A   1      44.651  31.678  27.100  1.00  0.00     0.173 A 
ATOM     68  F   UNL A   1      47.976  30.230  27.183  1.00  0.00    -0.203 F 
ATOM     69  C   UNL A   1      47.279  32.425  26.783  1.00  0.00     0.198 A 
ATOM     70  C   UNL A   1      44.975  32.998  26.794  1.00  0.00     0.198 A 
ATOM     71  F   UNL A   1      43.341  31.476  27.250  1.00  0.00    -0.203 F 
ATOM     72  F   UNL A   1      48.565  32.790  26.702  1.00  0.00    -0.200 F 
ATOM     73  C   UNL A   1      46.289  33.381  26.675  1.00  0.00     0.200 A 
ATOM     74  F   UNL A   1      43.994  33.907  26.697  1.00  0.00    -0.200 F 
ATOM     75  F   UNL A   1      46.598  34.670  26.489  1.00  0.00    -0.200 F 
ENDBRANCH  51  65
BRANCH  52  76
ATOM     76  C   UNL A   1      37.752  31.676  30.568  1.00  0.00     0.064 A 
ATOM     77  C   UNL A   1      37.171  32.475  31.574  1.00  0.00     0.173 A 
ATOM     78  C   UNL A   1      37.328  31.940  29.253  1.00  0.00     0.173 A 
ATOM     79  F   UNL A   1      37.558  32.338  32.851  1.00  0.00    -0.203 F 
ATOM     80  C   UNL A   1      36.239  33.480  31.276  1.00  0.00     0.198 A 
ATOM     81  C   UNL A   1      36.399  32.943  28.957  1.00  0.00     0.198 A 
ATOM     82  F   UNL A   1      37.881  31.300  28.213  1.00  0.00    -0.203 F 
ATOM     83  F   UNL A   1      35.752  34.258  32.255  1.00  0.00    -0.200 F 
ATOM     84  C   UNL A   1      35.863  33.720  29.967  1.00  0.00     0.200 A 
ATOM     85  F   UNL A   1      36.080  33.195  27.679  1.00  0.00    -0.200 F 
ATOM     86  F   UNL A   1      35.022  34.723  29.671  1.00  0.00    -0.200 F 
ENDBRANCH  52  76
BRANCH  64  87
ATOM     87  C   UNL A   1      42.906  29.460  33.381  1.00  0.00     0.064 A 
ATOM     88  C   UNL A   1      43.095  30.072  34.633  1.00  0.00     0.173 A 
ATOM     89  C   UNL A   1      42.249  28.224  33.359  1.00  0.00     0.173 A 
ATOM     90  F   UNL A   1      43.633  31.295  34.727  1.00  0.00    -0.203 F 
ATOM     91  C   UNL A   1      42.674  29.450  35.809  1.00  0.00     0.198 A 
ATOM     92  C   UNL A   1      41.799  27.623  34.528  1.00  0.00     0.198 A 
ATOM     93  F   UNL A   1      41.995  27.623  32.185  1.00  0.00    -0.203 F 
ATOM     94  F   UNL A   1      42.869  30.047  36.995  1.00  0.00    -0.200 F 
ATOM     95  C   UNL A   1      42.020  28.229  35.754  1.00  0.00     0.200 A 
ATOM     96  F   UNL A   1      41.121  26.470  34.461  1.00  0.00    -0.200 F 
ATOM     97  F   UNL A   1      41.579  27.647  36.878  1.00  0.00    -0.200 F 
ENDBRANCH  64  87
ENDBRANCH  38  39
ENDBRANCH  31  33
ENDBRANCH  30  31
ENDBRANCH  29  30
ENDBRANCH  28  29
ENDBRANCH   1  28
TORSDOF 19
ENDMDL
