MODEL 1
REMARK VINA RESULT:     -11.1      0.000      0.000
REMARK SMILES CC[NH2+][C@@]1(C(=O)OCCOC(=O)c2ccc(-c3c4nc(c(-c5c(F)c(F)c(F)c(F)c5F)c5ccc([nH]5)c(-c5c(F)c(F)c(F)c(F)c5F)c5nc(c(-c6c(F)c(F)c(F)c(F)c6F)c6ccc3[nH]6)C=C5)C=C4)cc2)CC[C@@H](SCC2CCCC2)C1
REMARK SMILES IDX 8 1 7 2 5 3 6 4 4 5 76 6 86 7 77 8 78 9 3 10 2 13 1 14 79 15
REMARK SMILES IDX 80 16 81 17 82 18 85 19 83 20 84 21 9 22 10 23 11 24 12 25
REMARK SMILES IDX 13 26 14 27 75 28 15 29 74 30 16 31 17 32 18 33 68 34 19 35
REMARK SMILES IDX 73 36 67 37 69 38 20 39 72 40 66 41 65 42 21 44 53 45 33 46
REMARK SMILES IDX 52 47 34 48 37 49 51 50 70 51 35 52 36 53 50 55 71 56 38 57
REMARK SMILES IDX 22 58 23 59 31 60 24 61 25 62 29 63 32 64 26 65 27 66 30 67
REMARK SMILES IDX 28 68 54 69 55 70 63 71 56 72 57 73 61 74 64 75 58 76 59 77
REMARK SMILES IDX 62 78 60 79 39 80 40 81 48 82 41 83 42 84 46 85 49 86 43 87
REMARK SMILES IDX 44 88 47 89 45 90
REMARK H PARENT 3 11 3 12 69 43 37 54
REMARK Flexibility Score: inf
ROOT
ATOM      1  C   UNL A   1      31.416  28.791  25.194  1.00  0.00     0.274 C 
ENDROOT
BRANCH   1   2
ATOM      2  O   UNL A   1      32.224  27.596  25.234  1.00  0.00    -0.457 OA
BRANCH   2   3
ATOM      3  C   UNL A   1      31.703  26.590  25.985  1.00  0.00     0.368 C 
ATOM      4  O   UNL A   1      31.309  26.743  27.140  1.00  0.00    -0.245 OA
BRANCH   3   5
ATOM      5  C   UNL A   1      31.654  25.206  25.249  1.00  0.00     0.195 C 
ATOM      6  C   UNL A   1      32.203  24.226  26.302  1.00  0.00     0.082 C 
ATOM      7  C   UNL A   1      32.642  25.044  24.069  1.00  0.00     0.095 C 
ATOM      8  C   UNL A   1      33.711  24.416  26.186  1.00  0.00     0.022 C 
ATOM      9  C   UNL A   1      33.965  24.559  24.691  1.00  0.00     0.053 C 
BRANCH   5  10
ATOM     10  N   UNL A   1      30.237  24.990  24.873  1.00  0.00    -0.332 N 
ATOM     11  H   UNL A   1      30.086  23.983  24.822  1.00  0.00     0.347 HD
ATOM     12  H   UNL A   1      29.705  25.481  25.592  1.00  0.00     0.347 HD
BRANCH  10  13
ATOM     13  C   UNL A   1      29.769  25.564  23.616  1.00  0.00     0.257 C 
ATOM     14  C   UNL A   1      28.704  26.614  23.901  1.00  0.00     0.071 C 
ENDBRANCH  10  13
ENDBRANCH   5  10
BRANCH   9  15
ATOM     15  S   UNL A   1      34.707  23.047  23.937  1.00  0.00    -0.158 SA
BRANCH  15  16
ATOM     16  C   UNL A   1      35.029  21.918  25.348  1.00  0.00     0.073 C 
BRANCH  16  17
ATOM     17  C   UNL A   1      34.168  20.644  25.333  1.00  0.00    -0.001 C 
ATOM     18  C   UNL A   1      32.945  20.668  24.418  1.00  0.00     0.004 C 
ATOM     19  C   UNL A   1      34.937  19.436  24.772  1.00  0.00     0.004 C 
ATOM     20  C   UNL A   1      32.551  19.206  24.302  1.00  0.00     0.000 C 
ATOM     21  C   UNL A   1      33.873  18.451  24.282  1.00  0.00     0.000 C 
ENDBRANCH  16  17
ENDBRANCH  15  16
ENDBRANCH   9  15
ENDBRANCH   3   5
ENDBRANCH   2   3
ENDBRANCH   1   2
BRANCH   1  22
ATOM     22  C   UNL A   1      32.227  30.048  25.514  1.00  0.00     0.275 C 
BRANCH  22  23
ATOM     23  O   UNL A   1      32.569  30.131  26.910  1.00  0.00    -0.458 OA
BRANCH  23  24
ATOM     24  C   UNL A   1      33.224  31.257  27.269  1.00  0.00     0.338 C 
ATOM     25  O   UNL A   1      32.779  32.396  27.307  1.00  0.00    -0.246 OA
BRANCH  24  26
ATOM     26  C   UNL A   1      34.610  30.964  27.658  1.00  0.00     0.060 A 
ATOM     27  C   UNL A   1      34.980  29.650  27.933  1.00  0.00     0.016 A 
ATOM     28  C   UNL A   1      35.474  32.014  27.970  1.00  0.00     0.016 A 
ATOM     29  C   UNL A   1      36.159  29.392  28.628  1.00  0.00     0.010 A 
ATOM     30  C   UNL A   1      36.704  31.741  28.579  1.00  0.00     0.010 A 
ATOM     31  C   UNL A   1      37.039  30.430  28.961  1.00  0.00    -0.014 A 
BRANCH  31  32
ATOM     32  C   UNL A   1      38.266  30.161  29.763  1.00  0.00     0.031 A 
ATOM     33  C   UNL A   1      39.386  29.340  29.178  1.00  0.00     0.074 A 
ATOM     34  C   UNL A   1      38.408  30.666  31.003  1.00  0.00     0.049 A 
ATOM     35  N   UNL A   1      40.411  28.788  29.780  1.00  0.00    -0.248 NA
ATOM     36  C   UNL A   1      39.343  29.096  27.728  1.00  0.00     0.031 C 
ATOM     37  C   UNL A   1      37.447  31.535  31.682  1.00  0.00     0.029 A 
ATOM     38  N   UNL A   1      39.429  30.529  31.911  1.00  0.00    -0.354 N 
ATOM     39  C   UNL A   1      41.080  28.063  28.802  1.00  0.00     0.074 A 
ATOM     40  C   UNL A   1      40.368  28.272  27.559  1.00  0.00     0.031 C 
ATOM     41  C   UNL A   1      37.948  31.898  32.873  1.00  0.00     0.029 A 
ATOM     42  C   UNL A   1      39.217  31.211  33.084  1.00  0.00     0.049 A 
ATOM     43  H   UNL A   1      40.236  29.992  31.738  1.00  0.00     0.167 HD
ATOM     44  C   UNL A   1      42.178  27.281  28.940  1.00  0.00     0.037 A 
ATOM     45  C   UNL A   1      39.937  31.246  34.221  1.00  0.00     0.037 A 
ATOM     46  C   UNL A   1      42.932  27.142  30.157  1.00  0.00     0.049 A 
ATOM     47  C   UNL A   1      41.167  30.396  34.343  1.00  0.00     0.074 A 
ATOM     48  C   UNL A   1      44.044  26.353  30.403  1.00  0.00     0.029 A 
ATOM     49  N   UNL A   1      42.672  27.839  31.326  1.00  0.00    -0.354 N 
ATOM     50  N   UNL A   1      41.709  29.596  33.458  1.00  0.00    -0.248 NA
ATOM     51  C   UNL A   1      41.865  30.424  35.637  1.00  0.00     0.031 C 
ATOM     52  C   UNL A   1      44.452  26.571  31.726  1.00  0.00     0.029 A 
ATOM     53  C   UNL A   1      43.608  27.510  32.293  1.00  0.00     0.049 A 
ATOM     54  H   UNL A   1      41.930  28.475  31.451  1.00  0.00     0.167 HD
ATOM     55  C   UNL A   1      42.795  29.011  34.090  1.00  0.00     0.074 A 
ATOM     56  C   UNL A   1      42.860  29.574  35.423  1.00  0.00     0.031 C 
ATOM     57  C   UNL A   1      43.650  28.073  33.615  1.00  0.00     0.037 A 
BRANCH  44  58
ATOM     58  C   UNL A   1      42.608  26.474  27.752  1.00  0.00     0.064 A 
ATOM     59  C   UNL A   1      42.032  25.235  27.446  1.00  0.00     0.173 A 
ATOM     60  C   UNL A   1      43.585  26.981  26.881  1.00  0.00     0.173 A 
ATOM     61  F   UNL A   1      41.106  24.703  28.257  1.00  0.00    -0.203 F 
ATOM     62  C   UNL A   1      42.428  24.525  26.315  1.00  0.00     0.198 A 
ATOM     63  C   UNL A   1      43.964  26.279  25.741  1.00  0.00     0.198 A 
ATOM     64  F   UNL A   1      44.164  28.166  27.130  1.00  0.00    -0.203 F 
ATOM     65  F   UNL A   1      41.886  23.327  26.054  1.00  0.00    -0.200 F 
ATOM     66  C   UNL A   1      43.387  25.049  25.460  1.00  0.00     0.200 A 
ATOM     67  F   UNL A   1      44.885  26.790  24.914  1.00  0.00    -0.200 F 
ATOM     68  F   UNL A   1      43.760  24.367  24.369  1.00  0.00    -0.200 F 
ENDBRANCH  44  58
BRANCH  45  69
ATOM     69  C   UNL A   1      39.475  32.088  35.351  1.00  0.00     0.064 A 
ATOM     70  C   UNL A   1      39.886  33.423  35.465  1.00  0.00     0.173 A 
ATOM     71  C   UNL A   1      38.593  31.587  36.319  1.00  0.00     0.173 A 
ATOM     72  F   UNL A   1      40.750  33.935  34.576  1.00  0.00    -0.203 F 
ATOM     73  C   UNL A   1      39.427  34.227  36.505  1.00  0.00     0.198 A 
ATOM     74  C   UNL A   1      38.116  32.399  37.345  1.00  0.00     0.198 A 
ATOM     75  F   UNL A   1      38.175  30.314  36.252  1.00  0.00    -0.203 F 
ATOM     76  F   UNL A   1      39.851  35.494  36.607  1.00  0.00    -0.200 F 
ATOM     77  C   UNL A   1      38.535  33.718  37.438  1.00  0.00     0.200 A 
ATOM     78  F   UNL A   1      37.246  31.907  38.236  1.00  0.00    -0.200 F 
ATOM     79  F   UNL A   1      38.082  34.496  38.429  1.00  0.00    -0.200 F 
ENDBRANCH  45  69
BRANCH  57  80
ATOM     80  C   UNL A   1      44.719  27.597  34.546  1.00  0.00     0.064 A 
ATOM     81  C   UNL A   1      45.952  28.260  34.630  1.00  0.00     0.173 A 
ATOM     82  C   UNL A   1      44.504  26.491  35.379  1.00  0.00     0.173 A 
ATOM     83  F   UNL A   1      46.205  29.315  33.841  1.00  0.00    -0.203 F 
ATOM     84  C   UNL A   1      46.940  27.821  35.506  1.00  0.00     0.198 A 
ATOM     85  C   UNL A   1      45.489  26.063  36.265  1.00  0.00     0.198 A 
ATOM     86  F   UNL A   1      43.339  25.826  35.332  1.00  0.00    -0.203 F 
ATOM     87  F   UNL A   1      48.124  28.448  35.549  1.00  0.00    -0.200 F 
ATOM     88  C   UNL A   1      46.706  26.725  36.324  1.00  0.00     0.200 A 
ATOM     89  F   UNL A   1      45.262  25.006  37.057  1.00  0.00    -0.200 F 
ATOM     90  F   UNL A   1      47.659  26.302  37.166  1.00  0.00    -0.200 F 
ENDBRANCH  57  80
ENDBRANCH  31  32
ENDBRANCH  24  26
ENDBRANCH  23  24
ENDBRANCH  22  23
ENDBRANCH   1  22
TORSDOF 16
ENDMDL
MODEL 2
REMARK VINA RESULT:     -11.0      1.022      2.222
REMARK SMILES CC[NH2+][C@@]1(C(=O)OCCOC(=O)c2ccc(-c3c4nc(c(-c5c(F)c(F)c(F)c(F)c5F)c5ccc([nH]5)c(-c5c(F)c(F)c(F)c(F)c5F)c5nc(c(-c6c(F)c(F)c(F)c(F)c6F)c6ccc3[nH]6)C=C5)C=C4)cc2)CC[C@@H](SCC2CCCC2)C1
REMARK SMILES IDX 8 1 7 2 5 3 6 4 4 5 76 6 86 7 77 8 78 9 3 10 2 13 1 14 79 15
REMARK SMILES IDX 80 16 81 17 82 18 85 19 83 20 84 21 9 22 10 23 11 24 12 25
REMARK SMILES IDX 13 26 14 27 75 28 15 29 74 30 16 31 17 32 18 33 68 34 19 35
REMARK SMILES IDX 73 36 67 37 69 38 20 39 72 40 66 41 65 42 21 44 53 45 33 46
REMARK SMILES IDX 52 47 34 48 37 49 51 50 70 51 35 52 36 53 50 55 71 56 38 57
REMARK SMILES IDX 22 58 23 59 31 60 24 61 25 62 29 63 32 64 26 65 27 66 30 67
REMARK SMILES IDX 28 68 54 69 55 70 63 71 56 72 57 73 61 74 64 75 58 76 59 77
REMARK SMILES IDX 62 78 60 79 39 80 40 81 48 82 41 83 42 84 46 85 49 86 43 87
REMARK SMILES IDX 44 88 47 89 45 90
REMARK H PARENT 3 11 3 12 69 43 37 54
REMARK Flexibility Score: inf
ROOT
ATOM      1  C   UNL A   1      31.266  29.104  24.991  1.00  0.00     0.274 C 
ENDROOT
BRANCH   1   2
ATOM      2  O   UNL A   1      32.367  28.184  24.839  1.00  0.00    -0.457 OA
BRANCH   2   3
ATOM      3  C   UNL A   1      32.504  27.671  23.588  1.00  0.00     0.368 C 
ATOM      4  O   UNL A   1      32.815  28.350  22.610  1.00  0.00    -0.245 OA
BRANCH   3   5
ATOM      5  C   UNL A   1      32.223  26.131  23.497  1.00  0.00     0.195 C 
ATOM      6  C   UNL A   1      32.590  25.622  24.903  1.00  0.00     0.082 C 
ATOM      7  C   UNL A   1      33.176  25.333  22.575  1.00  0.00     0.095 C 
ATOM      8  C   UNL A   1      34.109  25.513  24.837  1.00  0.00     0.022 C 
ATOM      9  C   UNL A   1      34.393  24.965  23.444  1.00  0.00     0.053 C 
BRANCH   5  10
ATOM     10  N   UNL A   1      30.793  25.994  23.137  1.00  0.00    -0.332 N 
ATOM     11  H   UNL A   1      30.541  26.809  22.577  1.00  0.00     0.347 HD
ATOM     12  H   UNL A   1      30.734  25.094  22.660  1.00  0.00     0.347 HD
BRANCH  10  13
ATOM     13  C   UNL A   1      29.822  25.896  24.221  1.00  0.00     0.257 C 
ATOM     14  C   UNL A   1      28.582  26.708  23.869  1.00  0.00     0.071 C 
ENDBRANCH  10  13
ENDBRANCH   5  10
BRANCH   9  15
ATOM     15  S   UNL A   1      34.871  23.182  23.453  1.00  0.00    -0.158 SA
BRANCH  15  16
ATOM     16  C   UNL A   1      34.765  22.668  25.213  1.00  0.00     0.073 C 
BRANCH  16  17
ATOM     17  C   UNL A   1      36.133  22.421  25.871  1.00  0.00    -0.001 C 
ATOM     18  C   UNL A   1      37.112  21.552  25.083  1.00  0.00     0.004 C 
ATOM     19  C   UNL A   1      36.940  23.720  26.023  1.00  0.00     0.004 C 
ATOM     20  C   UNL A   1      38.449  21.818  25.752  1.00  0.00     0.000 C 
ATOM     21  C   UNL A   1      38.407  23.293  26.126  1.00  0.00     0.000 C 
ENDBRANCH  16  17
ENDBRANCH  15  16
ENDBRANCH   9  15
ENDBRANCH   3   5
ENDBRANCH   2   3
ENDBRANCH   1   2
BRANCH   1  22
ATOM     22  C   UNL A   1      31.702  30.430  25.617  1.00  0.00     0.275 C 
BRANCH  22  23
ATOM     23  O   UNL A   1      32.522  30.233  26.785  1.00  0.00    -0.458 OA
BRANCH  23  24
ATOM     24  C   UNL A   1      33.180  31.334  27.209  1.00  0.00     0.338 C 
ATOM     25  O   UNL A   1      32.747  32.475  27.287  1.00  0.00    -0.246 OA
BRANCH  24  26
ATOM     26  C   UNL A   1      34.553  31.006  27.617  1.00  0.00     0.060 A 
ATOM     27  C   UNL A   1      34.878  29.689  27.930  1.00  0.00     0.016 A 
ATOM     28  C   UNL A   1      35.448  32.036  27.908  1.00  0.00     0.016 A 
ATOM     29  C   UNL A   1      36.043  29.411  28.641  1.00  0.00     0.010 A 
ATOM     30  C   UNL A   1      36.664  31.740  28.535  1.00  0.00     0.010 A 
ATOM     31  C   UNL A   1      36.954  30.430  28.954  1.00  0.00    -0.014 A 
BRANCH  31  32
ATOM     32  C   UNL A   1      38.165  30.143  29.773  1.00  0.00     0.031 A 
ATOM     33  C   UNL A   1      39.277  29.297  29.207  1.00  0.00     0.074 A 
ATOM     34  C   UNL A   1      38.301  30.652  31.012  1.00  0.00     0.049 A 
ATOM     35  N   UNL A   1      40.284  28.729  29.825  1.00  0.00    -0.248 NA
ATOM     36  C   UNL A   1      39.248  29.045  27.758  1.00  0.00     0.031 C 
ATOM     37  C   UNL A   1      37.348  31.544  31.674  1.00  0.00     0.029 A 
ATOM     38  N   UNL A   1      39.308  30.502  31.934  1.00  0.00    -0.354 N 
ATOM     39  C   UNL A   1      40.951  27.986  28.861  1.00  0.00     0.074 A 
ATOM     40  C   UNL A   1      40.259  28.201  27.608  1.00  0.00     0.031 C 
ATOM     41  C   UNL A   1      37.841  31.905  32.868  1.00  0.00     0.029 A 
ATOM     42  C   UNL A   1      39.094  31.195  33.099  1.00  0.00     0.049 A 
ATOM     43  H   UNL A   1      40.107  29.949  31.774  1.00  0.00     0.167 HD
ATOM     44  C   UNL A   1      42.032  27.185  29.016  1.00  0.00     0.037 A 
ATOM     45  C   UNL A   1      39.801  31.224  34.245  1.00  0.00     0.037 A 
ATOM     46  C   UNL A   1      42.768  27.039  30.244  1.00  0.00     0.049 A 
ATOM     47  C   UNL A   1      41.013  30.352  34.388  1.00  0.00     0.074 A 
ATOM     48  C   UNL A   1      43.862  26.231  30.509  1.00  0.00     0.029 A 
ATOM     49  N   UNL A   1      42.507  27.748  31.406  1.00  0.00    -0.354 N 
ATOM     50  N   UNL A   1      41.551  29.536  33.515  1.00  0.00    -0.248 NA
ATOM     51  C   UNL A   1      41.695  30.375  35.690  1.00  0.00     0.031 C 
ATOM     52  C   UNL A   1      44.258  26.450  31.835  1.00  0.00     0.029 A 
ATOM     53  C   UNL A   1      43.424  27.408  32.386  1.00  0.00     0.049 A 
ATOM     54  H   UNL A   1      41.776  28.399  31.517  1.00  0.00     0.167 HD
ATOM     55  C   UNL A   1      42.617  28.935  34.164  1.00  0.00     0.074 A 
ATOM     56  C   UNL A   1      42.676  29.505  35.494  1.00  0.00     0.031 C 
ATOM     57  C   UNL A   1      43.460  27.978  33.706  1.00  0.00     0.037 A 
BRANCH  44  58
ATOM     58  C   UNL A   1      42.462  26.363  27.839  1.00  0.00     0.064 A 
ATOM     59  C   UNL A   1      41.886  25.120  27.549  1.00  0.00     0.173 A 
ATOM     60  C   UNL A   1      43.440  26.858  26.962  1.00  0.00     0.173 A 
ATOM     61  F   UNL A   1      40.960  24.599  28.367  1.00  0.00    -0.203 F 
ATOM     62  C   UNL A   1      42.281  24.396  26.427  1.00  0.00     0.198 A 
ATOM     63  C   UNL A   1      43.818  26.141  25.830  1.00  0.00     0.198 A 
ATOM     64  F   UNL A   1      44.019  28.046  27.196  1.00  0.00    -0.203 F 
ATOM     65  F   UNL A   1      41.738  23.194  26.181  1.00  0.00    -0.200 F 
ATOM     66  C   UNL A   1      43.241  24.908  25.566  1.00  0.00     0.200 A 
ATOM     67  F   UNL A   1      44.739  26.642  24.997  1.00  0.00    -0.200 F 
ATOM     68  F   UNL A   1      43.613  24.212  24.483  1.00  0.00    -0.200 F 
ENDBRANCH  44  58
BRANCH  45  69
ATOM     69  C   UNL A   1      39.341  32.082  35.365  1.00  0.00     0.064 A 
ATOM     70  C   UNL A   1      38.489  31.572  36.353  1.00  0.00     0.173 A 
ATOM     71  C   UNL A   1      39.768  33.411  35.486  1.00  0.00     0.173 A 
ATOM     72  F   UNL A   1      38.035  30.314  36.262  1.00  0.00    -0.203 F 
ATOM     73  C   UNL A   1      38.084  32.363  37.426  1.00  0.00     0.198 A 
ATOM     74  C   UNL A   1      39.381  34.193  36.571  1.00  0.00     0.198 A 
ATOM     75  F   UNL A   1      40.582  33.942  34.562  1.00  0.00    -0.203 F 
ATOM     76  F   UNL A   1      37.250  31.863  38.347  1.00  0.00    -0.200 F 
ATOM     77  C   UNL A   1      38.538  33.670  37.539  1.00  0.00     0.200 A 
ATOM     78  F   UNL A   1      39.832  35.450  36.683  1.00  0.00    -0.200 F 
ATOM     79  F   UNL A   1      38.160  34.424  38.579  1.00  0.00    -0.200 F 
ENDBRANCH  45  69
BRANCH  57  80
ATOM     80  C   UNL A   1      44.509  27.488  34.653  1.00  0.00     0.064 A 
ATOM     81  C   UNL A   1      44.278  26.374  35.472  1.00  0.00     0.173 A 
ATOM     82  C   UNL A   1      45.760  28.116  34.724  1.00  0.00     0.173 A 
ATOM     83  F   UNL A   1      43.090  25.752  35.446  1.00  0.00    -0.203 F 
ATOM     84  C   UNL A   1      45.261  25.914  36.344  1.00  0.00     0.198 A 
ATOM     85  C   UNL A   1      46.746  27.644  35.586  1.00  0.00     0.198 A 
ATOM     86  F   UNL A   1      46.023  29.186  33.958  1.00  0.00    -0.203 F 
ATOM     87  F   UNL A   1      45.011  24.867  37.142  1.00  0.00    -0.200 F 
ATOM     88  C   UNL A   1      46.494  26.547  36.397  1.00  0.00     0.200 A 
ATOM     89  F   UNL A   1      47.938  28.255  35.636  1.00  0.00    -0.200 F 
ATOM     90  F   UNL A   1      47.439  26.105  37.238  1.00  0.00    -0.200 F 
ENDBRANCH  57  80
ENDBRANCH  31  32
ENDBRANCH  24  26
ENDBRANCH  23  24
ENDBRANCH  22  23
ENDBRANCH   1  22
TORSDOF 16
ENDMDL
MODEL 3
REMARK VINA RESULT:     -10.9      4.479      9.786
REMARK SMILES CC[NH2+][C@@]1(C(=O)OCCOC(=O)c2ccc(-c3c4nc(c(-c5c(F)c(F)c(F)c(F)c5F)c5ccc([nH]5)c(-c5c(F)c(F)c(F)c(F)c5F)c5nc(c(-c6c(F)c(F)c(F)c(F)c6F)c6ccc3[nH]6)C=C5)C=C4)cc2)CC[C@@H](SCC2CCCC2)C1
REMARK SMILES IDX 8 1 7 2 5 3 6 4 4 5 76 6 86 7 77 8 78 9 3 10 2 13 1 14 79 15
REMARK SMILES IDX 80 16 81 17 82 18 85 19 83 20 84 21 9 22 10 23 11 24 12 25
REMARK SMILES IDX 13 26 14 27 75 28 15 29 74 30 16 31 17 32 18 33 68 34 19 35
REMARK SMILES IDX 73 36 67 37 69 38 20 39 72 40 66 41 65 42 21 44 53 45 33 46
REMARK SMILES IDX 52 47 34 48 37 49 51 50 70 51 35 52 36 53 50 55 71 56 38 57
REMARK SMILES IDX 22 58 23 59 31 60 24 61 25 62 29 63 32 64 26 65 27 66 30 67
REMARK SMILES IDX 28 68 54 69 55 70 63 71 56 72 57 73 61 74 64 75 58 76 59 77
REMARK SMILES IDX 62 78 60 79 39 80 40 81 48 82 41 83 42 84 46 85 49 86 43 87
REMARK SMILES IDX 44 88 47 89 45 90
REMARK H PARENT 3 11 3 12 69 43 37 54
REMARK Flexibility Score: inf
ROOT
ATOM      1  C   UNL A   1      35.480  20.646  24.998  1.00  0.00     0.274 C 
ENDROOT
BRANCH   1   2
ATOM      2  O   UNL A   1      35.006  21.888  24.438  1.00  0.00    -0.457 OA
BRANCH   2   3
ATOM      3  C   UNL A   1      33.668  21.926  24.206  1.00  0.00     0.368 C 
ATOM      4  O   UNL A   1      32.967  20.918  24.126  1.00  0.00    -0.245 OA
BRANCH   3   5
ATOM      5  C   UNL A   1      33.091  23.376  24.042  1.00  0.00     0.195 C 
ATOM      6  C   UNL A   1      33.591  24.099  25.306  1.00  0.00     0.082 C 
ATOM      7  C   UNL A   1      31.552  23.497  24.153  1.00  0.00     0.095 C 
ATOM      8  C   UNL A   1      32.595  23.649  26.369  1.00  0.00     0.022 C 
ATOM      9  C   UNL A   1      31.249  23.648  25.655  1.00  0.00     0.053 C 
BRANCH   5  10
ATOM     10  N   UNL A   1      33.640  23.894  22.767  1.00  0.00    -0.332 N 
ATOM     11  H   UNL A   1      34.566  24.272  22.966  1.00  0.00     0.347 HD
ATOM     12  H   UNL A   1      33.614  23.095  22.134  1.00  0.00     0.347 HD
BRANCH  10  13
ATOM     13  C   UNL A   1      32.887  24.934  22.073  1.00  0.00     0.257 C 
ATOM     14  C   UNL A   1      33.506  26.293  22.368  1.00  0.00     0.071 C 
ENDBRANCH  10  13
ENDBRANCH   5  10
BRANCH   9  15
ATOM     15  S   UNL A   1      30.181  25.077  26.125  1.00  0.00    -0.158 SA
BRANCH  15  16
ATOM     16  C   UNL A   1      30.648  26.424  24.968  1.00  0.00     0.073 C 
BRANCH  16  17
ATOM     17  C   UNL A   1      31.720  27.377  25.524  1.00  0.00    -0.001 C 
ATOM     18  C   UNL A   1      31.857  28.724  24.816  1.00  0.00     0.004 C 
ATOM     19  C   UNL A   1      31.401  27.825  26.960  1.00  0.00     0.004 C 
ATOM     20  C   UNL A   1      32.657  29.566  25.793  1.00  0.00     0.000 C 
ATOM     21  C   UNL A   1      32.159  29.139  27.168  1.00  0.00     0.000 C 
ENDBRANCH  16  17
ENDBRANCH  15  16
ENDBRANCH   9  15
ENDBRANCH   3   5
ENDBRANCH   2   3
ENDBRANCH   1   2
BRANCH   1  22
ATOM     22  C   UNL A   1      37.008  20.558  25.001  1.00  0.00     0.275 C 
BRANCH  22  23
ATOM     23  O   UNL A   1      37.616  21.716  25.605  1.00  0.00    -0.458 OA
BRANCH  23  24
ATOM     24  C   UNL A   1      38.868  21.521  26.073  1.00  0.00     0.338 C 
ATOM     25  O   UNL A   1      39.550  20.511  25.974  1.00  0.00    -0.246 OA
BRANCH  24  26
ATOM     26  C   UNL A   1      39.378  22.727  26.740  1.00  0.00     0.060 A 
ATOM     27  C   UNL A   1      38.867  23.972  26.385  1.00  0.00     0.016 A 
ATOM     28  C   UNL A   1      40.517  22.640  27.541  1.00  0.00     0.016 A 
ATOM     29  C   UNL A   1      39.558  25.131  26.731  1.00  0.00     0.010 A 
ATOM     30  C   UNL A   1      41.153  23.810  27.970  1.00  0.00     0.010 A 
ATOM     31  C   UNL A   1      40.710  25.069  27.528  1.00  0.00    -0.014 A 
BRANCH  31  32
ATOM     32  C   UNL A   1      41.486  26.302  27.841  1.00  0.00     0.031 A 
ATOM     33  C   UNL A   1      40.893  27.364  28.730  1.00  0.00     0.074 A 
ATOM     34  C   UNL A   1      42.733  26.476  27.362  1.00  0.00     0.049 A 
ATOM     35  N   UNL A   1      41.286  28.600  28.923  1.00  0.00    -0.248 NA
ATOM     36  C   UNL A   1      39.691  26.995  29.494  1.00  0.00     0.031 C 
ATOM     37  C   UNL A   1      43.473  25.513  26.547  1.00  0.00     0.029 A 
ATOM     38  N   UNL A   1      43.606  27.527  27.506  1.00  0.00    -0.354 N 
ATOM     39  C   UNL A   1      40.336  29.175  29.755  1.00  0.00     0.074 A 
ATOM     40  C   UNL A   1      39.364  28.147  30.062  1.00  0.00     0.031 C 
ATOM     41  C   UNL A   1      44.704  25.990  26.311  1.00  0.00     0.029 A 
ATOM     42  C   UNL A   1      44.808  27.333  26.871  1.00  0.00     0.049 A 
ATOM     43  H   UNL A   1      43.390  28.341  28.015  1.00  0.00     0.167 HD
ATOM     44  C   UNL A   1      40.275  30.452  30.205  1.00  0.00     0.037 A 
ATOM     45  C   UNL A   1      45.861  28.157  26.717  1.00  0.00     0.037 A 
ATOM     46  C   UNL A   1      41.286  31.448  29.968  1.00  0.00     0.049 A 
ATOM     47  C   UNL A   1      45.787  29.559  27.249  1.00  0.00     0.074 A 
ATOM     48  C   UNL A   1      41.303  32.777  30.359  1.00  0.00     0.029 A 
ATOM     49  N   UNL A   1      42.480  31.213  29.306  1.00  0.00    -0.354 N 
ATOM     50  N   UNL A   1      44.816  30.141  27.908  1.00  0.00    -0.248 NA
ATOM     51  C   UNL A   1      46.941  30.430  26.980  1.00  0.00     0.031 C 
ATOM     52  C   UNL A   1      42.508  33.346  29.928  1.00  0.00     0.029 A 
ATOM     53  C   UNL A   1      43.248  32.366  29.288  1.00  0.00     0.049 A 
ATOM     54  H   UNL A   1      42.744  30.352  28.907  1.00  0.00     0.167 HD
ATOM     55  C   UNL A   1      45.229  31.448  28.115  1.00  0.00     0.074 A 
ATOM     56  C   UNL A   1      46.555  31.566  27.545  1.00  0.00     0.031 C 
ATOM     57  C   UNL A   1      44.560  32.466  28.707  1.00  0.00     0.037 A 
BRANCH  44  58
ATOM     58  C   UNL A   1      39.050  30.863  30.965  1.00  0.00     0.064 A 
ATOM     59  C   UNL A   1      38.977  30.780  32.360  1.00  0.00     0.173 A 
ATOM     60  C   UNL A   1      37.947  31.393  30.276  1.00  0.00     0.173 A 
ATOM     61  F   UNL A   1      39.999  30.266  33.060  1.00  0.00    -0.203 F 
ATOM     62  C   UNL A   1      37.838  31.204  33.041  1.00  0.00     0.198 A 
ATOM     63  C   UNL A   1      36.818  31.834  30.960  1.00  0.00     0.198 A 
ATOM     64  F   UNL A   1      37.971  31.495  28.938  1.00  0.00    -0.203 F 
ATOM     65  F   UNL A   1      37.775  31.090  34.375  1.00  0.00    -0.200 F 
ATOM     66  C   UNL A   1      36.763  31.736  32.342  1.00  0.00     0.200 A 
ATOM     67  F   UNL A   1      35.786  32.354  30.284  1.00  0.00    -0.200 F 
ATOM     68  F   UNL A   1      35.671  32.149  33.001  1.00  0.00    -0.200 F 
ENDBRANCH  44  58
BRANCH  45  69
ATOM     69  C   UNL A   1      47.058  27.682  25.981  1.00  0.00     0.064 A 
ATOM     70  C   UNL A   1      47.104  27.730  24.582  1.00  0.00     0.173 A 
ATOM     71  C   UNL A   1      48.187  27.204  26.660  1.00  0.00     0.173 A 
ATOM     72  F   UNL A   1      46.036  28.156  23.891  1.00  0.00    -0.203 F 
ATOM     73  C   UNL A   1      48.240  27.319  23.888  1.00  0.00     0.198 A 
ATOM     74  C   UNL A   1      49.331  26.815  25.967  1.00  0.00     0.198 A 
ATOM     75  F   UNL A   1      48.188  27.138  28.000  1.00  0.00    -0.203 F 
ATOM     76  F   UNL A   1      48.253  27.351  22.549  1.00  0.00    -0.200 F 
ATOM     77  C   UNL A   1      49.356  26.871  24.581  1.00  0.00     0.200 A 
ATOM     78  F   UNL A   1      50.410  26.395  26.640  1.00  0.00    -0.200 F 
ATOM     79  F   UNL A   1      50.452  26.490  23.914  1.00  0.00    -0.200 F 
ENDBRANCH  45  69
BRANCH  57  80
ATOM     80  C   UNL A   1      45.250  33.792  28.759  1.00  0.00     0.064 A 
ATOM     81  C   UNL A   1      45.070  34.740  27.741  1.00  0.00     0.173 A 
ATOM     82  C   UNL A   1      46.072  34.130  29.842  1.00  0.00     0.173 A 
ATOM     83  F   UNL A   1      44.303  34.452  26.679  1.00  0.00    -0.203 F 
ATOM     84  C   UNL A   1      45.705  35.977  27.799  1.00  0.00     0.198 A 
ATOM     85  C   UNL A   1      46.694  35.374  29.904  1.00  0.00     0.198 A 
ATOM     86  F   UNL A   1      46.272  33.253  30.838  1.00  0.00    -0.203 F 
ATOM     87  F   UNL A   1      45.546  36.858  26.801  1.00  0.00    -0.200 F 
ATOM     88  C   UNL A   1      46.513  36.294  28.881  1.00  0.00     0.200 A 
ATOM     89  F   UNL A   1      47.472  35.681  30.950  1.00  0.00    -0.200 F 
ATOM     90  F   UNL A   1      47.125  37.485  28.934  1.00  0.00    -0.200 F 
ENDBRANCH  57  80
ENDBRANCH  31  32
ENDBRANCH  24  26
ENDBRANCH  23  24
ENDBRANCH  22  23
ENDBRANCH   1  22
TORSDOF 16
ENDMDL
