MODEL 1
REMARK VINA RESULT:     -11.7      0.000      0.000
REMARK SMILES Cc1oc2c(c1C(=O)OCCOC(=O)c1ccc(-c3c4nc(c(-c5c(F)c(F)c(F)c(F)c5F)c5ccc([nH]5)c(-c5c(F)c(F)c(F)c(F)c5F)c5nc(c(-c6c(F)c(F)c(F)c(F)c6F)c6ccc3[nH]6)C=C5)C=C4)cc1)C(=O)C[C@H](c1ccco1)C2
REMARK SMILES IDX 11 1 10 2 9 3 7 4 8 5 6 6 1 7 2 8 3 9 4 10 5 11 87 12 78 13
REMARK SMILES IDX 81 14 79 15 80 16 82 17 83 18 86 19 84 20 85 21 12 22 13 23
REMARK SMILES IDX 14 24 15 25 16 26 77 27 17 28 76 29 18 30 19 31 20 32 70 33
REMARK SMILES IDX 21 34 75 35 69 36 71 37 22 38 74 39 68 40 67 41 23 43 55 44
REMARK SMILES IDX 35 45 54 46 36 47 39 48 53 49 72 50 37 51 38 52 52 54 73 55
REMARK SMILES IDX 40 56 24 57 25 58 33 59 26 60 27 61 31 62 34 63 28 64 29 65
REMARK SMILES IDX 32 66 30 67 56 68 57 69 65 70 58 71 59 72 63 73 66 74 60 75
REMARK SMILES IDX 61 76 64 77 62 78 41 79 42 80 50 81 43 82 44 83 48 84 51 85
REMARK SMILES IDX 45 86 46 87 49 88 47 89
REMARK H PARENT 71 42 39 53
REMARK Flexibility Score: inf
ROOT
ATOM      1  C   UNL A   1      44.718  19.584  24.878  1.00  0.00     0.275 C 
ENDROOT
BRANCH   1   2
ATOM      2  C   UNL A   1      43.434  18.918  25.373  1.00  0.00     0.275 C 
BRANCH   2   3
ATOM      3  O   UNL A   1      42.328  19.845  25.513  1.00  0.00    -0.458 OA
BRANCH   3   4
ATOM      4  C   UNL A   1      41.741  19.963  26.755  1.00  0.00     0.342 C 
ATOM      5  O   UNL A   1      41.903  19.147  27.650  1.00  0.00    -0.246 OA
BRANCH   4   6
ATOM      6  C   UNL A   1      40.899  21.158  26.906  1.00  0.00     0.112 A 
ATOM      7  C   UNL A   1      42.212  22.578  28.715  1.00  0.00     0.088 C 
ATOM      8  C   UNL A   1      41.153  22.252  27.732  1.00  0.00     0.116 A 
ATOM      9  O   UNL A   1      40.212  23.231  27.561  1.00  0.00    -0.465 OA
ATOM     10  C   UNL A   1      39.323  22.762  26.664  1.00  0.00     0.116 A 
ATOM     11  C   UNL A   1      39.658  21.490  26.252  1.00  0.00     0.074 A 
ATOM     12  C   UNL A   1      38.150  23.593  26.255  1.00  0.00     0.088 C 
ATOM     13  C   UNL A   1      38.737  20.812  25.355  1.00  0.00     0.168 C 
ATOM     14  C   UNL A   1      37.069  22.656  25.654  1.00  0.00     0.071 C 
ATOM     15  O   UNL A   1      38.709  19.599  25.196  1.00  0.00    -0.294 OA
ATOM     16  C   UNL A   1      37.730  21.704  24.639  1.00  0.00     0.093 C 
BRANCH  14  17
ATOM     17  C   UNL A   1      35.917  23.355  25.001  1.00  0.00     0.107 A 
ATOM     18  C   UNL A   1      35.166  24.453  25.382  1.00  0.00     0.046 A 
ATOM     19  O   UNL A   1      35.434  22.849  23.834  1.00  0.00    -0.469 OA
ATOM     20  C   UNL A   1      34.155  24.606  24.406  1.00  0.00     0.042 A 
ATOM     21  C   UNL A   1      34.367  23.612  23.480  1.00  0.00     0.195 A 
ENDBRANCH  14  17
ENDBRANCH   4   6
ENDBRANCH   3   4
ENDBRANCH   2   3
ENDBRANCH   1   2
BRANCH   1  22
ATOM     22  O   UNL A   1      44.446  20.763  24.114  1.00  0.00    -0.458 OA
BRANCH  22  23
ATOM     23  C   UNL A   1      45.171  21.844  24.452  1.00  0.00     0.338 C 
ATOM     24  O   UNL A   1      46.387  22.034  24.251  1.00  0.00    -0.246 OA
BRANCH  23  25
ATOM     25  C   UNL A   1      44.411  22.671  25.367  1.00  0.00     0.060 A 
ATOM     26  C   UNL A   1      43.231  23.308  25.001  1.00  0.00     0.016 A 
ATOM     27  C   UNL A   1      45.136  23.186  26.429  1.00  0.00     0.016 A 
ATOM     28  C   UNL A   1      43.052  24.632  25.448  1.00  0.00     0.010 A 
ATOM     29  C   UNL A   1      44.550  24.174  27.161  1.00  0.00     0.010 A 
ATOM     30  C   UNL A   1      43.962  25.177  26.413  1.00  0.00    -0.014 A 
BRANCH  30  31
ATOM     31  C   UNL A   1      43.765  26.427  27.255  1.00  0.00     0.031 A 
ATOM     32  C   UNL A   1      45.056  27.281  26.729  1.00  0.00     0.074 A 
ATOM     33  C   UNL A   1      42.644  26.739  28.126  1.00  0.00     0.049 A 
ATOM     34  N   UNL A   1      46.165  27.421  27.396  1.00  0.00    -0.248 NA
ATOM     35  C   UNL A   1      45.402  27.608  25.276  1.00  0.00     0.031 C 
ATOM     36  C   UNL A   1      41.374  26.003  28.635  1.00  0.00     0.029 A 
ATOM     37  N   UNL A   1      42.374  27.911  28.894  1.00  0.00    -0.354 N 
ATOM     38  C   UNL A   1      46.962  28.330  26.680  1.00  0.00     0.074 A 
ATOM     39  C   UNL A   1      46.603  28.198  25.321  1.00  0.00     0.031 C 
ATOM     40  C   UNL A   1      40.436  26.848  29.207  1.00  0.00     0.029 A 
ATOM     41  C   UNL A   1      40.992  28.179  29.321  1.00  0.00     0.049 A 
ATOM     42  H   UNL A   1      43.101  28.530  29.134  1.00  0.00     0.167 HD
ATOM     43  C   UNL A   1      47.473  29.395  27.351  1.00  0.00     0.037 A 
ATOM     44  C   UNL A   1      40.455  29.301  29.985  1.00  0.00     0.037 A 
ATOM     45  C   UNL A   1      47.415  29.078  28.757  1.00  0.00     0.049 A 
ATOM     46  C   UNL A   1      41.655  30.065  30.422  1.00  0.00     0.074 A 
ATOM     47  C   UNL A   1      47.998  28.100  29.537  1.00  0.00     0.029 A 
ATOM     48  N   UNL A   1      46.167  29.309  29.271  1.00  0.00    -0.354 N 
ATOM     49  N   UNL A   1      42.454  29.570  31.331  1.00  0.00    -0.248 NA
ATOM     50  C   UNL A   1      42.254  30.860  29.351  1.00  0.00     0.031 C 
ATOM     51  C   UNL A   1      46.976  27.629  30.416  1.00  0.00     0.029 A 
ATOM     52  C   UNL A   1      45.870  28.461  30.294  1.00  0.00     0.049 A 
ATOM     53  H   UNL A   1      45.556  30.006  28.940  1.00  0.00     0.167 HD
ATOM     54  C   UNL A   1      43.682  29.535  30.694  1.00  0.00     0.074 A 
ATOM     55  C   UNL A   1      43.493  30.360  29.464  1.00  0.00     0.031 C 
ATOM     56  C   UNL A   1      44.601  28.543  30.959  1.00  0.00     0.037 A 
BRANCH  43  57
ATOM     57  C   UNL A   1      47.432  30.830  26.861  1.00  0.00     0.064 A 
ATOM     58  C   UNL A   1      48.608  31.591  26.995  1.00  0.00     0.173 A 
ATOM     59  C   UNL A   1      46.264  31.570  26.553  1.00  0.00     0.173 A 
ATOM     60  F   UNL A   1      49.766  30.991  27.307  1.00  0.00    -0.203 F 
ATOM     61  C   UNL A   1      48.613  32.984  26.875  1.00  0.00     0.198 A 
ATOM     62  C   UNL A   1      46.285  32.957  26.371  1.00  0.00     0.198 A 
ATOM     63  F   UNL A   1      45.052  31.006  26.509  1.00  0.00    -0.203 F 
ATOM     64  F   UNL A   1      49.739  33.666  27.119  1.00  0.00    -0.200 F 
ATOM     65  C   UNL A   1      47.455  33.666  26.552  1.00  0.00     0.200 A 
ATOM     66  F   UNL A   1      45.148  33.608  26.079  1.00  0.00    -0.200 F 
ATOM     67  F   UNL A   1      47.459  35.001  26.445  1.00  0.00    -0.200 F 
ENDBRANCH  43  57
BRANCH  44  68
ATOM     68  C   UNL A   1      39.112  30.045  29.768  1.00  0.00     0.064 A 
ATOM     69  C   UNL A   1      38.255  30.150  28.618  1.00  0.00     0.173 A 
ATOM     70  C   UNL A   1      38.500  30.480  30.951  1.00  0.00     0.173 A 
ATOM     71  F   UNL A   1      38.638  29.703  27.410  1.00  0.00    -0.203 F 
ATOM     72  C   UNL A   1      36.934  30.698  28.690  1.00  0.00     0.198 A 
ATOM     73  C   UNL A   1      37.199  30.991  31.027  1.00  0.00     0.198 A 
ATOM     74  F   UNL A   1      39.145  30.325  32.113  1.00  0.00    -0.203 F 
ATOM     75  F   UNL A   1      36.155  30.805  27.598  1.00  0.00    -0.200 F 
ATOM     76  C   UNL A   1      36.411  31.109  29.904  1.00  0.00     0.200 A 
ATOM     77  F   UNL A   1      36.710  31.328  32.227  1.00  0.00    -0.200 F 
ATOM     78  F   UNL A   1      35.157  31.579  30.008  1.00  0.00    -0.200 F 
ENDBRANCH  44  68
BRANCH  56  79
ATOM     79  C   UNL A   1      44.350  27.525  32.057  1.00  0.00     0.064 A 
ATOM     80  C   UNL A   1      44.153  26.132  31.914  1.00  0.00     0.173 A 
ATOM     81  C   UNL A   1      44.511  27.983  33.364  1.00  0.00     0.173 A 
ATOM     82  F   UNL A   1      44.237  25.538  30.721  1.00  0.00    -0.203 F 
ATOM     83  C   UNL A   1      43.972  25.288  33.020  1.00  0.00     0.198 A 
ATOM     84  C   UNL A   1      44.407  27.135  34.463  1.00  0.00     0.198 A 
ATOM     85  F   UNL A   1      44.862  29.261  33.571  1.00  0.00    -0.203 F 
ATOM     86  F   UNL A   1      43.718  23.980  32.846  1.00  0.00    -0.200 F 
ATOM     87  C   UNL A   1      44.094  25.797  34.297  1.00  0.00     0.200 A 
ATOM     88  F   UNL A   1      44.643  27.619  35.687  1.00  0.00    -0.200 F 
ATOM     89  F   UNL A   1      43.956  24.998  35.364  1.00  0.00    -0.200 F 
ENDBRANCH  56  79
ENDBRANCH  30  31
ENDBRANCH  23  25
ENDBRANCH  22  23
ENDBRANCH   1  22
TORSDOF 12
ENDMDL
MODEL 2
REMARK VINA RESULT:     -11.6      2.689      4.785
REMARK SMILES Cc1oc2c(c1C(=O)OCCOC(=O)c1ccc(-c3c4nc(c(-c5c(F)c(F)c(F)c(F)c5F)c5ccc([nH]5)c(-c5c(F)c(F)c(F)c(F)c5F)c5nc(c(-c6c(F)c(F)c(F)c(F)c6F)c6ccc3[nH]6)C=C5)C=C4)cc1)C(=O)C[C@H](c1ccco1)C2
REMARK SMILES IDX 11 1 10 2 9 3 7 4 8 5 6 6 1 7 2 8 3 9 4 10 5 11 87 12 78 13
REMARK SMILES IDX 81 14 79 15 80 16 82 17 83 18 86 19 84 20 85 21 12 22 13 23
REMARK SMILES IDX 14 24 15 25 16 26 77 27 17 28 76 29 18 30 19 31 20 32 70 33
REMARK SMILES IDX 21 34 75 35 69 36 71 37 22 38 74 39 68 40 67 41 23 43 55 44
REMARK SMILES IDX 35 45 54 46 36 47 39 48 53 49 72 50 37 51 38 52 52 54 73 55
REMARK SMILES IDX 40 56 24 57 25 58 33 59 26 60 27 61 31 62 34 63 28 64 29 65
REMARK SMILES IDX 32 66 30 67 56 68 57 69 65 70 58 71 59 72 63 73 66 74 60 75
REMARK SMILES IDX 61 76 64 77 62 78 41 79 42 80 50 81 43 82 44 83 48 84 51 85
REMARK SMILES IDX 45 86 46 87 49 88 47 89
REMARK H PARENT 71 42 39 53
REMARK Flexibility Score: inf
ROOT
ATOM      1  C   UNL A   1      37.789  21.607  25.534  1.00  0.00     0.275 C 
ENDROOT
BRANCH   1   2
ATOM      2  C   UNL A   1      37.040  21.984  24.256  1.00  0.00     0.275 C 
BRANCH   2   3
ATOM      3  O   UNL A   1      36.422  23.294  24.323  1.00  0.00    -0.458 OA
BRANCH   3   4
ATOM      4  C   UNL A   1      35.290  23.510  23.565  1.00  0.00     0.342 C 
ATOM      5  O   UNL A   1      35.153  23.074  22.432  1.00  0.00    -0.246 OA
BRANCH   4   6
ATOM      6  C   UNL A   1      34.264  24.316  24.241  1.00  0.00     0.112 A 
ATOM      7  C   UNL A   1      34.138  23.211  26.644  1.00  0.00     0.088 C 
ATOM      8  C   UNL A   1      33.827  24.167  25.556  1.00  0.00     0.116 A 
ATOM      9  O   UNL A   1      32.928  25.142  25.893  1.00  0.00    -0.465 OA
ATOM     10  C   UNL A   1      32.743  25.897  24.792  1.00  0.00     0.116 A 
ATOM     11  C   UNL A   1      33.497  25.427  23.738  1.00  0.00     0.074 A 
ATOM     12  C   UNL A   1      31.803  27.058  24.820  1.00  0.00     0.088 C 
ATOM     13  C   UNL A   1      33.329  26.083  22.451  1.00  0.00     0.168 C 
ATOM     14  C   UNL A   1      31.404  27.402  23.360  1.00  0.00     0.071 C 
ATOM     15  O   UNL A   1      33.638  25.573  21.381  1.00  0.00    -0.294 OA
ATOM     16  C   UNL A   1      32.672  27.457  22.487  1.00  0.00     0.093 C 
BRANCH  14  17
ATOM     17  C   UNL A   1      30.633  28.675  23.197  1.00  0.00     0.107 A 
ATOM     18  C   UNL A   1      30.279  29.663  24.099  1.00  0.00     0.046 A 
ATOM     19  O   UNL A   1      30.116  28.963  21.972  1.00  0.00    -0.469 OA
ATOM     20  C   UNL A   1      29.481  30.589  23.389  1.00  0.00     0.042 A 
ATOM     21  C   UNL A   1      29.419  30.123  22.097  1.00  0.00     0.195 A 
ENDBRANCH  14  17
ENDBRANCH   4   6
ENDBRANCH   3   4
ENDBRANCH   2   3
ENDBRANCH   1   2
BRANCH   1  22
ATOM     22  O   UNL A   1      38.435  22.738  26.127  1.00  0.00    -0.458 OA
BRANCH  22  23
ATOM     23  C   UNL A   1      39.641  22.491  26.668  1.00  0.00     0.338 C 
ATOM     24  O   UNL A   1      40.028  21.434  27.203  1.00  0.00    -0.246 OA
BRANCH  23  25
ATOM     25  C   UNL A   1      40.368  23.734  26.821  1.00  0.00     0.060 A 
ATOM     26  C   UNL A   1      41.579  23.818  27.500  1.00  0.00     0.016 A 
ATOM     27  C   UNL A   1      39.599  24.880  26.700  1.00  0.00     0.016 A 
ATOM     28  C   UNL A   1      41.760  24.925  28.352  1.00  0.00     0.010 A 
ATOM     29  C   UNL A   1      40.167  26.053  27.096  1.00  0.00     0.010 A 
ATOM     30  C   UNL A   1      40.813  26.001  28.317  1.00  0.00    -0.014 A 
BRANCH  30  31
ATOM     31  C   UNL A   1      40.990  27.398  28.889  1.00  0.00     0.031 A 
ATOM     32  C   UNL A   1      42.330  27.832  28.060  1.00  0.00     0.074 A 
ATOM     33  C   UNL A   1      40.094  28.106  29.787  1.00  0.00     0.049 A 
ATOM     34  N   UNL A   1      43.531  27.846  28.561  1.00  0.00    -0.248 NA
ATOM     35  C   UNL A   1      42.514  27.798  26.542  1.00  0.00     0.031 C 
ATOM     36  C   UNL A   1      38.793  27.778  30.572  1.00  0.00     0.029 A 
ATOM     37  N   UNL A   1      40.174  29.431  30.311  1.00  0.00    -0.354 N 
ATOM     38  C   UNL A   1      44.376  28.405  27.587  1.00  0.00     0.074 A 
ATOM     39  C   UNL A   1      43.801  28.106  26.333  1.00  0.00     0.031 C 
ATOM     40  C   UNL A   1      38.134  28.900  31.047  1.00  0.00     0.029 A 
ATOM     41  C   UNL A   1      38.949  30.073  30.815  1.00  0.00     0.049 A 
ATOM     42  H   UNL A   1      41.035  29.908  30.336  1.00  0.00     0.167 HD
ATOM     43  C   UNL A   1      45.179  29.437  27.958  1.00  0.00     0.037 A 
ATOM     44  C   UNL A   1      38.746  31.389  31.277  1.00  0.00     0.037 A 
ATOM     45  C   UNL A   1      45.269  29.409  29.397  1.00  0.00     0.049 A 
ATOM     46  C   UNL A   1      40.123  31.937  31.412  1.00  0.00     0.074 A 
ATOM     47  C   UNL A   1      45.759  28.488  30.302  1.00  0.00     0.029 A 
ATOM     48  N   UNL A   1      44.180  30.001  29.979  1.00  0.00    -0.354 N 
ATOM     49  N   UNL A   1      40.936  31.456  32.317  1.00  0.00    -0.248 NA
ATOM     50  C   UNL A   1      40.700  32.366  30.139  1.00  0.00     0.031 C 
ATOM     51  C   UNL A   1      44.806  28.428  31.364  1.00  0.00     0.029 A 
ATOM     52  C   UNL A   1      43.878  29.445  31.185  1.00  0.00     0.049 A 
ATOM     53  H   UNL A   1      43.675  30.742  29.573  1.00  0.00     0.167 HD
ATOM     54  C   UNL A   1      42.026  31.032  31.575  1.00  0.00     0.074 A 
ATOM     55  C   UNL A   1      41.821  31.635  30.224  1.00  0.00     0.031 C 
ATOM     56  C   UNL A   1      42.762  29.929  31.947  1.00  0.00     0.037 A 
BRANCH  43  57
ATOM     57  C   UNL A   1      45.346  30.729  27.181  1.00  0.00     0.064 A 
ATOM     58  C   UNL A   1      46.657  31.208  27.001  1.00  0.00     0.173 A 
ATOM     59  C   UNL A   1      44.317  31.651  26.868  1.00  0.00     0.173 A 
ATOM     60  F   UNL A   1      47.706  30.423  27.288  1.00  0.00    -0.203 F 
ATOM     61  C   UNL A   1      46.922  32.516  26.585  1.00  0.00     0.198 A 
ATOM     62  C   UNL A   1      44.586  32.939  26.392  1.00  0.00     0.198 A 
ATOM     63  F   UNL A   1      43.026  31.385  27.098  1.00  0.00    -0.203 F 
ATOM     64  F   UNL A   1      48.188  32.952  26.535  1.00  0.00    -0.200 F 
ATOM     65  C   UNL A   1      45.889  33.377  26.270  1.00  0.00     0.200 A 
ATOM     66  F   UNL A   1      43.571  33.771  26.111  1.00  0.00    -0.200 F 
ATOM     67  F   UNL A   1      46.144  34.633  25.879  1.00  0.00    -0.200 F 
ENDBRANCH  43  57
BRANCH  44  68
ATOM     68  C   UNL A   1      37.557  32.358  31.049  1.00  0.00     0.064 A 
ATOM     69  C   UNL A   1      37.165  33.134  29.904  1.00  0.00     0.173 A 
ATOM     70  C   UNL A   1      36.556  32.276  32.028  1.00  0.00     0.173 A 
ATOM     71  F   UNL A   1      37.960  33.255  28.829  1.00  0.00    -0.203 F 
ATOM     72  C   UNL A   1      35.896  33.793  29.820  1.00  0.00     0.198 A 
ATOM     73  C   UNL A   1      35.306  32.897  31.933  1.00  0.00     0.198 A 
ATOM     74  F   UNL A   1      36.747  31.486  33.090  1.00  0.00    -0.203 F 
ATOM     75  F   UNL A   1      35.556  34.530  28.746  1.00  0.00    -0.200 F 
ATOM     76  C   UNL A   1      34.968  33.661  30.838  1.00  0.00     0.200 A 
ATOM     77  F   UNL A   1      34.415  32.703  32.914  1.00  0.00    -0.200 F 
ATOM     78  F   UNL A   1      33.752  34.226  30.760  1.00  0.00    -0.200 F 
ENDBRANCH  44  68
BRANCH  56  79
ATOM     79  C   UNL A   1      42.483  29.213  33.257  1.00  0.00     0.064 A 
ATOM     80  C   UNL A   1      41.865  27.955  33.440  1.00  0.00     0.173 A 
ATOM     81  C   UNL A   1      43.062  29.775  34.395  1.00  0.00     0.173 A 
ATOM     82  F   UNL A   1      41.501  27.204  32.397  1.00  0.00    -0.203 F 
ATOM     83  C   UNL A   1      41.703  27.381  34.709  1.00  0.00     0.198 A 
ATOM     84  C   UNL A   1      42.968  29.171  35.646  1.00  0.00     0.198 A 
ATOM     85  F   UNL A   1      43.804  30.885  34.273  1.00  0.00    -0.203 F 
ATOM     86  F   UNL A   1      41.049  26.216  34.854  1.00  0.00    -0.200 F 
ATOM     87  C   UNL A   1      42.253  27.998  35.815  1.00  0.00     0.200 A 
ATOM     88  F   UNL A   1      43.606  29.720  36.686  1.00  0.00    -0.200 F 
ATOM     89  F   UNL A   1      42.135  27.447  37.031  1.00  0.00    -0.200 F 
ENDBRANCH  56  79
ENDBRANCH  30  31
ENDBRANCH  23  25
ENDBRANCH  22  23
ENDBRANCH   1  22
TORSDOF 12
ENDMDL
MODEL 3
REMARK VINA RESULT:     -11.6      4.705     10.771
REMARK SMILES Cc1oc2c(c1C(=O)OCCOC(=O)c1ccc(-c3c4nc(c(-c5c(F)c(F)c(F)c(F)c5F)c5ccc([nH]5)c(-c5c(F)c(F)c(F)c(F)c5F)c5nc(c(-c6c(F)c(F)c(F)c(F)c6F)c6ccc3[nH]6)C=C5)C=C4)cc1)C(=O)C[C@H](c1ccco1)C2
REMARK SMILES IDX 11 1 10 2 9 3 7 4 8 5 6 6 1 7 2 8 3 9 4 10 5 11 87 12 78 13
REMARK SMILES IDX 81 14 79 15 80 16 82 17 83 18 86 19 84 20 85 21 12 22 13 23
REMARK SMILES IDX 14 24 15 25 16 26 77 27 17 28 76 29 18 30 19 31 20 32 70 33
REMARK SMILES IDX 21 34 75 35 69 36 71 37 22 38 74 39 68 40 67 41 23 43 55 44
REMARK SMILES IDX 35 45 54 46 36 47 39 48 53 49 72 50 37 51 38 52 52 54 73 55
REMARK SMILES IDX 40 56 24 57 25 58 33 59 26 60 27 61 31 62 34 63 28 64 29 65
REMARK SMILES IDX 32 66 30 67 56 68 57 69 65 70 58 71 59 72 63 73 66 74 60 75
REMARK SMILES IDX 61 76 64 77 62 78 41 79 42 80 50 81 43 82 44 83 48 84 51 85
REMARK SMILES IDX 45 86 46 87 49 88 47 89
REMARK H PARENT 71 42 39 53
REMARK Flexibility Score: inf
ROOT
ATOM      1  C   UNL A   1      34.858  32.781  31.079  1.00  0.00     0.275 C 
ENDROOT
BRANCH   1   2
ATOM      2  C   UNL A   1      34.808  32.739  32.607  1.00  0.00     0.275 C 
BRANCH   2   3
ATOM      3  O   UNL A   1      35.875  31.950  33.191  1.00  0.00    -0.458 OA
BRANCH   3   4
ATOM      4  C   UNL A   1      36.766  32.592  34.025  1.00  0.00     0.342 C 
ATOM      5  O   UNL A   1      36.429  33.153  35.057  1.00  0.00    -0.246 OA
BRANCH   4   6
ATOM      6  C   UNL A   1      38.160  32.543  33.560  1.00  0.00     0.112 A 
ATOM      7  C   UNL A   1      39.305  30.915  35.307  1.00  0.00     0.088 C 
ATOM      8  C   UNL A   1      39.195  31.797  34.122  1.00  0.00     0.116 A 
ATOM      9  O   UNL A   1      40.343  31.910  33.386  1.00  0.00    -0.465 OA
ATOM     10  C   UNL A   1      40.074  32.761  32.376  1.00  0.00     0.116 A 
ATOM     11  C   UNL A   1      38.774  33.214  32.443  1.00  0.00     0.074 A 
ATOM     12  C   UNL A   1      41.131  33.110  31.379  1.00  0.00     0.088 C 
ATOM     13  C   UNL A   1      38.364  34.216  31.473  1.00  0.00     0.168 C 
ATOM     14  C   UNL A   1      40.730  34.438  30.682  1.00  0.00     0.071 C 
ATOM     15  O   UNL A   1      37.398  34.954  31.622  1.00  0.00    -0.294 OA
ATOM     16  C   UNL A   1      39.255  34.355  30.245  1.00  0.00     0.093 C 
BRANCH  14  17
ATOM     17  C   UNL A   1      41.576  34.817  29.507  1.00  0.00     0.107 A 
ATOM     18  C   UNL A   1      41.370  35.706  28.468  1.00  0.00     0.046 A 
ATOM     19  O   UNL A   1      42.766  34.178  29.337  1.00  0.00    -0.469 OA
ATOM     20  C   UNL A   1      42.484  35.582  27.606  1.00  0.00     0.042 A 
ATOM     21  C   UNL A   1      43.309  34.647  28.184  1.00  0.00     0.195 A 
ENDBRANCH  14  17
ENDBRANCH   4   6
ENDBRANCH   3   4
ENDBRANCH   2   3
ENDBRANCH   1   2
BRANCH   1  22
ATOM     22  O   UNL A   1      35.726  31.776  30.547  1.00  0.00    -0.458 OA
BRANCH  22  23
ATOM     23  C   UNL A   1      35.583  31.533  29.232  1.00  0.00     0.338 C 
ATOM     24  O   UNL A   1      34.520  31.492  28.582  1.00  0.00    -0.246 OA
BRANCH  23  25
ATOM     25  C   UNL A   1      36.827  31.021  28.694  1.00  0.00     0.060 A 
ATOM     26  C   UNL A   1      36.878  29.955  27.803  1.00  0.00     0.016 A 
ATOM     27  C   UNL A   1      37.950  31.301  29.454  1.00  0.00     0.016 A 
ATOM     28  C   UNL A   1      37.891  28.998  28.008  1.00  0.00     0.010 A 
ATOM     29  C   UNL A   1      39.093  30.626  29.144  1.00  0.00     0.010 A 
ATOM     30  C   UNL A   1      38.929  29.266  28.960  1.00  0.00    -0.014 A 
BRANCH  30  31
ATOM     31  C   UNL A   1      40.261  28.544  29.092  1.00  0.00     0.031 A 
ATOM     32  C   UNL A   1      40.310  28.422  30.721  1.00  0.00     0.074 A 
ATOM     33  C   UNL A   1      41.093  28.022  28.021  1.00  0.00     0.049 A 
ATOM     34  N   UNL A   1      41.035  29.179  31.493  1.00  0.00    -0.248 NA
ATOM     35  C   UNL A   1      39.232  27.822  31.624  1.00  0.00     0.031 C 
ATOM     36  C   UNL A   1      41.087  28.061  26.468  1.00  0.00     0.029 A 
ATOM     37  N   UNL A   1      42.316  27.290  28.081  1.00  0.00    -0.354 N 
ATOM     38  C   UNL A   1      40.913  28.673  32.797  1.00  0.00     0.074 A 
ATOM     39  C   UNL A   1      39.643  28.061  32.876  1.00  0.00     0.031 C 
ATOM     40  C   UNL A   1      41.935  27.131  25.887  1.00  0.00     0.029 A 
ATOM     41  C   UNL A   1      42.724  26.490  26.916  1.00  0.00     0.049 A 
ATOM     42  H   UNL A   1      42.879  27.320  28.888  1.00  0.00     0.167 HD
ATOM     43  C   UNL A   1      42.053  28.415  33.490  1.00  0.00     0.037 A 
ATOM     44  C   UNL A   1      43.815  25.608  26.765  1.00  0.00     0.037 A 
ATOM     45  C   UNL A   1      43.115  29.148  32.846  1.00  0.00     0.049 A 
ATOM     46  C   UNL A   1      44.651  25.865  27.968  1.00  0.00     0.074 A 
ATOM     47  C   UNL A   1      43.353  30.492  32.637  1.00  0.00     0.029 A 
ATOM     48  N   UNL A   1      43.590  28.482  31.747  1.00  0.00    -0.354 N 
ATOM     49  N   UNL A   1      45.254  27.017  28.116  1.00  0.00    -0.248 NA
ATOM     50  C   UNL A   1      44.151  25.200  29.170  1.00  0.00     0.031 C 
ATOM     51  C   UNL A   1      43.816  30.609  31.291  1.00  0.00     0.029 A 
ATOM     52  C   UNL A   1      44.042  29.335  30.787  1.00  0.00     0.049 A 
ATOM     53  H   UNL A   1      43.602  27.502  31.662  1.00  0.00     0.167 HD
ATOM     54  C   UNL A   1      44.767  27.480  29.327  1.00  0.00     0.074 A 
ATOM     55  C   UNL A   1      44.090  26.298  29.938  1.00  0.00     0.031 C 
ATOM     56  C   UNL A   1      44.574  28.825  29.556  1.00  0.00     0.037 A 
BRANCH  43  57
ATOM     57  C   UNL A   1      42.329  27.139  34.263  1.00  0.00     0.064 A 
ATOM     58  C   UNL A   1      41.946  27.110  35.616  1.00  0.00     0.173 A 
ATOM     59  C   UNL A   1      43.185  26.087  33.854  1.00  0.00     0.173 A 
ATOM     60  F   UNL A   1      41.153  28.072  36.112  1.00  0.00    -0.203 F 
ATOM     61  C   UNL A   1      42.413  26.136  36.503  1.00  0.00     0.198 A 
ATOM     62  C   UNL A   1      43.600  25.078  34.729  1.00  0.00     0.198 A 
ATOM     63  F   UNL A   1      43.728  26.043  32.631  1.00  0.00    -0.203 F 
ATOM     64  F   UNL A   1      42.103  26.219  37.803  1.00  0.00    -0.200 F 
ATOM     65  C   UNL A   1      43.230  25.114  36.058  1.00  0.00     0.200 A 
ATOM     66  F   UNL A   1      44.412  24.104  34.287  1.00  0.00    -0.200 F 
ATOM     67  F   UNL A   1      43.684  24.185  36.910  1.00  0.00    -0.200 F 
ENDBRANCH  43  57
BRANCH  44  68
ATOM     68  C   UNL A   1      43.899  24.232  26.054  1.00  0.00     0.064 A 
ATOM     69  C   UNL A   1      44.966  23.597  25.329  1.00  0.00     0.173 A 
ATOM     70  C   UNL A   1      42.856  23.355  26.381  1.00  0.00     0.173 A 
ATOM     71  F   UNL A   1      46.088  24.259  25.003  1.00  0.00    -0.203 F 
ATOM     72  C   UNL A   1      44.919  22.218  24.943  1.00  0.00     0.198 A 
ATOM     73  C   UNL A   1      42.823  22.001  26.027  1.00  0.00     0.198 A 
ATOM     74  F   UNL A   1      41.857  23.790  27.157  1.00  0.00    -0.203 F 
ATOM     75  F   UNL A   1      45.921  21.648  24.249  1.00  0.00    -0.200 F 
ATOM     76  C   UNL A   1      43.845  21.425  25.306  1.00  0.00     0.200 A 
ATOM     77  F   UNL A   1      41.792  21.253  26.441  1.00  0.00    -0.200 F 
ATOM     78  F   UNL A   1      43.800  20.117  25.002  1.00  0.00    -0.200 F 
ENDBRANCH  44  68
BRANCH  56  79
ATOM     79  C   UNL A   1      45.011  29.858  28.533  1.00  0.00     0.064 A 
ATOM     80  C   UNL A   1      44.191  30.614  27.664  1.00  0.00     0.173 A 
ATOM     81  C   UNL A   1      46.352  30.236  28.581  1.00  0.00     0.173 A 
ATOM     82  F   UNL A   1      42.859  30.523  27.713  1.00  0.00    -0.203 F 
ATOM     83  C   UNL A   1      44.718  31.575  26.789  1.00  0.00     0.198 A 
ATOM     84  C   UNL A   1      46.867  31.242  27.767  1.00  0.00     0.198 A 
ATOM     85  F   UNL A   1      47.158  29.677  29.496  1.00  0.00    -0.203 F 
ATOM     86  F   UNL A   1      43.919  32.226  25.927  1.00  0.00    -0.200 F 
ATOM     87  C   UNL A   1      46.063  31.882  26.840  1.00  0.00     0.200 A 
ATOM     88  F   UNL A   1      48.145  31.609  27.910  1.00  0.00    -0.200 F 
ATOM     89  F   UNL A   1      46.578  32.821  26.033  1.00  0.00    -0.200 F 
ENDBRANCH  56  79
ENDBRANCH  30  31
ENDBRANCH  23  25
ENDBRANCH  22  23
ENDBRANCH   1  22
TORSDOF 12
ENDMDL
