MODEL 1
REMARK VINA RESULT:     -11.1      0.000      0.000
REMARK SMILES CC[C@@](CC(F)(F)F)(C(=O)OCCOC(=O)c1ccc(-c2c3nc(c(-c4c(F)c(F)c(F)c(F)c4F)c4ccc([nH]4)c(-c4c(F)c(F)c(F)c(F)c4F)c4nc(c(-c5c(F)c(F)c(F)c(F)c5F)c5ccc2[nH]5)C=C4)C=C3)cc1)c1ccccc1
REMARK SMILES IDX 12 1 11 2 9 3 10 4 3 5 2 6 1 7 4 8 5 9 6 10 7 11 8 12 80 13
REMARK SMILES IDX 81 14 85 15 82 16 84 17 83 18 13 19 14 20 15 21 16 22 17 23
REMARK SMILES IDX 18 24 79 25 19 26 78 27 20 28 21 29 22 30 72 31 23 32 77 33
REMARK SMILES IDX 71 34 73 35 24 36 76 37 70 38 69 39 25 41 57 42 37 43 56 44
REMARK SMILES IDX 38 45 41 46 55 47 74 48 39 49 40 50 54 52 75 53 42 54 26 55
REMARK SMILES IDX 27 56 35 57 28 58 29 59 33 60 36 61 30 62 31 63 34 64 32 65
REMARK SMILES IDX 58 66 59 67 67 68 60 69 61 70 65 71 68 72 62 73 63 74 66 75
REMARK SMILES IDX 64 76 43 77 44 78 52 79 45 80 46 81 50 82 53 83 47 84 48 85
REMARK SMILES IDX 51 86 49 87
REMARK H PARENT 73 40 41 51
REMARK Flexibility Score: inf
ROOT
ATOM      1  C   UNL A   1      33.329  29.066  24.256  1.00  0.00     0.274 C 
ENDROOT
BRANCH   1   2
ATOM      2  O   UNL A   1      33.623  27.723  24.695  1.00  0.00    -0.461 OA
BRANCH   2   3
ATOM      3  C   UNL A   1      33.308  26.711  23.842  1.00  0.00     0.317 C 
ATOM      4  O   UNL A   1      33.145  26.852  22.634  1.00  0.00    -0.251 OA
BRANCH   3   5
ATOM      5  C   UNL A   1      33.060  25.367  24.575  1.00  0.00     0.101 C 
BRANCH   5   6
ATOM      6  C   UNL A   1      32.535  25.598  26.031  1.00  0.00     0.020 C 
ATOM      7  C   UNL A   1      31.155  26.247  26.129  1.00  0.00     0.005 C 
ENDBRANCH   5   6
BRANCH   5   8
ATOM      8  C   UNL A   1      31.979  24.642  23.707  1.00  0.00     0.139 C 
BRANCH   8   9
ATOM      9  C   UNL A   1      31.585  23.247  24.153  1.00  0.00     0.390 C 
ATOM     10  F   UNL A   1      30.286  23.171  24.504  1.00  0.00    -0.171 F 
ATOM     11  F   UNL A   1      31.778  22.373  23.137  1.00  0.00    -0.171 F 
ATOM     12  F   UNL A   1      32.326  22.812  25.190  1.00  0.00    -0.171 F 
ENDBRANCH   8   9
ENDBRANCH   5   8
BRANCH   5  13
ATOM     13  C   UNL A   1      34.401  24.559  24.592  1.00  0.00    -0.030 A 
ATOM     14  C   UNL A   1      35.190  24.443  25.753  1.00  0.00     0.005 A 
ATOM     15  C   UNL A   1      34.869  23.886  23.444  1.00  0.00     0.005 A 
ATOM     16  C   UNL A   1      36.407  23.749  25.752  1.00  0.00     0.000 A 
ATOM     17  C   UNL A   1      36.093  23.203  23.438  1.00  0.00     0.000 A 
ATOM     18  C   UNL A   1      36.866  23.142  24.590  1.00  0.00     0.000 A 
ENDBRANCH   5  13
ENDBRANCH   3   5
ENDBRANCH   2   3
ENDBRANCH   1   2
BRANCH   1  19
ATOM     19  C   UNL A   1      32.156  29.632  25.047  1.00  0.00     0.275 C 
BRANCH  19  20
ATOM     20  O   UNL A   1      32.511  29.655  26.439  1.00  0.00    -0.458 OA
BRANCH  20  21
ATOM     21  C   UNL A   1      32.991  30.827  26.912  1.00  0.00     0.338 C 
ATOM     22  O   UNL A   1      32.424  31.904  26.948  1.00  0.00    -0.246 OA
BRANCH  21  23
ATOM     23  C   UNL A   1      34.353  30.618  27.431  1.00  0.00     0.060 A 
ATOM     24  C   UNL A   1      34.842  29.326  27.607  1.00  0.00     0.016 A 
ATOM     25  C   UNL A   1      35.102  31.713  27.864  1.00  0.00     0.016 A 
ATOM     26  C   UNL A   1      36.031  29.122  28.303  1.00  0.00     0.010 A 
ATOM     27  C   UNL A   1      36.338  31.506  28.483  1.00  0.00     0.010 A 
ATOM     28  C   UNL A   1      36.798  30.204  28.756  1.00  0.00    -0.014 A 
BRANCH  28  29
ATOM     29  C   UNL A   1      38.022  29.982  29.578  1.00  0.00     0.031 A 
ATOM     30  C   UNL A   1      39.173  29.189  29.014  1.00  0.00     0.074 A 
ATOM     31  C   UNL A   1      38.138  30.506  30.814  1.00  0.00     0.049 A 
ATOM     32  N   UNL A   1      40.208  28.674  29.631  1.00  0.00    -0.248 NA
ATOM     33  C   UNL A   1      39.150  28.925  27.566  1.00  0.00     0.031 C 
ATOM     34  C   UNL A   1      37.148  31.354  31.477  1.00  0.00     0.029 A 
ATOM     35  N   UNL A   1      39.158  30.409  31.732  1.00  0.00    -0.354 N 
ATOM     36  C   UNL A   1      40.905  27.956  28.667  1.00  0.00     0.074 A 
ATOM     37  C   UNL A   1      40.194  28.121  27.418  1.00  0.00     0.031 C 
ATOM     38  C   UNL A   1      37.628  31.745  32.667  1.00  0.00     0.029 A 
ATOM     39  C   UNL A   1      38.913  31.094  32.896  1.00  0.00     0.049 A 
ATOM     40  H   UNL A   1      39.983  29.899  31.570  1.00  0.00     0.167 HD
ATOM     41  C   UNL A   1      42.029  27.214  28.819  1.00  0.00     0.037 A 
ATOM     42  C   UNL A   1      39.617  31.156  34.043  1.00  0.00     0.037 A 
ATOM     43  C   UNL A   1      42.784  27.121  30.041  1.00  0.00     0.049 A 
ATOM     44  C   UNL A   1      40.872  30.344  34.185  1.00  0.00     0.074 A 
ATOM     45  C   UNL A   1      43.932  26.389  30.296  1.00  0.00     0.029 A 
ATOM     46  N   UNL A   1      42.487  27.813  31.204  1.00  0.00    -0.354 N 
ATOM     47  N   UNL A   1      41.450  29.558  33.311  1.00  0.00    -0.248 NA
ATOM     48  C   UNL A   1      41.553  30.399  35.486  1.00  0.00     0.031 C 
ATOM     49  C   UNL A   1      44.322  26.631  31.618  1.00  0.00     0.029 A 
ATOM     50  C   UNL A   1      43.433  27.533  32.176  1.00  0.00     0.049 A 
ATOM     51  H   UNL A   1      41.717  28.416  31.322  1.00  0.00     0.167 HD
ATOM     52  C   UNL A   1      42.549  29.013  33.957  1.00  0.00     0.074 A 
ATOM     53  C   UNL A   1      42.580  29.586  35.287  1.00  0.00     0.031 C 
ATOM     54  C   UNL A   1      43.443  28.105  33.497  1.00  0.00     0.037 A 
BRANCH  41  55
ATOM     55  C   UNL A   1      42.493  26.406  27.645  1.00  0.00     0.064 A 
ATOM     56  C   UNL A   1      43.481  26.868  26.766  1.00  0.00     0.173 A 
ATOM     57  C   UNL A   1      41.965  25.123  27.426  1.00  0.00     0.173 A 
ATOM     58  F   UNL A   1      44.003  28.094  26.923  1.00  0.00    -0.203 F 
ATOM     59  C   UNL A   1      43.915  26.081  25.702  1.00  0.00     0.198 A 
ATOM     60  C   UNL A   1      42.417  24.330  26.375  1.00  0.00     0.198 A 
ATOM     61  F   UNL A   1      41.019  24.634  28.242  1.00  0.00    -0.203 F 
ATOM     62  F   UNL A   1      44.837  26.555  24.853  1.00  0.00    -0.200 F 
ATOM     63  C   UNL A   1      43.389  24.812  25.511  1.00  0.00     0.200 A 
ATOM     64  F   UNL A   1      41.915  23.101  26.200  1.00  0.00    -0.200 F 
ATOM     65  F   UNL A   1      43.815  24.053  24.492  1.00  0.00    -0.200 F 
ENDBRANCH  41  55
BRANCH  42  66
ATOM     66  C   UNL A   1      39.113  31.983  35.169  1.00  0.00     0.064 A 
ATOM     67  C   UNL A   1      38.388  31.404  36.217  1.00  0.00     0.173 A 
ATOM     68  C   UNL A   1      39.369  33.361  35.230  1.00  0.00     0.173 A 
ATOM     69  F   UNL A   1      38.095  30.095  36.185  1.00  0.00    -0.203 F 
ATOM     70  C   UNL A   1      37.938  32.172  37.289  1.00  0.00     0.198 A 
ATOM     71  C   UNL A   1      38.943  34.122  36.316  1.00  0.00     0.198 A 
ATOM     72  F   UNL A   1      40.058  33.961  34.248  1.00  0.00    -0.203 F 
ATOM     73  F   UNL A   1      37.222  31.600  38.266  1.00  0.00    -0.200 F 
ATOM     74  C   UNL A   1      38.225  33.528  37.341  1.00  0.00     0.200 A 
ATOM     75  F   UNL A   1      39.234  35.429  36.369  1.00  0.00    -0.200 F 
ATOM     76  F   UNL A   1      37.806  34.263  38.381  1.00  0.00    -0.200 F 
ENDBRANCH  42  66
BRANCH  54  77
ATOM     77  C   UNL A   1      44.525  27.676  34.439  1.00  0.00     0.064 A 
ATOM     78  C   UNL A   1      44.366  26.552  35.261  1.00  0.00     0.173 A 
ATOM     79  C   UNL A   1      45.737  28.377  34.500  1.00  0.00     0.173 A 
ATOM     80  F   UNL A   1      43.216  25.862  35.246  1.00  0.00    -0.203 F 
ATOM     81  C   UNL A   1      45.380  26.154  36.128  1.00  0.00     0.198 A 
ATOM     82  C   UNL A   1      46.756  27.965  35.355  1.00  0.00     0.198 A 
ATOM     83  F   UNL A   1      45.934  29.457  33.731  1.00  0.00    -0.203 F 
ATOM     84  F   UNL A   1      45.196  25.098  36.931  1.00  0.00    -0.200 F 
ATOM     85  C   UNL A   1      46.575  26.858  36.172  1.00  0.00     0.200 A 
ATOM     86  F   UNL A   1      47.911  28.643  35.394  1.00  0.00    -0.200 F 
ATOM     87  F   UNL A   1      47.549  26.474  37.008  1.00  0.00    -0.200 F 
ENDBRANCH  54  77
ENDBRANCH  28  29
ENDBRANCH  21  23
ENDBRANCH  20  21
ENDBRANCH  19  20
ENDBRANCH   1  19
TORSDOF 15
ENDMDL
MODEL 2
REMARK VINA RESULT:     -11.0      4.334      9.576
REMARK SMILES CC[C@@](CC(F)(F)F)(C(=O)OCCOC(=O)c1ccc(-c2c3nc(c(-c4c(F)c(F)c(F)c(F)c4F)c4ccc([nH]4)c(-c4c(F)c(F)c(F)c(F)c4F)c4nc(c(-c5c(F)c(F)c(F)c(F)c5F)c5ccc2[nH]5)C=C4)C=C3)cc1)c1ccccc1
REMARK SMILES IDX 12 1 11 2 9 3 10 4 3 5 2 6 1 7 4 8 5 9 6 10 7 11 8 12 80 13
REMARK SMILES IDX 81 14 85 15 82 16 84 17 83 18 13 19 14 20 15 21 16 22 17 23
REMARK SMILES IDX 18 24 79 25 19 26 78 27 20 28 21 29 22 30 72 31 23 32 77 33
REMARK SMILES IDX 71 34 73 35 24 36 76 37 70 38 69 39 25 41 57 42 37 43 56 44
REMARK SMILES IDX 38 45 41 46 55 47 74 48 39 49 40 50 54 52 75 53 42 54 26 55
REMARK SMILES IDX 27 56 35 57 28 58 29 59 33 60 36 61 30 62 31 63 34 64 32 65
REMARK SMILES IDX 58 66 59 67 67 68 60 69 61 70 65 71 68 72 62 73 63 74 66 75
REMARK SMILES IDX 64 76 43 77 44 78 52 79 45 80 46 81 50 82 53 83 47 84 48 85
REMARK SMILES IDX 51 86 49 87
REMARK H PARENT 73 40 41 51
REMARK Flexibility Score: inf
ROOT
ATOM      1  C   UNL A   1      36.663  22.579  23.594  1.00  0.00     0.274 C 
ENDROOT
BRANCH   1   2
ATOM      2  O   UNL A   1      35.715  23.396  24.312  1.00  0.00    -0.461 OA
BRANCH   2   3
ATOM      3  C   UNL A   1      34.439  23.419  23.843  1.00  0.00     0.317 C 
ATOM      4  O   UNL A   1      34.134  23.668  22.681  1.00  0.00    -0.251 OA
BRANCH   3   5
ATOM      5  C   UNL A   1      33.386  23.209  24.963  1.00  0.00     0.101 C 
BRANCH   5   6
ATOM      6  C   UNL A   1      32.477  21.969  24.667  1.00  0.00     0.020 C 
ATOM      7  C   UNL A   1      33.221  20.701  24.254  1.00  0.00     0.005 C 
ENDBRANCH   5   6
BRANCH   5   8
ATOM      8  C   UNL A   1      34.232  22.975  26.258  1.00  0.00     0.139 C 
BRANCH   8   9
ATOM      9  C   UNL A   1      33.507  22.344  27.430  1.00  0.00     0.390 C 
ATOM     10  F   UNL A   1      33.623  21.001  27.439  1.00  0.00    -0.171 F 
ATOM     11  F   UNL A   1      34.033  22.799  28.590  1.00  0.00    -0.171 F 
ATOM     12  F   UNL A   1      32.196  22.650  27.446  1.00  0.00    -0.171 F 
ENDBRANCH   8   9
ENDBRANCH   5   8
BRANCH   5  13
ATOM     13  C   UNL A   1      32.526  24.511  25.082  1.00  0.00    -0.030 A 
ATOM     14  C   UNL A   1      31.225  24.600  24.549  1.00  0.00     0.005 A 
ATOM     15  C   UNL A   1      33.008  25.653  25.755  1.00  0.00     0.005 A 
ATOM     16  C   UNL A   1      30.475  25.780  24.627  1.00  0.00     0.000 A 
ATOM     17  C   UNL A   1      32.264  26.838  25.822  1.00  0.00     0.000 A 
ATOM     18  C   UNL A   1      31.000  26.904  25.251  1.00  0.00     0.000 A 
ENDBRANCH   5  13
ENDBRANCH   3   5
ENDBRANCH   2   3
ENDBRANCH   1   2
BRANCH   1  19
ATOM     19  C   UNL A   1      36.948  21.298  24.369  1.00  0.00     0.275 C 
BRANCH  19  20
ATOM     20  O   UNL A   1      37.397  21.652  25.688  1.00  0.00    -0.458 OA
BRANCH  20  21
ATOM     21  C   UNL A   1      38.708  21.448  25.945  1.00  0.00     0.338 C 
ATOM     22  O   UNL A   1      39.364  20.445  25.725  1.00  0.00    -0.246 OA
BRANCH  21  23
ATOM     23  C   UNL A   1      39.281  22.669  26.535  1.00  0.00     0.060 A 
ATOM     24  C   UNL A   1      38.828  23.921  26.125  1.00  0.00     0.016 A 
ATOM     25  C   UNL A   1      40.364  22.571  27.409  1.00  0.00     0.016 A 
ATOM     26  C   UNL A   1      39.517  25.069  26.509  1.00  0.00     0.010 A 
ATOM     27  C   UNL A   1      40.996  23.733  27.862  1.00  0.00     0.010 A 
ATOM     28  C   UNL A   1      40.613  24.997  27.379  1.00  0.00    -0.014 A 
BRANCH  28  29
ATOM     29  C   UNL A   1      41.402  26.216  27.715  1.00  0.00     0.031 A 
ATOM     30  C   UNL A   1      40.805  27.279  28.602  1.00  0.00     0.074 A 
ATOM     31  C   UNL A   1      42.663  26.378  27.267  1.00  0.00     0.049 A 
ATOM     32  N   UNL A   1      41.209  28.507  28.815  1.00  0.00    -0.248 NA
ATOM     33  C   UNL A   1      39.579  26.919  29.334  1.00  0.00     0.031 C 
ATOM     34  C   UNL A   1      43.411  25.414  26.460  1.00  0.00     0.029 A 
ATOM     35  N   UNL A   1      43.546  27.418  27.443  1.00  0.00    -0.354 N 
ATOM     36  C   UNL A   1      40.245  29.087  29.630  1.00  0.00     0.074 A 
ATOM     37  C   UNL A   1      39.248  28.073  29.897  1.00  0.00     0.031 C 
ATOM     38  C   UNL A   1      44.653  25.879  26.257  1.00  0.00     0.029 A 
ATOM     39  C   UNL A   1      44.758  27.217  26.830  1.00  0.00     0.049 A 
ATOM     40  H   UNL A   1      43.330  28.228  27.959  1.00  0.00     0.167 HD
ATOM     41  C   UNL A   1      40.193  30.358  30.098  1.00  0.00     0.037 A 
ATOM     42  C   UNL A   1      45.821  28.033  26.699  1.00  0.00     0.037 A 
ATOM     43  C   UNL A   1      41.227  31.340  29.904  1.00  0.00     0.049 A 
ATOM     44  C   UNL A   1      45.753  29.431  27.244  1.00  0.00     0.074 A 
ATOM     45  C   UNL A   1      41.262  32.657  30.333  1.00  0.00     0.029 A 
ATOM     46  N   UNL A   1      42.428  31.100  29.257  1.00  0.00    -0.354 N 
ATOM     47  N   UNL A   1      44.778  30.015  27.894  1.00  0.00    -0.248 NA
ATOM     48  C   UNL A   1      46.918  30.293  27.002  1.00  0.00     0.031 C 
ATOM     49  C   UNL A   1      42.482  33.216  29.934  1.00  0.00     0.029 A 
ATOM     50  C   UNL A   1      43.215  32.240  29.282  1.00  0.00     0.049 A 
ATOM     51  H   UNL A   1      42.685  30.246  28.840  1.00  0.00     0.167 HD
ATOM     52  C   UNL A   1      45.203  31.315  28.127  1.00  0.00     0.074 A 
ATOM     53  C   UNL A   1      46.540  31.424  27.579  1.00  0.00     0.031 C 
ATOM     54  C   UNL A   1      44.538  32.333  28.724  1.00  0.00     0.037 A 
BRANCH  41  55
ATOM     55  C   UNL A   1      38.955  30.778  30.832  1.00  0.00     0.064 A 
ATOM     56  C   UNL A   1      38.850  30.689  32.227  1.00  0.00     0.173 A 
ATOM     57  C   UNL A   1      37.871  31.322  30.123  1.00  0.00     0.173 A 
ATOM     58  F   UNL A   1      39.851  30.161  32.946  1.00  0.00    -0.203 F 
ATOM     59  C   UNL A   1      37.700  31.118  32.884  1.00  0.00     0.198 A 
ATOM     60  C   UNL A   1      36.732  31.770  30.786  1.00  0.00     0.198 A 
ATOM     61  F   UNL A   1      37.925  31.431  28.788  1.00  0.00    -0.203 F 
ATOM     62  F   UNL A   1      37.606  30.993  34.216  1.00  0.00    -0.200 F 
ATOM     63  C   UNL A   1      36.646  31.663  32.166  1.00  0.00     0.200 A 
ATOM     64  F   UNL A   1      35.721  32.306  30.090  1.00  0.00    -0.200 F 
ATOM     65  F   UNL A   1      35.543  32.083  32.802  1.00  0.00    -0.200 F 
ENDBRANCH  41  55
BRANCH  42  66
ATOM     66  C   UNL A   1      47.025  27.557  25.970  1.00  0.00     0.064 A 
ATOM     67  C   UNL A   1      47.112  27.669  24.577  1.00  0.00     0.173 A 
ATOM     68  C   UNL A   1      48.119  27.006  26.654  1.00  0.00     0.173 A 
ATOM     69  F   UNL A   1      46.078  28.163  23.879  1.00  0.00    -0.203 F 
ATOM     70  C   UNL A   1      48.250  27.249  23.893  1.00  0.00     0.198 A 
ATOM     71  C   UNL A   1      49.267  26.613  25.972  1.00  0.00     0.198 A 
ATOM     72  F   UNL A   1      48.080  26.875  27.988  1.00  0.00    -0.203 F 
ATOM     73  F   UNL A   1      48.299  27.341  22.557  1.00  0.00    -0.200 F 
ATOM     74  C   UNL A   1      49.331  26.731  24.593  1.00  0.00     0.200 A 
ATOM     75  F   UNL A   1      50.314  26.125  26.653  1.00  0.00    -0.200 F 
ATOM     76  F   UNL A   1      50.432  26.342  23.935  1.00  0.00    -0.200 F 
ENDBRANCH  42  66
BRANCH  54  77
ATOM     77  C   UNL A   1      45.246  33.650  28.813  1.00  0.00     0.064 A 
ATOM     78  C   UNL A   1      46.082  33.952  29.897  1.00  0.00     0.173 A 
ATOM     79  C   UNL A   1      45.110  34.604  27.794  1.00  0.00     0.173 A 
ATOM     80  F   UNL A   1      46.228  33.074  30.901  1.00  0.00    -0.203 F 
ATOM     81  C   UNL A   1      46.744  35.174  29.968  1.00  0.00     0.198 A 
ATOM     82  C   UNL A   1      45.788  35.817  27.860  1.00  0.00     0.198 A 
ATOM     83  F   UNL A   1      44.323  34.357  26.737  1.00  0.00    -0.203 F 
ATOM     84  F   UNL A   1      47.509  35.459  31.029  1.00  0.00    -0.200 F 
ATOM     85  C   UNL A   1      46.599  36.104  28.948  1.00  0.00     0.200 A 
ATOM     86  F   UNL A   1      45.651  36.714  26.874  1.00  0.00    -0.200 F 
ATOM     87  F   UNL A   1      47.236  37.281  29.019  1.00  0.00    -0.200 F 
ENDBRANCH  54  77
ENDBRANCH  28  29
ENDBRANCH  21  23
ENDBRANCH  20  21
ENDBRANCH  19  20
ENDBRANCH   1  19
TORSDOF 15
ENDMDL
MODEL 3
REMARK VINA RESULT:     -11.0      4.337      9.568
REMARK SMILES CC[C@@](CC(F)(F)F)(C(=O)OCCOC(=O)c1ccc(-c2c3nc(c(-c4c(F)c(F)c(F)c(F)c4F)c4ccc([nH]4)c(-c4c(F)c(F)c(F)c(F)c4F)c4nc(c(-c5c(F)c(F)c(F)c(F)c5F)c5ccc2[nH]5)C=C4)C=C3)cc1)c1ccccc1
REMARK SMILES IDX 12 1 11 2 9 3 10 4 3 5 2 6 1 7 4 8 5 9 6 10 7 11 8 12 80 13
REMARK SMILES IDX 81 14 85 15 82 16 84 17 83 18 13 19 14 20 15 21 16 22 17 23
REMARK SMILES IDX 18 24 79 25 19 26 78 27 20 28 21 29 22 30 72 31 23 32 77 33
REMARK SMILES IDX 71 34 73 35 24 36 76 37 70 38 69 39 25 41 57 42 37 43 56 44
REMARK SMILES IDX 38 45 41 46 55 47 74 48 39 49 40 50 54 52 75 53 42 54 26 55
REMARK SMILES IDX 27 56 35 57 28 58 29 59 33 60 36 61 30 62 31 63 34 64 32 65
REMARK SMILES IDX 58 66 59 67 67 68 60 69 61 70 65 71 68 72 62 73 63 74 66 75
REMARK SMILES IDX 64 76 43 77 44 78 52 79 45 80 46 81 50 82 53 83 47 84 48 85
REMARK SMILES IDX 51 86 49 87
REMARK H PARENT 73 40 41 51
REMARK Flexibility Score: inf
ROOT
ATOM      1  C   UNL A   1      36.599  22.684  23.503  1.00  0.00     0.274 C 
ENDROOT
BRANCH   1   2
ATOM      2  O   UNL A   1      35.844  23.547  24.378  1.00  0.00    -0.461 OA
BRANCH   2   3
ATOM      3  C   UNL A   1      34.619  23.949  23.945  1.00  0.00     0.317 C 
ATOM      4  O   UNL A   1      34.414  24.493  22.864  1.00  0.00    -0.251 OA
BRANCH   3   5
ATOM      5  C   UNL A   1      33.512  23.755  25.014  1.00  0.00     0.101 C 
BRANCH   5   6
ATOM      6  C   UNL A   1      32.422  22.742  24.529  1.00  0.00     0.020 C 
ATOM      7  C   UNL A   1      32.902  21.706  23.514  1.00  0.00     0.005 C 
ENDBRANCH   5   6
BRANCH   5   8
ATOM      8  C   UNL A   1      34.268  23.195  26.263  1.00  0.00     0.139 C 
BRANCH   8   9
ATOM      9  C   UNL A   1      33.427  22.443  27.276  1.00  0.00     0.390 C 
ATOM     10  F   UNL A   1      33.899  22.576  28.532  1.00  0.00    -0.171 F 
ATOM     11  F   UNL A   1      32.164  22.930  27.270  1.00  0.00    -0.171 F 
ATOM     12  F   UNL A   1      33.343  21.129  26.997  1.00  0.00    -0.171 F 
ENDBRANCH   8   9
ENDBRANCH   5   8
BRANCH   5  13
ATOM     13  C   UNL A   1      32.874  25.150  25.323  1.00  0.00    -0.030 A 
ATOM     14  C   UNL A   1      31.495  25.392  25.171  1.00  0.00     0.005 A 
ATOM     15  C   UNL A   1      33.653  26.228  25.793  1.00  0.00     0.005 A 
ATOM     16  C   UNL A   1      30.935  26.653  25.414  1.00  0.00     0.000 A 
ATOM     17  C   UNL A   1      33.097  27.494  26.023  1.00  0.00     0.000 A 
ATOM     18  C   UNL A   1      31.739  27.708  25.826  1.00  0.00     0.000 A 
ENDBRANCH   5  13
ENDBRANCH   3   5
ENDBRANCH   2   3
ENDBRANCH   1   2
BRANCH   1  19
ATOM     19  C   UNL A   1      37.038  21.430  24.250  1.00  0.00     0.275 C 
BRANCH  19  20
ATOM     20  O   UNL A   1      37.426  21.804  25.582  1.00  0.00    -0.458 OA
BRANCH  20  21
ATOM     21  C   UNL A   1      38.709  21.551  25.921  1.00  0.00     0.338 C 
ATOM     22  O   UNL A   1      39.332  20.515  25.764  1.00  0.00    -0.246 OA
BRANCH  21  23
ATOM     23  C   UNL A   1      39.301  22.761  26.515  1.00  0.00     0.060 A 
ATOM     24  C   UNL A   1      38.840  24.021  26.137  1.00  0.00     0.016 A 
ATOM     25  C   UNL A   1      40.406  22.647  27.359  1.00  0.00     0.016 A 
ATOM     26  C   UNL A   1      39.542  25.161  26.521  1.00  0.00     0.010 A 
ATOM     27  C   UNL A   1      41.053  23.800  27.814  1.00  0.00     0.010 A 
ATOM     28  C   UNL A   1      40.660  25.072  27.361  1.00  0.00    -0.014 A 
BRANCH  28  29
ATOM     29  C   UNL A   1      41.461  26.285  27.695  1.00  0.00     0.031 A 
ATOM     30  C   UNL A   1      40.874  27.353  28.582  1.00  0.00     0.074 A 
ATOM     31  C   UNL A   1      42.722  26.435  27.246  1.00  0.00     0.049 A 
ATOM     32  N   UNL A   1      41.290  28.578  28.795  1.00  0.00    -0.248 NA
ATOM     33  C   UNL A   1      39.646  27.005  29.316  1.00  0.00     0.031 C 
ATOM     34  C   UNL A   1      43.460  25.465  26.438  1.00  0.00     0.029 A 
ATOM     35  N   UNL A   1      43.615  27.467  27.420  1.00  0.00    -0.354 N 
ATOM     36  C   UNL A   1      40.332  29.168  29.610  1.00  0.00     0.074 A 
ATOM     37  C   UNL A   1      39.326  28.163  29.878  1.00  0.00     0.031 C 
ATOM     38  C   UNL A   1      44.706  25.918  26.233  1.00  0.00     0.029 A 
ATOM     39  C   UNL A   1      44.824  27.255  26.806  1.00  0.00     0.049 A 
ATOM     40  H   UNL A   1      43.407  28.279  27.935  1.00  0.00     0.167 HD
ATOM     41  C   UNL A   1      40.291  30.439  30.077  1.00  0.00     0.037 A 
ATOM     42  C   UNL A   1      45.894  28.061  26.673  1.00  0.00     0.037 A 
ATOM     43  C   UNL A   1      41.334  31.411  29.882  1.00  0.00     0.049 A 
ATOM     44  C   UNL A   1      45.840  29.460  27.217  1.00  0.00     0.074 A 
ATOM     45  C   UNL A   1      41.382  32.728  30.310  1.00  0.00     0.029 A 
ATOM     46  N   UNL A   1      42.533  31.160  29.233  1.00  0.00    -0.354 N 
ATOM     47  N   UNL A   1      44.871  30.054  27.868  1.00  0.00    -0.248 NA
ATOM     48  C   UNL A   1      47.012  30.311  26.974  1.00  0.00     0.031 C 
ATOM     49  C   UNL A   1      42.606  33.276  29.910  1.00  0.00     0.029 A 
ATOM     50  C   UNL A   1      43.330  32.293  29.257  1.00  0.00     0.049 A 
ATOM     51  H   UNL A   1      42.781  30.303  28.817  1.00  0.00     0.167 HD
ATOM     52  C   UNL A   1      45.308  31.350  28.100  1.00  0.00     0.074 A 
ATOM     53  C   UNL A   1      46.645  31.446  27.550  1.00  0.00     0.031 C 
ATOM     54  C   UNL A   1      44.653  32.374  28.697  1.00  0.00     0.037 A 
BRANCH  41  55
ATOM     55  C   UNL A   1      39.059  30.870  30.813  1.00  0.00     0.064 A 
ATOM     56  C   UNL A   1      37.939  31.390  30.150  1.00  0.00     0.173 A 
ATOM     57  C   UNL A   1      38.985  30.713  32.207  1.00  0.00     0.173 A 
ATOM     58  F   UNL A   1      37.967  31.574  28.822  1.00  0.00    -0.203 F 
ATOM     59  C   UNL A   1      36.795  31.751  30.858  1.00  0.00     0.198 A 
ATOM     60  C   UNL A   1      37.832  31.055  32.908  1.00  0.00     0.198 A 
ATOM     61  F   UNL A   1      40.030  30.217  32.886  1.00  0.00    -0.203 F 
ATOM     62  F   UNL A   1      35.747  32.278  30.209  1.00  0.00    -0.200 F 
ATOM     63  C   UNL A   1      36.739  31.578  32.233  1.00  0.00     0.200 A 
ATOM     64  F   UNL A   1      37.778  30.875  34.234  1.00  0.00    -0.200 F 
ATOM     65  F   UNL A   1      35.634  31.918  32.911  1.00  0.00    -0.200 F 
ENDBRANCH  41  55
BRANCH  42  66
ATOM     66  C   UNL A   1      47.093  27.574  25.943  1.00  0.00     0.064 A 
ATOM     67  C   UNL A   1      47.186  27.699  24.551  1.00  0.00     0.173 A 
ATOM     68  C   UNL A   1      48.176  26.999  26.624  1.00  0.00     0.173 A 
ATOM     69  F   UNL A   1      46.162  28.216  23.855  1.00  0.00    -0.203 F 
ATOM     70  C   UNL A   1      48.320  27.268  23.866  1.00  0.00     0.198 A 
ATOM     71  C   UNL A   1      49.321  26.595  25.941  1.00  0.00     0.198 A 
ATOM     72  F   UNL A   1      48.131  26.856  27.957  1.00  0.00    -0.203 F 
ATOM     73  F   UNL A   1      48.374  27.373  22.532  1.00  0.00    -0.200 F 
ATOM     74  C   UNL A   1      49.390  26.726  24.563  1.00  0.00     0.200 A 
ATOM     75  F   UNL A   1      50.357  26.084  26.620  1.00  0.00    -0.200 F 
ATOM     76  F   UNL A   1      50.487  26.328  23.905  1.00  0.00    -0.200 F 
ENDBRANCH  42  66
BRANCH  54  77
ATOM     77  C   UNL A   1      45.373  33.684  28.784  1.00  0.00     0.064 A 
ATOM     78  C   UNL A   1      45.250  34.647  27.774  1.00  0.00     0.173 A 
ATOM     79  C   UNL A   1      46.168  33.989  29.898  1.00  0.00     0.173 A 
ATOM     80  F   UNL A   1      44.512  34.391  26.683  1.00  0.00    -0.203 F 
ATOM     81  C   UNL A   1      45.915  35.867  27.866  1.00  0.00     0.198 A 
ATOM     82  C   UNL A   1      46.817  35.216  29.995  1.00  0.00     0.198 A 
ATOM     83  F   UNL A   1      46.313  33.098  30.890  1.00  0.00    -0.203 F 
ATOM     84  F   UNL A   1      45.814  36.760  26.873  1.00  0.00    -0.200 F 
ATOM     85  C   UNL A   1      46.695  36.151  28.978  1.00  0.00     0.200 A 
ATOM     86  F   UNL A   1      47.567  35.493  31.071  1.00  0.00    -0.200 F 
ATOM     87  F   UNL A   1      47.336  37.326  29.065  1.00  0.00    -0.200 F 
ENDBRANCH  54  77
ENDBRANCH  28  29
ENDBRANCH  21  23
ENDBRANCH  20  21
ENDBRANCH  19  20
ENDBRANCH   1  19
TORSDOF 15
ENDMDL
