MODEL 1
REMARK VINA RESULT:     -12.6      0.000      0.000
REMARK SMILES C[C@H]1[C@H](C(=O)OCCOC(=O)c2ccc(-c3c4nc(c(-c5c(F)c(F)c(F)c(F)c5F)c5ccc([nH]5)c(-c5c(F)c(F)c(F)c(F)c5F)c5nc(c(-c6c(F)c(F)c(F)c(F)c6F)c6ccc3[nH]6)C=C5)C=C4)cc2)CCN1C(=O)Nc1ccc(F)c(Cl)c1
REMARK SMILES IDX 7 1 6 2 4 3 5 4 3 5 1 6 2 7 77 8 75 9 76 10 78 11 79 12
REMARK SMILES IDX 80 13 81 15 82 16 88 17 83 18 86 19 84 20 87 21 85 22 8 23
REMARK SMILES IDX 9 24 10 25 11 26 12 27 13 28 74 29 14 30 73 31 15 32 16 33
REMARK SMILES IDX 17 34 67 35 18 36 72 37 66 38 68 39 19 40 71 41 65 42 64 43
REMARK SMILES IDX 20 45 52 46 32 47 51 48 33 49 36 50 50 51 69 52 34 53 35 54
REMARK SMILES IDX 49 56 70 57 37 58 21 59 22 60 30 61 23 62 24 63 28 64 31 65
REMARK SMILES IDX 25 66 26 67 29 68 27 69 53 70 54 71 62 72 55 73 56 74 60 75
REMARK SMILES IDX 63 76 57 77 58 78 61 79 59 80 38 81 39 82 47 83 40 84 41 85
REMARK SMILES IDX 45 86 48 87 42 88 43 89 46 90 44 91
REMARK H PARENT 80 14 68 44 36 55
REMARK Flexibility Score: inf
ROOT
ATOM      1  C   UNL A   1      31.317  29.369  24.420  1.00  0.00     0.274 C 
ENDROOT
BRANCH   1   2
ATOM      2  O   UNL A   1      30.707  28.070  24.275  1.00  0.00    -0.462 OA
BRANCH   2   3
ATOM      3  C   UNL A   1      31.093  27.344  23.196  1.00  0.00     0.311 C 
ATOM      4  O   UNL A   1      30.676  27.512  22.055  1.00  0.00    -0.252 OA
BRANCH   3   5
ATOM      5  C   UNL A   1      32.064  26.235  23.536  1.00  0.00     0.123 C 
ATOM      6  C   UNL A   1      33.792  26.430  25.367  1.00  0.00     0.032 C 
ATOM      7  C   UNL A   1      32.347  26.033  25.042  1.00  0.00     0.098 C 
ATOM      8  N   UNL A   1      32.109  24.603  25.285  1.00  0.00    -0.321 N 
ATOM      9  C   UNL A   1      31.522  24.904  23.027  1.00  0.00     0.039 C 
ATOM     10  C   UNL A   1      32.047  23.894  24.020  1.00  0.00     0.122 C 
BRANCH   8  11
ATOM     11  C   UNL A   1      32.159  23.863  26.433  1.00  0.00     0.322 C 
ATOM     12  O   UNL A   1      31.306  24.008  27.317  1.00  0.00    -0.248 OA
ATOM     13  N   UNL A   1      33.011  22.823  26.593  1.00  0.00    -0.308 N 
ATOM     14  H   UNL A   1      32.642  22.122  27.176  1.00  0.00     0.171 HD
BRANCH  13  15
ATOM     15  C   UNL A   1      34.290  22.510  26.125  1.00  0.00     0.044 A 
ATOM     16  C   UNL A   1      34.458  21.237  25.563  1.00  0.00     0.029 A 
ATOM     17  C   UNL A   1      35.392  23.355  26.266  1.00  0.00     0.049 A 
ATOM     18  C   UNL A   1      35.693  20.850  25.044  1.00  0.00     0.043 A 
ATOM     19  C   UNL A   1      36.639  22.948  25.779  1.00  0.00     0.078 A 
ATOM     20  C   UNL A   1      36.776  21.713  25.147  1.00  0.00     0.141 A 
ATOM     21  Cl  UNL A   1      38.013  23.961  26.003  1.00  0.00    -0.081 Cl
ATOM     22  F   UNL A   1      37.957  21.322  24.645  1.00  0.00    -0.205 F 
ENDBRANCH  13  15
ENDBRANCH   8  11
ENDBRANCH   3   5
ENDBRANCH   2   3
ENDBRANCH   1   2
BRANCH   1  23
ATOM     23  C   UNL A   1      31.756  29.646  25.860  1.00  0.00     0.275 C 
BRANCH  23  24
ATOM     24  O   UNL A   1      33.101  30.149  25.936  1.00  0.00    -0.458 OA
BRANCH  24  25
ATOM     25  C   UNL A   1      33.312  31.080  26.893  1.00  0.00     0.338 C 
ATOM     26  O   UNL A   1      32.543  31.937  27.292  1.00  0.00    -0.246 OA
BRANCH  25  27
ATOM     27  C   UNL A   1      34.613  30.843  27.524  1.00  0.00     0.060 A 
ATOM     28  C   UNL A   1      34.910  29.553  27.971  1.00  0.00     0.016 A 
ATOM     29  C   UNL A   1      35.487  31.903  27.757  1.00  0.00     0.016 A 
ATOM     30  C   UNL A   1      36.082  29.313  28.676  1.00  0.00     0.010 A 
ATOM     31  C   UNL A   1      36.676  31.658  28.444  1.00  0.00     0.010 A 
ATOM     32  C   UNL A   1      36.974  30.365  28.912  1.00  0.00    -0.014 A 
BRANCH  32  33
ATOM     33  C   UNL A   1      38.228  30.123  29.655  1.00  0.00     0.031 A 
ATOM     34  C   UNL A   1      39.262  29.202  29.088  1.00  0.00     0.074 A 
ATOM     35  C   UNL A   1      38.409  30.713  30.849  1.00  0.00     0.049 A 
ATOM     36  N   UNL A   1      40.326  28.703  29.659  1.00  0.00    -0.248 NA
ATOM     37  C   UNL A   1      39.068  28.781  27.691  1.00  0.00     0.031 C 
ATOM     38  C   UNL A   1      37.492  31.674  31.463  1.00  0.00     0.029 A 
ATOM     39  N   UNL A   1      39.415  30.572  31.770  1.00  0.00    -0.354 N 
ATOM     40  C   UNL A   1      40.913  27.884  28.705  1.00  0.00     0.074 A 
ATOM     41  C   UNL A   1      40.089  27.953  27.517  1.00  0.00     0.031 C 
ATOM     42  C   UNL A   1      37.967  32.023  32.668  1.00  0.00     0.029 A 
ATOM     43  C   UNL A   1      39.185  31.265  32.932  1.00  0.00     0.049 A 
ATOM     44  H   UNL A   1      40.220  30.029  31.612  1.00  0.00     0.167 HD
ATOM     45  C   UNL A   1      42.036  27.137  28.825  1.00  0.00     0.037 A 
ATOM     46  C   UNL A   1      39.858  31.245  34.099  1.00  0.00     0.037 A 
ATOM     47  C   UNL A   1      42.849  27.092  30.011  1.00  0.00     0.049 A 
ATOM     48  C   UNL A   1      41.066  30.361  34.227  1.00  0.00     0.074 A 
ATOM     49  C   UNL A   1      44.008  26.372  30.239  1.00  0.00     0.029 A 
ATOM     50  N   UNL A   1      42.584  27.803  31.172  1.00  0.00    -0.354 N 
ATOM     51  N   UNL A   1      41.604  29.566  33.334  1.00  0.00    -0.248 NA
ATOM     52  C   UNL A   1      41.753  30.359  35.525  1.00  0.00     0.031 C 
ATOM     53  C   UNL A   1      44.425  26.621  31.551  1.00  0.00     0.029 A 
ATOM     54  C   UNL A   1      43.550  27.528  32.126  1.00  0.00     0.049 A 
ATOM     55  H   UNL A   1      41.822  28.414  31.300  1.00  0.00     0.167 HD
ATOM     56  C   UNL A   1      42.705  28.989  33.951  1.00  0.00     0.074 A 
ATOM     57  C   UNL A   1      42.760  29.528  35.295  1.00  0.00     0.031 C 
ATOM     58  C   UNL A   1      43.590  28.094  33.450  1.00  0.00     0.037 A 
BRANCH  45  59
ATOM     59  C   UNL A   1      42.428  26.281  27.659  1.00  0.00     0.064 A 
ATOM     60  C   UNL A   1      43.420  26.678  26.751  1.00  0.00     0.173 A 
ATOM     61  C   UNL A   1      41.823  25.029  27.468  1.00  0.00     0.173 A 
ATOM     62  F   UNL A   1      44.015  27.873  26.882  1.00  0.00    -0.203 F 
ATOM     63  C   UNL A   1      43.780  25.860  25.683  1.00  0.00     0.198 A 
ATOM     64  C   UNL A   1      42.201  24.205  26.412  1.00  0.00     0.198 A 
ATOM     65  F   UNL A   1      40.869  24.604  28.309  1.00  0.00    -0.203 F 
ATOM     66  F   UNL A   1      44.704  26.276  24.805  1.00  0.00    -0.200 F 
ATOM     67  C   UNL A   1      43.175  24.623  25.518  1.00  0.00     0.200 A 
ATOM     68  F   UNL A   1      41.622  23.006  26.258  1.00  0.00    -0.200 F 
ATOM     69  F   UNL A   1      43.527  23.835  24.492  1.00  0.00    -0.200 F 
ENDBRANCH  45  59
BRANCH  46  70
ATOM     70  C   UNL A   1      39.375  32.064  35.239  1.00  0.00     0.064 A 
ATOM     71  C   UNL A   1      39.735  33.411  35.361  1.00  0.00     0.173 A 
ATOM     72  C   UNL A   1      38.526  31.521  36.215  1.00  0.00     0.173 A 
ATOM     73  F   UNL A   1      40.562  33.967  34.462  1.00  0.00    -0.203 F 
ATOM     74  C   UNL A   1      39.271  34.186  36.422  1.00  0.00     0.198 A 
ATOM     75  C   UNL A   1      38.042  32.302  37.262  1.00  0.00     0.198 A 
ATOM     76  F   UNL A   1      38.153  30.236  36.141  1.00  0.00    -0.203 F 
ATOM     77  F   UNL A   1      39.656  35.464  36.534  1.00  0.00    -0.200 F 
ATOM     78  C   UNL A   1      38.419  33.632  37.367  1.00  0.00     0.200 A 
ATOM     79  F   UNL A   1      37.209  31.767  38.165  1.00  0.00    -0.200 F 
ATOM     80  F   UNL A   1      37.966  34.380  38.382  1.00  0.00    -0.200 F 
ENDBRANCH  46  70
BRANCH  58  81
ATOM     81  C   UNL A   1      44.720  27.676  34.340  1.00  0.00     0.064 A 
ATOM     82  C   UNL A   1      45.897  28.431  34.435  1.00  0.00     0.173 A 
ATOM     83  C   UNL A   1      44.591  26.541  35.155  1.00  0.00     0.173 A 
ATOM     84  F   UNL A   1      46.068  29.514  33.662  1.00  0.00    -0.203 F 
ATOM     85  C   UNL A   1      46.911  28.058  35.312  1.00  0.00     0.198 A 
ATOM     86  C   UNL A   1      45.600  26.185  36.045  1.00  0.00     0.198 A 
ATOM     87  F   UNL A   1      43.480  25.792  35.100  1.00  0.00    -0.203 F 
ATOM     88  F   UNL A   1      48.040  28.778  35.370  1.00  0.00    -0.200 F 
ATOM     89  C   UNL A   1      46.759  26.943  36.122  1.00  0.00     0.200 A 
ATOM     90  F   UNL A   1      45.446  25.112  36.834  1.00  0.00    -0.200 F 
ATOM     91  F   UNL A   1      47.731  26.594  36.974  1.00  0.00    -0.200 F 
ENDBRANCH  58  81
ENDBRANCH  32  33
ENDBRANCH  25  27
ENDBRANCH  24  25
ENDBRANCH  23  24
ENDBRANCH   1  23
TORSDOF 13
ENDMDL
MODEL 2
REMARK VINA RESULT:     -12.6      0.110      1.605
REMARK SMILES C[C@H]1[C@H](C(=O)OCCOC(=O)c2ccc(-c3c4nc(c(-c5c(F)c(F)c(F)c(F)c5F)c5ccc([nH]5)c(-c5c(F)c(F)c(F)c(F)c5F)c5nc(c(-c6c(F)c(F)c(F)c(F)c6F)c6ccc3[nH]6)C=C5)C=C4)cc2)CCN1C(=O)Nc1ccc(F)c(Cl)c1
REMARK SMILES IDX 7 1 6 2 4 3 5 4 3 5 1 6 2 7 77 8 75 9 76 10 78 11 79 12
REMARK SMILES IDX 80 13 81 15 82 16 88 17 83 18 86 19 84 20 87 21 85 22 8 23
REMARK SMILES IDX 9 24 10 25 11 26 12 27 13 28 74 29 14 30 73 31 15 32 16 33
REMARK SMILES IDX 17 34 67 35 18 36 72 37 66 38 68 39 19 40 71 41 65 42 64 43
REMARK SMILES IDX 20 45 52 46 32 47 51 48 33 49 36 50 50 51 69 52 34 53 35 54
REMARK SMILES IDX 49 56 70 57 37 58 21 59 22 60 30 61 23 62 24 63 28 64 31 65
REMARK SMILES IDX 25 66 26 67 29 68 27 69 53 70 54 71 62 72 55 73 56 74 60 75
REMARK SMILES IDX 63 76 57 77 58 78 61 79 59 80 38 81 39 82 47 83 40 84 41 85
REMARK SMILES IDX 45 86 48 87 42 88 43 89 46 90 44 91
REMARK H PARENT 80 14 68 44 36 55
REMARK Flexibility Score: inf
ROOT
ATOM      1  C   UNL A   1      31.390  29.404  24.405  1.00  0.00     0.274 C 
ENDROOT
BRANCH   1   2
ATOM      2  O   UNL A   1      30.737  28.120  24.334  1.00  0.00    -0.462 OA
BRANCH   2   3
ATOM      3  C   UNL A   1      31.083  27.329  23.288  1.00  0.00     0.311 C 
ATOM      4  O   UNL A   1      30.597  27.404  22.164  1.00  0.00    -0.252 OA
BRANCH   3   5
ATOM      5  C   UNL A   1      32.103  26.272  23.646  1.00  0.00     0.123 C 
ATOM      6  C   UNL A   1      33.699  26.501  25.591  1.00  0.00     0.032 C 
ATOM      7  C   UNL A   1      32.307  26.025  25.159  1.00  0.00     0.098 C 
ATOM      8  N   UNL A   1      32.150  24.574  25.332  1.00  0.00    -0.321 N 
ATOM      9  C   UNL A   1      31.684  24.931  23.054  1.00  0.00     0.039 C 
ATOM     10  C   UNL A   1      32.215  23.916  24.039  1.00  0.00     0.122 C 
BRANCH   8  11
ATOM     11  C   UNL A   1      32.180  23.791  26.451  1.00  0.00     0.322 C 
ATOM     12  O   UNL A   1      31.312  23.904  27.325  1.00  0.00    -0.248 OA
ATOM     13  N   UNL A   1      33.028  22.745  26.587  1.00  0.00    -0.308 N 
ATOM     14  H   UNL A   1      32.648  22.023  27.137  1.00  0.00     0.171 HD
BRANCH  13  15
ATOM     15  C   UNL A   1      34.315  22.448  26.131  1.00  0.00     0.044 A 
ATOM     16  C   UNL A   1      34.507  21.172  25.584  1.00  0.00     0.029 A 
ATOM     17  C   UNL A   1      35.402  23.311  26.269  1.00  0.00     0.049 A 
ATOM     18  C   UNL A   1      35.751  20.799  25.076  1.00  0.00     0.043 A 
ATOM     19  C   UNL A   1      36.659  22.921  25.793  1.00  0.00     0.078 A 
ATOM     20  C   UNL A   1      36.820  21.681  25.176  1.00  0.00     0.141 A 
ATOM     21  Cl  UNL A   1      38.014  23.958  26.015  1.00  0.00    -0.081 Cl
ATOM     22  F   UNL A   1      38.010  21.304  24.685  1.00  0.00    -0.205 F 
ENDBRANCH  13  15
ENDBRANCH   8  11
ENDBRANCH   3   5
ENDBRANCH   2   3
ENDBRANCH   1   2
BRANCH   1  23
ATOM     23  C   UNL A   1      31.749  29.794  25.841  1.00  0.00     0.275 C 
BRANCH  23  24
ATOM     24  O   UNL A   1      33.119  30.212  25.969  1.00  0.00    -0.458 OA
BRANCH  24  25
ATOM     25  C   UNL A   1      33.345  31.154  26.912  1.00  0.00     0.338 C 
ATOM     26  O   UNL A   1      32.590  32.029  27.297  1.00  0.00    -0.246 OA
BRANCH  25  27
ATOM     27  C   UNL A   1      34.643  30.908  27.545  1.00  0.00     0.060 A 
ATOM     28  C   UNL A   1      34.930  29.615  27.991  1.00  0.00     0.016 A 
ATOM     29  C   UNL A   1      35.523  31.961  27.783  1.00  0.00     0.016 A 
ATOM     30  C   UNL A   1      36.098  29.366  28.698  1.00  0.00     0.010 A 
ATOM     31  C   UNL A   1      36.709  31.707  28.472  1.00  0.00     0.010 A 
ATOM     32  C   UNL A   1      36.997  30.411  28.937  1.00  0.00    -0.014 A 
BRANCH  32  33
ATOM     33  C   UNL A   1      38.248  30.159  29.684  1.00  0.00     0.031 A 
ATOM     34  C   UNL A   1      39.277  29.232  29.117  1.00  0.00     0.074 A 
ATOM     35  C   UNL A   1      38.430  30.745  30.879  1.00  0.00     0.049 A 
ATOM     36  N   UNL A   1      40.336  28.725  29.689  1.00  0.00    -0.248 NA
ATOM     37  C   UNL A   1      39.084  28.816  27.718  1.00  0.00     0.031 C 
ATOM     38  C   UNL A   1      37.517  31.711  31.493  1.00  0.00     0.029 A 
ATOM     39  N   UNL A   1      39.432  30.595  31.802  1.00  0.00    -0.354 N 
ATOM     40  C   UNL A   1      40.920  27.904  28.735  1.00  0.00     0.074 A 
ATOM     41  C   UNL A   1      40.100  27.982  27.545  1.00  0.00     0.031 C 
ATOM     42  C   UNL A   1      37.992  32.054  32.700  1.00  0.00     0.029 A 
ATOM     43  C   UNL A   1      39.205  31.287  32.966  1.00  0.00     0.049 A 
ATOM     44  H   UNL A   1      40.235  30.048  31.645  1.00  0.00     0.167 HD
ATOM     45  C   UNL A   1      42.038  27.150  28.855  1.00  0.00     0.037 A 
ATOM     46  C   UNL A   1      39.875  31.260  34.133  1.00  0.00     0.037 A 
ATOM     47  C   UNL A   1      42.848  27.098  30.043  1.00  0.00     0.049 A 
ATOM     48  C   UNL A   1      41.076  30.368  34.262  1.00  0.00     0.074 A 
ATOM     49  C   UNL A   1      44.002  26.369  30.272  1.00  0.00     0.029 A 
ATOM     50  N   UNL A   1      42.585  27.808  31.206  1.00  0.00    -0.354 N 
ATOM     51  N   UNL A   1      41.611  29.572  33.369  1.00  0.00    -0.248 NA
ATOM     52  C   UNL A   1      41.760  30.359  35.562  1.00  0.00     0.031 C 
ATOM     53  C   UNL A   1      44.417  26.612  31.586  1.00  0.00     0.029 A 
ATOM     54  C   UNL A   1      43.546  27.524  32.161  1.00  0.00     0.049 A 
ATOM     55  H   UNL A   1      41.827  28.422  31.333  1.00  0.00     0.167 HD
ATOM     56  C   UNL A   1      42.707  28.986  33.987  1.00  0.00     0.074 A 
ATOM     57  C   UNL A   1      42.762  29.521  35.332  1.00  0.00     0.031 C 
ATOM     58  C   UNL A   1      43.587  28.086  33.486  1.00  0.00     0.037 A 
BRANCH  45  59
ATOM     59  C   UNL A   1      42.428  26.295  27.688  1.00  0.00     0.064 A 
ATOM     60  C   UNL A   1      43.424  26.688  26.783  1.00  0.00     0.173 A 
ATOM     61  C   UNL A   1      41.815  25.047  27.493  1.00  0.00     0.173 A 
ATOM     62  F   UNL A   1      44.026  27.879  26.919  1.00  0.00    -0.203 F 
ATOM     63  C   UNL A   1      43.781  25.870  25.714  1.00  0.00     0.198 A 
ATOM     64  C   UNL A   1      42.191  24.222  26.436  1.00  0.00     0.198 A 
ATOM     65  F   UNL A   1      40.857  24.625  28.331  1.00  0.00    -0.203 F 
ATOM     66  F   UNL A   1      44.709  26.282  24.839  1.00  0.00    -0.200 F 
ATOM     67  C   UNL A   1      43.170  24.637  25.545  1.00  0.00     0.200 A 
ATOM     68  F   UNL A   1      41.604  23.027  26.279  1.00  0.00    -0.200 F 
ATOM     69  F   UNL A   1      43.519  23.849  24.519  1.00  0.00    -0.200 F 
ENDBRANCH  45  59
BRANCH  46  70
ATOM     70  C   UNL A   1      39.394  32.080  35.274  1.00  0.00     0.064 A 
ATOM     71  C   UNL A   1      38.545  31.534  36.244  1.00  0.00     0.173 A 
ATOM     72  C   UNL A   1      39.792  33.416  35.428  1.00  0.00     0.173 A 
ATOM     73  F   UNL A   1      38.121  30.266  36.127  1.00  0.00    -0.203 F 
ATOM     74  C   UNL A   1      38.104  32.297  37.324  1.00  0.00     0.198 A 
ATOM     75  C   UNL A   1      39.371  34.170  36.520  1.00  0.00     0.198 A 
ATOM     76  F   UNL A   1      40.605  33.983  34.525  1.00  0.00    -0.203 F 
ATOM     77  F   UNL A   1      37.266  31.761  38.222  1.00  0.00    -0.200 F 
ATOM     78  C   UNL A   1      38.524  33.612  37.465  1.00  0.00     0.200 A 
ATOM     79  F   UNL A   1      39.790  35.436  36.660  1.00  0.00    -0.200 F 
ATOM     80  F   UNL A   1      38.107  34.341  38.509  1.00  0.00    -0.200 F 
ENDBRANCH  46  70
BRANCH  58  81
ATOM     81  C   UNL A   1      44.712  27.659  34.378  1.00  0.00     0.064 A 
ATOM     82  C   UNL A   1      44.612  26.522  35.191  1.00  0.00     0.173 A 
ATOM     83  C   UNL A   1      45.927  28.361  34.364  1.00  0.00     0.173 A 
ATOM     84  F   UNL A   1      43.464  25.831  35.247  1.00  0.00    -0.203 F 
ATOM     85  C   UNL A   1      45.690  26.107  35.968  1.00  0.00     0.198 A 
ATOM     86  C   UNL A   1      47.008  27.930  35.127  1.00  0.00     0.198 A 
ATOM     87  F   UNL A   1      46.069  29.452  33.597  1.00  0.00    -0.203 F 
ATOM     88  F   UNL A   1      45.567  25.033  36.760  1.00  0.00    -0.200 F 
ATOM     89  C   UNL A   1      46.888  26.805  35.929  1.00  0.00     0.200 A 
ATOM     90  F   UNL A   1      48.168  28.600  35.080  1.00  0.00    -0.200 F 
ATOM     91  F   UNL A   1      47.928  26.396  36.668  1.00  0.00    -0.200 F 
ENDBRANCH  58  81
ENDBRANCH  32  33
ENDBRANCH  25  27
ENDBRANCH  24  25
ENDBRANCH  23  24
ENDBRANCH   1  23
TORSDOF 13
ENDMDL
MODEL 3
REMARK VINA RESULT:     -12.4      0.989      1.637
REMARK SMILES C[C@H]1[C@H](C(=O)OCCOC(=O)c2ccc(-c3c4nc(c(-c5c(F)c(F)c(F)c(F)c5F)c5ccc([nH]5)c(-c5c(F)c(F)c(F)c(F)c5F)c5nc(c(-c6c(F)c(F)c(F)c(F)c6F)c6ccc3[nH]6)C=C5)C=C4)cc2)CCN1C(=O)Nc1ccc(F)c(Cl)c1
REMARK SMILES IDX 7 1 6 2 4 3 5 4 3 5 1 6 2 7 77 8 75 9 76 10 78 11 79 12
REMARK SMILES IDX 80 13 81 15 82 16 88 17 83 18 86 19 84 20 87 21 85 22 8 23
REMARK SMILES IDX 9 24 10 25 11 26 12 27 13 28 74 29 14 30 73 31 15 32 16 33
REMARK SMILES IDX 17 34 67 35 18 36 72 37 66 38 68 39 19 40 71 41 65 42 64 43
REMARK SMILES IDX 20 45 52 46 32 47 51 48 33 49 36 50 50 51 69 52 34 53 35 54
REMARK SMILES IDX 49 56 70 57 37 58 21 59 22 60 30 61 23 62 24 63 28 64 31 65
REMARK SMILES IDX 25 66 26 67 29 68 27 69 53 70 54 71 62 72 55 73 56 74 60 75
REMARK SMILES IDX 63 76 57 77 58 78 61 79 59 80 38 81 39 82 47 83 40 84 41 85
REMARK SMILES IDX 45 86 48 87 42 88 43 89 46 90 44 91
REMARK H PARENT 80 14 68 44 36 55
REMARK Flexibility Score: inf
ROOT
ATOM      1  C   UNL A   1      31.359  29.241  24.426  1.00  0.00     0.274 C 
ENDROOT
BRANCH   1   2
ATOM      2  O   UNL A   1      30.660  27.985  24.322  1.00  0.00    -0.462 OA
BRANCH   2   3
ATOM      3  C   UNL A   1      30.959  27.222  23.240  1.00  0.00     0.311 C 
ATOM      4  O   UNL A   1      30.663  27.503  22.083  1.00  0.00    -0.252 OA
BRANCH   3   5
ATOM      5  C   UNL A   1      31.652  25.925  23.593  1.00  0.00     0.123 C 
ATOM      6  C   UNL A   1      33.219  25.691  25.560  1.00  0.00     0.032 C 
ATOM      7  C   UNL A   1      31.757  25.613  25.103  1.00  0.00     0.098 C 
ATOM      8  N   UNL A   1      31.214  24.255  25.249  1.00  0.00    -0.321 N 
ATOM      9  C   UNL A   1      30.898  24.754  22.973  1.00  0.00     0.039 C 
ATOM     10  C   UNL A   1      31.121  23.621  23.947  1.00  0.00     0.122 C 
BRANCH   8  11
ATOM     11  C   UNL A   1      31.014  23.478  26.356  1.00  0.00     0.322 C 
ATOM     12  O   UNL A   1      30.241  23.839  27.251  1.00  0.00    -0.248 OA
ATOM     13  N   UNL A   1      31.491  22.215  26.456  1.00  0.00    -0.308 N 
ATOM     14  H   UNL A   1      30.912  21.638  27.003  1.00  0.00     0.171 HD
BRANCH  13  15
ATOM     15  C   UNL A   1      32.610  21.538  25.965  1.00  0.00     0.044 A 
ATOM     16  C   UNL A   1      33.850  22.166  26.139  1.00  0.00     0.029 A 
ATOM     17  C   UNL A   1      32.537  20.338  25.257  1.00  0.00     0.049 A 
ATOM     18  C   UNL A   1      35.024  21.550  25.708  1.00  0.00     0.043 A 
ATOM     19  C   UNL A   1      33.713  19.739  24.790  1.00  0.00     0.078 A 
ATOM     20  C   UNL A   1      34.949  20.332  25.042  1.00  0.00     0.141 A 
ATOM     21  Cl  UNL A   1      33.622  18.290  23.865  1.00  0.00    -0.081 Cl
ATOM     22  F   UNL A   1      36.088  19.755  24.631  1.00  0.00    -0.205 F 
ENDBRANCH  13  15
ENDBRANCH   8  11
ENDBRANCH   3   5
ENDBRANCH   2   3
ENDBRANCH   1   2
BRANCH   1  23
ATOM     23  C   UNL A   1      31.779  29.554  25.865  1.00  0.00     0.275 C 
BRANCH  23  24
ATOM     24  O   UNL A   1      33.129  30.044  25.947  1.00  0.00    -0.458 OA
BRANCH  24  25
ATOM     25  C   UNL A   1      33.336  30.999  26.881  1.00  0.00     0.338 C 
ATOM     26  O   UNL A   1      32.567  31.870  27.249  1.00  0.00    -0.246 OA
BRANCH  25  27
ATOM     27  C   UNL A   1      34.631  30.775  27.528  1.00  0.00     0.060 A 
ATOM     28  C   UNL A   1      34.975  29.471  27.891  1.00  0.00     0.016 A 
ATOM     29  C   UNL A   1      35.449  31.852  27.860  1.00  0.00     0.016 A 
ATOM     30  C   UNL A   1      36.139  29.232  28.609  1.00  0.00     0.010 A 
ATOM     31  C   UNL A   1      36.632  31.611  28.560  1.00  0.00     0.010 A 
ATOM     32  C   UNL A   1      36.977  30.302  28.942  1.00  0.00    -0.014 A 
BRANCH  32  33
ATOM     33  C   UNL A   1      38.222  30.063  29.701  1.00  0.00     0.031 A 
ATOM     34  C   UNL A   1      39.273  29.157  29.137  1.00  0.00     0.074 A 
ATOM     35  C   UNL A   1      38.381  30.639  30.904  1.00  0.00     0.049 A 
ATOM     36  N   UNL A   1      40.333  28.661  29.717  1.00  0.00    -0.248 NA
ATOM     37  C   UNL A   1      39.103  28.752  27.732  1.00  0.00     0.031 C 
ATOM     38  C   UNL A   1      37.446  31.584  31.517  1.00  0.00     0.029 A 
ATOM     39  N   UNL A   1      39.375  30.496  31.837  1.00  0.00    -0.354 N 
ATOM     40  C   UNL A   1      40.941  27.859  28.762  1.00  0.00     0.074 A 
ATOM     41  C   UNL A   1      40.134  27.936  27.563  1.00  0.00     0.031 C 
ATOM     42  C   UNL A   1      37.902  31.922  32.733  1.00  0.00     0.029 A 
ATOM     43  C   UNL A   1      39.123  31.172  33.005  1.00  0.00     0.049 A 
ATOM     44  H   UNL A   1      40.188  29.962  31.685  1.00  0.00     0.167 HD
ATOM     45  C   UNL A   1      42.069  27.121  28.888  1.00  0.00     0.037 A 
ATOM     46  C   UNL A   1      39.779  31.144  34.180  1.00  0.00     0.037 A 
ATOM     47  C   UNL A   1      42.866  27.070  30.085  1.00  0.00     0.049 A 
ATOM     48  C   UNL A   1      40.993  30.269  34.315  1.00  0.00     0.074 A 
ATOM     49  C   UNL A   1      44.028  26.357  30.320  1.00  0.00     0.029 A 
ATOM     50  N   UNL A   1      42.578  27.764  31.251  1.00  0.00    -0.354 N 
ATOM     51  N   UNL A   1      41.551  29.490  33.420  1.00  0.00    -0.248 NA
ATOM     52  C   UNL A   1      41.662  30.258  35.622  1.00  0.00     0.031 C 
ATOM     53  C   UNL A   1      44.425  26.593  31.641  1.00  0.00     0.029 A 
ATOM     54  C   UNL A   1      43.533  27.485  32.215  1.00  0.00     0.049 A 
ATOM     55  H   UNL A   1      41.809  28.365  31.376  1.00  0.00     0.167 HD
ATOM     56  C   UNL A   1      42.648  28.916  34.045  1.00  0.00     0.074 A 
ATOM     57  C   UNL A   1      42.680  29.438  35.396  1.00  0.00     0.031 C 
ATOM     58  C   UNL A   1      43.549  28.035  33.546  1.00  0.00     0.037 A 
BRANCH  45  59
ATOM     59  C   UNL A   1      42.486  26.284  27.717  1.00  0.00     0.064 A 
ATOM     60  C   UNL A   1      43.456  26.721  26.803  1.00  0.00     0.173 A 
ATOM     61  C   UNL A   1      41.928  25.010  27.527  1.00  0.00     0.173 A 
ATOM     62  F   UNL A   1      44.005  27.938  26.934  1.00  0.00    -0.203 F 
ATOM     63  C   UNL A   1      43.840  25.920  25.731  1.00  0.00     0.198 A 
ATOM     64  C   UNL A   1      42.331  24.203  26.467  1.00  0.00     0.198 A 
ATOM     65  F   UNL A   1      40.997  24.547  28.374  1.00  0.00    -0.203 F 
ATOM     66  F   UNL A   1      44.740  26.372  24.848  1.00  0.00    -0.200 F 
ATOM     67  C   UNL A   1      43.282  24.661  25.567  1.00  0.00     0.200 A 
ATOM     68  F   UNL A   1      41.796  22.983  26.315  1.00  0.00    -0.200 F 
ATOM     69  F   UNL A   1      43.656  23.888  24.537  1.00  0.00    -0.200 F 
ENDBRANCH  45  59
BRANCH  46  70
ATOM     70  C   UNL A   1      39.272  31.944  35.324  1.00  0.00     0.064 A 
ATOM     71  C   UNL A   1      39.596  33.300  35.452  1.00  0.00     0.173 A 
ATOM     72  C   UNL A   1      38.437  31.374  36.296  1.00  0.00     0.173 A 
ATOM     73  F   UNL A   1      40.409  33.882  34.558  1.00  0.00    -0.203 F 
ATOM     74  C   UNL A   1      39.109  34.057  36.517  1.00  0.00     0.198 A 
ATOM     75  C   UNL A   1      37.931  32.136  37.345  1.00  0.00     0.198 A 
ATOM     76  F   UNL A   1      38.098  30.079  36.215  1.00  0.00    -0.203 F 
ATOM     77  F   UNL A   1      39.459  35.344  36.635  1.00  0.00    -0.200 F 
ATOM     78  C   UNL A   1      38.271  33.476  37.458  1.00  0.00     0.200 A 
ATOM     79  F   UNL A   1      37.111  31.575  38.245  1.00  0.00    -0.200 F 
ATOM     80  F   UNL A   1      37.796  34.207  38.475  1.00  0.00    -0.200 F 
ENDBRANCH  46  70
BRANCH  58  81
ATOM     81  C   UNL A   1      44.670  27.617  34.447  1.00  0.00     0.064 A 
ATOM     82  C   UNL A   1      44.595  26.448  35.216  1.00  0.00     0.173 A 
ATOM     83  C   UNL A   1      45.858  28.363  34.486  1.00  0.00     0.173 A 
ATOM     84  F   UNL A   1      43.473  25.714  35.222  1.00  0.00    -0.203 F 
ATOM     85  C   UNL A   1      45.671  26.044  36.002  1.00  0.00     0.198 A 
ATOM     86  C   UNL A   1      46.938  27.944  35.256  1.00  0.00     0.198 A 
ATOM     87  F   UNL A   1      45.975  29.485  33.761  1.00  0.00    -0.203 F 
ATOM     88  F   UNL A   1      45.571  24.938  36.752  1.00  0.00    -0.200 F 
ATOM     89  C   UNL A   1      46.843  26.786  36.014  1.00  0.00     0.200 A 
ATOM     90  F   UNL A   1      48.073  28.656  35.259  1.00  0.00    -0.200 F 
ATOM     91  F   UNL A   1      47.882  26.388  36.761  1.00  0.00    -0.200 F 
ENDBRANCH  58  81
ENDBRANCH  32  33
ENDBRANCH  25  27
ENDBRANCH  24  25
ENDBRANCH  23  24
ENDBRANCH   1  23
TORSDOF 13
ENDMDL
