MODEL 1
REMARK VINA RESULT:     -12.9      0.000      0.000
REMARK SMILES COc1ccc([C@H]2CC(c3ccc(S(C)(=O)=O)cc3)=NN2c2ccc(C(=O)OCCOC(=O)c3ccc(-c4c5nc(c(-c6c(F)c(F)c(F)c(F)c6F)c6ccc([nH]6)c(-c6c(F)c(F)c(F)c(F)c6F)c6nc(c(-c7c(F)c(F)c(F)c(F)c7F)c7ccc4[nH]7)C=C6)C=C5)cc3)cc2)cc1OC
REMARK SMILES IDX 29 1 28 2 26 3 27 4 25 5 22 6 23 7 98 8 24 9 97 10 21 11
REMARK SMILES IDX 7 12 8 13 9 14 20 15 6 16 3 17 4 18 100 19 5 20 99 21 2 22
REMARK SMILES IDX 1 23 101 24 102 25 10 26 11 27 19 28 12 29 18 30 13 31 14 32
REMARK SMILES IDX 15 33 16 34 17 35 30 36 31 37 32 38 33 39 34 40 35 41 96 42
REMARK SMILES IDX 36 43 95 44 37 45 38 46 39 47 89 48 40 49 94 50 88 51 90 52
REMARK SMILES IDX 41 53 93 54 87 55 86 56 42 58 74 59 54 60 73 61 55 62 58 63
REMARK SMILES IDX 72 64 91 65 56 66 57 67 71 69 92 70 59 71 43 72 44 73 52 74
REMARK SMILES IDX 45 75 46 76 50 77 53 78 47 79 48 80 51 81 49 82 75 83 76 84
REMARK SMILES IDX 84 85 77 86 78 87 82 88 85 89 79 90 80 91 83 92 81 93 60 94
REMARK SMILES IDX 61 95 69 96 62 97 63 98 67 99 70 100 64 101 65 102 68 103
REMARK SMILES IDX 66 104
REMARK H PARENT 90 57 58 68
REMARK Flexibility Score: inf
ROOT
ATOM      1  C   UNL A   1      34.215  33.343  28.090  1.00  0.00     0.275 C 
ENDROOT
BRANCH   1   2
ATOM      2  O   UNL A   1      33.618  32.092  27.691  1.00  0.00    -0.458 OA
BRANCH   2   3
ATOM      3  C   UNL A   1      34.492  31.075  27.491  1.00  0.00     0.338 C 
ATOM      4  O   UNL A   1      35.711  31.141  27.538  1.00  0.00    -0.246 OA
BRANCH   3   5
ATOM      5  C   UNL A   1      33.780  29.800  27.276  1.00  0.00     0.060 A 
ATOM      6  C   UNL A   1      32.461  27.405  26.598  1.00  0.00     0.060 A 
ATOM      7  C   UNL A   1      33.836  27.545  26.401  1.00  0.00     0.029 A 
ATOM      8  C   UNL A   1      31.761  28.475  27.178  1.00  0.00     0.029 A 
ATOM      9  C   UNL A   1      34.479  28.741  26.696  1.00  0.00     0.018 A 
ATOM     10  C   UNL A   1      32.416  29.662  27.542  1.00  0.00     0.018 A 
BRANCH   6  11
ATOM     11  N   UNL A   1      31.827  26.242  26.184  1.00  0.00    -0.257 N 
ATOM     12  C   UNL A   1      30.510  26.227  25.541  1.00  0.00     0.144 C 
ATOM     13  C   UNL A   1      30.399  24.778  25.042  1.00  0.00     0.091 C 
ATOM     14  C   UNL A   1      31.776  24.275  25.369  1.00  0.00     0.071 C 
ATOM     15  N   UNL A   1      32.551  25.102  25.993  1.00  0.00    -0.176 NA
BRANCH  12  16
ATOM     16  C   UNL A   1      30.372  27.239  24.408  1.00  0.00    -0.019 A 
ATOM     17  C   UNL A   1      30.087  29.041  22.253  1.00  0.00     0.160 A 
ATOM     18  C   UNL A   1      28.960  28.491  22.876  1.00  0.00     0.051 A 
ATOM     19  C   UNL A   1      31.367  28.734  22.727  1.00  0.00     0.161 A 
ATOM     20  C   UNL A   1      29.101  27.590  23.936  1.00  0.00     0.010 A 
ATOM     21  C   UNL A   1      31.492  27.843  23.806  1.00  0.00     0.056 A 
BRANCH  17  22
ATOM     22  O   UNL A   1      29.901  29.945  21.241  1.00  0.00    -0.493 OA
ATOM     23  C   UNL A   1      28.665  30.647  21.373  1.00  0.00     0.278 C 
ENDBRANCH  17  22
BRANCH  19  24
ATOM     24  O   UNL A   1      32.574  29.198  22.276  1.00  0.00    -0.493 OA
ATOM     25  C   UNL A   1      33.757  28.685  22.869  1.00  0.00     0.278 C 
ENDBRANCH  19  24
ENDBRANCH  12  16
BRANCH  14  26
ATOM     26  C   UNL A   1      32.167  22.892  25.068  1.00  0.00    -0.002 A 
ATOM     27  C   UNL A   1      32.727  22.124  26.095  1.00  0.00     0.011 A 
ATOM     28  C   UNL A   1      31.946  22.343  23.803  1.00  0.00     0.011 A 
ATOM     29  C   UNL A   1      33.026  20.780  25.872  1.00  0.00     0.021 A 
ATOM     30  C   UNL A   1      32.270  21.004  23.569  1.00  0.00     0.021 A 
ATOM     31  C   UNL A   1      32.796  20.227  24.607  1.00  0.00     0.067 A 
BRANCH  31  32
ATOM     32  S   UNL A   1      33.103  18.493  24.354  1.00  0.00     0.175 S 
ATOM     33  C   UNL A   1      32.545  18.175  22.702  1.00  0.00     0.163 C 
ATOM     34  O   UNL A   1      34.542  18.318  24.394  1.00  0.00    -0.224 OA
ATOM     35  O   UNL A   1      32.238  17.759  25.259  1.00  0.00    -0.224 OA
ENDBRANCH  31  32
ENDBRANCH  14  26
ENDBRANCH   6  11
ENDBRANCH   3   5
ENDBRANCH   2   3
ENDBRANCH   1   2
BRANCH   1  36
ATOM     36  C   UNL A   1      33.179  34.466  28.157  1.00  0.00     0.275 C 
BRANCH  36  37
ATOM     37  O   UNL A   1      32.513  34.456  29.432  1.00  0.00    -0.458 OA
BRANCH  37  38
ATOM     38  C   UNL A   1      32.994  35.323  30.351  1.00  0.00     0.338 C 
ATOM     39  O   UNL A   1      32.623  36.465  30.562  1.00  0.00    -0.246 OA
BRANCH  38  40
ATOM     40  C   UNL A   1      34.076  34.695  31.133  1.00  0.00     0.060 A 
ATOM     41  C   UNL A   1      35.371  35.191  31.036  1.00  0.00     0.016 A 
ATOM     42  C   UNL A   1      33.839  33.506  31.819  1.00  0.00     0.016 A 
ATOM     43  C   UNL A   1      36.449  34.425  31.481  1.00  0.00     0.010 A 
ATOM     44  C   UNL A   1      34.911  32.812  32.392  1.00  0.00     0.010 A 
ATOM     45  C   UNL A   1      36.240  33.228  32.181  1.00  0.00    -0.014 A 
BRANCH  45  46
ATOM     46  C   UNL A   1      37.391  32.398  32.652  1.00  0.00     0.031 A 
ATOM     47  C   UNL A   1      37.997  32.638  34.015  1.00  0.00     0.074 A 
ATOM     48  C   UNL A   1      37.902  31.418  31.878  1.00  0.00     0.049 A 
ATOM     49  N   UNL A   1      39.120  32.186  34.518  1.00  0.00    -0.248 NA
ATOM     50  C   UNL A   1      37.249  33.517  34.928  1.00  0.00     0.031 C 
ATOM     51  C   UNL A   1      37.403  31.027  30.559  1.00  0.00     0.029 A 
ATOM     52  N   UNL A   1      38.960  30.564  32.091  1.00  0.00    -0.354 N 
ATOM     53  C   UNL A   1      39.246  32.781  35.769  1.00  0.00     0.074 A 
ATOM     54  C   UNL A   1      38.085  33.624  35.953  1.00  0.00     0.031 C 
ATOM     55  C   UNL A   1      38.114  29.985  30.106  1.00  0.00     0.029 A 
ATOM     56  C   UNL A   1      39.190  29.701  31.048  1.00  0.00     0.049 A 
ATOM     57  H   UNL A   1      39.500  30.571  32.914  1.00  0.00     0.167 HD
ATOM     58  C   UNL A   1      40.239  32.636  36.680  1.00  0.00     0.037 A 
ATOM     59  C   UNL A   1      40.180  28.812  30.839  1.00  0.00     0.037 A 
ATOM     60  C   UNL A   1      41.356  31.738  36.533  1.00  0.00     0.049 A 
ATOM     61  C   UNL A   1      41.278  28.680  31.856  1.00  0.00     0.074 A 
ATOM     62  C   UNL A   1      42.406  31.514  37.407  1.00  0.00     0.029 A 
ATOM     63  N   UNL A   1      41.554  30.897  35.449  1.00  0.00    -0.354 N 
ATOM     64  N   UNL A   1      41.425  29.303  33.000  1.00  0.00    -0.248 NA
ATOM     65  C   UNL A   1      42.361  27.738  31.542  1.00  0.00     0.031 C 
ATOM     66  C   UNL A   1      43.255  30.557  36.840  1.00  0.00     0.029 A 
ATOM     67  C   UNL A   1      42.712  30.156  35.631  1.00  0.00     0.049 A 
ATOM     68  H   UNL A   1      40.961  30.835  34.665  1.00  0.00     0.167 HD
ATOM     69  C   UNL A   1      42.606  28.821  33.546  1.00  0.00     0.074 A 
ATOM     70  C   UNL A   1      43.125  27.837  32.620  1.00  0.00     0.031 C 
ATOM     71  C   UNL A   1      43.209  29.171  34.708  1.00  0.00     0.037 A 
BRANCH  58  72
ATOM     72  C   UNL A   1      40.185  33.486  37.918  1.00  0.00     0.064 A 
ATOM     73  C   UNL A   1      39.402  33.139  39.027  1.00  0.00     0.173 A 
ATOM     74  C   UNL A   1      40.981  34.639  38.012  1.00  0.00     0.173 A 
ATOM     75  F   UNL A   1      38.617  32.052  38.986  1.00  0.00    -0.203 F 
ATOM     76  C   UNL A   1      39.401  33.925  40.177  1.00  0.00     0.198 A 
ATOM     77  C   UNL A   1      41.000  35.407  39.174  1.00  0.00     0.198 A 
ATOM     78  F   UNL A   1      41.759  35.011  36.984  1.00  0.00    -0.203 F 
ATOM     79  F   UNL A   1      38.617  33.594  41.213  1.00  0.00    -0.200 F 
ATOM     80  C   UNL A   1      40.206  35.053  40.253  1.00  0.00     0.200 A 
ATOM     81  F   UNL A   1      41.789  36.488  39.250  1.00  0.00    -0.200 F 
ATOM     82  F   UNL A   1      40.212  35.800  41.365  1.00  0.00    -0.200 F 
ENDBRANCH  58  72
BRANCH  59  83
ATOM     83  C   UNL A   1      40.204  28.009  29.588  1.00  0.00     0.064 A 
ATOM     84  C   UNL A   1      40.947  28.426  28.476  1.00  0.00     0.173 A 
ATOM     85  C   UNL A   1      39.481  26.810  29.477  1.00  0.00     0.173 A 
ATOM     86  F   UNL A   1      41.630  29.580  28.521  1.00  0.00    -0.203 F 
ATOM     87  C   UNL A   1      40.959  27.680  27.299  1.00  0.00     0.198 A 
ATOM     88  C   UNL A   1      39.522  26.050  28.312  1.00  0.00     0.198 A 
ATOM     89  F   UNL A   1      38.749  26.369  30.510  1.00  0.00    -0.203 F 
ATOM     90  F   UNL A   1      41.642  28.125  26.235  1.00  0.00    -0.200 F 
ATOM     91  C   UNL A   1      40.254  26.488  27.220  1.00  0.00     0.200 A 
ATOM     92  F   UNL A   1      38.849  24.892  28.246  1.00  0.00    -0.200 F 
ATOM     93  F   UNL A   1      40.273  25.769  26.091  1.00  0.00    -0.200 F 
ENDBRANCH  59  83
BRANCH  71  94
ATOM     94  C   UNL A   1      44.478  28.454  35.060  1.00  0.00     0.064 A 
ATOM     95  C   UNL A   1      44.465  27.243  35.768  1.00  0.00     0.173 A 
ATOM     96  C   UNL A   1      45.719  28.971  34.662  1.00  0.00     0.173 A 
ATOM     97  F   UNL A   1      43.304  26.717  36.184  1.00  0.00    -0.203 F 
ATOM     98  C   UNL A   1      45.652  26.589  36.086  1.00  0.00     0.198 A 
ATOM     99  C   UNL A   1      46.903  28.302  34.960  1.00  0.00     0.198 A 
ATOM    100  F   UNL A   1      45.784  30.124  33.979  1.00  0.00    -0.203 F 
ATOM    101  F   UNL A   1      45.620  25.458  36.804  1.00  0.00    -0.200 F 
ATOM    102  C   UNL A   1      46.869  27.116  35.678  1.00  0.00     0.200 A 
ATOM    103  F   UNL A   1      48.077  28.808  34.558  1.00  0.00    -0.200 F 
ATOM    104  F   UNL A   1      48.010  26.485  35.985  1.00  0.00    -0.200 F 
ENDBRANCH  71  94
ENDBRANCH  45  46
ENDBRANCH  38  40
ENDBRANCH  37  38
ENDBRANCH  36  37
ENDBRANCH   1  36
TORSDOF 17
ENDMDL
MODEL 2
REMARK VINA RESULT:     -12.9      3.250      9.014
REMARK SMILES COc1ccc([C@H]2CC(c3ccc(S(C)(=O)=O)cc3)=NN2c2ccc(C(=O)OCCOC(=O)c3ccc(-c4c5nc(c(-c6c(F)c(F)c(F)c(F)c6F)c6ccc([nH]6)c(-c6c(F)c(F)c(F)c(F)c6F)c6nc(c(-c7c(F)c(F)c(F)c(F)c7F)c7ccc4[nH]7)C=C6)C=C5)cc3)cc2)cc1OC
REMARK SMILES IDX 29 1 28 2 26 3 27 4 25 5 22 6 23 7 98 8 24 9 97 10 21 11
REMARK SMILES IDX 7 12 8 13 9 14 20 15 6 16 3 17 4 18 100 19 5 20 99 21 2 22
REMARK SMILES IDX 1 23 101 24 102 25 10 26 11 27 19 28 12 29 18 30 13 31 14 32
REMARK SMILES IDX 15 33 16 34 17 35 30 36 31 37 32 38 33 39 34 40 35 41 96 42
REMARK SMILES IDX 36 43 95 44 37 45 38 46 39 47 89 48 40 49 94 50 88 51 90 52
REMARK SMILES IDX 41 53 93 54 87 55 86 56 42 58 74 59 54 60 73 61 55 62 58 63
REMARK SMILES IDX 72 64 91 65 56 66 57 67 71 69 92 70 59 71 43 72 44 73 52 74
REMARK SMILES IDX 45 75 46 76 50 77 53 78 47 79 48 80 51 81 49 82 75 83 76 84
REMARK SMILES IDX 84 85 77 86 78 87 82 88 85 89 79 90 80 91 83 92 81 93 60 94
REMARK SMILES IDX 61 95 69 96 62 97 63 98 67 99 70 100 64 101 65 102 68 103
REMARK SMILES IDX 66 104
REMARK H PARENT 90 57 58 68
REMARK Flexibility Score: inf
ROOT
ATOM      1  C   UNL A   1      40.495  21.191  26.889  1.00  0.00     0.275 C 
ENDROOT
BRANCH   1   2
ATOM      2  O   UNL A   1      39.365  21.613  26.097  1.00  0.00    -0.458 OA
BRANCH   2   3
ATOM      3  C   UNL A   1      38.957  22.888  26.310  1.00  0.00     0.338 C 
ATOM      4  O   UNL A   1      39.583  23.767  26.884  1.00  0.00    -0.246 OA
BRANCH   3   5
ATOM      5  C   UNL A   1      37.646  23.136  25.680  1.00  0.00     0.060 A 
ATOM      6  C   UNL A   1      35.279  23.734  24.274  1.00  0.00     0.060 A 
ATOM      7  C   UNL A   1      36.200  22.816  23.766  1.00  0.00     0.029 A 
ATOM      8  C   UNL A   1      35.547  24.322  25.521  1.00  0.00     0.029 A 
ATOM      9  C   UNL A   1      37.388  22.553  24.438  1.00  0.00     0.018 A 
ATOM     10  C   UNL A   1      36.711  24.009  26.239  1.00  0.00     0.018 A 
BRANCH   6  11
ATOM     11  N   UNL A   1      34.161  24.066  23.522  1.00  0.00    -0.257 N 
ATOM     12  C   UNL A   1      33.422  23.097  22.706  1.00  0.00     0.144 C 
ATOM     13  C   UNL A   1      32.157  23.879  22.324  1.00  0.00     0.091 C 
ATOM     14  C   UNL A   1      32.350  25.122  23.146  1.00  0.00     0.071 C 
ATOM     15  N   UNL A   1      33.461  25.201  23.805  1.00  0.00    -0.176 NA
BRANCH  12  16
ATOM     16  C   UNL A   1      33.098  21.801  23.442  1.00  0.00    -0.019 A 
ATOM     17  C   UNL A   1      32.405  19.420  24.793  1.00  0.00     0.160 A 
ATOM     18  C   UNL A   1      32.187  19.547  23.415  1.00  0.00     0.051 A 
ATOM     19  C   UNL A   1      33.013  20.461  25.503  1.00  0.00     0.161 A 
ATOM     20  C   UNL A   1      32.520  20.730  22.748  1.00  0.00     0.010 A 
ATOM     21  C   UNL A   1      33.360  21.636  24.815  1.00  0.00     0.056 A 
BRANCH  17  22
ATOM     22  O   UNL A   1      32.094  18.231  25.399  1.00  0.00    -0.493 OA
ATOM     23  C   UNL A   1      32.909  17.160  24.921  1.00  0.00     0.278 C 
ENDBRANCH  17  22
BRANCH  19  24
ATOM     24  O   UNL A   1      33.339  20.506  26.832  1.00  0.00    -0.493 OA
ATOM     25  C   UNL A   1      33.648  21.766  27.408  1.00  0.00     0.278 C 
ENDBRANCH  19  24
ENDBRANCH  12  16
BRANCH  14  26
ATOM     26  C   UNL A   1      31.364  26.210  23.116  1.00  0.00    -0.002 A 
ATOM     27  C   UNL A   1      31.720  27.408  22.488  1.00  0.00     0.011 A 
ATOM     28  C   UNL A   1      30.090  26.038  23.662  1.00  0.00     0.011 A 
ATOM     29  C   UNL A   1      30.779  28.430  22.360  1.00  0.00     0.021 A 
ATOM     30  C   UNL A   1      29.154  27.071  23.559  1.00  0.00     0.021 A 
ATOM     31  C   UNL A   1      29.499  28.255  22.897  1.00  0.00     0.067 A 
BRANCH  31  32
ATOM     32  S   UNL A   1      28.281  29.529  22.659  1.00  0.00     0.175 S 
ATOM     33  C   UNL A   1      28.885  30.909  23.592  1.00  0.00     0.163 C 
ATOM     34  O   UNL A   1      28.316  29.876  21.251  1.00  0.00    -0.224 OA
ATOM     35  O   UNL A   1      27.050  29.080  23.284  1.00  0.00    -0.224 OA
ENDBRANCH  31  32
ENDBRANCH  14  26
ENDBRANCH   6  11
ENDBRANCH   3   5
ENDBRANCH   2   3
ENDBRANCH   1   2
BRANCH   1  36
ATOM     36  C   UNL A   1      41.687  20.811  26.010  1.00  0.00     0.275 C 
BRANCH  36  37
ATOM     37  O   UNL A   1      42.847  21.579  26.381  1.00  0.00    -0.458 OA
BRANCH  37  38
ATOM     38  C   UNL A   1      42.961  22.789  25.789  1.00  0.00     0.338 C 
ATOM     39  O   UNL A   1      43.037  23.030  24.596  1.00  0.00    -0.246 OA
BRANCH  38  40
ATOM     40  C   UNL A   1      42.972  23.858  26.805  1.00  0.00     0.060 A 
ATOM     41  C   UNL A   1      42.835  23.532  28.149  1.00  0.00     0.016 A 
ATOM     42  C   UNL A   1      42.938  25.194  26.411  1.00  0.00     0.016 A 
ATOM     43  C   UNL A   1      42.502  24.517  29.079  1.00  0.00     0.010 A 
ATOM     44  C   UNL A   1      42.748  26.195  27.370  1.00  0.00     0.010 A 
ATOM     45  C   UNL A   1      42.467  25.870  28.711  1.00  0.00    -0.014 A 
BRANCH  45  46
ATOM     46  C   UNL A   1      42.102  26.931  29.701  1.00  0.00     0.031 A 
ATOM     47  C   UNL A   1      42.925  27.120  30.953  1.00  0.00     0.074 A 
ATOM     48  C   UNL A   1      41.043  27.739  29.491  1.00  0.00     0.049 A 
ATOM     49  N   UNL A   1      42.657  27.823  32.027  1.00  0.00    -0.248 NA
ATOM     50  C   UNL A   1      44.215  26.414  31.013  1.00  0.00     0.031 C 
ATOM     51  C   UNL A   1      40.175  27.718  28.312  1.00  0.00     0.029 A 
ATOM     52  N   UNL A   1      40.514  28.746  30.266  1.00  0.00    -0.354 N 
ATOM     53  C   UNL A   1      43.702  27.584  32.912  1.00  0.00     0.074 A 
ATOM     54  C   UNL A   1      44.614  26.675  32.251  1.00  0.00     0.031 C 
ATOM     55  C   UNL A   1      39.261  28.693  28.416  1.00  0.00     0.029 A 
ATOM     56  C   UNL A   1      39.404  29.339  29.715  1.00  0.00     0.049 A 
ATOM     57  H   UNL A   1      40.895  29.014  31.133  1.00  0.00     0.167 HD
ATOM     58  C   UNL A   1      43.885  28.078  34.161  1.00  0.00     0.037 A 
ATOM     59  C   UNL A   1      38.559  30.264  30.211  1.00  0.00     0.037 A 
ATOM     60  C   UNL A   1      43.021  29.043  34.790  1.00  0.00     0.049 A 
ATOM     61  C   UNL A   1      38.774  30.786  31.604  1.00  0.00     0.074 A 
ATOM     62  C   UNL A   1      43.130  29.612  36.048  1.00  0.00     0.029 A 
ATOM     63  N   UNL A   1      41.898  29.601  34.198  1.00  0.00    -0.354 N 
ATOM     64  N   UNL A   1      39.724  30.496  32.459  1.00  0.00    -0.248 NA
ATOM     65  C   UNL A   1      37.784  31.747  32.109  1.00  0.00     0.031 C 
ATOM     66  C   UNL A   1      42.059  30.493  36.229  1.00  0.00     0.029 A 
ATOM     67  C   UNL A   1      41.304  30.504  35.067  1.00  0.00     0.049 A 
ATOM     68  H   UNL A   1      41.571  29.388  33.295  1.00  0.00     0.167 HD
ATOM     69  C   UNL A   1      39.455  31.245  33.595  1.00  0.00     0.074 A 
ATOM     70  C   UNL A   1      38.265  32.020  33.314  1.00  0.00     0.031 C 
ATOM     71  C   UNL A   1      40.129  31.278  34.770  1.00  0.00     0.037 A 
BRANCH  58  72
ATOM     72  C   UNL A   1      45.056  27.569  34.953  1.00  0.00     0.064 A 
ATOM     73  C   UNL A   1      46.296  28.220  34.953  1.00  0.00     0.173 A 
ATOM     74  C   UNL A   1      44.910  26.438  35.773  1.00  0.00     0.173 A 
ATOM     75  F   UNL A   1      46.492  29.300  34.181  1.00  0.00    -0.203 F 
ATOM     76  C   UNL A   1      47.354  27.748  35.727  1.00  0.00     0.198 A 
ATOM     77  C   UNL A   1      45.960  25.985  36.567  1.00  0.00     0.198 A 
ATOM     78  F   UNL A   1      43.740  25.782  35.820  1.00  0.00    -0.203 F 
ATOM     79  F   UNL A   1      48.543  28.367  35.684  1.00  0.00    -0.200 F 
ATOM     80  C   UNL A   1      47.183  26.637  36.539  1.00  0.00     0.200 A 
ATOM     81  F   UNL A   1      45.787  24.919  37.362  1.00  0.00    -0.200 F 
ATOM     82  F   UNL A   1      48.198  26.192  37.293  1.00  0.00    -0.200 F 
ENDBRANCH  58  72
BRANCH  59  83
ATOM     83  C   UNL A   1      37.401  30.722  29.399  1.00  0.00     0.064 A 
ATOM     84  C   UNL A   1      37.368  32.010  28.849  1.00  0.00     0.173 A 
ATOM     85  C   UNL A   1      36.303  29.882  29.159  1.00  0.00     0.173 A 
ATOM     86  F   UNL A   1      38.380  32.861  29.076  1.00  0.00    -0.203 F 
ATOM     87  C   UNL A   1      36.277  32.444  28.099  1.00  0.00     0.198 A 
ATOM     88  C   UNL A   1      35.228  30.306  28.381  1.00  0.00     0.198 A 
ATOM     89  F   UNL A   1      36.281  28.641  29.666  1.00  0.00    -0.203 F 
ATOM     90  F   UNL A   1      36.251  33.696  27.623  1.00  0.00    -0.200 F 
ATOM     91  C   UNL A   1      35.212  31.589  27.857  1.00  0.00     0.200 A 
ATOM     92  F   UNL A   1      34.208  29.470  28.139  1.00  0.00    -0.200 F 
ATOM     93  F   UNL A   1      34.167  32.005  27.130  1.00  0.00    -0.200 F 
ENDBRANCH  59  83
BRANCH  71  94
ATOM     94  C   UNL A   1      39.618  32.215  35.823  1.00  0.00     0.064 A 
ATOM     95  C   UNL A   1      40.134  33.511  35.966  1.00  0.00     0.173 A 
ATOM     96  C   UNL A   1      38.581  31.820  36.681  1.00  0.00     0.173 A 
ATOM     97  F   UNL A   1      41.137  33.928  35.180  1.00  0.00    -0.203 F 
ATOM     98  C   UNL A   1      39.648  34.369  36.949  1.00  0.00     0.198 A 
ATOM     99  C   UNL A   1      38.080  32.689  37.646  1.00  0.00     0.198 A 
ATOM    100  F   UNL A   1      38.051  30.592  36.580  1.00  0.00    -0.203 F 
ATOM    101  F   UNL A   1      40.188  35.586  37.100  1.00  0.00    -0.200 F 
ATOM    102  C   UNL A   1      38.619  33.960  37.784  1.00  0.00     0.200 A 
ATOM    103  F   UNL A   1      37.080  32.295  38.446  1.00  0.00    -0.200 F 
ATOM    104  F   UNL A   1      38.152  34.787  38.729  1.00  0.00    -0.200 F 
ENDBRANCH  71  94
ENDBRANCH  45  46
ENDBRANCH  38  40
ENDBRANCH  37  38
ENDBRANCH  36  37
ENDBRANCH   1  36
TORSDOF 17
ENDMDL
MODEL 3
REMARK VINA RESULT:     -12.5      5.982     11.091
REMARK SMILES COc1ccc([C@H]2CC(c3ccc(S(C)(=O)=O)cc3)=NN2c2ccc(C(=O)OCCOC(=O)c3ccc(-c4c5nc(c(-c6c(F)c(F)c(F)c(F)c6F)c6ccc([nH]6)c(-c6c(F)c(F)c(F)c(F)c6F)c6nc(c(-c7c(F)c(F)c(F)c(F)c7F)c7ccc4[nH]7)C=C6)C=C5)cc3)cc2)cc1OC
REMARK SMILES IDX 29 1 28 2 26 3 27 4 25 5 22 6 23 7 98 8 24 9 97 10 21 11
REMARK SMILES IDX 7 12 8 13 9 14 20 15 6 16 3 17 4 18 100 19 5 20 99 21 2 22
REMARK SMILES IDX 1 23 101 24 102 25 10 26 11 27 19 28 12 29 18 30 13 31 14 32
REMARK SMILES IDX 15 33 16 34 17 35 30 36 31 37 32 38 33 39 34 40 35 41 96 42
REMARK SMILES IDX 36 43 95 44 37 45 38 46 39 47 89 48 40 49 94 50 88 51 90 52
REMARK SMILES IDX 41 53 93 54 87 55 86 56 42 58 74 59 54 60 73 61 55 62 58 63
REMARK SMILES IDX 72 64 91 65 56 66 57 67 71 69 92 70 59 71 43 72 44 73 52 74
REMARK SMILES IDX 45 75 46 76 50 77 53 78 47 79 48 80 51 81 49 82 75 83 76 84
REMARK SMILES IDX 84 85 77 86 78 87 82 88 85 89 79 90 80 91 83 92 81 93 60 94
REMARK SMILES IDX 61 95 69 96 62 97 63 98 67 99 70 100 64 101 65 102 68 103
REMARK SMILES IDX 66 104
REMARK H PARENT 90 57 58 68
REMARK Flexibility Score: inf
ROOT
ATOM      1  C   UNL A   1      40.610  20.542  27.029  1.00  0.00     0.275 C 
ENDROOT
BRANCH   1   2
ATOM      2  O   UNL A   1      39.716  21.152  26.075  1.00  0.00    -0.458 OA
BRANCH   2   3
ATOM      3  C   UNL A   1      39.348  22.424  26.363  1.00  0.00     0.338 C 
ATOM      4  O   UNL A   1      40.002  23.250  26.982  1.00  0.00    -0.246 OA
BRANCH   3   5
ATOM      5  C   UNL A   1      38.043  22.748  25.754  1.00  0.00     0.060 A 
ATOM      6  C   UNL A   1      35.692  23.473  24.383  1.00  0.00     0.060 A 
ATOM      7  C   UNL A   1      36.531  22.473  23.886  1.00  0.00     0.029 A 
ATOM      8  C   UNL A   1      36.032  24.079  25.603  1.00  0.00     0.029 A 
ATOM      9  C   UNL A   1      37.712  22.146  24.539  1.00  0.00     0.018 A 
ATOM     10  C   UNL A   1      37.189  23.704  26.304  1.00  0.00     0.018 A 
BRANCH   6  11
ATOM     11  N   UNL A   1      34.582  23.861  23.646  1.00  0.00    -0.257 N 
ATOM     12  C   UNL A   1      33.755  22.924  22.880  1.00  0.00     0.144 C 
ATOM     13  C   UNL A   1      32.540  23.784  22.500  1.00  0.00     0.091 C 
ATOM     14  C   UNL A   1      32.844  25.035  23.276  1.00  0.00     0.071 C 
ATOM     15  N   UNL A   1      33.973  25.052  23.907  1.00  0.00    -0.176 NA
BRANCH  12  16
ATOM     16  C   UNL A   1      33.357  21.679  23.665  1.00  0.00    -0.019 A 
ATOM     17  C   UNL A   1      32.527  19.393  25.101  1.00  0.00     0.160 A 
ATOM     18  C   UNL A   1      32.412  19.439  23.705  1.00  0.00     0.051 A 
ATOM     19  C   UNL A   1      33.100  20.467  25.790  1.00  0.00     0.161 A 
ATOM     20  C   UNL A   1      32.812  20.575  22.995  1.00  0.00     0.010 A 
ATOM     21  C   UNL A   1      33.516  21.593  25.060  1.00  0.00     0.056 A 
BRANCH  17  22
ATOM     22  O   UNL A   1      32.153  18.247  25.751  1.00  0.00    -0.493 OA
ATOM     23  C   UNL A   1      32.805  17.093  25.218  1.00  0.00     0.278 C 
ENDBRANCH  17  22
BRANCH  19  24
ATOM     24  O   UNL A   1      33.329  20.588  27.135  1.00  0.00    -0.493 OA
ATOM     25  C   UNL A   1      33.816  21.827  27.626  1.00  0.00     0.278 C 
ENDBRANCH  19  24
ENDBRANCH  12  16
BRANCH  14  26
ATOM     26  C   UNL A   1      31.938  26.190  23.232  1.00  0.00    -0.002 A 
ATOM     27  C   UNL A   1      32.468  27.433  22.872  1.00  0.00     0.011 A 
ATOM     28  C   UNL A   1      30.575  26.044  23.501  1.00  0.00     0.011 A 
ATOM     29  C   UNL A   1      31.624  28.534  22.731  1.00  0.00     0.021 A 
ATOM     30  C   UNL A   1      29.730  27.151  23.387  1.00  0.00     0.021 A 
ATOM     31  C   UNL A   1      30.256  28.386  22.990  1.00  0.00     0.067 A 
BRANCH  31  32
ATOM     32  S   UNL A   1      29.173  29.772  22.730  1.00  0.00     0.175 S 
ATOM     33  C   UNL A   1      27.551  29.144  23.068  1.00  0.00     0.163 C 
ATOM     34  O   UNL A   1      29.505  30.753  23.745  1.00  0.00    -0.224 OA
ATOM     35  O   UNL A   1      29.228  30.112  21.320  1.00  0.00    -0.224 OA
ENDBRANCH  31  32
ENDBRANCH  14  26
ENDBRANCH   6  11
ENDBRANCH   3   5
ENDBRANCH   2   3
ENDBRANCH   1   2
BRANCH   1  36
ATOM     36  C   UNL A   1      41.320  19.324  26.437  1.00  0.00     0.275 C 
BRANCH  36  37
ATOM     37  O   UNL A   1      41.989  19.680  25.214  1.00  0.00    -0.458 OA
BRANCH  37  38
ATOM     38  C   UNL A   1      43.339  19.664  25.258  1.00  0.00     0.338 C 
ATOM     39  O   UNL A   1      44.075  18.694  25.192  1.00  0.00    -0.246 OA
BRANCH  38  40
ATOM     40  C   UNL A   1      43.865  21.036  25.390  1.00  0.00     0.060 A 
ATOM     41  C   UNL A   1      45.057  21.254  26.072  1.00  0.00     0.016 A 
ATOM     42  C   UNL A   1      43.086  22.121  24.995  1.00  0.00     0.016 A 
ATOM     43  C   UNL A   1      45.393  22.537  26.503  1.00  0.00     0.010 A 
ATOM     44  C   UNL A   1      43.502  23.422  25.303  1.00  0.00     0.010 A 
ATOM     45  C   UNL A   1      44.631  23.648  26.114  1.00  0.00    -0.014 A 
BRANCH  45  46
ATOM     46  C   UNL A   1      44.981  25.026  26.579  1.00  0.00     0.031 A 
ATOM     47  C   UNL A   1      43.942  25.889  27.257  1.00  0.00     0.074 A 
ATOM     48  C   UNL A   1      46.226  25.519  26.411  1.00  0.00     0.049 A 
ATOM     49  N   UNL A   1      43.976  27.170  27.534  1.00  0.00    -0.248 NA
ATOM     50  C   UNL A   1      42.693  25.226  27.664  1.00  0.00     0.031 C 
ATOM     51  C   UNL A   1      47.354  24.800  25.819  1.00  0.00     0.029 A 
ATOM     52  N   UNL A   1      46.755  26.749  26.728  1.00  0.00    -0.354 N 
ATOM     53  C   UNL A   1      42.733  27.477  28.076  1.00  0.00     0.074 A 
ATOM     54  C   UNL A   1      41.967  26.250  28.094  1.00  0.00     0.031 C 
ATOM     55  C   UNL A   1      48.447  25.575  25.862  1.00  0.00     0.029 A 
ATOM     56  C   UNL A   1      48.077  26.886  26.383  1.00  0.00     0.049 A 
ATOM     57  H   UNL A   1      46.234  27.463  27.162  1.00  0.00     0.167 HD
ATOM     58  C   UNL A   1      42.274  28.673  28.519  1.00  0.00     0.037 A 
ATOM     59  C   UNL A   1      48.896  27.954  26.428  1.00  0.00     0.037 A 
ATOM     60  C   UNL A   1      43.061  29.878  28.574  1.00  0.00     0.049 A 
ATOM     61  C   UNL A   1      48.360  29.273  26.908  1.00  0.00     0.074 A 
ATOM     62  C   UNL A   1      42.686  31.136  29.017  1.00  0.00     0.029 A 
ATOM     63  N   UNL A   1      44.391  29.970  28.195  1.00  0.00    -0.354 N 
ATOM     64  N   UNL A   1      47.161  29.568  27.347  1.00  0.00    -0.248 NA
ATOM     65  C   UNL A   1      49.285  30.414  26.875  1.00  0.00     0.031 C 
ATOM     66  C   UNL A   1      43.782  31.995  28.880  1.00  0.00     0.029 A 
ATOM     67  C   UNL A   1      44.850  31.264  28.391  1.00  0.00     0.049 A 
ATOM     68  H   UNL A   1      44.930  29.227  27.840  1.00  0.00     0.167 HD
ATOM     69  C   UNL A   1      47.191  30.921  27.654  1.00  0.00     0.074 A 
ATOM     70  C   UNL A   1      48.533  31.385  27.373  1.00  0.00     0.031 C 
ATOM     71  C   UNL A   1      46.191  31.708  28.119  1.00  0.00     0.037 A 
BRANCH  58  72
ATOM     72  C   UNL A   1      40.840  28.755  28.960  1.00  0.00     0.064 A 
ATOM     73  C   UNL A   1      39.800  29.039  28.065  1.00  0.00     0.173 A 
ATOM     74  C   UNL A   1      40.500  28.484  30.296  1.00  0.00     0.173 A 
ATOM     75  F   UNL A   1      40.071  29.312  26.780  1.00  0.00    -0.203 F 
ATOM     76  C   UNL A   1      38.474  29.070  28.494  1.00  0.00     0.198 A 
ATOM     77  C   UNL A   1      39.172  28.489  30.715  1.00  0.00     0.198 A 
ATOM     78  F   UNL A   1      41.456  28.195  31.192  1.00  0.00    -0.203 F 
ATOM     79  F   UNL A   1      37.499  29.379  27.627  1.00  0.00    -0.200 F 
ATOM     80  C   UNL A   1      38.161  28.787  29.815  1.00  0.00     0.200 A 
ATOM     81  F   UNL A   1      38.871  28.200  31.989  1.00  0.00    -0.200 F 
ATOM     82  F   UNL A   1      36.884  28.806  30.221  1.00  0.00    -0.200 F 
ENDBRANCH  58  72
BRANCH  59  83
ATOM     83  C   UNL A   1      50.302  27.831  25.959  1.00  0.00     0.064 A 
ATOM     84  C   UNL A   1      51.361  27.728  26.870  1.00  0.00     0.173 A 
ATOM     85  C   UNL A   1      50.615  27.818  24.591  1.00  0.00     0.173 A 
ATOM     86  F   UNL A   1      51.116  27.766  28.189  1.00  0.00    -0.203 F 
ATOM     87  C   UNL A   1      52.680  27.626  26.432  1.00  0.00     0.198 A 
ATOM     88  C   UNL A   1      51.931  27.683  24.154  1.00  0.00     0.198 A 
ATOM     89  F   UNL A   1      49.640  27.919  23.677  1.00  0.00    -0.203 F 
ATOM     90  F   UNL A   1      53.677  27.574  27.325  1.00  0.00    -0.200 F 
ATOM     91  C   UNL A   1      52.963  27.594  25.074  1.00  0.00     0.200 A 
ATOM     92  F   UNL A   1      52.197  27.638  22.841  1.00  0.00    -0.200 F 
ATOM     93  F   UNL A   1      54.230  27.488  24.654  1.00  0.00    -0.200 F 
ENDBRANCH  59  83
BRANCH  71  94
ATOM     94  C   UNL A   1      46.525  33.145  28.391  1.00  0.00     0.064 A 
ATOM     95  C   UNL A   1      46.348  34.137  27.416  1.00  0.00     0.173 A 
ATOM     96  C   UNL A   1      47.004  33.535  29.650  1.00  0.00     0.173 A 
ATOM     97  F   UNL A   1      45.908  33.810  26.192  1.00  0.00    -0.203 F 
ATOM     98  C   UNL A   1      46.662  35.467  27.685  1.00  0.00     0.198 A 
ATOM     99  C   UNL A   1      47.294  34.869  29.923  1.00  0.00     0.198 A 
ATOM    100  F   UNL A   1      47.186  32.624  30.617  1.00  0.00    -0.203 F 
ATOM    101  F   UNL A   1      46.530  36.392  26.724  1.00  0.00    -0.200 F 
ATOM    102  C   UNL A   1      47.130  35.832  28.939  1.00  0.00     0.200 A 
ATOM    103  F   UNL A   1      47.737  35.222  31.138  1.00  0.00    -0.200 F 
ATOM    104  F   UNL A   1      47.431  37.112  29.196  1.00  0.00    -0.200 F 
ENDBRANCH  71  94
ENDBRANCH  45  46
ENDBRANCH  38  40
ENDBRANCH  37  38
ENDBRANCH  36  37
ENDBRANCH   1  36
TORSDOF 17
ENDMDL
