MODEL 1
REMARK VINA RESULT:     -11.6      0.000      0.000
REMARK SMILES CCCC[C@H]1C[NH2+]CCN1c1ccc(C(=O)OCCOC(=O)c2ccc(-c3c4nc(c(-c5c(F)c(F)c(F)c(F)c5F)c5ccc([nH]5)c(-c5c(F)c(F)c(F)c(F)c5F)c5nc(c(-c6c(F)c(F)c(F)c(F)c6F)c6ccc3[nH]6)C=C5)C=C4)cc2)cc1
REMARK SMILES IDX 18 1 17 2 15 3 16 4 14 5 11 6 12 7 87 8 13 9 86 10 10 11
REMARK SMILES IDX 5 12 6 13 7 14 9 15 8 16 4 19 3 20 2 21 1 22 19 23 20 24
REMARK SMILES IDX 21 25 22 26 23 27 24 28 85 29 25 30 84 31 26 32 27 33 28 34
REMARK SMILES IDX 78 35 29 36 83 37 77 38 79 39 30 40 82 41 76 42 75 43 31 45
REMARK SMILES IDX 63 46 43 47 62 48 44 49 47 50 61 51 80 52 45 53 46 54 60 56
REMARK SMILES IDX 81 57 48 58 32 59 33 60 41 61 34 62 35 63 39 64 42 65 36 66
REMARK SMILES IDX 37 67 40 68 38 69 64 70 65 71 73 72 66 73 67 74 71 75 74 76
REMARK SMILES IDX 68 77 69 78 72 79 70 80 49 81 50 82 58 83 51 84 52 85 56 86
REMARK SMILES IDX 59 87 53 88 54 89 57 90 55 91
REMARK H PARENT 7 17 7 18 79 44 47 55
REMARK Flexibility Score: inf
ROOT
ATOM      1  C   UNL A   1      42.609  20.955  26.129  1.00  0.00     0.275 C 
ENDROOT
BRANCH   1   2
ATOM      2  O   UNL A   1      41.258  21.160  25.663  1.00  0.00    -0.458 OA
BRANCH   2   3
ATOM      3  C   UNL A   1      40.354  21.446  26.630  1.00  0.00     0.338 C 
ATOM      4  O   UNL A   1      40.558  21.464  27.835  1.00  0.00    -0.246 OA
BRANCH   3   5
ATOM      5  C   UNL A   1      39.047  21.830  26.056  1.00  0.00     0.060 A 
ATOM      6  C   UNL A   1      36.449  22.592  25.264  1.00  0.00     0.037 A 
ATOM      7  C   UNL A   1      37.297  23.501  25.891  1.00  0.00     0.027 A 
ATOM      8  C   UNL A   1      36.942  21.303  25.004  1.00  0.00     0.027 A 
ATOM      9  C   UNL A   1      38.562  23.114  26.314  1.00  0.00     0.018 A 
ATOM     10  C   UNL A   1      38.241  20.921  25.376  1.00  0.00     0.018 A 
BRANCH   6  11
ATOM     11  N   UNL A   1      35.165  22.976  24.955  1.00  0.00    -0.357 N 
ATOM     12  C   UNL A   1      34.383  22.297  23.906  1.00  0.00     0.137 C 
ATOM     13  C   UNL A   1      34.036  23.341  22.809  1.00  0.00     0.285 C 
ATOM     14  N   UNL A   1      33.353  24.551  23.320  1.00  0.00    -0.343 N 
ATOM     15  C   UNL A   1      34.625  24.228  25.505  1.00  0.00     0.178 C 
ATOM     16  C   UNL A   1      34.208  25.176  24.356  1.00  0.00     0.282 C 
ATOM     17  H   UNL A   1      32.454  24.292  23.727  1.00  0.00     0.346 HD
ATOM     18  H   UNL A   1      33.194  25.209  22.557  1.00  0.00     0.346 HD
BRANCH  12  19
ATOM     19  C   UNL A   1      33.148  21.633  24.565  1.00  0.00     0.031 C 
BRANCH  19  20
ATOM     20  C   UNL A   1      33.423  20.362  25.376  1.00  0.00     0.002 C 
BRANCH  20  21
ATOM     21  C   UNL A   1      33.309  19.050  24.597  1.00  0.00    -0.003 C 
ATOM     22  C   UNL A   1      32.364  19.140  23.409  1.00  0.00     0.004 C 
ENDBRANCH  20  21
ENDBRANCH  19  20
ENDBRANCH  12  19
ENDBRANCH   6  11
ENDBRANCH   3   5
ENDBRANCH   2   3
ENDBRANCH   1   2
BRANCH   1  23
ATOM     23  C   UNL A   1      43.612  21.821  25.365  1.00  0.00     0.275 C 
BRANCH  23  24
ATOM     24  O   UNL A   1      42.959  22.975  24.802  1.00  0.00    -0.458 OA
BRANCH  24  25
ATOM     25  C   UNL A   1      43.620  24.145  24.949  1.00  0.00     0.338 C 
ATOM     26  O   UNL A   1      44.660  24.486  24.411  1.00  0.00    -0.246 OA
BRANCH  25  27
ATOM     27  C   UNL A   1      42.878  25.057  25.839  1.00  0.00     0.060 A 
ATOM     28  C   UNL A   1      43.205  26.404  25.831  1.00  0.00     0.016 A 
ATOM     29  C   UNL A   1      42.037  24.558  26.829  1.00  0.00     0.016 A 
ATOM     30  C   UNL A   1      42.860  27.214  26.911  1.00  0.00     0.010 A 
ATOM     31  C   UNL A   1      41.549  25.419  27.824  1.00  0.00     0.010 A 
ATOM     32  C   UNL A   1      42.007  26.747  27.921  1.00  0.00    -0.014 A 
BRANCH  32  33
ATOM     33  C   UNL A   1      41.633  27.631  29.073  1.00  0.00     0.031 A 
ATOM     34  C   UNL A   1      42.467  27.654  30.337  1.00  0.00     0.074 A 
ATOM     35  C   UNL A   1      40.561  28.448  28.994  1.00  0.00     0.049 A 
ATOM     36  N   UNL A   1      42.210  28.221  31.492  1.00  0.00    -0.248 NA
ATOM     37  C   UNL A   1      43.746  26.930  30.307  1.00  0.00     0.031 C 
ATOM     38  C   UNL A   1      39.672  28.573  27.837  1.00  0.00     0.029 A 
ATOM     39  N   UNL A   1      40.040  29.345  29.898  1.00  0.00    -0.354 N 
ATOM     40  C   UNL A   1      43.255  27.863  32.338  1.00  0.00     0.074 A 
ATOM     41  C   UNL A   1      44.148  27.026  31.566  1.00  0.00     0.031 C 
ATOM     42  C   UNL A   1      38.767  29.533  28.070  1.00  0.00     0.029 A 
ATOM     43  C   UNL A   1      38.929  30.010  29.436  1.00  0.00     0.049 A 
ATOM     44  H   UNL A   1      40.427  29.494  30.791  1.00  0.00     0.167 HD
ATOM     45  C   UNL A   1      43.452  28.201  33.637  1.00  0.00     0.037 A 
ATOM     46  C   UNL A   1      38.095  30.872  30.049  1.00  0.00     0.037 A 
ATOM     47  C   UNL A   1      42.603  29.093  34.386  1.00  0.00     0.049 A 
ATOM     48  C   UNL A   1      38.323  31.217  31.492  1.00  0.00     0.074 A 
ATOM     49  C   UNL A   1      42.738  29.516  35.699  1.00  0.00     0.029 A 
ATOM     50  N   UNL A   1      41.470  29.716  33.884  1.00  0.00    -0.354 N 
ATOM     51  N   UNL A   1      39.283  30.823  32.294  1.00  0.00    -0.248 NA
ATOM     52  C   UNL A   1      37.340  32.107  32.122  1.00  0.00     0.031 C 
ATOM     53  C   UNL A   1      41.666  30.362  36.002  1.00  0.00     0.029 A 
ATOM     54  C   UNL A   1      40.890  30.508  34.865  1.00  0.00     0.049 A 
ATOM     55  H   UNL A   1      41.129  29.613  32.966  1.00  0.00     0.167 HD
ATOM     56  C   UNL A   1      39.025  31.424  33.517  1.00  0.00     0.074 A 
ATOM     57  C   UNL A   1      37.835  32.232  33.344  1.00  0.00     0.031 C 
ATOM     58  C   UNL A   1      39.707  31.308  34.683  1.00  0.00     0.037 A 
BRANCH  45  59
ATOM     59  C   UNL A   1      44.619  27.579  34.354  1.00  0.00     0.064 A 
ATOM     60  C   UNL A   1      44.541  26.316  34.958  1.00  0.00     0.173 A 
ATOM     61  C   UNL A   1      45.857  28.244  34.390  1.00  0.00     0.173 A 
ATOM     62  F   UNL A   1      43.382  25.640  34.961  1.00  0.00    -0.203 F 
ATOM     63  C   UNL A   1      45.647  25.756  35.597  1.00  0.00     0.198 A 
ATOM     64  C   UNL A   1      46.967  27.668  35.001  1.00  0.00     0.198 A 
ATOM     65  F   UNL A   1      45.993  29.450  33.817  1.00  0.00    -0.203 F 
ATOM     66  F   UNL A   1      45.535  24.569  36.208  1.00  0.00    -0.200 F 
ATOM     67  C   UNL A   1      46.860  26.428  35.611  1.00  0.00     0.200 A 
ATOM     68  F   UNL A   1      48.143  28.312  34.996  1.00  0.00    -0.200 F 
ATOM     69  F   UNL A   1      47.924  25.883  36.216  1.00  0.00    -0.200 F 
ENDBRANCH  45  59
BRANCH  46  70
ATOM     70  C   UNL A   1      36.932  31.430  29.307  1.00  0.00     0.064 A 
ATOM     71  C   UNL A   1      35.841  30.622  28.958  1.00  0.00     0.173 A 
ATOM     72  C   UNL A   1      36.883  32.783  28.937  1.00  0.00     0.173 A 
ATOM     73  F   UNL A   1      35.852  29.315  29.263  1.00  0.00    -0.203 F 
ATOM     74  C   UNL A   1      34.752  31.143  28.262  1.00  0.00     0.198 A 
ATOM     75  C   UNL A   1      35.779  33.312  28.275  1.00  0.00     0.198 A 
ATOM     76  F   UNL A   1      37.901  33.600  29.243  1.00  0.00    -0.203 F 
ATOM     77  F   UNL A   1      33.743  30.338  27.902  1.00  0.00    -0.200 F 
ATOM     78  C   UNL A   1      34.717  32.489  27.930  1.00  0.00     0.200 A 
ATOM     79  F   UNL A   1      35.742  34.617  27.973  1.00  0.00    -0.200 F 
ATOM     80  F   UNL A   1      33.664  32.992  27.273  1.00  0.00    -0.200 F 
ENDBRANCH  46  70
BRANCH  58  81
ATOM     81  C   UNL A   1      39.199  32.102  35.850  1.00  0.00     0.064 A 
ATOM     82  C   UNL A   1      39.586  33.434  36.059  1.00  0.00     0.173 A 
ATOM     83  C   UNL A   1      38.310  31.524  36.769  1.00  0.00     0.173 A 
ATOM     84  F   UNL A   1      40.449  34.026  35.220  1.00  0.00    -0.203 F 
ATOM     85  C   UNL A   1      39.126  34.147  37.162  1.00  0.00     0.198 A 
ATOM     86  C   UNL A   1      37.828  32.251  37.855  1.00  0.00     0.198 A 
ATOM     87  F   UNL A   1      37.905  30.254  36.612  1.00  0.00    -0.203 F 
ATOM     88  F   UNL A   1      39.556  35.400  37.374  1.00  0.00    -0.200 F 
ATOM     89  C   UNL A   1      38.245  33.557  38.056  1.00  0.00     0.200 A 
ATOM     90  F   UNL A   1      36.968  31.682  38.711  1.00  0.00    -0.200 F 
ATOM     91  F   UNL A   1      37.805  34.246  39.118  1.00  0.00    -0.200 F 
ENDBRANCH  58  81
ENDBRANCH  32  33
ENDBRANCH  25  27
ENDBRANCH  24  25
ENDBRANCH  23  24
ENDBRANCH   1  23
TORSDOF 15
ENDMDL
MODEL 2
REMARK VINA RESULT:     -11.6      4.799      9.034
REMARK SMILES CCCC[C@H]1C[NH2+]CCN1c1ccc(C(=O)OCCOC(=O)c2ccc(-c3c4nc(c(-c5c(F)c(F)c(F)c(F)c5F)c5ccc([nH]5)c(-c5c(F)c(F)c(F)c(F)c5F)c5nc(c(-c6c(F)c(F)c(F)c(F)c6F)c6ccc3[nH]6)C=C5)C=C4)cc2)cc1
REMARK SMILES IDX 18 1 17 2 15 3 16 4 14 5 11 6 12 7 87 8 13 9 86 10 10 11
REMARK SMILES IDX 5 12 6 13 7 14 9 15 8 16 4 19 3 20 2 21 1 22 19 23 20 24
REMARK SMILES IDX 21 25 22 26 23 27 24 28 85 29 25 30 84 31 26 32 27 33 28 34
REMARK SMILES IDX 78 35 29 36 83 37 77 38 79 39 30 40 82 41 76 42 75 43 31 45
REMARK SMILES IDX 63 46 43 47 62 48 44 49 47 50 61 51 80 52 45 53 46 54 60 56
REMARK SMILES IDX 81 57 48 58 32 59 33 60 41 61 34 62 35 63 39 64 42 65 36 66
REMARK SMILES IDX 37 67 40 68 38 69 64 70 65 71 73 72 66 73 67 74 71 75 74 76
REMARK SMILES IDX 68 77 69 78 72 79 70 80 49 81 50 82 58 83 51 84 52 85 56 86
REMARK SMILES IDX 59 87 53 88 54 89 57 90 55 91
REMARK H PARENT 7 17 7 18 79 44 47 55
REMARK Flexibility Score: inf
ROOT
ATOM      1  C   UNL A   1      35.870  20.566  25.095  1.00  0.00     0.275 C 
ENDROOT
BRANCH   1   2
ATOM      2  O   UNL A   1      35.729  21.706  25.971  1.00  0.00    -0.458 OA
BRANCH   2   3
ATOM      3  C   UNL A   1      34.500  21.859  26.520  1.00  0.00     0.338 C 
ATOM      4  O   UNL A   1      33.938  21.080  27.277  1.00  0.00    -0.246 OA
BRANCH   3   5
ATOM      5  C   UNL A   1      33.903  23.162  26.158  1.00  0.00     0.060 A 
ATOM      6  C   UNL A   1      32.958  25.779  25.689  1.00  0.00     0.037 A 
ATOM      7  C   UNL A   1      34.256  25.418  25.340  1.00  0.00     0.027 A 
ATOM      8  C   UNL A   1      32.126  24.790  26.241  1.00  0.00     0.027 A 
ATOM      9  C   UNL A   1      34.733  24.140  25.606  1.00  0.00     0.018 A 
ATOM     10  C   UNL A   1      32.581  23.480  26.459  1.00  0.00     0.018 A 
BRANCH   6  11
ATOM     11  N   UNL A   1      32.553  27.081  25.511  1.00  0.00    -0.357 N 
ATOM     12  C   UNL A   1      32.154  27.596  24.189  1.00  0.00     0.137 C 
ATOM     13  C   UNL A   1      33.118  28.754  23.810  1.00  0.00     0.285 C 
ATOM     14  N   UNL A   1      33.201  29.827  24.827  1.00  0.00    -0.343 N 
ATOM     15  C   UNL A   1      32.732  28.055  26.597  1.00  0.00     0.178 C 
ATOM     16  C   UNL A   1      33.617  29.229  26.117  1.00  0.00     0.282 C 
ATOM     17  H   UNL A   1      32.288  30.271  24.933  1.00  0.00     0.346 HD
ATOM     18  H   UNL A   1      33.879  30.531  24.535  1.00  0.00     0.346 HD
BRANCH  12  19
ATOM     19  C   UNL A   1      30.661  28.005  24.250  1.00  0.00     0.031 C 
BRANCH  19  20
ATOM     20  C   UNL A   1      29.914  28.020  22.911  1.00  0.00     0.002 C 
BRANCH  20  21
ATOM     21  C   UNL A   1      29.531  29.405  22.389  1.00  0.00    -0.003 C 
ATOM     22  C   UNL A   1      29.322  30.425  23.497  1.00  0.00     0.004 C 
ENDBRANCH  20  21
ENDBRANCH  19  20
ENDBRANCH  12  19
ENDBRANCH   6  11
ENDBRANCH   3   5
ENDBRANCH   2   3
ENDBRANCH   1   2
BRANCH   1  23
ATOM     23  C   UNL A   1      37.335  20.167  24.913  1.00  0.00     0.275 C 
BRANCH  23  24
ATOM     24  O   UNL A   1      38.201  21.289  25.168  1.00  0.00    -0.458 OA
BRANCH  24  25
ATOM     25  C   UNL A   1      39.236  21.047  26.004  1.00  0.00     0.338 C 
ATOM     26  O   UNL A   1      39.814  19.988  26.186  1.00  0.00    -0.246 OA
BRANCH  25  27
ATOM     27  C   UNL A   1      39.668  22.287  26.675  1.00  0.00     0.060 A 
ATOM     28  C   UNL A   1      39.128  23.492  26.252  1.00  0.00     0.016 A 
ATOM     29  C   UNL A   1      40.755  22.286  27.543  1.00  0.00     0.016 A 
ATOM     30  C   UNL A   1      39.783  24.689  26.533  1.00  0.00     0.010 A 
ATOM     31  C   UNL A   1      41.309  23.505  27.963  1.00  0.00     0.010 A 
ATOM     32  C   UNL A   1      40.876  24.725  27.412  1.00  0.00    -0.014 A 
BRANCH  32  33
ATOM     33  C   UNL A   1      41.566  26.021  27.715  1.00  0.00     0.031 A 
ATOM     34  C   UNL A   1      40.884  27.090  28.543  1.00  0.00     0.074 A 
ATOM     35  C   UNL A   1      42.825  26.249  27.280  1.00  0.00     0.049 A 
ATOM     36  N   UNL A   1      41.251  28.330  28.765  1.00  0.00    -0.248 NA
ATOM     37  C   UNL A   1      39.615  26.726  29.189  1.00  0.00     0.031 C 
ATOM     38  C   UNL A   1      43.636  25.312  26.500  1.00  0.00     0.029 A 
ATOM     39  N   UNL A   1      43.654  27.335  27.443  1.00  0.00    -0.354 N 
ATOM     40  C   UNL A   1      40.229  28.907  29.512  1.00  0.00     0.074 A 
ATOM     41  C   UNL A   1      39.223  27.884  29.702  1.00  0.00     0.031 C 
ATOM     42  C   UNL A   1      44.858  25.827  26.315  1.00  0.00     0.029 A 
ATOM     43  C   UNL A   1      44.886  27.180  26.853  1.00  0.00     0.049 A 
ATOM     44  H   UNL A   1      43.389  28.145  27.936  1.00  0.00     0.167 HD
ATOM     45  C   UNL A   1      40.137  30.171  29.994  1.00  0.00     0.037 A 
ATOM     46  C   UNL A   1      45.913  28.039  26.709  1.00  0.00     0.037 A 
ATOM     47  C   UNL A   1      41.169  31.170  29.870  1.00  0.00     0.049 A 
ATOM     48  C   UNL A   1      45.780  29.438  27.236  1.00  0.00     0.074 A 
ATOM     49  C   UNL A   1      41.177  32.469  30.351  1.00  0.00     0.029 A 
ATOM     50  N   UNL A   1      42.386  30.975  29.233  1.00  0.00    -0.354 N 
ATOM     51  N   UNL A   1      44.783  29.985  27.888  1.00  0.00    -0.248 NA
ATOM     52  C   UNL A   1      46.907  30.347  26.988  1.00  0.00     0.031 C 
ATOM     53  C   UNL A   1      42.380  33.073  29.970  1.00  0.00     0.029 A 
ATOM     54  C   UNL A   1      43.144  32.135  29.297  1.00  0.00     0.049 A 
ATOM     55  H   UNL A   1      42.670  30.138  28.802  1.00  0.00     0.167 HD
ATOM     56  C   UNL A   1      45.165  31.296  28.135  1.00  0.00     0.074 A 
ATOM     57  C   UNL A   1      46.497  31.454  27.589  1.00  0.00     0.031 C 
ATOM     58  C   UNL A   1      44.469  32.283  28.751  1.00  0.00     0.037 A 
BRANCH  45  59
ATOM     59  C   UNL A   1      38.858  30.568  30.682  1.00  0.00     0.064 A 
ATOM     60  C   UNL A   1      38.717  30.537  32.076  1.00  0.00     0.173 A 
ATOM     61  C   UNL A   1      37.771  31.039  29.926  1.00  0.00     0.173 A 
ATOM     62  F   UNL A   1      39.720  30.088  32.847  1.00  0.00    -0.203 F 
ATOM     63  C   UNL A   1      37.527  30.932  32.687  1.00  0.00     0.198 A 
ATOM     64  C   UNL A   1      36.596  31.463  30.541  1.00  0.00     0.198 A 
ATOM     65  F   UNL A   1      37.855  31.103  28.589  1.00  0.00    -0.203 F 
ATOM     66  F   UNL A   1      37.399  30.848  34.018  1.00  0.00    -0.200 F 
ATOM     67  C   UNL A   1      36.471  31.402  31.920  1.00  0.00     0.200 A 
ATOM     68  F   UNL A   1      35.584  31.934  29.797  1.00  0.00    -0.200 F 
ATOM     69  F   UNL A   1      35.333  31.790  32.509  1.00  0.00    -0.200 F 
ENDBRANCH  45  59
BRANCH  46  70
ATOM     70  C   UNL A   1      47.141  27.610  25.987  1.00  0.00     0.064 A 
ATOM     71  C   UNL A   1      48.242  27.086  26.679  1.00  0.00     0.173 A 
ATOM     72  C   UNL A   1      47.238  27.708  24.590  1.00  0.00     0.173 A 
ATOM     73  F   UNL A   1      48.210  26.999  28.017  1.00  0.00    -0.203 F 
ATOM     74  C   UNL A   1      49.393  26.685  26.004  1.00  0.00     0.198 A 
ATOM     75  C   UNL A   1      48.374  27.272  23.912  1.00  0.00     0.198 A 
ATOM     76  F   UNL A   1      46.216  28.205  23.879  1.00  0.00    -0.203 F 
ATOM     77  F   UNL A   1      50.447  26.229  26.694  1.00  0.00    -0.200 F 
ATOM     78  C   UNL A   1      49.454  26.768  24.621  1.00  0.00     0.200 A 
ATOM     79  F   UNL A   1      48.421  27.338  22.575  1.00  0.00    -0.200 F 
ATOM     80  F   UNL A   1      50.556  26.370  23.971  1.00  0.00    -0.200 F 
ENDBRANCH  46  70
BRANCH  58  81
ATOM     81  C   UNL A   1      45.153  33.610  28.894  1.00  0.00     0.064 A 
ATOM     82  C   UNL A   1      45.008  34.621  27.933  1.00  0.00     0.173 A 
ATOM     83  C   UNL A   1      45.959  33.877  30.010  1.00  0.00     0.173 A 
ATOM     84  F   UNL A   1      44.262  34.409  26.838  1.00  0.00    -0.203 F 
ATOM     85  C   UNL A   1      45.671  35.837  28.068  1.00  0.00     0.198 A 
ATOM     86  C   UNL A   1      46.597  35.106  30.157  1.00  0.00     0.198 A 
ATOM     87  F   UNL A   1      46.128  32.945  30.962  1.00  0.00    -0.203 F 
ATOM     88  F   UNL A   1      45.564  36.767  27.107  1.00  0.00    -0.200 F 
ATOM     89  C   UNL A   1      46.461  36.080  29.182  1.00  0.00     0.200 A 
ATOM     90  F   UNL A   1      47.351  35.342  31.240  1.00  0.00    -0.200 F 
ATOM     91  F   UNL A   1      47.100  37.252  29.309  1.00  0.00    -0.200 F 
ENDBRANCH  58  81
ENDBRANCH  32  33
ENDBRANCH  25  27
ENDBRANCH  24  25
ENDBRANCH  23  24
ENDBRANCH   1  23
TORSDOF 15
ENDMDL
MODEL 3
REMARK VINA RESULT:     -11.6      3.527      8.070
REMARK SMILES CCCC[C@H]1C[NH2+]CCN1c1ccc(C(=O)OCCOC(=O)c2ccc(-c3c4nc(c(-c5c(F)c(F)c(F)c(F)c5F)c5ccc([nH]5)c(-c5c(F)c(F)c(F)c(F)c5F)c5nc(c(-c6c(F)c(F)c(F)c(F)c6F)c6ccc3[nH]6)C=C5)C=C4)cc2)cc1
REMARK SMILES IDX 18 1 17 2 15 3 16 4 14 5 11 6 12 7 87 8 13 9 86 10 10 11
REMARK SMILES IDX 5 12 6 13 7 14 9 15 8 16 4 19 3 20 2 21 1 22 19 23 20 24
REMARK SMILES IDX 21 25 22 26 23 27 24 28 85 29 25 30 84 31 26 32 27 33 28 34
REMARK SMILES IDX 78 35 29 36 83 37 77 38 79 39 30 40 82 41 76 42 75 43 31 45
REMARK SMILES IDX 63 46 43 47 62 48 44 49 47 50 61 51 80 52 45 53 46 54 60 56
REMARK SMILES IDX 81 57 48 58 32 59 33 60 41 61 34 62 35 63 39 64 42 65 36 66
REMARK SMILES IDX 37 67 40 68 38 69 64 70 65 71 73 72 66 73 67 74 71 75 74 76
REMARK SMILES IDX 68 77 69 78 72 79 70 80 49 81 50 82 58 83 51 84 52 85 56 86
REMARK SMILES IDX 59 87 53 88 54 89 57 90 55 91
REMARK H PARENT 7 17 7 18 79 44 47 55
REMARK Flexibility Score: inf
ROOT
ATOM      1  C   UNL A   1      31.429  29.357  25.254  1.00  0.00     0.275 C 
ENDROOT
BRANCH   1   2
ATOM      2  O   UNL A   1      32.434  28.447  25.755  1.00  0.00    -0.458 OA
BRANCH   2   3
ATOM      3  C   UNL A   1      31.956  27.403  26.473  1.00  0.00     0.338 C 
ATOM      4  O   UNL A   1      31.030  27.432  27.272  1.00  0.00    -0.246 OA
BRANCH   3   5
ATOM      5  C   UNL A   1      32.646  26.144  26.126  1.00  0.00     0.060 A 
ATOM      6  C   UNL A   1      33.995  23.859  25.165  1.00  0.00     0.037 A 
ATOM      7  C   UNL A   1      34.659  25.076  25.294  1.00  0.00     0.027 A 
ATOM      8  C   UNL A   1      32.650  23.798  25.566  1.00  0.00     0.027 A 
ATOM      9  C   UNL A   1      33.984  26.209  25.732  1.00  0.00     0.018 A 
ATOM     10  C   UNL A   1      31.976  24.924  26.064  1.00  0.00     0.018 A 
BRANCH   6  11
ATOM     11  N   UNL A   1      34.663  22.784  24.627  1.00  0.00    -0.357 N 
ATOM     12  C   UNL A   1      34.647  21.459  25.272  1.00  0.00     0.137 C 
ATOM     13  C   UNL A   1      36.108  21.081  25.639  1.00  0.00     0.285 C 
ATOM     14  N   UNL A   1      37.051  21.136  24.499  1.00  0.00    -0.343 N 
ATOM     15  C   UNL A   1      35.604  22.991  23.517  1.00  0.00     0.178 C 
ATOM     16  C   UNL A   1      37.014  22.499  23.919  1.00  0.00     0.282 C 
ATOM     17  H   UNL A   1      36.775  20.455  23.792  1.00  0.00     0.346 HD
ATOM     18  H   UNL A   1      37.995  20.919  24.818  1.00  0.00     0.346 HD
BRANCH  12  19
ATOM     19  C   UNL A   1      33.951  20.456  24.317  1.00  0.00     0.031 C 
BRANCH  19  20
ATOM     20  C   UNL A   1      33.652  19.071  24.901  1.00  0.00     0.002 C 
BRANCH  20  21
ATOM     21  C   UNL A   1      34.403  17.908  24.250  1.00  0.00    -0.003 C 
ATOM     22  C   UNL A   1      33.486  16.935  23.527  1.00  0.00     0.004 C 
ENDBRANCH  20  21
ENDBRANCH  19  20
ENDBRANCH  12  19
ENDBRANCH   6  11
ENDBRANCH   3   5
ENDBRANCH   2   3
ENDBRANCH   1   2
BRANCH   1  23
ATOM     23  C   UNL A   1      31.523  30.730  25.919  1.00  0.00     0.275 C 
BRANCH  23  24
ATOM     24  O   UNL A   1      32.371  30.673  27.082  1.00  0.00    -0.458 OA
BRANCH  24  25
ATOM     25  C   UNL A   1      33.129  31.771  27.303  1.00  0.00     0.338 C 
ATOM     26  O   UNL A   1      32.783  32.938  27.247  1.00  0.00    -0.246 OA
BRANCH  25  27
ATOM     27  C   UNL A   1      34.496  31.389  27.703  1.00  0.00     0.060 A 
ATOM     28  C   UNL A   1      34.758  30.057  27.982  1.00  0.00     0.016 A 
ATOM     29  C   UNL A   1      35.441  32.359  28.024  1.00  0.00     0.016 A 
ATOM     30  C   UNL A   1      35.866  29.708  28.752  1.00  0.00     0.010 A 
ATOM     31  C   UNL A   1      36.640  31.981  28.649  1.00  0.00     0.010 A 
ATOM     32  C   UNL A   1      36.843  30.658  29.085  1.00  0.00    -0.014 A 
BRANCH  32  33
ATOM     33  C   UNL A   1      38.037  30.268  29.904  1.00  0.00     0.031 A 
ATOM     34  C   UNL A   1      39.120  29.382  29.326  1.00  0.00     0.074 A 
ATOM     35  C   UNL A   1      38.183  30.724  31.167  1.00  0.00     0.049 A 
ATOM     36  N   UNL A   1      40.133  28.806  29.930  1.00  0.00    -0.248 NA
ATOM     37  C   UNL A   1      39.048  29.090  27.887  1.00  0.00     0.031 C 
ATOM     38  C   UNL A   1      37.248  31.611  31.863  1.00  0.00     0.029 A 
ATOM     39  N   UNL A   1      39.181  30.519  32.091  1.00  0.00    -0.354 N 
ATOM     40  C   UNL A   1      40.769  28.033  28.964  1.00  0.00     0.074 A 
ATOM     41  C   UNL A   1      40.026  28.209  27.734  1.00  0.00     0.031 C 
ATOM     42  C   UNL A   1      37.746  31.930  33.065  1.00  0.00     0.029 A 
ATOM     43  C   UNL A   1      38.974  31.176  33.281  1.00  0.00     0.049 A 
ATOM     44  H   UNL A   1      39.969  29.955  31.916  1.00  0.00     0.167 HD
ATOM     45  C   UNL A   1      41.869  27.249  29.089  1.00  0.00     0.037 A 
ATOM     46  C   UNL A   1      39.657  31.145  34.441  1.00  0.00     0.037 A 
ATOM     47  C   UNL A   1      42.652  27.129  30.293  1.00  0.00     0.049 A 
ATOM     48  C   UNL A   1      40.862  30.257  34.561  1.00  0.00     0.074 A 
ATOM     49  C   UNL A   1      43.799  26.381  30.507  1.00  0.00     0.029 A 
ATOM     50  N   UNL A   1      42.382  27.789  31.483  1.00  0.00    -0.354 N 
ATOM     51  N   UNL A   1      41.415  29.487  33.655  1.00  0.00    -0.248 NA
ATOM     52  C   UNL A   1      41.524  30.215  35.871  1.00  0.00     0.031 C 
ATOM     53  C   UNL A   1      44.198  26.556  31.836  1.00  0.00     0.029 A 
ATOM     54  C   UNL A   1      43.331  27.454  32.437  1.00  0.00     0.049 A 
ATOM     55  H   UNL A   1      41.629  28.405  31.628  1.00  0.00     0.167 HD
ATOM     56  C   UNL A   1      42.492  28.878  34.281  1.00  0.00     0.074 A 
ATOM     57  C   UNL A   1      42.533  29.390  35.636  1.00  0.00     0.031 C 
ATOM     58  C   UNL A   1      43.364  27.968  33.782  1.00  0.00     0.037 A 
BRANCH  45  59
ATOM     59  C   UNL A   1      42.283  26.426  27.900  1.00  0.00     0.064 A 
ATOM     60  C   UNL A   1      41.713  25.177  27.618  1.00  0.00     0.173 A 
ATOM     61  C   UNL A   1      43.236  26.928  26.996  1.00  0.00     0.173 A 
ATOM     62  F   UNL A   1      40.804  24.646  28.451  1.00  0.00    -0.203 F 
ATOM     63  C   UNL A   1      42.101  24.447  26.496  1.00  0.00     0.198 A 
ATOM     64  C   UNL A   1      43.598  26.210  25.859  1.00  0.00     0.198 A 
ATOM     65  F   UNL A   1      43.805  28.124  27.208  1.00  0.00    -0.203 F 
ATOM     66  F   UNL A   1      41.577  23.234  26.272  1.00  0.00    -0.200 F 
ATOM     67  C   UNL A   1      43.037  24.967  25.613  1.00  0.00     0.200 A 
ATOM     68  F   UNL A   1      44.489  26.724  24.999  1.00  0.00    -0.200 F 
ATOM     69  F   UNL A   1      43.401  24.268  24.530  1.00  0.00    -0.200 F 
ENDBRANCH  45  59
BRANCH  46  70
ATOM     70  C   UNL A   1      39.184  31.948  35.601  1.00  0.00     0.064 A 
ATOM     71  C   UNL A   1      38.332  31.394  36.565  1.00  0.00     0.173 A 
ATOM     72  C   UNL A   1      39.579  33.284  35.773  1.00  0.00     0.173 A 
ATOM     73  F   UNL A   1      37.902  30.130  36.431  1.00  0.00    -0.203 F 
ATOM     74  C   UNL A   1      37.887  32.146  37.651  1.00  0.00     0.198 A 
ATOM     75  C   UNL A   1      39.165  34.024  36.877  1.00  0.00     0.198 A 
ATOM     76  F   UNL A   1      40.392  33.865  34.878  1.00  0.00    -0.203 F 
ATOM     77  F   UNL A   1      37.037  31.605  38.534  1.00  0.00    -0.200 F 
ATOM     78  C   UNL A   1      38.313  33.456  37.811  1.00  0.00     0.200 A 
ATOM     79  F   UNL A   1      39.593  35.283  37.037  1.00  0.00    -0.200 F 
ATOM     80  F   UNL A   1      37.895  34.174  38.863  1.00  0.00    -0.200 F 
ENDBRANCH  46  70
BRANCH  58  81
ATOM     81  C   UNL A   1      44.454  27.496  34.697  1.00  0.00     0.064 A 
ATOM     82  C   UNL A   1      44.300  26.356  35.499  1.00  0.00     0.173 A 
ATOM     83  C   UNL A   1      45.671  28.190  34.769  1.00  0.00     0.173 A 
ATOM     84  F   UNL A   1      43.148  25.668  35.481  1.00  0.00    -0.203 F 
ATOM     85  C   UNL A   1      45.312  25.947  36.363  1.00  0.00     0.198 A 
ATOM     86  C   UNL A   1      46.693  27.760  35.612  1.00  0.00     0.198 A 
ATOM     87  F   UNL A   1      45.872  29.285  34.019  1.00  0.00    -0.203 F 
ATOM     88  F   UNL A   1      45.120  24.888  37.164  1.00  0.00    -0.200 F 
ATOM     89  C   UNL A   1      46.509  26.646  36.416  1.00  0.00     0.200 A 
ATOM     90  F   UNL A   1      47.853  28.431  35.653  1.00  0.00    -0.200 F 
ATOM     91  F   UNL A   1      47.481  26.252  37.249  1.00  0.00    -0.200 F 
ENDBRANCH  58  81
ENDBRANCH  32  33
ENDBRANCH  25  27
ENDBRANCH  24  25
ENDBRANCH  23  24
ENDBRANCH   1  23
TORSDOF 15
ENDMDL
