MODEL 1
REMARK VINA RESULT:     -11.1      0.000      0.000
REMARK SMILES CC(C)N(CC1CC[NH2+]CC1)S(=O)(=O)[C@H](C)C(=O)OCCOC(=O)c1ccc(-c2c3nc(c(-c4c(F)c(F)c(F)c(F)c4F)c4ccc([nH]4)c(-c4c(F)c(F)c(F)c(F)c4F)c4nc(c(-c5c(F)c(F)c(F)c(F)c5F)c5ccc2[nH]5)C=C4)C=C3)cc1
REMARK SMILES IDX 20 1 19 2 17 3 18 4 15 5 16 6 12 7 13 8 14 9 4 10 2 11 1 12
REMARK SMILES IDX 3 13 5 14 6 15 7 16 11 17 8 18 10 19 9 20 21 23 22 24 23 25
REMARK SMILES IDX 24 26 25 27 26 28 87 29 27 30 86 31 28 32 29 33 30 34 80 35
REMARK SMILES IDX 31 36 85 37 79 38 81 39 32 40 84 41 78 42 77 43 33 45 65 46
REMARK SMILES IDX 45 47 64 48 46 49 49 50 63 51 82 52 47 53 48 54 62 56 83 57
REMARK SMILES IDX 50 58 34 59 35 60 43 61 36 62 37 63 41 64 44 65 38 66 39 67
REMARK SMILES IDX 42 68 40 69 66 70 67 71 75 72 68 73 69 74 73 75 76 76 70 77
REMARK SMILES IDX 71 78 74 79 72 80 51 81 52 82 60 83 53 84 54 85 58 86 61 87
REMARK SMILES IDX 55 88 56 89 59 90 57 91
REMARK H PARENT 9 21 9 22 81 44 49 55
REMARK Flexibility Score: inf
ROOT
ATOM      1  C   UNL A   1      31.936  28.900  24.076  1.00  0.00     0.274 C 
ENDROOT
BRANCH   1   2
ATOM      2  O   UNL A   1      31.364  27.586  24.254  1.00  0.00    -0.461 OA
BRANCH   2   3
ATOM      3  C   UNL A   1      31.316  26.758  23.171  1.00  0.00     0.325 C 
ATOM      4  O   UNL A   1      31.205  27.160  22.020  1.00  0.00    -0.251 OA
BRANCH   3   5
ATOM      5  C   UNL A   1      31.489  25.304  23.543  1.00  0.00     0.230 C 
ATOM      6  C   UNL A   1      30.325  24.372  23.234  1.00  0.00     0.039 C 
BRANCH   5   7
ATOM      7  S   UNL A   1      33.089  24.722  23.012  1.00  0.00     0.227 S 
ATOM      8  O   UNL A   1      33.840  25.838  22.476  1.00  0.00    -0.211 OA
ATOM      9  O   UNL A   1      32.830  23.596  22.138  1.00  0.00    -0.211 OA
BRANCH   7  10
ATOM     10  N   UNL A   1      33.898  24.183  24.392  1.00  0.00    -0.198 NA
BRANCH  10  11
ATOM     11  C   UNL A   1      35.389  23.939  24.353  1.00  0.00     0.066 C 
ATOM     12  C   UNL A   1      36.071  24.100  25.715  1.00  0.00     0.025 C 
ATOM     13  C   UNL A   1      35.761  22.582  23.752  1.00  0.00     0.025 C 
ENDBRANCH  10  11
BRANCH  10  14
ATOM     14  C   UNL A   1      33.305  24.373  25.756  1.00  0.00     0.106 C 
BRANCH  14  15
ATOM     15  C   UNL A   1      32.562  23.168  26.353  1.00  0.00     0.015 C 
ATOM     16  C   UNL A   1      33.241  22.677  27.650  1.00  0.00     0.066 C 
ATOM     17  C   UNL A   1      32.284  22.043  25.334  1.00  0.00     0.066 C 
ATOM     18  C   UNL A   1      34.129  21.453  27.494  1.00  0.00     0.260 C 
ATOM     19  C   UNL A   1      33.167  20.803  25.422  1.00  0.00     0.260 C 
ATOM     20  N   UNL A   1      33.399  20.402  26.801  1.00  0.00    -0.346 N 
ATOM     21  H   UNL A   1      32.504  20.245  27.266  1.00  0.00     0.346 HD
ATOM     22  H   UNL A   1      33.944  19.540  26.818  1.00  0.00     0.346 HD
ENDBRANCH  14  15
ENDBRANCH  10  14
ENDBRANCH   7  10
ENDBRANCH   5   7
ENDBRANCH   3   5
ENDBRANCH   2   3
ENDBRANCH   1   2
BRANCH   1  23
ATOM     23  C   UNL A   1      31.903  29.690  25.387  1.00  0.00     0.275 C 
BRANCH  23  24
ATOM     24  O   UNL A   1      33.216  30.170  25.729  1.00  0.00    -0.458 OA
BRANCH  24  25
ATOM     25  C   UNL A   1      33.256  31.022  26.777  1.00  0.00     0.338 C 
ATOM     26  O   UNL A   1      32.362  31.737  27.195  1.00  0.00    -0.246 OA
BRANCH  25  27
ATOM     27  C   UNL A   1      34.524  30.832  27.488  1.00  0.00     0.060 A 
ATOM     28  C   UNL A   1      34.804  29.562  27.995  1.00  0.00     0.016 A 
ATOM     29  C   UNL A   1      35.402  31.891  27.694  1.00  0.00     0.016 A 
ATOM     30  C   UNL A   1      35.962  29.334  28.720  1.00  0.00     0.010 A 
ATOM     31  C   UNL A   1      36.582  31.658  28.402  1.00  0.00     0.010 A 
ATOM     32  C   UNL A   1      36.866  30.379  28.916  1.00  0.00    -0.014 A 
BRANCH  32  33
ATOM     33  C   UNL A   1      38.111  30.134  29.669  1.00  0.00     0.031 A 
ATOM     34  C   UNL A   1      39.147  29.217  29.099  1.00  0.00     0.074 A 
ATOM     35  C   UNL A   1      38.292  30.732  30.860  1.00  0.00     0.049 A 
ATOM     36  N   UNL A   1      40.211  28.717  29.668  1.00  0.00    -0.248 NA
ATOM     37  C   UNL A   1      38.952  28.798  27.702  1.00  0.00     0.031 C 
ATOM     38  C   UNL A   1      37.374  31.698  31.467  1.00  0.00     0.029 A 
ATOM     39  N   UNL A   1      39.298  30.602  31.781  1.00  0.00    -0.354 N 
ATOM     40  C   UNL A   1      40.796  27.898  28.712  1.00  0.00     0.074 A 
ATOM     41  C   UNL A   1      39.965  27.961  27.529  1.00  0.00     0.031 C 
ATOM     42  C   UNL A   1      37.853  32.064  32.666  1.00  0.00     0.029 A 
ATOM     43  C   UNL A   1      39.069  31.305  32.937  1.00  0.00     0.049 A 
ATOM     44  H   UNL A   1      40.105  30.059  31.628  1.00  0.00     0.167 HD
ATOM     45  C   UNL A   1      41.924  27.160  28.828  1.00  0.00     0.037 A 
ATOM     46  C   UNL A   1      39.737  31.292  34.105  1.00  0.00     0.037 A 
ATOM     47  C   UNL A   1      42.743  27.133  30.012  1.00  0.00     0.049 A 
ATOM     48  C   UNL A   1      40.941  30.400  34.235  1.00  0.00     0.074 A 
ATOM     49  C   UNL A   1      43.920  26.442  30.232  1.00  0.00     0.029 A 
ATOM     50  N   UNL A   1      42.464  27.833  31.177  1.00  0.00    -0.354 N 
ATOM     51  N   UNL A   1      41.486  29.612  33.338  1.00  0.00    -0.248 NA
ATOM     52  C   UNL A   1      41.614  30.381  35.539  1.00  0.00     0.031 C 
ATOM     53  C   UNL A   1      44.325  26.681  31.549  1.00  0.00     0.029 A 
ATOM     54  C   UNL A   1      43.429  27.564  32.134  1.00  0.00     0.049 A 
ATOM     55  H   UNL A   1      41.693  28.433  31.307  1.00  0.00     0.167 HD
ATOM     56  C   UNL A   1      42.572  29.016  33.961  1.00  0.00     0.074 A 
ATOM     57  C   UNL A   1      42.620  29.548  35.309  1.00  0.00     0.031 C 
ATOM     58  C   UNL A   1      43.449  28.108  33.467  1.00  0.00     0.037 A 
BRANCH  45  59
ATOM     59  C   UNL A   1      42.312  26.293  27.668  1.00  0.00     0.064 A 
ATOM     60  C   UNL A   1      43.282  26.689  26.734  1.00  0.00     0.173 A 
ATOM     61  C   UNL A   1      41.722  25.030  27.505  1.00  0.00     0.173 A 
ATOM     62  F   UNL A   1      43.863  27.894  26.834  1.00  0.00    -0.203 F 
ATOM     63  C   UNL A   1      43.629  25.861  25.668  1.00  0.00     0.198 A 
ATOM     64  C   UNL A   1      42.092  24.194  26.455  1.00  0.00     0.198 A 
ATOM     65  F   UNL A   1      40.789  24.603  28.369  1.00  0.00    -0.203 F 
ATOM     66  F   UNL A   1      44.525  26.278  24.763  1.00  0.00    -0.200 F 
ATOM     67  C   UNL A   1      43.040  24.613  25.534  1.00  0.00     0.200 A 
ATOM     68  F   UNL A   1      41.528  22.985  26.333  1.00  0.00    -0.200 F 
ATOM     69  F   UNL A   1      43.381  23.816  24.512  1.00  0.00    -0.200 F 
ENDBRANCH  45  59
BRANCH  46  70
ATOM     70  C   UNL A   1      39.249  32.104  35.249  1.00  0.00     0.064 A 
ATOM     71  C   UNL A   1      39.570  33.462  35.361  1.00  0.00     0.173 A 
ATOM     72  C   UNL A   1      38.447  31.540  36.254  1.00  0.00     0.173 A 
ATOM     73  F   UNL A   1      40.355  34.043  34.441  1.00  0.00    -0.203 F 
ATOM     74  C   UNL A   1      39.120  34.223  36.440  1.00  0.00     0.198 A 
ATOM     75  C   UNL A   1      37.972  32.307  37.315  1.00  0.00     0.198 A 
ATOM     76  F   UNL A   1      38.110  30.242  36.196  1.00  0.00    -0.203 F 
ATOM     77  F   UNL A   1      39.479  35.509  36.545  1.00  0.00    -0.200 F 
ATOM     78  C   UNL A   1      38.314  33.646  37.411  1.00  0.00     0.200 A 
ATOM     79  F   UNL A   1      37.183  31.748  38.243  1.00  0.00    -0.200 F 
ATOM     80  F   UNL A   1      37.878  34.379  38.444  1.00  0.00    -0.200 F 
ENDBRANCH  46  70
BRANCH  58  81
ATOM     81  C   UNL A   1      44.543  27.650  34.384  1.00  0.00     0.064 A 
ATOM     82  C   UNL A   1      45.747  28.360  34.498  1.00  0.00     0.173 A 
ATOM     83  C   UNL A   1      44.363  26.519  35.195  1.00  0.00     0.173 A 
ATOM     84  F   UNL A   1      45.971  29.436  33.730  1.00  0.00    -0.203 F 
ATOM     85  C   UNL A   1      46.739  27.943  35.381  1.00  0.00     0.198 A 
ATOM     86  C   UNL A   1      45.345  26.123  36.097  1.00  0.00     0.198 A 
ATOM     87  F   UNL A   1      43.227  25.811  35.125  1.00  0.00    -0.203 F 
ATOM     88  F   UNL A   1      47.899  28.613  35.446  1.00  0.00    -0.200 F 
ATOM     89  C   UNL A   1      46.533  26.833  36.186  1.00  0.00     0.200 A 
ATOM     90  F   UNL A   1      45.141  25.059  36.884  1.00  0.00    -0.200 F 
ATOM     91  F   UNL A   1      47.486  26.442  37.045  1.00  0.00    -0.200 F 
ENDBRANCH  58  81
ENDBRANCH  32  33
ENDBRANCH  25  27
ENDBRANCH  24  25
ENDBRANCH  23  24
ENDBRANCH   1  23
TORSDOF 16
ENDMDL
MODEL 2
REMARK VINA RESULT:     -11.1      1.063      1.661
REMARK SMILES CC(C)N(CC1CC[NH2+]CC1)S(=O)(=O)[C@H](C)C(=O)OCCOC(=O)c1ccc(-c2c3nc(c(-c4c(F)c(F)c(F)c(F)c4F)c4ccc([nH]4)c(-c4c(F)c(F)c(F)c(F)c4F)c4nc(c(-c5c(F)c(F)c(F)c(F)c5F)c5ccc2[nH]5)C=C4)C=C3)cc1
REMARK SMILES IDX 20 1 19 2 17 3 18 4 15 5 16 6 12 7 13 8 14 9 4 10 2 11 1 12
REMARK SMILES IDX 3 13 5 14 6 15 7 16 11 17 8 18 10 19 9 20 21 23 22 24 23 25
REMARK SMILES IDX 24 26 25 27 26 28 87 29 27 30 86 31 28 32 29 33 30 34 80 35
REMARK SMILES IDX 31 36 85 37 79 38 81 39 32 40 84 41 78 42 77 43 33 45 65 46
REMARK SMILES IDX 45 47 64 48 46 49 49 50 63 51 82 52 47 53 48 54 62 56 83 57
REMARK SMILES IDX 50 58 34 59 35 60 43 61 36 62 37 63 41 64 44 65 38 66 39 67
REMARK SMILES IDX 42 68 40 69 66 70 67 71 75 72 68 73 69 74 73 75 76 76 70 77
REMARK SMILES IDX 71 78 74 79 72 80 51 81 52 82 60 83 53 84 54 85 58 86 61 87
REMARK SMILES IDX 55 88 56 89 59 90 57 91
REMARK H PARENT 9 21 9 22 81 44 49 55
REMARK Flexibility Score: inf
ROOT
ATOM      1  C   UNL A   1      31.349  29.807  24.925  1.00  0.00     0.274 C 
ENDROOT
BRANCH   1   2
ATOM      2  O   UNL A   1      31.668  28.411  24.739  1.00  0.00    -0.461 OA
BRANCH   2   3
ATOM      3  C   UNL A   1      32.766  28.101  23.991  1.00  0.00     0.325 C 
ATOM      4  O   UNL A   1      33.291  28.883  23.208  1.00  0.00    -0.251 OA
BRANCH   3   5
ATOM      5  C   UNL A   1      33.302  26.721  24.289  1.00  0.00     0.230 C 
ATOM      6  C   UNL A   1      32.982  26.141  25.661  1.00  0.00     0.039 C 
BRANCH   5   7
ATOM      7  S   UNL A   1      32.990  25.631  22.912  1.00  0.00     0.227 S 
ATOM      8  O   UNL A   1      34.028  25.819  21.921  1.00  0.00    -0.211 OA
ATOM      9  O   UNL A   1      31.619  25.880  22.514  1.00  0.00    -0.211 OA
BRANCH   7  10
ATOM     10  N   UNL A   1      33.125  24.053  23.495  1.00  0.00    -0.198 NA
BRANCH  10  11
ATOM     11  C   UNL A   1      31.934  23.122  23.452  1.00  0.00     0.066 C 
ATOM     12  C   UNL A   1      32.253  21.749  22.854  1.00  0.00     0.025 C 
ATOM     13  C   UNL A   1      31.262  22.942  24.815  1.00  0.00     0.025 C 
ENDBRANCH  10  11
BRANCH  10  14
ATOM     14  C   UNL A   1      34.463  23.391  23.624  1.00  0.00     0.106 C 
BRANCH  14  15
ATOM     15  C   UNL A   1      34.902  23.007  25.046  1.00  0.00     0.015 C 
ATOM     16  C   UNL A   1      35.941  24.006  25.601  1.00  0.00     0.066 C 
ATOM     17  C   UNL A   1      35.325  21.530  25.188  1.00  0.00     0.066 C 
ATOM     18  C   UNL A   1      37.387  23.541  25.536  1.00  0.00     0.260 C 
ATOM     19  C   UNL A   1      36.821  21.249  25.276  1.00  0.00     0.260 C 
ATOM     20  N   UNL A   1      37.503  22.214  26.124  1.00  0.00    -0.346 N 
ATOM     21  H   UNL A   1      37.077  22.214  27.051  1.00  0.00     0.346 HD
ATOM     22  H   UNL A   1      38.488  21.962  26.204  1.00  0.00     0.346 HD
ENDBRANCH  14  15
ENDBRANCH  10  14
ENDBRANCH   7  10
ENDBRANCH   5   7
ENDBRANCH   3   5
ENDBRANCH   2   3
ENDBRANCH   1   2
BRANCH   1  23
ATOM     23  C   UNL A   1      31.782  30.283  26.314  1.00  0.00     0.275 C 
BRANCH  23  24
ATOM     24  O   UNL A   1      33.195  30.555  26.344  1.00  0.00    -0.458 OA
BRANCH  24  25
ATOM     25  C   UNL A   1      33.556  31.607  27.112  1.00  0.00     0.338 C 
ATOM     26  O   UNL A   1      32.952  32.651  27.284  1.00  0.00    -0.246 OA
BRANCH  25  27
ATOM     27  C   UNL A   1      34.745  31.237  27.886  1.00  0.00     0.060 A 
ATOM     28  C   UNL A   1      35.731  32.207  28.073  1.00  0.00     0.016 A 
ATOM     29  C   UNL A   1      34.912  29.947  28.380  1.00  0.00     0.016 A 
ATOM     30  C   UNL A   1      36.900  31.901  28.751  1.00  0.00     0.010 A 
ATOM     31  C   UNL A   1      36.078  29.643  29.086  1.00  0.00     0.010 A 
ATOM     32  C   UNL A   1      37.073  30.619  29.274  1.00  0.00    -0.014 A 
BRANCH  32  33
ATOM     33  C   UNL A   1      38.308  30.296  30.016  1.00  0.00     0.031 A 
ATOM     34  C   UNL A   1      39.303  29.355  29.415  1.00  0.00     0.074 A 
ATOM     35  C   UNL A   1      38.514  30.846  31.226  1.00  0.00     0.049 A 
ATOM     36  N   UNL A   1      40.345  28.792  29.965  1.00  0.00    -0.248 NA
ATOM     37  C   UNL A   1      39.090  28.991  28.005  1.00  0.00     0.031 C 
ATOM     38  C   UNL A   1      37.638  31.830  31.866  1.00  0.00     0.029 A 
ATOM     39  N   UNL A   1      39.514  30.643  32.141  1.00  0.00    -0.354 N 
ATOM     40  C   UNL A   1      40.895  27.981  28.982  1.00  0.00     0.074 A 
ATOM     41  C   UNL A   1      40.067  28.118  27.803  1.00  0.00     0.031 C 
ATOM     42  C   UNL A   1      38.132  32.135  33.076  1.00  0.00     0.029 A 
ATOM     43  C   UNL A   1      39.315  31.317  33.320  1.00  0.00     0.049 A 
ATOM     44  H   UNL A   1      40.297  30.072  31.969  1.00  0.00     0.167 HD
ATOM     45  C   UNL A   1      41.990  27.193  29.071  1.00  0.00     0.037 A 
ATOM     46  C   UNL A   1      39.982  31.237  34.485  1.00  0.00     0.037 A 
ATOM     47  C   UNL A   1      42.808  27.092  30.252  1.00  0.00     0.049 A 
ATOM     48  C   UNL A   1      41.147  30.291  34.584  1.00  0.00     0.074 A 
ATOM     49  C   UNL A   1      43.955  26.345  30.447  1.00  0.00     0.029 A 
ATOM     50  N   UNL A   1      42.559  27.764  31.441  1.00  0.00    -0.354 N 
ATOM     51  N   UNL A   1      41.658  29.511  33.660  1.00  0.00    -0.248 NA
ATOM     52  C   UNL A   1      41.820  30.201  35.885  1.00  0.00     0.031 C 
ATOM     53  C   UNL A   1      44.370  26.523  31.771  1.00  0.00     0.029 A 
ATOM     54  C   UNL A   1      43.512  27.422  32.386  1.00  0.00     0.049 A 
ATOM     55  H   UNL A   1      41.815  28.391  31.591  1.00  0.00     0.167 HD
ATOM     56  C   UNL A   1      42.718  28.849  34.262  1.00  0.00     0.074 A 
ATOM     57  C   UNL A   1      42.789  29.334  35.626  1.00  0.00     0.031 C 
ATOM     58  C   UNL A   1      43.555  27.922  33.737  1.00  0.00     0.037 A 
BRANCH  45  59
ATOM     59  C   UNL A   1      42.341  26.349  27.882  1.00  0.00     0.064 A 
ATOM     60  C   UNL A   1      43.317  26.740  26.954  1.00  0.00     0.173 A 
ATOM     61  C   UNL A   1      41.707  25.112  27.686  1.00  0.00     0.173 A 
ATOM     62  F   UNL A   1      43.940  27.921  27.086  1.00  0.00    -0.203 F 
ATOM     63  C   UNL A   1      43.629  25.933  25.861  1.00  0.00     0.198 A 
ATOM     64  C   UNL A   1      42.041  24.297  26.608  1.00  0.00     0.198 A 
ATOM     65  F   UNL A   1      40.765  24.691  28.543  1.00  0.00    -0.203 F 
ATOM     66  F   UNL A   1      44.533  26.347  24.962  1.00  0.00    -0.200 F 
ATOM     67  C   UNL A   1      42.997  24.711  25.693  1.00  0.00     0.200 A 
ATOM     68  F   UNL A   1      41.435  23.111  26.453  1.00  0.00    -0.200 F 
ATOM     69  F   UNL A   1      43.304  23.934  24.645  1.00  0.00    -0.200 F 
ENDBRANCH  45  59
BRANCH  46  70
ATOM     70  C   UNL A   1      39.530  32.031  35.657  1.00  0.00     0.064 A 
ATOM     71  C   UNL A   1      40.078  33.289  35.933  1.00  0.00     0.173 A 
ATOM     72  C   UNL A   1      38.535  31.549  36.523  1.00  0.00     0.173 A 
ATOM     73  F   UNL A   1      41.050  33.783  35.151  1.00  0.00    -0.203 F 
ATOM     74  C   UNL A   1      39.660  34.030  37.038  1.00  0.00     0.198 A 
ATOM     75  C   UNL A   1      38.096  32.304  37.608  1.00  0.00     0.198 A 
ATOM     76  F   UNL A   1      37.977  30.349  36.305  1.00  0.00    -0.203 F 
ATOM     77  F   UNL A   1      40.233  35.212  37.304  1.00  0.00    -0.200 F 
ATOM     78  C   UNL A   1      38.663  33.541  37.869  1.00  0.00     0.200 A 
ATOM     79  F   UNL A   1      37.124  31.832  38.400  1.00  0.00    -0.200 F 
ATOM     80  F   UNL A   1      38.259  34.256  38.927  1.00  0.00    -0.200 F 
ENDBRANCH  46  70
BRANCH  58  81
ATOM     81  C   UNL A   1      44.630  27.387  34.636  1.00  0.00     0.064 A 
ATOM     82  C   UNL A   1      45.864  28.039  34.768  1.00  0.00     0.173 A 
ATOM     83  C   UNL A   1      44.401  26.241  35.412  1.00  0.00     0.173 A 
ATOM     84  F   UNL A   1      46.135  29.128  34.033  1.00  0.00    -0.203 F 
ATOM     85  C   UNL A   1      46.838  27.552  35.636  1.00  0.00     0.198 A 
ATOM     86  C   UNL A   1      45.366  25.775  36.299  1.00  0.00     0.198 A 
ATOM     87  F   UNL A   1      43.234  25.586  35.323  1.00  0.00    -0.203 F 
ATOM     88  F   UNL A   1      48.026  28.167  35.718  1.00  0.00    -0.200 F 
ATOM     89  C   UNL A   1      46.584  26.428  36.406  1.00  0.00     0.200 A 
ATOM     90  F   UNL A   1      45.115  24.696  37.054  1.00  0.00    -0.200 F 
ATOM     91  F   UNL A   1      47.519  25.969  37.251  1.00  0.00    -0.200 F 
ENDBRANCH  58  81
ENDBRANCH  32  33
ENDBRANCH  25  27
ENDBRANCH  24  25
ENDBRANCH  23  24
ENDBRANCH   1  23
TORSDOF 16
ENDMDL
MODEL 3
REMARK VINA RESULT:     -11.1      0.355      1.193
REMARK SMILES CC(C)N(CC1CC[NH2+]CC1)S(=O)(=O)[C@H](C)C(=O)OCCOC(=O)c1ccc(-c2c3nc(c(-c4c(F)c(F)c(F)c(F)c4F)c4ccc([nH]4)c(-c4c(F)c(F)c(F)c(F)c4F)c4nc(c(-c5c(F)c(F)c(F)c(F)c5F)c5ccc2[nH]5)C=C4)C=C3)cc1
REMARK SMILES IDX 20 1 19 2 17 3 18 4 15 5 16 6 12 7 13 8 14 9 4 10 2 11 1 12
REMARK SMILES IDX 3 13 5 14 6 15 7 16 11 17 8 18 10 19 9 20 21 23 22 24 23 25
REMARK SMILES IDX 24 26 25 27 26 28 87 29 27 30 86 31 28 32 29 33 30 34 80 35
REMARK SMILES IDX 31 36 85 37 79 38 81 39 32 40 84 41 78 42 77 43 33 45 65 46
REMARK SMILES IDX 45 47 64 48 46 49 49 50 63 51 82 52 47 53 48 54 62 56 83 57
REMARK SMILES IDX 50 58 34 59 35 60 43 61 36 62 37 63 41 64 44 65 38 66 39 67
REMARK SMILES IDX 42 68 40 69 66 70 67 71 75 72 68 73 69 74 73 75 76 76 70 77
REMARK SMILES IDX 71 78 74 79 72 80 51 81 52 82 60 83 53 84 54 85 58 86 61 87
REMARK SMILES IDX 55 88 56 89 59 90 57 91
REMARK H PARENT 9 21 9 22 81 44 49 55
REMARK Flexibility Score: inf
ROOT
ATOM      1  C   UNL A   1      33.131  29.037  24.320  1.00  0.00     0.274 C 
ENDROOT
BRANCH   1   2
ATOM      2  O   UNL A   1      32.897  27.614  24.387  1.00  0.00    -0.461 OA
BRANCH   2   3
ATOM      3  C   UNL A   1      32.088  27.054  23.441  1.00  0.00     0.325 C 
ATOM      4  O   UNL A   1      31.694  27.655  22.450  1.00  0.00    -0.251 OA
BRANCH   3   5
ATOM      5  C   UNL A   1      31.795  25.598  23.715  1.00  0.00     0.230 C 
ATOM      6  C   UNL A   1      30.401  25.098  23.358  1.00  0.00     0.039 C 
BRANCH   5   7
ATOM      7  S   UNL A   1      33.139  24.582  23.129  1.00  0.00     0.227 S 
ATOM      8  O   UNL A   1      34.026  25.396  22.325  1.00  0.00    -0.211 OA
ATOM      9  O   UNL A   1      32.520  23.431  22.503  1.00  0.00    -0.211 OA
BRANCH   7  10
ATOM     10  N   UNL A   1      34.004  24.081  24.488  1.00  0.00    -0.198 NA
BRANCH  10  11
ATOM     11  C   UNL A   1      35.472  23.738  24.371  1.00  0.00     0.066 C 
ATOM     12  C   UNL A   1      36.275  24.052  25.637  1.00  0.00     0.025 C 
ATOM     13  C   UNL A   1      35.720  22.286  23.956  1.00  0.00     0.025 C 
ENDBRANCH  10  11
BRANCH  10  14
ATOM     14  C   UNL A   1      33.518  24.396  25.871  1.00  0.00     0.106 C 
BRANCH  14  15
ATOM     15  C   UNL A   1      32.764  23.275  26.603  1.00  0.00     0.015 C 
ATOM     16  C   UNL A   1      33.664  22.589  27.654  1.00  0.00     0.066 C 
ATOM     17  C   UNL A   1      32.051  22.285  25.658  1.00  0.00     0.066 C 
ATOM     18  C   UNL A   1      34.266  21.260  27.226  1.00  0.00     0.260 C 
ATOM     19  C   UNL A   1      32.709  20.924  25.464  1.00  0.00     0.260 C 
ATOM     20  N   UNL A   1      33.218  20.387  26.717  1.00  0.00    -0.346 N 
ATOM     21  H   UNL A   1      32.461  20.333  27.398  1.00  0.00     0.346 HD
ATOM     22  H   UNL A   1      33.599  19.454  26.559  1.00  0.00     0.346 HD
ENDBRANCH  14  15
ENDBRANCH  10  14
ENDBRANCH   7  10
ENDBRANCH   5   7
ENDBRANCH   3   5
ENDBRANCH   2   3
ENDBRANCH   1   2
BRANCH   1  23
ATOM     23  C   UNL A   1      32.199  29.787  25.276  1.00  0.00     0.275 C 
BRANCH  23  24
ATOM     24  O   UNL A   1      32.754  29.828  26.603  1.00  0.00    -0.458 OA
BRANCH  24  25
ATOM     25  C   UNL A   1      33.224  31.036  26.987  1.00  0.00     0.338 C 
ATOM     26  O   UNL A   1      32.657  32.112  26.926  1.00  0.00    -0.246 OA
BRANCH  25  27
ATOM     27  C   UNL A   1      34.500  30.843  27.681  1.00  0.00     0.060 A 
ATOM     28  C   UNL A   1      34.796  29.567  28.161  1.00  0.00     0.016 A 
ATOM     29  C   UNL A   1      35.372  31.906  27.897  1.00  0.00     0.016 A 
ATOM     30  C   UNL A   1      35.964  29.335  28.870  1.00  0.00     0.010 A 
ATOM     31  C   UNL A   1      36.561  31.669  28.589  1.00  0.00     0.010 A 
ATOM     32  C   UNL A   1      36.861  30.384  29.076  1.00  0.00    -0.014 A 
BRANCH  32  33
ATOM     33  C   UNL A   1      38.116  30.135  29.812  1.00  0.00     0.031 A 
ATOM     34  C   UNL A   1      39.140  29.214  29.228  1.00  0.00     0.074 A 
ATOM     35  C   UNL A   1      38.315  30.734  31.000  1.00  0.00     0.049 A 
ATOM     36  N   UNL A   1      40.211  28.711  29.783  1.00  0.00    -0.248 NA
ATOM     37  C   UNL A   1      38.924  28.794  27.835  1.00  0.00     0.031 C 
ATOM     38  C   UNL A   1      37.410  31.704  31.618  1.00  0.00     0.029 A 
ATOM     39  N   UNL A   1      39.334  30.602  31.907  1.00  0.00    -0.354 N 
ATOM     40  C   UNL A   1      40.779  27.889  28.820  1.00  0.00     0.074 A 
ATOM     41  C   UNL A   1      39.932  27.953  27.649  1.00  0.00     0.031 C 
ATOM     42  C   UNL A   1      37.906  32.069  32.810  1.00  0.00     0.029 A 
ATOM     43  C   UNL A   1      39.124  31.307  33.065  1.00  0.00     0.049 A 
ATOM     44  H   UNL A   1      40.137  30.056  31.743  1.00  0.00     0.167 HD
ATOM     45  C   UNL A   1      41.906  27.148  28.921  1.00  0.00     0.037 A 
ATOM     46  C   UNL A   1      39.808  31.293  34.223  1.00  0.00     0.037 A 
ATOM     47  C   UNL A   1      42.742  27.119  30.093  1.00  0.00     0.049 A 
ATOM     48  C   UNL A   1      41.011  30.397  34.337  1.00  0.00     0.074 A 
ATOM     49  C   UNL A   1      43.919  26.424  30.297  1.00  0.00     0.029 A 
ATOM     50  N   UNL A   1      42.481  27.821  31.261  1.00  0.00    -0.354 N 
ATOM     51  N   UNL A   1      41.540  29.606  33.433  1.00  0.00    -0.248 NA
ATOM     52  C   UNL A   1      41.703  30.377  35.631  1.00  0.00     0.031 C 
ATOM     53  C   UNL A   1      44.344  26.663  31.608  1.00  0.00     0.029 A 
ATOM     54  C   UNL A   1      43.459  27.549  32.204  1.00  0.00     0.049 A 
ATOM     55  H   UNL A   1      41.715  28.424  31.401  1.00  0.00     0.167 HD
ATOM     56  C   UNL A   1      42.633  29.007  34.042  1.00  0.00     0.074 A 
ATOM     57  C   UNL A   1      42.702  29.541  35.388  1.00  0.00     0.031 C 
ATOM     58  C   UNL A   1      43.500  28.096  33.537  1.00  0.00     0.037 A 
BRANCH  45  59
ATOM     59  C   UNL A   1      42.275  26.278  27.756  1.00  0.00     0.064 A 
ATOM     60  C   UNL A   1      43.218  26.678  26.798  1.00  0.00     0.173 A 
ATOM     61  C   UNL A   1      41.693  25.009  27.614  1.00  0.00     0.173 A 
ATOM     62  F   UNL A   1      43.791  27.888  26.877  1.00  0.00    -0.203 F 
ATOM     63  C   UNL A   1      43.548  25.847  25.728  1.00  0.00     0.198 A 
ATOM     64  C   UNL A   1      42.046  24.171  26.559  1.00  0.00     0.198 A 
ATOM     65  F   UNL A   1      40.785  24.578  28.501  1.00  0.00    -0.203 F 
ATOM     66  F   UNL A   1      44.419  26.267  24.800  1.00  0.00    -0.200 F 
ATOM     67  C   UNL A   1      42.968  24.593  25.614  1.00  0.00     0.200 A 
ATOM     68  F   UNL A   1      41.491  22.955  26.457  1.00  0.00    -0.200 F 
ATOM     69  F   UNL A   1      43.292  23.794  24.589  1.00  0.00    -0.200 F 
ENDBRANCH  45  59
BRANCH  46  70
ATOM     70  C   UNL A   1      39.339  32.108  35.373  1.00  0.00     0.064 A 
ATOM     71  C   UNL A   1      39.727  33.445  35.518  1.00  0.00     0.173 A 
ATOM     72  C   UNL A   1      38.489  31.567  36.351  1.00  0.00     0.173 A 
ATOM     73  F   UNL A   1      40.559  34.002  34.624  1.00  0.00    -0.203 F 
ATOM     74  C   UNL A   1      39.295  34.208  36.602  1.00  0.00     0.198 A 
ATOM     75  C   UNL A   1      38.032  32.338  37.417  1.00  0.00     0.198 A 
ATOM     76  F   UNL A   1      38.088  30.290  36.262  1.00  0.00    -0.203 F 
ATOM     77  F   UNL A   1      39.717  35.472  36.739  1.00  0.00    -0.200 F 
ATOM     78  C   UNL A   1      38.441  33.656  37.546  1.00  0.00     0.200 A 
ATOM     79  F   UNL A   1      37.198  31.804  38.319  1.00  0.00    -0.200 F 
ATOM     80  F   UNL A   1      38.022  34.392  38.585  1.00  0.00    -0.200 F 
ENDBRANCH  46  70
BRANCH  58  81
ATOM     81  C   UNL A   1      44.606  27.634  34.438  1.00  0.00     0.064 A 
ATOM     82  C   UNL A   1      44.472  26.484  35.229  1.00  0.00     0.173 A 
ATOM     83  C   UNL A   1      45.829  28.321  34.470  1.00  0.00     0.173 A 
ATOM     84  F   UNL A   1      43.315  25.806  35.245  1.00  0.00    -0.203 F 
ATOM     85  C   UNL A   1      45.521  26.046  36.033  1.00  0.00     0.198 A 
ATOM     86  C   UNL A   1      46.884  27.863  35.252  1.00  0.00     0.198 A 
ATOM     87  F   UNL A   1      46.005  29.423  33.727  1.00  0.00    -0.203 F 
ATOM     88  F   UNL A   1      45.360  24.967  36.812  1.00  0.00    -0.200 F 
ATOM     89  C   UNL A   1      46.728  26.730  36.036  1.00  0.00     0.200 A 
ATOM     90  F   UNL A   1      48.055  28.516  35.244  1.00  0.00    -0.200 F 
ATOM     91  F   UNL A   1      47.741  26.298  36.801  1.00  0.00    -0.200 F 
ENDBRANCH  58  81
ENDBRANCH  32  33
ENDBRANCH  25  27
ENDBRANCH  24  25
ENDBRANCH  23  24
ENDBRANCH   1  23
TORSDOF 16
ENDMDL
