MODEL 1
REMARK VINA RESULT:     -14.0      0.000      0.000
REMARK SMILES O=C(OCCOC(=O)[C@H](c1c[nH]c2ccc(Cl)cc12)[NH+]1CCN(c2ncc(Br)cn2)CC1)c1ccc(-c2c3nc(c(-c4c(F)c(F)c(F)c(F)c4F)c4ccc([nH]4)c(-c4c(F)c(F)c(F)c(F)c4F)c4nc(c(-c5c(F)c(F)c(F)c(F)c5F)c5ccc2[nH]5)C=C4)C=C3)cc1
REMARK SMILES IDX 4 1 3 2 2 3 1 4 33 5 34 6 95 7 35 8 94 9 36 10 37 11 38 12
REMARK SMILES IDX 88 13 39 14 93 15 87 16 89 17 40 18 92 19 86 20 85 21 41 23
REMARK SMILES IDX 73 24 53 25 72 26 54 27 57 28 71 29 90 30 55 31 56 32 70 34
REMARK SMILES IDX 91 35 58 36 42 37 43 38 51 39 44 40 45 41 49 42 52 43 46 44
REMARK SMILES IDX 47 45 50 46 48 47 74 48 75 49 83 50 76 51 77 52 81 53 84 54
REMARK SMILES IDX 78 55 79 56 82 57 80 58 59 59 60 60 68 61 61 62 62 63 66 64
REMARK SMILES IDX 69 65 63 66 64 67 67 68 65 69 5 70 6 71 7 72 8 73 9 74 20 75
REMARK SMILES IDX 21 76 32 77 22 79 31 80 23 81 24 82 25 83 30 84 26 85 29 86
REMARK SMILES IDX 27 87 28 88 10 89 11 90 19 91 12 92 13 93 18 94 14 96 16 97
REMARK SMILES IDX 15 98 17 99
REMARK H PARENT 89 22 57 33 20 78 12 95
REMARK Flexibility Score: inf
ROOT
ATOM      1  C   UNL A   1      31.788  29.581  26.722  1.00  0.00     0.275 C 
ENDROOT
BRANCH   1   2
ATOM      2  O   UNL A   1      32.968  30.346  26.431  1.00  0.00    -0.458 OA
BRANCH   2   3
ATOM      3  C   UNL A   1      33.512  31.326  27.186  1.00  0.00     0.338 C 
ATOM      4  O   UNL A   1      32.865  32.345  27.394  1.00  0.00    -0.246 OA
BRANCH   3   5
ATOM      5  C   UNL A   1      34.857  31.173  27.830  1.00  0.00     0.060 A 
ATOM      6  C   UNL A   1      35.848  32.146  27.972  1.00  0.00     0.016 A 
ATOM      7  C   UNL A   1      35.140  29.905  28.332  1.00  0.00     0.016 A 
ATOM      8  C   UNL A   1      37.050  31.872  28.644  1.00  0.00     0.010 A 
ATOM      9  C   UNL A   1      36.305  29.653  29.057  1.00  0.00     0.010 A 
ATOM     10  C   UNL A   1      37.296  30.617  29.206  1.00  0.00    -0.014 A 
BRANCH  10  11
ATOM     11  C   UNL A   1      38.624  30.292  29.802  1.00  0.00     0.031 A 
ATOM     12  C   UNL A   1      38.947  30.730  31.213  1.00  0.00     0.074 A 
ATOM     13  C   UNL A   1      39.526  29.562  29.110  1.00  0.00     0.049 A 
ATOM     14  N   UNL A   1      39.979  30.428  31.962  1.00  0.00    -0.248 NA
ATOM     15  C   UNL A   1      38.018  31.675  31.859  1.00  0.00     0.031 C 
ATOM     16  C   UNL A   1      39.421  29.191  27.696  1.00  0.00     0.029 A 
ATOM     17  N   UNL A   1      40.690  28.956  29.520  1.00  0.00    -0.354 N 
ATOM     18  C   UNL A   1      39.816  31.158  33.133  1.00  0.00     0.074 A 
ATOM     19  C   UNL A   1      38.685  32.030  32.941  1.00  0.00     0.031 C 
ATOM     20  C   UNL A   1      40.424  28.351  27.383  1.00  0.00     0.029 A 
ATOM     21  C   UNL A   1      41.244  28.129  28.570  1.00  0.00     0.049 A 
ATOM     22  H   UNL A   1      41.090  29.101  30.407  1.00  0.00     0.167 HD
ATOM     23  C   UNL A   1      40.468  31.044  34.313  1.00  0.00     0.037 A 
ATOM     24  C   UNL A   1      42.267  27.253  28.669  1.00  0.00     0.037 A 
ATOM     25  C   UNL A   1      41.535  30.115  34.537  1.00  0.00     0.049 A 
ATOM     26  C   UNL A   1      42.939  27.081  30.011  1.00  0.00     0.074 A 
ATOM     27  C   UNL A   1      42.244  29.869  35.697  1.00  0.00     0.029 A 
ATOM     28  N   UNL A   1      42.028  29.256  33.567  1.00  0.00    -0.354 N 
ATOM     29  N   UNL A   1      42.693  27.687  31.148  1.00  0.00    -0.248 NA
ATOM     30  C   UNL A   1      44.014  26.080  30.091  1.00  0.00     0.031 C 
ATOM     31  C   UNL A   1      43.179  28.865  35.424  1.00  0.00     0.029 A 
ATOM     32  C   UNL A   1      43.026  28.466  34.104  1.00  0.00     0.049 A 
ATOM     33  H   UNL A   1      41.713  29.215  32.635  1.00  0.00     0.167 HD
ATOM     34  C   UNL A   1      43.561  27.130  32.078  1.00  0.00     0.074 A 
ATOM     35  C   UNL A   1      44.316  26.110  31.381  1.00  0.00     0.031 C 
ATOM     36  C   UNL A   1      43.736  27.440  33.386  1.00  0.00     0.037 A 
BRANCH  23  37
ATOM     37  C   UNL A   1      39.972  31.894  35.447  1.00  0.00     0.064 A 
ATOM     38  C   UNL A   1      38.910  31.465  36.264  1.00  0.00     0.173 A 
ATOM     39  C   UNL A   1      40.513  33.162  35.693  1.00  0.00     0.173 A 
ATOM     40  F   UNL A   1      38.341  30.266  36.058  1.00  0.00    -0.203 F 
ATOM     41  C   UNL A   1      38.369  32.299  37.238  1.00  0.00     0.198 A 
ATOM     42  C   UNL A   1      39.994  33.979  36.696  1.00  0.00     0.198 A 
ATOM     43  F   UNL A   1      41.531  33.620  34.949  1.00  0.00    -0.203 F 
ATOM     44  F   UNL A   1      37.297  31.901  37.938  1.00  0.00    -0.200 F 
ATOM     45  C   UNL A   1      38.912  33.554  37.454  1.00  0.00     0.200 A 
ATOM     46  F   UNL A   1      40.524  35.190  36.913  1.00  0.00    -0.200 F 
ATOM     47  F   UNL A   1      38.383  34.362  38.383  1.00  0.00    -0.200 F 
ENDBRANCH  23  37
BRANCH  24  48
ATOM     48  C   UNL A   1      42.675  26.416  27.504  1.00  0.00     0.064 A 
ATOM     49  C   UNL A   1      42.085  25.165  27.266  1.00  0.00     0.173 A 
ATOM     50  C   UNL A   1      43.697  26.822  26.634  1.00  0.00     0.173 A 
ATOM     51  F   UNL A   1      41.109  24.720  28.074  1.00  0.00    -0.203 F 
ATOM     52  C   UNL A   1      42.531  24.335  26.238  1.00  0.00     0.198 A 
ATOM     53  C   UNL A   1      44.121  26.005  25.585  1.00  0.00     0.198 A 
ATOM     54  F   UNL A   1      44.289  28.012  26.804  1.00  0.00    -0.203 F 
ATOM     55  F   UNL A   1      41.993  23.118  26.079  1.00  0.00    -0.200 F 
ATOM     56  C   UNL A   1      43.548  24.757  25.396  1.00  0.00     0.200 A 
ATOM     57  F   UNL A   1      45.093  26.425  24.764  1.00  0.00    -0.200 F 
ATOM     58  F   UNL A   1      43.983  23.957  24.414  1.00  0.00    -0.200 F 
ENDBRANCH  24  48
BRANCH  36  59
ATOM     59  C   UNL A   1      44.753  26.650  34.152  1.00  0.00     0.064 A 
ATOM     60  C   UNL A   1      46.080  27.089  34.272  1.00  0.00     0.173 A 
ATOM     61  C   UNL A   1      44.381  25.476  34.823  1.00  0.00     0.173 A 
ATOM     62  F   UNL A   1      46.484  28.201  33.639  1.00  0.00    -0.203 F 
ATOM     63  C   UNL A   1      47.004  26.365  35.019  1.00  0.00     0.198 A 
ATOM     64  C   UNL A   1      45.300  24.774  35.595  1.00  0.00     0.198 A 
ATOM     65  F   UNL A   1      43.121  25.022  34.746  1.00  0.00    -0.203 F 
ATOM     66  F   UNL A   1      48.278  26.778  35.086  1.00  0.00    -0.200 F 
ATOM     67  C   UNL A   1      46.613  25.214  35.686  1.00  0.00     0.200 A 
ATOM     68  F   UNL A   1      44.916  23.672  36.253  1.00  0.00    -0.200 F 
ATOM     69  F   UNL A   1      47.501  24.527  36.416  1.00  0.00    -0.200 F 
ENDBRANCH  36  59
ENDBRANCH  10  11
ENDBRANCH   3   5
ENDBRANCH   2   3
ENDBRANCH   1   2
BRANCH   1  70
ATOM     70  C   UNL A   1      31.989  28.332  27.581  1.00  0.00     0.274 C 
BRANCH  70  71
ATOM     71  O   UNL A   1      32.447  27.167  26.865  1.00  0.00    -0.457 OA
BRANCH  71  72
ATOM     72  C   UNL A   1      31.500  26.571  26.064  1.00  0.00     0.370 C 
ATOM     73  O   UNL A   1      30.369  26.295  26.457  1.00  0.00    -0.245 OA
BRANCH  72  74
ATOM     74  C   UNL A   1      32.040  26.263  24.626  1.00  0.00     0.328 C 
BRANCH  74  75
ATOM     75  N   UNL A   1      31.370  25.015  24.188  1.00  0.00    -0.316 N 
ATOM     76  C   UNL A   1      31.843  24.384  22.946  1.00  0.00     0.285 C 
ATOM     77  C   UNL A   1      31.082  24.004  25.209  1.00  0.00     0.285 C 
ATOM     78  H   UNL A   1      30.475  25.446  23.960  1.00  0.00     0.349 HD
ATOM     79  C   UNL A   1      33.038  23.421  23.124  1.00  0.00     0.181 C 
ATOM     80  C   UNL A   1      32.175  22.945  25.455  1.00  0.00     0.181 C 
ATOM     81  N   UNL A   1      32.783  22.502  24.217  1.00  0.00    -0.330 N 
BRANCH  81  82
ATOM     82  C   UNL A   1      33.085  21.197  23.984  1.00  0.00     0.225 A 
ATOM     83  N   UNL A   1      34.083  20.659  24.702  1.00  0.00    -0.220 NA
ATOM     84  N   UNL A   1      32.233  20.478  23.233  1.00  0.00    -0.220 NA
ATOM     85  C   UNL A   1      34.164  19.314  24.713  1.00  0.00     0.132 A 
ATOM     86  C   UNL A   1      32.392  19.140  23.229  1.00  0.00     0.132 A 
ATOM     87  C   UNL A   1      33.333  18.495  23.990  1.00  0.00     0.054 A 
ATOM     88  Br  UNL A   1      33.445  16.625  24.069  1.00  0.00    -0.047 Br
ENDBRANCH  81  82
ENDBRANCH  74  75
BRANCH  74  89
ATOM     89  C   UNL A   1      31.806  27.429  23.682  1.00  0.00     0.046 A 
ATOM     90  C   UNL A   1      32.787  28.114  22.978  1.00  0.00     0.094 A 
ATOM     91  C   UNL A   1      30.556  28.067  23.331  1.00  0.00     0.011 A 
ATOM     92  N   UNL A   1      32.210  29.123  22.263  1.00  0.00    -0.361 N 
ATOM     93  C   UNL A   1      30.847  29.101  22.433  1.00  0.00     0.046 A 
ATOM     94  C   UNL A   1      29.197  27.848  23.660  1.00  0.00     0.031 A 
ATOM     95  H   UNL A   1      32.699  29.771  21.706  1.00  0.00     0.166 HD
ATOM     96  C   UNL A   1      29.865  29.902  21.834  1.00  0.00     0.028 A 
ATOM     97  C   UNL A   1      28.206  28.641  23.064  1.00  0.00     0.041 A 
ATOM     98  C   UNL A   1      28.531  29.648  22.160  1.00  0.00     0.022 A 
ATOM     99  Cl  UNL A   1      26.549  28.308  23.392  1.00  0.00    -0.084 Cl
ENDBRANCH  74  89
ENDBRANCH  72  74
ENDBRANCH  71  72
ENDBRANCH  70  71
ENDBRANCH   1  70
TORSDOF 14
ENDMDL
MODEL 2
REMARK VINA RESULT:     -14.0      0.237      1.903
REMARK SMILES O=C(OCCOC(=O)[C@H](c1c[nH]c2ccc(Cl)cc12)[NH+]1CCN(c2ncc(Br)cn2)CC1)c1ccc(-c2c3nc(c(-c4c(F)c(F)c(F)c(F)c4F)c4ccc([nH]4)c(-c4c(F)c(F)c(F)c(F)c4F)c4nc(c(-c5c(F)c(F)c(F)c(F)c5F)c5ccc2[nH]5)C=C4)C=C3)cc1
REMARK SMILES IDX 4 1 3 2 2 3 1 4 33 5 34 6 95 7 35 8 94 9 36 10 37 11 38 12
REMARK SMILES IDX 88 13 39 14 93 15 87 16 89 17 40 18 92 19 86 20 85 21 41 23
REMARK SMILES IDX 73 24 53 25 72 26 54 27 57 28 71 29 90 30 55 31 56 32 70 34
REMARK SMILES IDX 91 35 58 36 42 37 43 38 51 39 44 40 45 41 49 42 52 43 46 44
REMARK SMILES IDX 47 45 50 46 48 47 74 48 75 49 83 50 76 51 77 52 81 53 84 54
REMARK SMILES IDX 78 55 79 56 82 57 80 58 59 59 60 60 68 61 61 62 62 63 66 64
REMARK SMILES IDX 69 65 63 66 64 67 67 68 65 69 5 70 6 71 7 72 8 73 9 74 20 75
REMARK SMILES IDX 21 76 32 77 22 79 31 80 23 81 24 82 25 83 30 84 26 85 29 86
REMARK SMILES IDX 27 87 28 88 10 89 11 90 19 91 12 92 13 93 18 94 14 96 16 97
REMARK SMILES IDX 15 98 17 99
REMARK H PARENT 89 22 57 33 20 78 12 95
REMARK Flexibility Score: inf
ROOT
ATOM      1  C   UNL A   1      31.776  29.649  26.604  1.00  0.00     0.275 C 
ENDROOT
BRANCH   1   2
ATOM      2  O   UNL A   1      33.021  30.333  26.394  1.00  0.00    -0.458 OA
BRANCH   2   3
ATOM      3  C   UNL A   1      33.543  31.327  27.145  1.00  0.00     0.338 C 
ATOM      4  O   UNL A   1      32.892  32.350  27.314  1.00  0.00    -0.246 OA
BRANCH   3   5
ATOM      5  C   UNL A   1      34.868  31.185  27.832  1.00  0.00     0.060 A 
ATOM      6  C   UNL A   1      35.852  32.162  27.994  1.00  0.00     0.016 A 
ATOM      7  C   UNL A   1      35.138  29.924  28.359  1.00  0.00     0.016 A 
ATOM      8  C   UNL A   1      37.033  31.899  28.706  1.00  0.00     0.010 A 
ATOM      9  C   UNL A   1      36.281  29.684  29.122  1.00  0.00     0.010 A 
ATOM     10  C   UNL A   1      37.265  30.652  29.290  1.00  0.00    -0.014 A 
BRANCH  10  11
ATOM     11  C   UNL A   1      38.574  30.337  29.931  1.00  0.00     0.031 A 
ATOM     12  C   UNL A   1      38.849  30.786  31.348  1.00  0.00     0.074 A 
ATOM     13  C   UNL A   1      39.501  29.607  29.273  1.00  0.00     0.049 A 
ATOM     14  N   UNL A   1      39.857  30.493  32.133  1.00  0.00    -0.248 NA
ATOM     15  C   UNL A   1      37.895  31.729  31.958  1.00  0.00     0.031 C 
ATOM     16  C   UNL A   1      39.444  29.228  27.859  1.00  0.00     0.029 A 
ATOM     17  N   UNL A   1      40.655  29.011  29.724  1.00  0.00    -0.354 N 
ATOM     18  C   UNL A   1      39.653  31.230  33.293  1.00  0.00     0.074 A 
ATOM     19  C   UNL A   1      38.525  32.095  33.059  1.00  0.00     0.031 C 
ATOM     20  C   UNL A   1      40.461  28.391  27.584  1.00  0.00     0.029 A 
ATOM     21  C   UNL A   1      41.244  28.180  28.798  1.00  0.00     0.049 A 
ATOM     22  H   UNL A   1      41.025  29.163  30.622  1.00  0.00     0.167 HD
ATOM     23  C   UNL A   1      40.267  31.126  34.494  1.00  0.00     0.037 A 
ATOM     24  C   UNL A   1      42.267  27.311  28.935  1.00  0.00     0.037 A 
ATOM     25  C   UNL A   1      41.331  30.204  34.759  1.00  0.00     0.049 A 
ATOM     26  C   UNL A   1      42.896  27.150  30.299  1.00  0.00     0.074 A 
ATOM     27  C   UNL A   1      42.004  29.969  35.942  1.00  0.00     0.029 A 
ATOM     28  N   UNL A   1      41.860  29.342  33.810  1.00  0.00    -0.354 N 
ATOM     29  N   UNL A   1      42.610  27.762  31.424  1.00  0.00    -0.248 NA
ATOM     30  C   UNL A   1      43.972  26.155  30.420  1.00  0.00     0.031 C 
ATOM     31  C   UNL A   1      42.952  28.968  35.706  1.00  0.00     0.029 A 
ATOM     32  C   UNL A   1      42.844  28.561  34.384  1.00  0.00     0.049 A 
ATOM     33  H   UNL A   1      41.575  29.293  32.869  1.00  0.00     0.167 HD
ATOM     34  C   UNL A   1      43.451  27.215  32.385  1.00  0.00     0.074 A 
ATOM     35  C   UNL A   1      44.232  26.194  31.719  1.00  0.00     0.031 C 
ATOM     36  C   UNL A   1      43.582  27.534  33.696  1.00  0.00     0.037 A 
BRANCH  23  37
ATOM     37  C   UNL A   1      39.730  31.981  35.606  1.00  0.00     0.064 A 
ATOM     38  C   UNL A   1      40.309  33.228  35.904  1.00  0.00     0.173 A 
ATOM     39  C   UNL A   1      38.676  31.540  36.416  1.00  0.00     0.173 A 
ATOM     40  F   UNL A   1      41.336  33.688  35.173  1.00  0.00    -0.203 F 
ATOM     41  C   UNL A   1      39.894  33.969  37.007  1.00  0.00     0.198 A 
ATOM     42  C   UNL A   1      38.237  32.303  37.497  1.00  0.00     0.198 A 
ATOM     43  F   UNL A   1      38.084  30.361  36.174  1.00  0.00    -0.203 F 
ATOM     44  F   UNL A   1      40.525  35.108  37.322  1.00  0.00    -0.200 F 
ATOM     45  C   UNL A   1      38.857  33.506  37.801  1.00  0.00     0.200 A 
ATOM     46  F   UNL A   1      37.228  31.862  38.260  1.00  0.00    -0.200 F 
ATOM     47  F   UNL A   1      38.467  34.212  38.871  1.00  0.00    -0.200 F 
ENDBRANCH  23  37
BRANCH  24  48
ATOM     48  C   UNL A   1      42.716  26.469  27.790  1.00  0.00     0.064 A 
ATOM     49  C   UNL A   1      43.719  26.911  26.912  1.00  0.00     0.173 A 
ATOM     50  C   UNL A   1      42.122  25.229  27.515  1.00  0.00     0.173 A 
ATOM     51  F   UNL A   1      44.315  28.096  27.119  1.00  0.00    -0.203 F 
ATOM     52  C   UNL A   1      44.073  26.173  25.783  1.00  0.00     0.198 A 
ATOM     53  C   UNL A   1      42.500  24.475  26.403  1.00  0.00     0.198 A 
ATOM     54  F   UNL A   1      41.168  24.749  28.325  1.00  0.00    -0.203 F 
ATOM     55  F   UNL A   1      44.985  26.655  24.928  1.00  0.00    -0.200 F 
ATOM     56  C   UNL A   1      43.464  24.954  25.530  1.00  0.00     0.200 A 
ATOM     57  F   UNL A   1      41.920  23.289  26.172  1.00  0.00    -0.200 F 
ATOM     58  F   UNL A   1      43.798  24.248  24.441  1.00  0.00    -0.200 F 
ENDBRANCH  24  48
BRANCH  36  59
ATOM     59  C   UNL A   1      44.578  26.753  34.499  1.00  0.00     0.064 A 
ATOM     60  C   UNL A   1      44.231  25.543  35.117  1.00  0.00     0.173 A 
ATOM     61  C   UNL A   1      45.907  27.189  34.597  1.00  0.00     0.173 A 
ATOM     62  F   UNL A   1      42.968  25.092  35.058  1.00  0.00    -0.203 F 
ATOM     63  C   UNL A   1      45.176  24.810  35.826  1.00  0.00     0.198 A 
ATOM     64  C   UNL A   1      46.856  26.437  35.281  1.00  0.00     0.198 A 
ATOM     65  F   UNL A   1      46.288  28.336  34.014  1.00  0.00    -0.203 F 
ATOM     66  F   UNL A   1      44.814  23.678  36.447  1.00  0.00    -0.200 F 
ATOM     67  C   UNL A   1      46.488  25.251  35.901  1.00  0.00     0.200 A 
ATOM     68  F   UNL A   1      48.127  26.856  35.337  1.00  0.00    -0.200 F 
ATOM     69  F   UNL A   1      47.400  24.536  36.573  1.00  0.00    -0.200 F 
ENDBRANCH  36  59
ENDBRANCH  10  11
ENDBRANCH   3   5
ENDBRANCH   2   3
ENDBRANCH   1   2
BRANCH   1  70
ATOM     70  C   UNL A   1      31.828  28.421  27.517  1.00  0.00     0.274 C 
BRANCH  70  71
ATOM     71  O   UNL A   1      32.345  27.225  26.900  1.00  0.00    -0.457 OA
BRANCH  71  72
ATOM     72  C   UNL A   1      31.443  26.543  26.115  1.00  0.00     0.370 C 
ATOM     73  O   UNL A   1      30.331  26.203  26.514  1.00  0.00    -0.245 OA
BRANCH  72  74
ATOM     74  C   UNL A   1      32.008  26.229  24.688  1.00  0.00     0.328 C 
BRANCH  74  75
ATOM     75  N   UNL A   1      31.341  24.983  24.240  1.00  0.00    -0.316 N 
ATOM     76  C   UNL A   1      31.808  24.367  22.989  1.00  0.00     0.285 C 
ATOM     77  C   UNL A   1      31.061  23.960  25.252  1.00  0.00     0.285 C 
ATOM     78  H   UNL A   1      30.442  25.413  24.022  1.00  0.00     0.349 HD
ATOM     79  C   UNL A   1      33.007  23.407  23.149  1.00  0.00     0.181 C 
ATOM     80  C   UNL A   1      32.160  22.903  25.480  1.00  0.00     0.181 C 
ATOM     81  N   UNL A   1      32.762  22.475  24.234  1.00  0.00    -0.330 N 
BRANCH  81  82
ATOM     82  C   UNL A   1      33.067  21.174  23.985  1.00  0.00     0.225 A 
ATOM     83  N   UNL A   1      34.064  20.629  24.699  1.00  0.00    -0.220 NA
ATOM     84  N   UNL A   1      32.220  20.463  23.221  1.00  0.00    -0.220 NA
ATOM     85  C   UNL A   1      34.148  19.283  24.693  1.00  0.00     0.132 A 
ATOM     86  C   UNL A   1      32.382  19.126  23.200  1.00  0.00     0.132 A 
ATOM     87  C   UNL A   1      33.320  18.472  23.956  1.00  0.00     0.054 A 
ATOM     88  Br  UNL A   1      33.436  16.602  24.010  1.00  0.00    -0.047 Br
ENDBRANCH  81  82
ENDBRANCH  74  75
BRANCH  74  89
ATOM     89  C   UNL A   1      31.798  27.394  23.738  1.00  0.00     0.046 A 
ATOM     90  C   UNL A   1      32.795  28.067  23.045  1.00  0.00     0.094 A 
ATOM     91  C   UNL A   1      30.559  28.042  23.368  1.00  0.00     0.011 A 
ATOM     92  N   UNL A   1      32.237  29.079  22.319  1.00  0.00    -0.361 N 
ATOM     93  C   UNL A   1      30.872  29.071  22.470  1.00  0.00     0.046 A 
ATOM     94  C   UNL A   1      29.194  27.836  23.678  1.00  0.00     0.031 A 
ATOM     95  H   UNL A   1      32.740  29.721  21.767  1.00  0.00     0.166 HD
ATOM     96  C   UNL A   1      29.905  29.878  21.854  1.00  0.00     0.028 A 
ATOM     97  C   UNL A   1      28.218  28.636  23.066  1.00  0.00     0.041 A 
ATOM     98  C   UNL A   1      28.565  29.637  22.163  1.00  0.00     0.022 A 
ATOM     99  Cl  UNL A   1      26.554  28.320  23.371  1.00  0.00    -0.084 Cl
ENDBRANCH  74  89
ENDBRANCH  72  74
ENDBRANCH  71  72
ENDBRANCH  70  71
ENDBRANCH   1  70
TORSDOF 14
ENDMDL
MODEL 3
REMARK VINA RESULT:     -13.9      0.549      1.411
REMARK SMILES O=C(OCCOC(=O)[C@H](c1c[nH]c2ccc(Cl)cc12)[NH+]1CCN(c2ncc(Br)cn2)CC1)c1ccc(-c2c3nc(c(-c4c(F)c(F)c(F)c(F)c4F)c4ccc([nH]4)c(-c4c(F)c(F)c(F)c(F)c4F)c4nc(c(-c5c(F)c(F)c(F)c(F)c5F)c5ccc2[nH]5)C=C4)C=C3)cc1
REMARK SMILES IDX 4 1 3 2 2 3 1 4 33 5 34 6 95 7 35 8 94 9 36 10 37 11 38 12
REMARK SMILES IDX 88 13 39 14 93 15 87 16 89 17 40 18 92 19 86 20 85 21 41 23
REMARK SMILES IDX 73 24 53 25 72 26 54 27 57 28 71 29 90 30 55 31 56 32 70 34
REMARK SMILES IDX 91 35 58 36 42 37 43 38 51 39 44 40 45 41 49 42 52 43 46 44
REMARK SMILES IDX 47 45 50 46 48 47 74 48 75 49 83 50 76 51 77 52 81 53 84 54
REMARK SMILES IDX 78 55 79 56 82 57 80 58 59 59 60 60 68 61 61 62 62 63 66 64
REMARK SMILES IDX 69 65 63 66 64 67 67 68 65 69 5 70 6 71 7 72 8 73 9 74 20 75
REMARK SMILES IDX 21 76 32 77 22 79 31 80 23 81 24 82 25 83 30 84 26 85 29 86
REMARK SMILES IDX 27 87 28 88 10 89 11 90 19 91 12 92 13 93 18 94 14 96 16 97
REMARK SMILES IDX 15 98 17 99
REMARK H PARENT 89 22 57 33 20 78 12 95
REMARK Flexibility Score: inf
ROOT
ATOM      1  C   UNL A   1      31.703  30.112  26.252  1.00  0.00     0.275 C 
ENDROOT
BRANCH   1   2
ATOM      2  O   UNL A   1      32.936  30.842  26.162  1.00  0.00    -0.458 OA
BRANCH   2   3
ATOM      3  C   UNL A   1      33.565  31.508  27.155  1.00  0.00     0.338 C 
ATOM      4  O   UNL A   1      33.036  32.503  27.633  1.00  0.00    -0.246 OA
BRANCH   3   5
ATOM      5  C   UNL A   1      34.861  31.022  27.733  1.00  0.00     0.060 A 
ATOM      6  C   UNL A   1      35.216  29.708  28.040  1.00  0.00     0.016 A 
ATOM      7  C   UNL A   1      35.807  32.010  27.997  1.00  0.00     0.016 A 
ATOM      8  C   UNL A   1      36.491  29.392  28.537  1.00  0.00     0.010 A 
ATOM      9  C   UNL A   1      37.094  31.688  28.427  1.00  0.00     0.010 A 
ATOM     10  C   UNL A   1      37.458  30.381  28.732  1.00  0.00    -0.014 A 
BRANCH  10  11
ATOM     11  C   UNL A   1      38.761  30.061  29.382  1.00  0.00     0.031 A 
ATOM     12  C   UNL A   1      39.027  30.509  30.802  1.00  0.00     0.074 A 
ATOM     13  C   UNL A   1      39.689  29.325  28.732  1.00  0.00     0.049 A 
ATOM     14  N   UNL A   1      40.029  30.212  31.594  1.00  0.00    -0.248 NA
ATOM     15  C   UNL A   1      38.074  31.459  31.404  1.00  0.00     0.031 C 
ATOM     16  C   UNL A   1      39.640  28.945  27.318  1.00  0.00     0.029 A 
ATOM     17  N   UNL A   1      40.836  28.723  29.192  1.00  0.00    -0.354 N 
ATOM     18  C   UNL A   1      39.820  30.951  32.752  1.00  0.00     0.074 A 
ATOM     19  C   UNL A   1      38.698  31.821  32.509  1.00  0.00     0.031 C 
ATOM     20  C   UNL A   1      40.654  28.103  27.051  1.00  0.00     0.029 A 
ATOM     21  C   UNL A   1      41.427  27.889  28.271  1.00  0.00     0.049 A 
ATOM     22  H   UNL A   1      41.200  28.874  30.093  1.00  0.00     0.167 HD
ATOM     23  C   UNL A   1      40.425  30.845  33.957  1.00  0.00     0.037 A 
ATOM     24  C   UNL A   1      42.444  27.014  28.417  1.00  0.00     0.037 A 
ATOM     25  C   UNL A   1      41.481  29.918  34.230  1.00  0.00     0.049 A 
ATOM     26  C   UNL A   1      43.063  26.851  29.785  1.00  0.00     0.074 A 
ATOM     27  C   UNL A   1      42.145  29.681  35.419  1.00  0.00     0.029 A 
ATOM     28  N   UNL A   1      42.013  29.052  33.287  1.00  0.00    -0.354 N 
ATOM     29  N   UNL A   1      42.772  27.466  30.908  1.00  0.00    -0.248 NA
ATOM     30  C   UNL A   1      44.133  25.851  29.915  1.00  0.00     0.031 C 
ATOM     31  C   UNL A   1      43.089  28.675  35.190  1.00  0.00     0.029 A 
ATOM     32  C   UNL A   1      42.989  28.266  33.869  1.00  0.00     0.049 A 
ATOM     33  H   UNL A   1      41.735  29.004  32.343  1.00  0.00     0.167 HD
ATOM     34  C   UNL A   1      43.603  26.915  31.875  1.00  0.00     0.074 A 
ATOM     35  C   UNL A   1      44.384  25.890  31.216  1.00  0.00     0.031 C 
ATOM     36  C   UNL A   1      43.726  27.235  33.187  1.00  0.00     0.037 A 
BRANCH  23  37
ATOM     37  C   UNL A   1      39.885  31.704  35.065  1.00  0.00     0.064 A 
ATOM     38  C   UNL A   1      40.454  32.958  35.352  1.00  0.00     0.173 A 
ATOM     39  C   UNL A   1      38.836  31.261  35.880  1.00  0.00     0.173 A 
ATOM     40  F   UNL A   1      41.475  33.421  34.614  1.00  0.00    -0.203 F 
ATOM     41  C   UNL A   1      40.036  33.703  36.450  1.00  0.00     0.198 A 
ATOM     42  C   UNL A   1      38.394  32.028  36.957  1.00  0.00     0.198 A 
ATOM     43  F   UNL A   1      38.253  30.075  35.649  1.00  0.00    -0.203 F 
ATOM     44  F   UNL A   1      40.659  34.850  36.755  1.00  0.00    -0.200 F 
ATOM     45  C   UNL A   1      39.006  33.239  37.251  1.00  0.00     0.200 A 
ATOM     46  F   UNL A   1      37.391  31.585  37.727  1.00  0.00    -0.200 F 
ATOM     47  F   UNL A   1      38.613  33.949  38.316  1.00  0.00    -0.200 F 
ENDBRANCH  23  37
BRANCH  24  48
ATOM     48  C   UNL A   1      42.898  26.168  27.275  1.00  0.00     0.064 A 
ATOM     49  C   UNL A   1      42.321  24.913  27.026  1.00  0.00     0.173 A 
ATOM     50  C   UNL A   1      43.950  26.570  26.440  1.00  0.00     0.173 A 
ATOM     51  F   UNL A   1      41.318  24.471  27.801  1.00  0.00    -0.203 F 
ATOM     52  C   UNL A   1      42.808  24.076  26.022  1.00  0.00     0.198 A 
ATOM     53  C   UNL A   1      44.415  25.746  25.414  1.00  0.00     0.198 A 
ATOM     54  F   UNL A   1      44.531  27.765  26.621  1.00  0.00    -0.203 F 
ATOM     55  F   UNL A   1      42.280  22.855  25.855  1.00  0.00    -0.200 F 
ATOM     56  C   UNL A   1      43.854  24.495  25.215  1.00  0.00     0.200 A 
ATOM     57  F   UNL A   1      45.415  26.162  24.625  1.00  0.00    -0.200 F 
ATOM     58  F   UNL A   1      44.328  23.688  24.256  1.00  0.00    -0.200 F 
ENDBRANCH  24  48
BRANCH  36  59
ATOM     59  C   UNL A   1      44.712  26.450  33.998  1.00  0.00     0.064 A 
ATOM     60  C   UNL A   1      46.031  26.892  34.171  1.00  0.00     0.173 A 
ATOM     61  C   UNL A   1      44.314  25.279  34.659  1.00  0.00     0.173 A 
ATOM     62  F   UNL A   1      46.460  28.001  33.549  1.00  0.00    -0.203 F 
ATOM     63  C   UNL A   1      46.925  26.174  34.959  1.00  0.00     0.198 A 
ATOM     64  C   UNL A   1      45.202  24.582  35.471  1.00  0.00     0.198 A 
ATOM     65  F   UNL A   1      43.058  24.823  34.532  1.00  0.00    -0.203 F 
ATOM     66  F   UNL A   1      48.194  26.589  35.076  1.00  0.00    -0.200 F 
ATOM     67  C   UNL A   1      46.508  25.025  35.615  1.00  0.00     0.200 A 
ATOM     68  F   UNL A   1      44.792  23.483  36.119  1.00  0.00    -0.200 F 
ATOM     69  F   UNL A   1      47.367  24.343  36.384  1.00  0.00    -0.200 F 
ENDBRANCH  36  59
ENDBRANCH  10  11
ENDBRANCH   3   5
ENDBRANCH   2   3
ENDBRANCH   1   2
BRANCH   1  70
ATOM     70  C   UNL A   1      31.745  28.816  27.065  1.00  0.00     0.274 C 
BRANCH  70  71
ATOM     71  O   UNL A   1      31.478  27.616  26.310  1.00  0.00    -0.457 OA
BRANCH  71  72
ATOM     72  C   UNL A   1      32.580  27.060  25.701  1.00  0.00     0.370 C 
ATOM     73  O   UNL A   1      33.672  26.958  26.255  1.00  0.00    -0.245 OA
BRANCH  72  74
ATOM     74  C   UNL A   1      32.286  26.612  24.228  1.00  0.00     0.328 C 
BRANCH  74  75
ATOM     75  N   UNL A   1      31.333  25.479  24.321  1.00  0.00    -0.316 N 
ATOM     76  C   UNL A   1      31.186  24.611  23.143  1.00  0.00     0.285 C 
ATOM     77  C   UNL A   1      31.334  24.689  25.555  1.00  0.00     0.285 C 
ATOM     78  H   UNL A   1      30.488  26.050  24.354  1.00  0.00     0.349 HD
ATOM     79  C   UNL A   1      32.209  23.456  23.059  1.00  0.00     0.181 C 
ATOM     80  C   UNL A   1      32.279  23.471  25.588  1.00  0.00     0.181 C 
ATOM     81  N   UNL A   1      32.282  22.757  24.328  1.00  0.00    -0.330 N 
BRANCH  81  82
ATOM     82  C   UNL A   1      32.284  21.400  24.263  1.00  0.00     0.225 A 
ATOM     83  N   UNL A   1      32.153  20.842  23.050  1.00  0.00    -0.220 NA
ATOM     84  N   UNL A   1      32.643  20.717  25.364  1.00  0.00    -0.220 NA
ATOM     85  C   UNL A   1      32.480  19.538  22.944  1.00  0.00     0.132 A 
ATOM     86  C   UNL A   1      32.902  19.403  25.219  1.00  0.00     0.132 A 
ATOM     87  C   UNL A   1      32.870  18.762  24.007  1.00  0.00     0.054 A 
ATOM     88  Br  UNL A   1      33.364  16.964  23.813  1.00  0.00    -0.047 Br
ENDBRANCH  81  82
ENDBRANCH  74  75
BRANCH  74  89
ATOM     89  C   UNL A   1      31.765  27.764  23.389  1.00  0.00     0.046 A 
ATOM     90  C   UNL A   1      32.537  28.620  22.616  1.00  0.00     0.094 A 
ATOM     91  C   UNL A   1      30.399  28.215  23.227  1.00  0.00     0.011 A 
ATOM     92  N   UNL A   1      31.731  29.556  22.034  1.00  0.00    -0.361 N 
ATOM     93  C   UNL A   1      30.418  29.317  22.363  1.00  0.00     0.046 A 
ATOM     94  C   UNL A   1      29.141  27.775  23.701  1.00  0.00     0.031 A 
ATOM     95  H   UNL A   1      32.044  30.294  21.463  1.00  0.00     0.166 HD
ATOM     96  C   UNL A   1      29.260  29.980  21.933  1.00  0.00     0.028 A 
ATOM     97  C   UNL A   1      27.976  28.429  23.275  1.00  0.00     0.041 A 
ATOM     98  C   UNL A   1      28.031  29.510  22.399  1.00  0.00     0.022 A 
ATOM     99  Cl  UNL A   1      26.441  27.832  23.776  1.00  0.00    -0.084 Cl
ENDBRANCH  74  89
ENDBRANCH  72  74
ENDBRANCH  71  72
ENDBRANCH  70  71
ENDBRANCH   1  70
TORSDOF 14
ENDMDL
