MODEL 1
REMARK VINA RESULT:     -12.8      0.000      0.000
REMARK SMILES CCC(=O)N1CCC[C@](C[C@H]2CC(c3ccc(C)cc3)=NO2)(C(=O)OCCOC(=O)c2ccc(-c3c4nc(c(-c5c(F)c(F)c(F)c(F)c5F)c5ccc([nH]5)c(-c5c(F)c(F)c(F)c(F)c5F)c5nc(c(-c6c(F)c(F)c(F)c(F)c6F)c6ccc3[nH]6)C=C5)C=C4)cc2)C1
REMARK SMILES IDX 26 1 25 2 23 3 24 4 9 5 5 6 6 7 94 8 7 9 8 10 3 11 4 12 2 13
REMARK SMILES IDX 1 14 10 15 11 16 12 17 22 18 13 19 21 20 14 21 15 22 20 23
REMARK SMILES IDX 16 24 19 25 17 26 18 27 27 28 28 29 29 30 30 31 31 32 32 33
REMARK SMILES IDX 93 34 33 35 92 36 34 37 35 38 36 39 86 40 37 41 91 42 85 43
REMARK SMILES IDX 87 44 38 45 90 46 84 47 83 48 39 50 71 51 51 52 70 53 52 54
REMARK SMILES IDX 55 55 69 56 88 57 53 58 54 59 68 61 89 62 56 63 40 64 41 65
REMARK SMILES IDX 49 66 42 67 43 68 47 69 50 70 44 71 45 72 48 73 46 74 72 75
REMARK SMILES IDX 73 76 81 77 74 78 75 79 79 80 82 81 76 82 77 83 80 84 78 85
REMARK SMILES IDX 57 86 58 87 66 88 59 89 60 90 64 91 67 92 61 93 62 94 65 95
REMARK SMILES IDX 63 96
REMARK H PARENT 87 49 55 60
REMARK Flexibility Score: inf
ROOT
ATOM      1  C   UNL A   1      32.749  29.841  27.084  1.00  0.00     0.274 C 
ENDROOT
BRANCH   1   2
ATOM      2  O   UNL A   1      33.011  28.700  26.304  1.00  0.00    -0.462 OA
BRANCH   2   3
ATOM      3  C   UNL A   1      32.544  27.506  26.833  1.00  0.00     0.314 C 
ATOM      4  O   UNL A   1      31.812  27.582  27.850  1.00  0.00    -0.252 OA
BRANCH   3   5
ATOM      5  C   UNL A   1      33.086  25.836  25.844  1.00  0.00     0.089 C 
ATOM      6  N   UNL A   1      31.158  25.500  23.162  1.00  0.00    -0.342 N 
ATOM      7  C   UNL A   1      29.854  25.666  23.821  1.00  0.00     0.119 C 
ATOM      8  C   UNL A   1      32.568  24.610  24.180  1.00  0.00     0.138 C 
ATOM      9  C   UNL A   1      29.871  26.656  25.024  1.00  0.00     0.023 C 
ATOM     10  C   UNL A   1      31.140  26.750  26.201  1.00  0.00     0.022 C 
BRANCH   6  11
ATOM     11  C   UNL A   1      31.278  26.696  21.958  1.00  0.00     0.222 C 
ATOM     12  O   UNL A   1      31.521  26.345  20.791  1.00  0.00    -0.275 OA
BRANCH  11  13
ATOM     13  C   UNL A   1      31.133  28.536  22.238  1.00  0.00     0.097 C 
ATOM     14  C   UNL A   1      29.778  29.633  22.785  1.00  0.00     0.014 C 
ENDBRANCH  11  13
ENDBRANCH   6  11
BRANCH   5  15
ATOM     15  C   UNL A   1      34.097  24.242  26.188  1.00  0.00     0.069 C 
BRANCH  15  16
ATOM     16  C   UNL A   1      35.561  23.774  25.634  1.00  0.00     0.212 C 
ATOM     17  C   UNL A   1      36.908  24.142  26.261  1.00  0.00     0.108 C 
ATOM     18  O   UNL A   1      35.636  22.354  25.381  1.00  0.00    -0.392 OA
ATOM     19  C   UNL A   1      37.661  22.865  26.079  1.00  0.00     0.091 C 
ATOM     20  N   UNL A   1      36.971  21.898  25.567  1.00  0.00    -0.090 NA
BRANCH  19  21
ATOM     21  C   UNL A   1      39.084  22.718  26.501  1.00  0.00    -0.001 A 
ATOM     22  C   UNL A   1      39.701  23.694  27.296  1.00  0.00     0.010 A 
ATOM     23  C   UNL A   1      39.804  21.568  26.162  1.00  0.00     0.010 A 
ATOM     24  C   UNL A   1      41.021  23.516  27.746  1.00  0.00     0.004 A 
ATOM     25  C   UNL A   1      41.131  21.405  26.596  1.00  0.00     0.004 A 
ATOM     26  C   UNL A   1      41.749  22.372  27.399  1.00  0.00    -0.051 A 
ATOM     27  C   UNL A   1      43.163  22.171  27.877  1.00  0.00     0.044 C 
ENDBRANCH  19  21
ENDBRANCH  15  16
ENDBRANCH   5  15
ENDBRANCH   3   5
ENDBRANCH   2   3
ENDBRANCH   1   2
BRANCH   1  28
ATOM     28  C   UNL A   1      33.983  30.692  27.528  1.00  0.00     0.275 C 
BRANCH  28  29
ATOM     29  O   UNL A   1      33.824  31.947  28.361  1.00  0.00    -0.458 OA
BRANCH  29  30
ATOM     30  C   UNL A   1      34.514  32.367  29.539  1.00  0.00     0.338 C 
ATOM     31  O   UNL A   1      34.072  33.233  30.274  1.00  0.00    -0.246 OA
BRANCH  30  32
ATOM     32  C   UNL A   1      36.062  32.027  29.500  1.00  0.00     0.060 A 
ATOM     33  C   UNL A   1      37.433  32.881  28.550  1.00  0.00     0.016 A 
ATOM     34  C   UNL A   1      36.259  31.559  31.198  1.00  0.00     0.016 A 
ATOM     35  C   UNL A   1      39.098  33.265  29.421  1.00  0.00     0.010 A 
ATOM     36  C   UNL A   1      37.532  32.177  32.152  1.00  0.00     0.010 A 
ATOM     37  C   UNL A   1      38.990  33.020  31.455  1.00  0.00    -0.014 A 
BRANCH  37  38
ATOM     38  C   UNL A   1      40.008  31.710  32.437  1.00  0.00     0.031 A 
ATOM     39  C   UNL A   1      39.696  29.768  32.019  1.00  0.00     0.074 A 
ATOM     40  C   UNL A   1      41.104  32.414  33.056  1.00  0.00     0.049 A 
ATOM     41  N   UNL A   1      40.607  28.741  31.921  1.00  0.00    -0.248 NA
ATOM     42  C   UNL A   1      38.604  29.036  31.165  1.00  0.00     0.031 C 
ATOM     43  C   UNL A   1      42.455  32.910  32.534  1.00  0.00     0.029 A 
ATOM     44  N   UNL A   1      41.240  32.849  34.385  1.00  0.00    -0.354 N 
ATOM     45  C   UNL A   1      40.675  28.187  30.606  1.00  0.00     0.074 A 
ATOM     46  C   UNL A   1      39.277  28.260  30.270  1.00  0.00     0.031 C 
ATOM     47  C   UNL A   1      43.347  32.907  33.552  1.00  0.00     0.029 A 
ATOM     48  C   UNL A   1      42.605  32.803  34.780  1.00  0.00     0.049 A 
ATOM     49  H   UNL A   1      40.497  33.143  34.960  1.00  0.00     0.167 HD
ATOM     50  C   UNL A   1      41.899  27.931  29.916  1.00  0.00     0.037 A 
ATOM     51  C   UNL A   1      42.951  32.359  36.013  1.00  0.00     0.037 A 
ATOM     52  C   UNL A   1      43.175  28.170  30.717  1.00  0.00     0.049 A 
ATOM     53  C   UNL A   1      43.540  30.936  35.957  1.00  0.00     0.074 A 
ATOM     54  C   UNL A   1      44.292  29.019  30.618  1.00  0.00     0.029 A 
ATOM     55  N   UNL A   1      43.220  27.737  32.008  1.00  0.00    -0.354 N 
ATOM     56  N   UNL A   1      44.158  30.340  34.951  1.00  0.00    -0.248 NA
ATOM     57  C   UNL A   1      43.268  30.020  37.062  1.00  0.00     0.031 C 
ATOM     58  C   UNL A   1      44.913  29.125  31.920  1.00  0.00     0.029 A 
ATOM     59  C   UNL A   1      44.242  28.278  32.782  1.00  0.00     0.049 A 
ATOM     60  H   UNL A   1      42.575  27.087  32.368  1.00  0.00     0.167 HD
ATOM     61  C   UNL A   1      44.089  28.948  35.152  1.00  0.00     0.074 A 
ATOM     62  C   UNL A   1      43.581  28.836  36.519  1.00  0.00     0.031 C 
ATOM     63  C   UNL A   1      44.219  27.929  34.209  1.00  0.00     0.037 A 
BRANCH  50  64
ATOM     64  C   UNL A   1      42.166  27.643  28.402  1.00  0.00     0.064 A 
ATOM     65  C   UNL A   1      42.915  26.481  28.017  1.00  0.00     0.173 A 
ATOM     66  C   UNL A   1      41.797  28.445  27.309  1.00  0.00     0.173 A 
ATOM     67  F   UNL A   1      43.342  25.578  28.912  1.00  0.00    -0.203 F 
ATOM     68  C   UNL A   1      43.249  26.155  26.697  1.00  0.00     0.198 A 
ATOM     69  C   UNL A   1      42.086  28.082  25.970  1.00  0.00     0.198 A 
ATOM     70  F   UNL A   1      41.154  29.605  27.483  1.00  0.00    -0.203 F 
ATOM     71  F   UNL A   1      43.980  25.058  26.444  1.00  0.00    -0.200 F 
ATOM     72  C   UNL A   1      42.807  26.940  25.667  1.00  0.00     0.200 A 
ATOM     73  F   UNL A   1      41.647  28.851  24.961  1.00  0.00    -0.200 F 
ATOM     74  F   UNL A   1      43.056  26.592  24.395  1.00  0.00    -0.200 F 
ENDBRANCH  50  64
BRANCH  51  75
ATOM     75  C   UNL A   1      41.912  32.951  36.970  1.00  0.00     0.064 A 
ATOM     76  C   UNL A   1      42.139  34.323  37.269  1.00  0.00     0.173 A 
ATOM     77  C   UNL A   1      40.560  32.540  36.913  1.00  0.00     0.173 A 
ATOM     78  F   UNL A   1      43.396  34.790  37.323  1.00  0.00    -0.203 F 
ATOM     79  C   UNL A   1      41.099  35.259  37.257  1.00  0.00     0.198 A 
ATOM     80  C   UNL A   1      39.523  33.490  36.904  1.00  0.00     0.198 A 
ATOM     81  F   UNL A   1      40.259  31.276  36.582  1.00  0.00    -0.203 F 
ATOM     82  F   UNL A   1      41.379  36.571  37.293  1.00  0.00    -0.200 F 
ATOM     83  C   UNL A   1      39.798  34.846  37.030  1.00  0.00     0.200 A 
ATOM     84  F   UNL A   1      38.272  33.112  36.601  1.00  0.00    -0.200 F 
ATOM     85  F   UNL A   1      38.833  35.755  36.823  1.00  0.00    -0.200 F 
ENDBRANCH  51  75
BRANCH  63  86
ATOM     86  C   UNL A   1      44.126  26.418  34.561  1.00  0.00     0.064 A 
ATOM     87  C   UNL A   1      45.244  25.580  34.452  1.00  0.00     0.173 A 
ATOM     88  C   UNL A   1      42.928  25.718  34.907  1.00  0.00     0.173 A 
ATOM     89  F   UNL A   1      46.401  26.040  33.955  1.00  0.00    -0.203 F 
ATOM     90  C   UNL A   1      45.207  24.226  34.807  1.00  0.00     0.198 A 
ATOM     91  C   UNL A   1      42.876  24.356  35.189  1.00  0.00     0.198 A 
ATOM     92  F   UNL A   1      41.724  26.287  35.006  1.00  0.00    -0.203 F 
ATOM     93  F   UNL A   1      46.337  23.510  34.781  1.00  0.00    -0.200 F 
ATOM     94  C   UNL A   1      44.025  23.614  35.172  1.00  0.00     0.200 A 
ATOM     95  F   UNL A   1      41.697  23.788  35.476  1.00  0.00    -0.200 F 
ATOM     96  F   UNL A   1      43.986  22.312  35.481  1.00  0.00    -0.200 F 
ENDBRANCH  63  86
ENDBRANCH  37  38
ENDBRANCH  30  32
ENDBRANCH  29  30
ENDBRANCH  28  29
ENDBRANCH   1  28
TORSDOF 16
ENDMDL
MODEL 2
REMARK VINA RESULT:     -12.8      3.799      6.638
REMARK SMILES CCC(=O)N1CCC[C@](C[C@H]2CC(c3ccc(C)cc3)=NO2)(C(=O)OCCOC(=O)c2ccc(-c3c4nc(c(-c5c(F)c(F)c(F)c(F)c5F)c5ccc([nH]5)c(-c5c(F)c(F)c(F)c(F)c5F)c5nc(c(-c6c(F)c(F)c(F)c(F)c6F)c6ccc3[nH]6)C=C5)C=C4)cc2)C1
REMARK SMILES IDX 26 1 25 2 23 3 24 4 9 5 5 6 6 7 94 8 7 9 8 10 3 11 4 12 2 13
REMARK SMILES IDX 1 14 10 15 11 16 12 17 22 18 13 19 21 20 14 21 15 22 20 23
REMARK SMILES IDX 16 24 19 25 17 26 18 27 27 28 28 29 29 30 30 31 31 32 32 33
REMARK SMILES IDX 93 34 33 35 92 36 34 37 35 38 36 39 86 40 37 41 91 42 85 43
REMARK SMILES IDX 87 44 38 45 90 46 84 47 83 48 39 50 71 51 51 52 70 53 52 54
REMARK SMILES IDX 55 55 69 56 88 57 53 58 54 59 68 61 89 62 56 63 40 64 41 65
REMARK SMILES IDX 49 66 42 67 43 68 47 69 50 70 44 71 45 72 48 73 46 74 72 75
REMARK SMILES IDX 73 76 81 77 74 78 75 79 79 80 82 81 76 82 77 83 80 84 78 85
REMARK SMILES IDX 57 86 58 87 66 88 59 89 60 90 64 91 67 92 61 93 62 94 65 95
REMARK SMILES IDX 63 96
REMARK H PARENT 87 49 55 60
REMARK Flexibility Score: inf
ROOT
ATOM      1  C   UNL A   1      33.821  29.224  26.735  1.00  0.00     0.274 C 
ENDROOT
BRANCH   1   2
ATOM      2  O   UNL A   1      34.320  28.129  26.006  1.00  0.00    -0.462 OA
BRANCH   2   3
ATOM      3  C   UNL A   1      33.737  26.907  26.307  1.00  0.00     0.314 C 
ATOM      4  O   UNL A   1      32.745  26.925  27.076  1.00  0.00    -0.252 OA
BRANCH   3   5
ATOM      5  C   UNL A   1      34.560  25.299  25.416  1.00  0.00     0.089 C 
ATOM      6  N   UNL A   1      32.987  24.738  22.545  1.00  0.00    -0.342 N 
ATOM      7  C   UNL A   1      31.609  24.767  23.054  1.00  0.00     0.119 C 
ATOM      8  C   UNL A   1      34.363  24.012  23.728  1.00  0.00     0.138 C 
ATOM      9  C   UNL A   1      31.387  25.762  24.233  1.00  0.00     0.023 C 
ATOM     10  C   UNL A   1      32.501  26.000  25.540  1.00  0.00     0.022 C 
BRANCH   6  11
ATOM     11  C   UNL A   1      33.113  25.931  21.339  1.00  0.00     0.222 C 
ATOM     12  O   UNL A   1      32.977  25.595  20.151  1.00  0.00    -0.275 OA
BRANCH  11  13
ATOM     13  C   UNL A   1      33.502  27.734  21.632  1.00  0.00     0.097 C 
ATOM     14  C   UNL A   1      32.989  28.953  22.893  1.00  0.00     0.014 C 
ENDBRANCH  11  13
ENDBRANCH   6  11
BRANCH   5  15
ATOM     15  C   UNL A   1      35.690  23.825  25.898  1.00  0.00     0.069 C 
BRANCH  15  16
ATOM     16  C   UNL A   1      37.307  23.639  25.760  1.00  0.00     0.212 C 
ATOM     17  C   UNL A   1      38.359  24.306  26.649  1.00  0.00     0.108 C 
ATOM     18  O   UNL A   1      37.705  22.254  25.676  1.00  0.00    -0.392 OA
ATOM     19  C   UNL A   1      39.356  23.203  26.782  1.00  0.00     0.091 C 
ATOM     20  N   UNL A   1      39.011  22.091  26.220  1.00  0.00    -0.090 NA
BRANCH  19  21
ATOM     21  C   UNL A   1      40.627  23.372  27.544  1.00  0.00    -0.001 A 
ATOM     22  C   UNL A   1      41.431  22.267  27.854  1.00  0.00     0.010 A 
ATOM     23  C   UNL A   1      41.068  24.650  27.903  1.00  0.00     0.010 A 
ATOM     24  C   UNL A   1      42.660  22.442  28.513  1.00  0.00     0.004 A 
ATOM     25  C   UNL A   1      42.287  24.819  28.581  1.00  0.00     0.004 A 
ATOM     26  C   UNL A   1      43.099  23.718  28.884  1.00  0.00    -0.051 A 
ATOM     27  C   UNL A   1      44.415  23.917  29.589  1.00  0.00     0.044 C 
ENDBRANCH  19  21
ENDBRANCH  15  16
ENDBRANCH   5  15
ENDBRANCH   3   5
ENDBRANCH   2   3
ENDBRANCH   1   2
BRANCH   1  28
ATOM     28  C   UNL A   1      34.835  29.986  27.650  1.00  0.00     0.275 C 
BRANCH  28  29
ATOM     29  O   UNL A   1      36.114  29.334  28.132  1.00  0.00    -0.458 OA
BRANCH  29  30
ATOM     30  C   UNL A   1      36.743  29.371  29.414  1.00  0.00     0.338 C 
ATOM     31  O   UNL A   1      36.099  29.386  30.450  1.00  0.00    -0.246 OA
BRANCH  30  32
ATOM     32  C   UNL A   1      38.228  29.921  29.357  1.00  0.00     0.060 A 
ATOM     33  C   UNL A   1      38.868  31.635  29.761  1.00  0.00     0.016 A 
ATOM     34  C   UNL A   1      39.058  28.460  29.923  1.00  0.00     0.016 A 
ATOM     35  C   UNL A   1      40.460  31.833  30.813  1.00  0.00     0.010 A 
ATOM     36  C   UNL A   1      40.242  28.526  31.151  1.00  0.00     0.010 A 
ATOM     37  C   UNL A   1      41.035  30.073  31.698  1.00  0.00    -0.014 A 
BRANCH  37  38
ATOM     38  C   UNL A   1      42.691  29.164  31.310  1.00  0.00     0.031 A 
ATOM     39  C   UNL A   1      43.258  29.021  29.386  1.00  0.00     0.074 A 
ATOM     40  C   UNL A   1      43.415  29.071  32.553  1.00  0.00     0.049 A 
ATOM     41  N   UNL A   1      44.514  29.148  28.836  1.00  0.00    -0.248 NA
ATOM     42  C   UNL A   1      42.512  29.327  28.041  1.00  0.00     0.031 C 
ATOM     43  C   UNL A   1      44.273  30.066  33.339  1.00  0.00     0.029 A 
ATOM     44  N   UNL A   1      43.545  27.975  33.424  1.00  0.00    -0.354 N 
ATOM     45  C   UNL A   1      44.619  30.264  27.951  1.00  0.00     0.074 A 
ATOM     46  C   UNL A   1      43.315  30.180  27.346  1.00  0.00     0.031 C 
ATOM     47  C   UNL A   1      45.215  29.382  34.031  1.00  0.00     0.029 A 
ATOM     48  C   UNL A   1      44.817  27.999  34.057  1.00  0.00     0.049 A 
ATOM     49  H   UNL A   1      42.855  27.289  33.572  1.00  0.00     0.167 HD
ATOM     50  C   UNL A   1      45.691  31.206  27.987  1.00  0.00     0.037 A 
ATOM     51  C   UNL A   1      45.524  26.856  34.227  1.00  0.00     0.037 A 
ATOM     52  C   UNL A   1      46.818  30.892  28.967  1.00  0.00     0.049 A 
ATOM     53  C   UNL A   1      46.692  26.759  33.226  1.00  0.00     0.074 A 
ATOM     54  C   UNL A   1      47.377  31.504  30.102  1.00  0.00     0.029 A 
ATOM     55  N   UNL A   1      47.268  29.608  29.045  1.00  0.00    -0.354 N 
ATOM     56  N   UNL A   1      47.345  27.740  32.626  1.00  0.00    -0.248 NA
ATOM     57  C   UNL A   1      47.061  25.446  32.704  1.00  0.00     0.031 C 
ATOM     58  C   UNL A   1      48.078  30.501  30.874  1.00  0.00     0.029 A 
ATOM     59  C   UNL A   1      48.029  29.312  30.172  1.00  0.00     0.049 A 
ATOM     60  H   UNL A   1      47.069  28.937  28.353  1.00  0.00     0.167 HD
ATOM     61  C   UNL A   1      47.966  27.218  31.475  1.00  0.00     0.074 A 
ATOM     62  C   UNL A   1      47.799  25.774  31.635  1.00  0.00     0.031 C 
ATOM     63  C   UNL A   1      48.403  27.902  30.341  1.00  0.00     0.037 A 
BRANCH  50  64
ATOM     64  C   UNL A   1      45.813  32.626  27.341  1.00  0.00     0.064 A 
ATOM     65  C   UNL A   1      47.009  32.989  26.635  1.00  0.00     0.173 A 
ATOM     66  C   UNL A   1      44.878  33.672  27.411  1.00  0.00     0.173 A 
ATOM     67  F   UNL A   1      48.014  32.122  26.441  1.00  0.00    -0.203 F 
ATOM     68  C   UNL A   1      47.239  34.244  26.061  1.00  0.00     0.198 A 
ATOM     69  C   UNL A   1      45.089  34.921  26.780  1.00  0.00     0.198 A 
ATOM     70  F   UNL A   1      43.733  33.538  28.091  1.00  0.00    -0.203 F 
ATOM     71  F   UNL A   1      48.405  34.495  25.445  1.00  0.00    -0.200 F 
ATOM     72  C   UNL A   1      46.264  35.205  26.105  1.00  0.00     0.200 A 
ATOM     73  F   UNL A   1      44.130  35.860  26.819  1.00  0.00    -0.200 F 
ATOM     74  F   UNL A   1      46.447  36.383  25.490  1.00  0.00    -0.200 F 
ENDBRANCH  50  64
BRANCH  51  75
ATOM     75  C   UNL A   1      44.499  25.796  34.640  1.00  0.00     0.064 A 
ATOM     76  C   UNL A   1      44.038  25.004  33.552  1.00  0.00     0.173 A 
ATOM     77  C   UNL A   1      44.599  25.142  35.889  1.00  0.00     0.173 A 
ATOM     78  F   UNL A   1      43.933  25.552  32.331  1.00  0.00    -0.203 F 
ATOM     79  C   UNL A   1      43.934  23.612  33.649  1.00  0.00     0.198 A 
ATOM     80  C   UNL A   1      44.489  23.742  35.976  1.00  0.00     0.198 A 
ATOM     81  F   UNL A   1      45.077  25.803  36.953  1.00  0.00    -0.203 F 
ATOM     82  F   UNL A   1      43.742  22.876  32.543  1.00  0.00    -0.200 F 
ATOM     83  C   UNL A   1      44.203  22.980  34.850  1.00  0.00     0.200 A 
ATOM     84  F   UNL A   1      44.831  23.113  37.110  1.00  0.00    -0.200 F 
ATOM     85  F   UNL A   1      44.296  21.642  34.896  1.00  0.00    -0.200 F 
ENDBRANCH  51  75
BRANCH  63  86
ATOM     86  C   UNL A   1      49.085  27.206  29.130  1.00  0.00     0.064 A 
ATOM     87  C   UNL A   1      48.330  26.499  28.184  1.00  0.00     0.173 A 
ATOM     88  C   UNL A   1      50.494  27.112  28.911  1.00  0.00     0.173 A 
ATOM     89  F   UNL A   1      47.011  26.326  28.348  1.00  0.00    -0.203 F 
ATOM     90  C   UNL A   1      48.906  25.901  27.056  1.00  0.00     0.198 A 
ATOM     91  C   UNL A   1      51.072  26.455  27.828  1.00  0.00     0.198 A 
ATOM     92  F   UNL A   1      51.419  27.645  29.713  1.00  0.00    -0.203 F 
ATOM     93  F   UNL A   1      48.115  25.334  26.137  1.00  0.00    -0.200 F 
ATOM     94  C   UNL A   1      50.275  25.877  26.879  1.00  0.00     0.200 A 
ATOM     95  F   UNL A   1      52.408  26.399  27.728  1.00  0.00    -0.200 F 
ATOM     96  F   UNL A   1      50.826  25.278  25.815  1.00  0.00    -0.200 F 
ENDBRANCH  63  86
ENDBRANCH  37  38
ENDBRANCH  30  32
ENDBRANCH  29  30
ENDBRANCH  28  29
ENDBRANCH   1  28
TORSDOF 16
ENDMDL
MODEL 3
REMARK VINA RESULT:     -12.7      1.710      2.653
REMARK SMILES CCC(=O)N1CCC[C@](C[C@H]2CC(c3ccc(C)cc3)=NO2)(C(=O)OCCOC(=O)c2ccc(-c3c4nc(c(-c5c(F)c(F)c(F)c(F)c5F)c5ccc([nH]5)c(-c5c(F)c(F)c(F)c(F)c5F)c5nc(c(-c6c(F)c(F)c(F)c(F)c6F)c6ccc3[nH]6)C=C5)C=C4)cc2)C1
REMARK SMILES IDX 26 1 25 2 23 3 24 4 9 5 5 6 6 7 94 8 7 9 8 10 3 11 4 12 2 13
REMARK SMILES IDX 1 14 10 15 11 16 12 17 22 18 13 19 21 20 14 21 15 22 20 23
REMARK SMILES IDX 16 24 19 25 17 26 18 27 27 28 28 29 29 30 30 31 31 32 32 33
REMARK SMILES IDX 93 34 33 35 92 36 34 37 35 38 36 39 86 40 37 41 91 42 85 43
REMARK SMILES IDX 87 44 38 45 90 46 84 47 83 48 39 50 71 51 51 52 70 53 52 54
REMARK SMILES IDX 55 55 69 56 88 57 53 58 54 59 68 61 89 62 56 63 40 64 41 65
REMARK SMILES IDX 49 66 42 67 43 68 47 69 50 70 44 71 45 72 48 73 46 74 72 75
REMARK SMILES IDX 73 76 81 77 74 78 75 79 79 80 82 81 76 82 77 83 80 84 78 85
REMARK SMILES IDX 57 86 58 87 66 88 59 89 60 90 64 91 67 92 61 93 62 94 65 95
REMARK SMILES IDX 63 96
REMARK H PARENT 87 49 55 60
REMARK Flexibility Score: inf
ROOT
ATOM      1  C   UNL A   1      33.542  29.298  26.420  1.00  0.00     0.274 C 
ENDROOT
BRANCH   1   2
ATOM      2  O   UNL A   1      34.246  28.128  26.084  1.00  0.00    -0.462 OA
BRANCH   2   3
ATOM      3  C   UNL A   1      33.528  26.949  26.219  1.00  0.00     0.314 C 
ATOM      4  O   UNL A   1      32.437  27.016  26.836  1.00  0.00    -0.252 OA
BRANCH   3   5
ATOM      5  C   UNL A   1      34.343  25.321  25.357  1.00  0.00     0.089 C 
ATOM      6  N   UNL A   1      32.835  24.777  22.448  1.00  0.00    -0.342 N 
ATOM      7  C   UNL A   1      31.444  24.835  22.921  1.00  0.00     0.119 C 
ATOM      8  C   UNL A   1      34.164  24.030  23.670  1.00  0.00     0.138 C 
ATOM      9  C   UNL A   1      31.211  25.840  24.089  1.00  0.00     0.023 C 
ATOM     10  C   UNL A   1      32.295  26.062  25.424  1.00  0.00     0.022 C 
BRANCH   6  11
ATOM     11  C   UNL A   1      33.015  25.961  21.240  1.00  0.00     0.222 C 
ATOM     12  O   UNL A   1      33.029  25.603  20.051  1.00  0.00    -0.275 OA
BRANCH  11  13
ATOM     13  C   UNL A   1      33.258  27.789  21.541  1.00  0.00     0.097 C 
ATOM     14  C   UNL A   1      33.080  28.868  23.005  1.00  0.00     0.014 C 
ENDBRANCH  11  13
ENDBRANCH   6  11
BRANCH   5  15
ATOM     15  C   UNL A   1      35.431  23.827  25.875  1.00  0.00     0.069 C 
BRANCH  15  16
ATOM     16  C   UNL A   1      37.026  23.552  25.658  1.00  0.00     0.212 C 
ATOM     17  C   UNL A   1      38.150  24.076  26.556  1.00  0.00     0.108 C 
ATOM     18  O   UNL A   1      37.329  22.156  25.448  1.00  0.00    -0.392 OA
ATOM     19  C   UNL A   1      39.076  22.905  26.561  1.00  0.00     0.091 C 
ATOM     20  N   UNL A   1      38.639  21.867  25.926  1.00  0.00    -0.090 NA
BRANCH  19  21
ATOM     21  C   UNL A   1      40.380  22.931  27.283  1.00  0.00    -0.001 A 
ATOM     22  C   UNL A   1      41.284  21.866  27.173  1.00  0.00     0.010 A 
ATOM     23  C   UNL A   1      40.749  24.055  28.030  1.00  0.00     0.010 A 
ATOM     24  C   UNL A   1      42.539  21.927  27.802  1.00  0.00     0.004 A 
ATOM     25  C   UNL A   1      41.997  24.102  28.676  1.00  0.00     0.004 A 
ATOM     26  C   UNL A   1      42.907  23.044  28.560  1.00  0.00    -0.051 A 
ATOM     27  C   UNL A   1      44.250  23.121  29.237  1.00  0.00     0.044 C 
ENDBRANCH  19  21
ENDBRANCH  15  16
ENDBRANCH   5  15
ENDBRANCH   3   5
ENDBRANCH   2   3
ENDBRANCH   1   2
BRANCH   1  28
ATOM     28  C   UNL A   1      34.295  30.349  27.300  1.00  0.00     0.275 C 
BRANCH  28  29
ATOM     29  O   UNL A   1      33.555  31.458  28.019  1.00  0.00    -0.458 OA
BRANCH  29  30
ATOM     30  C   UNL A   1      34.051  32.513  28.844  1.00  0.00     0.338 C 
ATOM     31  O   UNL A   1      33.439  33.557  28.997  1.00  0.00    -0.246 OA
BRANCH  30  32
ATOM     32  C   UNL A   1      35.617  32.434  29.072  1.00  0.00     0.060 A 
ATOM     33  C   UNL A   1      36.984  33.390  28.218  1.00  0.00     0.016 A 
ATOM     34  C   UNL A   1      35.603  32.200  30.829  1.00  0.00     0.016 A 
ATOM     35  C   UNL A   1      38.411  34.141  29.255  1.00  0.00     0.010 A 
ATOM     36  C   UNL A   1      36.601  33.125  31.860  1.00  0.00     0.010 A 
ATOM     37  C   UNL A   1      38.013  34.114  31.269  1.00  0.00    -0.014 A 
BRANCH  37  38
ATOM     38  C   UNL A   1      39.039  33.111  32.555  1.00  0.00     0.031 A 
ATOM     39  C   UNL A   1      38.927  31.104  32.492  1.00  0.00     0.074 A 
ATOM     40  C   UNL A   1      40.012  34.019  33.110  1.00  0.00     0.049 A 
ATOM     41  N   UNL A   1      39.924  30.170  32.660  1.00  0.00    -0.248 NA
ATOM     42  C   UNL A   1      37.982  30.125  31.712  1.00  0.00     0.031 C 
ATOM     43  C   UNL A   1      41.360  34.541  32.607  1.00  0.00     0.029 A 
ATOM     44  N   UNL A   1      39.989  34.701  34.339  1.00  0.00    -0.354 N 
ATOM     45  C   UNL A   1      40.159  29.395  31.483  1.00  0.00     0.074 A 
ATOM     46  C   UNL A   1      38.796  29.268  31.035  1.00  0.00     0.031 C 
ATOM     47  C   UNL A   1      42.151  34.811  33.671  1.00  0.00     0.029 A 
ATOM     48  C   UNL A   1      41.310  34.861  34.837  1.00  0.00     0.049 A 
ATOM     49  H   UNL A   1      39.174  35.021  34.790  1.00  0.00     0.167 HD
ATOM     50  C   UNL A   1      41.458  29.138  30.949  1.00  0.00     0.037 A 
ATOM     51  C   UNL A   1      41.576  34.685  36.154  1.00  0.00     0.037 A 
ATOM     52  C   UNL A   1      42.631  29.644  31.784  1.00  0.00     0.049 A 
ATOM     53  C   UNL A   1      42.282  33.341  36.415  1.00  0.00     0.074 A 
ATOM     54  C   UNL A   1      43.679  30.565  31.610  1.00  0.00     0.029 A 
ATOM     55  N   UNL A   1      42.592  29.459  33.133  1.00  0.00    -0.354 N 
ATOM     56  N   UNL A   1      43.037  32.635  35.590  1.00  0.00    -0.248 NA
ATOM     57  C   UNL A   1      41.985  32.619  37.650  1.00  0.00     0.031 C 
ATOM     58  C   UNL A   1      44.166  30.967  32.911  1.00  0.00     0.029 A 
ATOM     59  C   UNL A   1      43.489  30.230  33.865  1.00  0.00     0.049 A 
ATOM     60  H   UNL A   1      41.971  28.826  33.560  1.00  0.00     0.167 HD
ATOM     61  C   UNL A   1      43.064  31.303  36.046  1.00  0.00     0.074 A 
ATOM     62  C   UNL A   1      42.443  31.393  37.367  1.00  0.00     0.031 C 
ATOM     63  C   UNL A   1      43.364  30.146  35.326  1.00  0.00     0.037 A 
BRANCH  50  64
ATOM     64  C   UNL A   1      41.887  28.606  29.541  1.00  0.00     0.064 A 
ATOM     65  C   UNL A   1      41.215  29.077  28.364  1.00  0.00     0.173 A 
ATOM     66  C   UNL A   1      42.861  27.632  29.265  1.00  0.00     0.173 A 
ATOM     67  F   UNL A   1      40.266  30.024  28.414  1.00  0.00    -0.203 F 
ATOM     68  C   UNL A   1      41.489  28.634  27.064  1.00  0.00     0.198 A 
ATOM     69  C   UNL A   1      43.176  27.228  27.945  1.00  0.00     0.198 A 
ATOM     70  F   UNL A   1      43.540  27.029  30.247  1.00  0.00    -0.203 F 
ATOM     71  F   UNL A   1      40.783  29.117  26.030  1.00  0.00    -0.200 F 
ATOM     72  C   UNL A   1      42.495  27.729  26.849  1.00  0.00     0.200 A 
ATOM     73  F   UNL A   1      44.166  26.346  27.735  1.00  0.00    -0.200 F 
ATOM     74  F   UNL A   1      42.815  27.359  25.600  1.00  0.00    -0.200 F 
ENDBRANCH  50  64
BRANCH  51  75
ATOM     75  C   UNL A   1      40.408  35.337  36.900  1.00  0.00     0.064 A 
ATOM     76  C   UNL A   1      39.408  34.409  37.304  1.00  0.00     0.173 A 
ATOM     77  C   UNL A   1      40.624  36.435  37.764  1.00  0.00     0.173 A 
ATOM     78  F   UNL A   1      39.159  33.332  36.542  1.00  0.00    -0.203 F 
ATOM     79  C   UNL A   1      38.856  34.437  38.588  1.00  0.00     0.198 A 
ATOM     80  C   UNL A   1      40.060  36.455  39.052  1.00  0.00     0.198 A 
ATOM     81  F   UNL A   1      41.586  37.326  37.484  1.00  0.00    -0.203 F 
ATOM     82  F   UNL A   1      38.111  33.407  39.020  1.00  0.00    -0.200 F 
ATOM     83  C   UNL A   1      39.217  35.436  39.476  1.00  0.00     0.200 A 
ATOM     84  F   UNL A   1      40.468  37.367  39.947  1.00  0.00    -0.200 F 
ATOM     85  F   UNL A   1      38.844  35.355  40.762  1.00  0.00    -0.200 F 
ENDBRANCH  51  75
BRANCH  63  86
ATOM     86  C   UNL A   1      43.363  28.723  35.951  1.00  0.00     0.064 A 
ATOM     87  C   UNL A   1      44.549  27.989  36.080  1.00  0.00     0.173 A 
ATOM     88  C   UNL A   1      42.200  27.988  36.340  1.00  0.00     0.173 A 
ATOM     89  F   UNL A   1      45.704  28.458  35.586  1.00  0.00    -0.203 F 
ATOM     90  C   UNL A   1      44.591  26.725  36.682  1.00  0.00     0.198 A 
ATOM     91  C   UNL A   1      42.233  26.702  36.870  1.00  0.00     0.198 A 
ATOM     92  F   UNL A   1      40.950  28.449  36.246  1.00  0.00    -0.203 F 
ATOM     93  F   UNL A   1      45.773  26.126  36.869  1.00  0.00    -0.200 F 
ATOM     94  C   UNL A   1      43.435  26.081  37.074  1.00  0.00     0.200 A 
ATOM     95  F   UNL A   1      41.083  26.086  37.179  1.00  0.00    -0.200 F 
ATOM     96  F   UNL A   1      43.474  24.859  37.620  1.00  0.00    -0.200 F 
ENDBRANCH  63  86
ENDBRANCH  37  38
ENDBRANCH  30  32
ENDBRANCH  29  30
ENDBRANCH  28  29
ENDBRANCH   1  28
TORSDOF 16
ENDMDL
