MODEL 1
REMARK VINA RESULT:     -13.4      0.000      0.000
REMARK SMILES Cc1cc([N+](=O)[O-])ccc1NC(=O)[C@@H]1[C@@H](C(=O)OCCOC(=O)c2ccc(-c3c4nc(c(-c5c(F)c(F)c(F)c(F)c5F)c5ccc([nH]5)c(-c5c(F)c(F)c(F)c(F)c5F)c5nc(c(-c6c(F)c(F)c(F)c(F)c6F)c6ccc3[nH]6)C=C5)C=C4)cc2)[C@H]2C=C[C@@H]1C2
REMARK SMILES IDX 19 1 18 2 16 3 17 4 15 5 14 6 90 7 87 8 89 9 91 10 88 11
REMARK SMILES IDX 12 12 11 13 13 15 10 16 1 17 2 18 3 19 4 20 9 21 8 22 5 23
REMARK SMILES IDX 6 24 7 25 20 26 21 27 22 28 23 29 24 30 25 31 86 32 26 33
REMARK SMILES IDX 85 34 27 35 28 36 29 37 79 38 30 39 84 40 78 41 80 42 31 43
REMARK SMILES IDX 83 44 77 45 76 46 32 48 64 49 44 50 63 51 45 52 48 53 62 54
REMARK SMILES IDX 81 55 46 56 47 57 61 59 82 60 49 61 33 62 34 63 42 64 35 65
REMARK SMILES IDX 36 66 40 67 43 68 37 69 38 70 41 71 39 72 65 73 66 74 74 75
REMARK SMILES IDX 67 76 68 77 72 78 75 79 69 80 70 81 73 82 71 83 50 84 51 85
REMARK SMILES IDX 59 86 52 87 53 88 57 89 60 90 54 91 55 92 58 93 56 94
REMARK H PARENT 11 14 80 47 48 58
REMARK Flexibility Score: inf
ROOT
ATOM      1  C   UNL A   1      33.656  27.668  26.485  1.00  0.00     0.274 C 
ENDROOT
BRANCH   1   2
ATOM      2  O   UNL A   1      34.267  26.598  25.724  1.00  0.00    -0.462 OA
BRANCH   2   3
ATOM      3  C   UNL A   1      33.443  25.499  25.675  1.00  0.00     0.310 C 
ATOM      4  O   UNL A   1      32.580  25.315  26.530  1.00  0.00    -0.252 OA
BRANCH   3   5
ATOM      5  C   UNL A   1      33.785  24.456  24.604  1.00  0.00     0.119 C 
ATOM      6  C   UNL A   1      33.138  23.000  24.571  1.00  0.00     0.100 C 
ATOM      7  C   UNL A   1      34.406  22.086  24.531  1.00  0.00     0.025 C 
ATOM      8  C   UNL A   1      35.294  24.093  24.847  1.00  0.00     0.027 C 
ATOM      9  C   UNL A   1      34.952  22.073  25.932  1.00  0.00    -0.027 C 
ATOM     10  C   UNL A   1      35.463  22.957  23.856  1.00  0.00     0.017 C 
ATOM     11  C   UNL A   1      35.473  23.288  26.133  1.00  0.00    -0.027 C 
BRANCH   6  12
ATOM     12  C   UNL A   1      32.267  22.623  23.375  1.00  0.00     0.228 C 
ATOM     13  N   UNL A   1      31.400  23.504  22.756  1.00  0.00    -0.326 N 
ATOM     14  H   UNL A   1      30.903  23.072  22.024  1.00  0.00     0.169 HD
ATOM     15  O   UNL A   1      32.318  21.476  22.917  1.00  0.00    -0.274 OA
BRANCH  13  16
ATOM     16  C   UNL A   1      31.039  24.877  22.900  1.00  0.00     0.044 A 
ATOM     17  C   UNL A   1      32.527  25.617  20.898  1.00  0.00     0.047 C 
ATOM     18  C   UNL A   1      31.607  25.875  22.066  1.00  0.00    -0.021 A 
ATOM     19  C   UNL A   1      31.306  27.250  22.289  1.00  0.00     0.091 A 
ATOM     20  C   UNL A   1      30.436  27.638  23.308  1.00  0.00     0.269 A 
ATOM     21  C   UNL A   1      30.148  25.325  23.880  1.00  0.00     0.033 A 
ATOM     22  C   UNL A   1      29.826  26.672  24.086  1.00  0.00     0.088 A 
BRANCH  20  23
ATOM     23  N   UNL A   1      30.209  29.055  23.608  1.00  0.00     0.062 N 
ATOM     24  O   UNL A   1      30.942  29.590  24.450  1.00  0.00    -0.258 OA
ATOM     25  O   UNL A   1      29.277  29.624  23.021  1.00  0.00    -0.258 OA
ENDBRANCH  20  23
ENDBRANCH  13  16
ENDBRANCH   6  12
ENDBRANCH   3   5
ENDBRANCH   2   3
ENDBRANCH   1   2
BRANCH   1  26
ATOM     26  C   UNL A   1      34.358  29.036  26.459  1.00  0.00     0.275 C 
BRANCH  26  27
ATOM     27  O   UNL A   1      34.295  29.918  27.606  1.00  0.00    -0.458 OA
BRANCH  27  28
ATOM     28  C   UNL A   1      35.239  30.786  28.041  1.00  0.00     0.338 C 
ATOM     29  O   UNL A   1      35.037  31.971  28.186  1.00  0.00    -0.246 OA
BRANCH  28  30
ATOM     30  C   UNL A   1      36.549  30.205  28.348  1.00  0.00     0.060 A 
ATOM     31  C   UNL A   1      36.635  29.349  29.453  1.00  0.00     0.016 A 
ATOM     32  C   UNL A   1      37.623  30.412  27.483  1.00  0.00     0.016 A 
ATOM     33  C   UNL A   1      37.774  28.579  29.626  1.00  0.00     0.010 A 
ATOM     34  C   UNL A   1      38.748  29.639  27.650  1.00  0.00     0.010 A 
ATOM     35  C   UNL A   1      38.808  28.720  28.713  1.00  0.00    -0.014 A 
BRANCH  35  36
ATOM     36  C   UNL A   1      40.095  28.093  28.913  1.00  0.00     0.031 A 
ATOM     37  C   UNL A   1      40.373  26.729  28.425  1.00  0.00     0.074 A 
ATOM     38  C   UNL A   1      40.982  28.942  29.468  1.00  0.00     0.049 A 
ATOM     39  N   UNL A   1      41.173  25.899  29.006  1.00  0.00    -0.248 NA
ATOM     40  C   UNL A   1      39.683  26.130  27.280  1.00  0.00     0.031 C 
ATOM     41  C   UNL A   1      42.426  28.935  29.422  1.00  0.00     0.029 A 
ATOM     42  N   UNL A   1      40.662  30.033  30.291  1.00  0.00    -0.354 N 
ATOM     43  C   UNL A   1      41.365  24.855  28.117  1.00  0.00     0.074 A 
ATOM     44  C   UNL A   1      40.265  24.927  27.192  1.00  0.00     0.031 C 
ATOM     45  C   UNL A   1      42.891  29.804  30.341  1.00  0.00     0.029 A 
ATOM     46  C   UNL A   1      41.755  30.251  31.137  1.00  0.00     0.049 A 
ATOM     47  H   UNL A   1      39.824  30.550  30.276  1.00  0.00     0.167 HD
ATOM     48  C   UNL A   1      42.583  24.241  28.053  1.00  0.00     0.037 A 
ATOM     49  C   UNL A   1      41.621  30.041  32.482  1.00  0.00     0.037 A 
ATOM     50  C   UNL A   1      43.509  24.967  28.903  1.00  0.00     0.049 A 
ATOM     51  C   UNL A   1      42.490  28.897  32.944  1.00  0.00     0.074 A 
ATOM     52  C   UNL A   1      44.333  26.040  28.600  1.00  0.00     0.029 A 
ATOM     53  N   UNL A   1      43.398  24.910  30.279  1.00  0.00    -0.354 N 
ATOM     54  N   UNL A   1      42.751  27.839  32.226  1.00  0.00    -0.248 NA
ATOM     55  C   UNL A   1      43.201  28.914  34.214  1.00  0.00     0.031 C 
ATOM     56  C   UNL A   1      44.732  26.633  29.816  1.00  0.00     0.029 A 
ATOM     57  C   UNL A   1      44.143  25.923  30.847  1.00  0.00     0.049 A 
ATOM     58  H   UNL A   1      42.869  24.247  30.779  1.00  0.00     0.167 HD
ATOM     59  C   UNL A   1      43.723  27.100  32.860  1.00  0.00     0.074 A 
ATOM     60  C   UNL A   1      43.950  27.804  34.108  1.00  0.00     0.031 C 
ATOM     61  C   UNL A   1      44.304  26.004  32.283  1.00  0.00     0.037 A 
BRANCH  48  62
ATOM     62  C   UNL A   1      43.074  23.312  26.960  1.00  0.00     0.064 A 
ATOM     63  C   UNL A   1      42.808  21.922  27.031  1.00  0.00     0.173 A 
ATOM     64  C   UNL A   1      43.801  23.715  25.827  1.00  0.00     0.173 A 
ATOM     65  F   UNL A   1      42.033  21.400  27.990  1.00  0.00    -0.203 F 
ATOM     66  C   UNL A   1      43.319  21.004  26.112  1.00  0.00     0.198 A 
ATOM     67  C   UNL A   1      44.332  22.790  24.914  1.00  0.00     0.198 A 
ATOM     68  F   UNL A   1      43.983  25.013  25.547  1.00  0.00    -0.203 F 
ATOM     69  F   UNL A   1      43.049  19.699  26.255  1.00  0.00    -0.200 F 
ATOM     70  C   UNL A   1      44.103  21.436  25.066  1.00  0.00     0.200 A 
ATOM     71  F   UNL A   1      45.069  23.222  23.881  1.00  0.00    -0.200 F 
ATOM     72  F   UNL A   1      44.615  20.554  24.196  1.00  0.00    -0.200 F 
ENDBRANCH  48  62
BRANCH  49  73
ATOM     73  C   UNL A   1      40.235  30.321  32.970  1.00  0.00     0.064 A 
ATOM     74  C   UNL A   1      39.740  31.640  32.865  1.00  0.00     0.173 A 
ATOM     75  C   UNL A   1      39.293  29.293  33.053  1.00  0.00     0.173 A 
ATOM     76  F   UNL A   1      40.598  32.668  32.763  1.00  0.00    -0.203 F 
ATOM     77  C   UNL A   1      38.377  31.905  32.718  1.00  0.00     0.198 A 
ATOM     78  C   UNL A   1      37.938  29.571  32.868  1.00  0.00     0.198 A 
ATOM     79  F   UNL A   1      39.681  28.012  33.142  1.00  0.00    -0.203 F 
ATOM     80  F   UNL A   1      37.948  33.154  32.493  1.00  0.00    -0.200 F 
ATOM     81  C   UNL A   1      37.479  30.860  32.685  1.00  0.00     0.200 A 
ATOM     82  F   UNL A   1      37.070  28.575  32.697  1.00  0.00    -0.200 F 
ATOM     83  F   UNL A   1      36.185  31.072  32.409  1.00  0.00    -0.200 F 
ENDBRANCH  49  73
BRANCH  61  84
ATOM     84  C   UNL A   1      45.197  24.962  32.925  1.00  0.00     0.064 A 
ATOM     85  C   UNL A   1      46.526  25.187  33.300  1.00  0.00     0.173 A 
ATOM     86  C   UNL A   1      44.665  23.704  33.333  1.00  0.00     0.173 A 
ATOM     87  F   UNL A   1      47.118  26.371  33.108  1.00  0.00    -0.203 F 
ATOM     88  C   UNL A   1      47.285  24.215  33.959  1.00  0.00     0.198 A 
ATOM     89  C   UNL A   1      45.399  22.772  34.058  1.00  0.00     0.198 A 
ATOM     90  F   UNL A   1      43.401  23.339  33.072  1.00  0.00    -0.203 F 
ATOM     91  F   UNL A   1      48.570  24.464  34.242  1.00  0.00    -0.200 F 
ATOM     92  C   UNL A   1      46.718  23.017  34.352  1.00  0.00     0.200 A 
ATOM     93  F   UNL A   1      44.806  21.648  34.488  1.00  0.00    -0.200 F 
ATOM     94  F   UNL A   1      47.437  22.115  35.032  1.00  0.00    -0.200 F 
ENDBRANCH  61  84
ENDBRANCH  35  36
ENDBRANCH  28  30
ENDBRANCH  27  28
ENDBRANCH  26  27
ENDBRANCH   1  26
TORSDOF 14
ENDMDL
MODEL 2
REMARK VINA RESULT:     -13.3      3.470      9.483
REMARK SMILES Cc1cc([N+](=O)[O-])ccc1NC(=O)[C@@H]1[C@@H](C(=O)OCCOC(=O)c2ccc(-c3c4nc(c(-c5c(F)c(F)c(F)c(F)c5F)c5ccc([nH]5)c(-c5c(F)c(F)c(F)c(F)c5F)c5nc(c(-c6c(F)c(F)c(F)c(F)c6F)c6ccc3[nH]6)C=C5)C=C4)cc2)[C@H]2C=C[C@@H]1C2
REMARK SMILES IDX 19 1 18 2 16 3 17 4 15 5 14 6 90 7 87 8 89 9 91 10 88 11
REMARK SMILES IDX 12 12 11 13 13 15 10 16 1 17 2 18 3 19 4 20 9 21 8 22 5 23
REMARK SMILES IDX 6 24 7 25 20 26 21 27 22 28 23 29 24 30 25 31 86 32 26 33
REMARK SMILES IDX 85 34 27 35 28 36 29 37 79 38 30 39 84 40 78 41 80 42 31 43
REMARK SMILES IDX 83 44 77 45 76 46 32 48 64 49 44 50 63 51 45 52 48 53 62 54
REMARK SMILES IDX 81 55 46 56 47 57 61 59 82 60 49 61 33 62 34 63 42 64 35 65
REMARK SMILES IDX 36 66 40 67 43 68 37 69 38 70 41 71 39 72 65 73 66 74 74 75
REMARK SMILES IDX 67 76 68 77 72 78 75 79 69 80 70 81 73 82 71 83 50 84 51 85
REMARK SMILES IDX 59 86 52 87 53 88 57 89 60 90 54 91 55 92 58 93 56 94
REMARK H PARENT 11 14 80 47 48 58
REMARK Flexibility Score: inf
ROOT
ATOM      1  C   UNL A   1      35.767  23.607  25.025  1.00  0.00     0.274 C 
ENDROOT
BRANCH   1   2
ATOM      2  O   UNL A   1      35.140  24.848  25.430  1.00  0.00    -0.462 OA
BRANCH   2   3
ATOM      3  C   UNL A   1      34.168  25.222  24.533  1.00  0.00     0.310 C 
ATOM      4  O   UNL A   1      34.394  25.244  23.325  1.00  0.00    -0.252 OA
BRANCH   3   5
ATOM      5  C   UNL A   1      32.869  25.764  25.143  1.00  0.00     0.119 C 
ATOM      6  C   UNL A   1      31.764  26.533  24.293  1.00  0.00     0.100 C 
ATOM      7  C   UNL A   1      31.598  27.860  25.105  1.00  0.00     0.025 C 
ATOM      8  C   UNL A   1      33.319  26.904  26.127  1.00  0.00     0.027 C 
ATOM      9  C   UNL A   1      32.793  28.706  24.765  1.00  0.00    -0.027 C 
ATOM     10  C   UNL A   1      31.967  27.461  26.532  1.00  0.00     0.017 C 
ATOM     11  C   UNL A   1      33.837  28.123  25.365  1.00  0.00    -0.027 C 
BRANCH   6  12
ATOM     12  C   UNL A   1      30.380  25.901  24.164  1.00  0.00     0.228 C 
ATOM     13  N   UNL A   1      30.167  24.536  24.131  1.00  0.00    -0.326 N 
ATOM     14  H   UNL A   1      29.213  24.319  24.015  1.00  0.00     0.169 HD
ATOM     15  O   UNL A   1      29.381  26.624  24.084  1.00  0.00    -0.274 OA
BRANCH  13  16
ATOM     16  C   UNL A   1      30.968  23.359  24.222  1.00  0.00     0.044 A 
ATOM     17  C   UNL A   1      30.421  23.021  26.744  1.00  0.00     0.047 C 
ATOM     18  C   UNL A   1      31.131  22.678  25.457  1.00  0.00    -0.021 A 
ATOM     19  C   UNL A   1      32.011  21.561  25.547  1.00  0.00     0.091 A 
ATOM     20  C   UNL A   1      32.706  21.102  24.427  1.00  0.00     0.269 A 
ATOM     21  C   UNL A   1      31.661  22.831  23.129  1.00  0.00     0.033 A 
ATOM     22  C   UNL A   1      32.505  21.715  23.205  1.00  0.00     0.088 A 
BRANCH  20  23
ATOM     23  N   UNL A   1      33.691  20.022  24.541  1.00  0.00     0.062 N 
ATOM     24  O   UNL A   1      33.404  18.927  24.040  1.00  0.00    -0.258 OA
ATOM     25  O   UNL A   1      34.739  20.263  25.157  1.00  0.00    -0.258 OA
ENDBRANCH  20  23
ENDBRANCH  13  16
ENDBRANCH   6  12
ENDBRANCH   3   5
ENDBRANCH   2   3
ENDBRANCH   1   2
BRANCH   1  26
ATOM     26  C   UNL A   1      37.304  23.566  25.024  1.00  0.00     0.275 C 
BRANCH  26  27
ATOM     27  O   UNL A   1      38.030  23.129  26.199  1.00  0.00    -0.458 OA
BRANCH  27  28
ATOM     28  C   UNL A   1      39.328  23.358  26.508  1.00  0.00     0.338 C 
ATOM     29  O   UNL A   1      40.221  22.580  26.253  1.00  0.00    -0.246 OA
BRANCH  28  30
ATOM     30  C   UNL A   1      39.612  24.631  27.176  1.00  0.00     0.060 A 
ATOM     31  C   UNL A   1      40.106  25.679  26.389  1.00  0.00     0.016 A 
ATOM     32  C   UNL A   1      39.275  24.806  28.518  1.00  0.00     0.016 A 
ATOM     33  C   UNL A   1      40.140  26.961  26.912  1.00  0.00     0.010 A 
ATOM     34  C   UNL A   1      39.299  26.081  29.032  1.00  0.00     0.010 A 
ATOM     35  C   UNL A   1      39.720  27.149  28.220  1.00  0.00    -0.014 A 
BRANCH  35  36
ATOM     36  C   UNL A   1      39.887  28.413  28.903  1.00  0.00     0.031 A 
ATOM     37  C   UNL A   1      38.812  29.421  28.931  1.00  0.00     0.074 A 
ATOM     38  C   UNL A   1      41.056  28.468  29.570  1.00  0.00     0.049 A 
ATOM     39  N   UNL A   1      39.013  30.697  28.964  1.00  0.00    -0.248 NA
ATOM     40  C   UNL A   1      37.391  29.084  28.817  1.00  0.00     0.031 C 
ATOM     41  C   UNL A   1      41.436  29.268  30.711  1.00  0.00     0.029 A 
ATOM     42  N   UNL A   1      42.219  27.757  29.238  1.00  0.00    -0.354 N 
ATOM     43  C   UNL A   1      37.789  31.278  29.248  1.00  0.00     0.074 A 
ATOM     44  C   UNL A   1      36.802  30.284  28.919  1.00  0.00     0.031 C 
ATOM     45  C   UNL A   1      42.773  29.198  30.862  1.00  0.00     0.029 A 
ATOM     46  C   UNL A   1      43.309  28.502  29.700  1.00  0.00     0.049 A 
ATOM     47  H   UNL A   1      42.262  26.893  28.767  1.00  0.00     0.167 HD
ATOM     48  C   UNL A   1      37.741  32.400  30.025  1.00  0.00     0.037 A 
ATOM     49  C   UNL A   1      44.182  29.053  28.800  1.00  0.00     0.037 A 
ATOM     50  C   UNL A   1      39.077  32.673  30.522  1.00  0.00     0.049 A 
ATOM     51  C   UNL A   1      44.131  30.560  28.848  1.00  0.00     0.074 A 
ATOM     52  C   UNL A   1      39.699  32.225  31.678  1.00  0.00     0.029 A 
ATOM     53  N   UNL A   1      40.067  33.133  29.675  1.00  0.00    -0.354 N 
ATOM     54  N   UNL A   1      43.050  31.251  29.089  1.00  0.00    -0.248 NA
ATOM     55  C   UNL A   1      45.321  31.390  28.719  1.00  0.00     0.031 C 
ATOM     56  C   UNL A   1      41.086  32.428  31.526  1.00  0.00     0.029 A 
ATOM     57  C   UNL A   1      41.299  32.989  30.279  1.00  0.00     0.049 A 
ATOM     58  H   UNL A   1      39.916  33.507  28.777  1.00  0.00     0.167 HD
ATOM     59  C   UNL A   1      43.394  32.572  29.256  1.00  0.00     0.074 A 
ATOM     60  C   UNL A   1      44.820  32.607  28.991  1.00  0.00     0.031 C 
ATOM     61  C   UNL A   1      42.492  33.519  29.656  1.00  0.00     0.037 A 
BRANCH  48  62
ATOM     62  C   UNL A   1      36.513  32.993  30.688  1.00  0.00     0.064 A 
ATOM     63  C   UNL A   1      35.700  33.920  29.990  1.00  0.00     0.173 A 
ATOM     64  C   UNL A   1      36.080  32.694  31.991  1.00  0.00     0.173 A 
ATOM     65  F   UNL A   1      35.918  34.221  28.703  1.00  0.00    -0.203 F 
ATOM     66  C   UNL A   1      34.618  34.575  30.580  1.00  0.00     0.198 A 
ATOM     67  C   UNL A   1      35.004  33.368  32.591  1.00  0.00     0.198 A 
ATOM     68  F   UNL A   1      36.654  31.717  32.705  1.00  0.00    -0.203 F 
ATOM     69  F   UNL A   1      33.909  35.462  29.868  1.00  0.00    -0.200 F 
ATOM     70  C   UNL A   1      34.286  34.318  31.891  1.00  0.00     0.200 A 
ATOM     71  F   UNL A   1      34.667  33.088  33.859  1.00  0.00    -0.200 F 
ATOM     72  F   UNL A   1      33.262  34.964  32.467  1.00  0.00    -0.200 F 
ENDBRANCH  48  62
BRANCH  49  73
ATOM     73  C   UNL A   1      44.314  28.234  27.556  1.00  0.00     0.064 A 
ATOM     74  C   UNL A   1      44.803  26.914  27.670  1.00  0.00     0.173 A 
ATOM     75  C   UNL A   1      43.547  28.534  26.428  1.00  0.00     0.173 A 
ATOM     76  F   UNL A   1      45.530  26.562  28.743  1.00  0.00    -0.203 F 
ATOM     77  C   UNL A   1      44.434  25.912  26.770  1.00  0.00     0.198 A 
ATOM     78  C   UNL A   1      43.158  27.514  25.558  1.00  0.00     0.198 A 
ATOM     79  F   UNL A   1      43.036  29.760  26.250  1.00  0.00    -0.203 F 
ATOM     80  F   UNL A   1      44.809  24.642  26.975  1.00  0.00    -0.200 F 
ATOM     81  C   UNL A   1      43.580  26.210  25.731  1.00  0.00     0.200 A 
ATOM     82  F   UNL A   1      42.230  27.746  24.630  1.00  0.00    -0.200 F 
ATOM     83  F   UNL A   1      43.101  25.245  24.934  1.00  0.00    -0.200 F 
ENDBRANCH  49  73
BRANCH  61  84
ATOM     84  C   UNL A   1      42.646  35.027  29.658  1.00  0.00     0.064 A 
ATOM     85  C   UNL A   1      43.413  35.739  30.586  1.00  0.00     0.173 A 
ATOM     86  C   UNL A   1      42.122  35.810  28.588  1.00  0.00     0.173 A 
ATOM     87  F   UNL A   1      44.080  35.120  31.567  1.00  0.00    -0.203 F 
ATOM     88  C   UNL A   1      43.584  37.124  30.499  1.00  0.00     0.198 A 
ATOM     89  C   UNL A   1      42.361  37.174  28.461  1.00  0.00     0.198 A 
ATOM     90  F   UNL A   1      41.383  35.278  27.603  1.00  0.00    -0.203 F 
ATOM     91  F   UNL A   1      44.282  37.761  31.449  1.00  0.00    -0.200 F 
ATOM     92  C   UNL A   1      43.074  37.837  29.431  1.00  0.00     0.200 A 
ATOM     93  F   UNL A   1      41.915  37.830  27.380  1.00  0.00    -0.200 F 
ATOM     94  F   UNL A   1      43.290  39.154  29.326  1.00  0.00    -0.200 F 
ENDBRANCH  61  84
ENDBRANCH  35  36
ENDBRANCH  28  30
ENDBRANCH  27  28
ENDBRANCH  26  27
ENDBRANCH   1  26
TORSDOF 14
ENDMDL
MODEL 3
REMARK VINA RESULT:     -13.3      3.364      9.059
REMARK SMILES Cc1cc([N+](=O)[O-])ccc1NC(=O)[C@@H]1[C@@H](C(=O)OCCOC(=O)c2ccc(-c3c4nc(c(-c5c(F)c(F)c(F)c(F)c5F)c5ccc([nH]5)c(-c5c(F)c(F)c(F)c(F)c5F)c5nc(c(-c6c(F)c(F)c(F)c(F)c6F)c6ccc3[nH]6)C=C5)C=C4)cc2)[C@H]2C=C[C@@H]1C2
REMARK SMILES IDX 19 1 18 2 16 3 17 4 15 5 14 6 90 7 87 8 89 9 91 10 88 11
REMARK SMILES IDX 12 12 11 13 13 15 10 16 1 17 2 18 3 19 4 20 9 21 8 22 5 23
REMARK SMILES IDX 6 24 7 25 20 26 21 27 22 28 23 29 24 30 25 31 86 32 26 33
REMARK SMILES IDX 85 34 27 35 28 36 29 37 79 38 30 39 84 40 78 41 80 42 31 43
REMARK SMILES IDX 83 44 77 45 76 46 32 48 64 49 44 50 63 51 45 52 48 53 62 54
REMARK SMILES IDX 81 55 46 56 47 57 61 59 82 60 49 61 33 62 34 63 42 64 35 65
REMARK SMILES IDX 36 66 40 67 43 68 37 69 38 70 41 71 39 72 65 73 66 74 74 75
REMARK SMILES IDX 67 76 68 77 72 78 75 79 69 80 70 81 73 82 71 83 50 84 51 85
REMARK SMILES IDX 59 86 52 87 53 88 57 89 60 90 54 91 55 92 58 93 56 94
REMARK H PARENT 11 14 80 47 48 58
REMARK Flexibility Score: inf
ROOT
ATOM      1  C   UNL A   1      35.870  23.538  24.674  1.00  0.00     0.274 C 
ENDROOT
BRANCH   1   2
ATOM      2  O   UNL A   1      35.042  24.718  24.812  1.00  0.00    -0.462 OA
BRANCH   2   3
ATOM      3  C   UNL A   1      34.131  24.801  23.787  1.00  0.00     0.310 C 
ATOM      4  O   UNL A   1      34.454  25.239  22.685  1.00  0.00    -0.252 OA
BRANCH   3   5
ATOM      5  C   UNL A   1      32.677  24.481  24.157  1.00  0.00     0.119 C 
ATOM      6  C   UNL A   1      32.279  23.523  25.365  1.00  0.00     0.100 C 
ATOM      7  C   UNL A   1      31.344  22.487  24.660  1.00  0.00     0.025 C 
ATOM      8  C   UNL A   1      32.112  23.660  22.942  1.00  0.00     0.027 C 
ATOM      9  C   UNL A   1      32.251  21.556  23.906  1.00  0.00    -0.027 C 
ATOM     10  C   UNL A   1      30.753  23.269  23.488  1.00  0.00     0.017 C 
ATOM     11  C   UNL A   1      32.732  22.264  22.878  1.00  0.00    -0.027 C 
BRANCH   6  12
ATOM     12  C   UNL A   1      31.498  24.119  26.534  1.00  0.00     0.228 C 
ATOM     13  N   UNL A   1      30.847  25.337  26.473  1.00  0.00    -0.326 N 
ATOM     14  H   UNL A   1      30.424  25.568  27.332  1.00  0.00     0.169 HD
ATOM     15  O   UNL A   1      31.429  23.503  27.603  1.00  0.00    -0.274 OA
BRANCH  13  16
ATOM     16  C   UNL A   1      30.625  26.346  25.488  1.00  0.00     0.044 A 
ATOM     17  C   UNL A   1      32.705  27.719  26.236  1.00  0.00     0.047 C 
ATOM     18  C   UNL A   1      31.463  27.489  25.411  1.00  0.00    -0.021 A 
ATOM     19  C   UNL A   1      31.167  28.530  24.484  1.00  0.00     0.091 A 
ATOM     20  C   UNL A   1      30.072  28.437  23.624  1.00  0.00     0.269 A 
ATOM     21  C   UNL A   1      29.565  26.293  24.578  1.00  0.00     0.033 A 
ATOM     22  C   UNL A   1      29.287  27.300  23.645  1.00  0.00     0.088 A 
BRANCH  20  23
ATOM     23  N   UNL A   1      29.705  29.552  22.747  1.00  0.00     0.062 N 
ATOM     24  O   UNL A   1      29.926  29.428  21.535  1.00  0.00    -0.258 OA
ATOM     25  O   UNL A   1      29.224  30.565  23.275  1.00  0.00    -0.258 OA
ENDBRANCH  20  23
ENDBRANCH  13  16
ENDBRANCH   6  12
ENDBRANCH   3   5
ENDBRANCH   2   3
ENDBRANCH   1   2
BRANCH   1  26
ATOM     26  C   UNL A   1      37.381  23.711  24.899  1.00  0.00     0.275 C 
BRANCH  26  27
ATOM     27  O   UNL A   1      38.021  23.150  26.071  1.00  0.00    -0.458 OA
BRANCH  27  28
ATOM     28  C   UNL A   1      39.304  23.303  26.473  1.00  0.00     0.338 C 
ATOM     29  O   UNL A   1      40.168  22.478  26.275  1.00  0.00    -0.246 OA
BRANCH  28  30
ATOM     30  C   UNL A   1      39.610  24.555  27.172  1.00  0.00     0.060 A 
ATOM     31  C   UNL A   1      40.113  25.616  26.407  1.00  0.00     0.016 A 
ATOM     32  C   UNL A   1      39.284  24.701  28.519  1.00  0.00     0.016 A 
ATOM     33  C   UNL A   1      40.168  26.884  26.962  1.00  0.00     0.010 A 
ATOM     34  C   UNL A   1      39.330  25.962  29.065  1.00  0.00     0.010 A 
ATOM     35  C   UNL A   1      39.760  27.044  28.278  1.00  0.00    -0.014 A 
BRANCH  35  36
ATOM     36  C   UNL A   1      39.948  28.288  28.991  1.00  0.00     0.031 A 
ATOM     37  C   UNL A   1      38.894  29.317  29.038  1.00  0.00     0.074 A 
ATOM     38  C   UNL A   1      41.115  28.303  29.664  1.00  0.00     0.049 A 
ATOM     39  N   UNL A   1      39.120  30.587  29.102  1.00  0.00    -0.248 NA
ATOM     40  C   UNL A   1      37.467  29.012  28.910  1.00  0.00     0.031 C 
ATOM     41  C   UNL A   1      41.505  29.069  30.827  1.00  0.00     0.029 A 
ATOM     42  N   UNL A   1      42.265  27.577  29.321  1.00  0.00    -0.354 N 
ATOM     43  C   UNL A   1      37.907  31.186  29.395  1.00  0.00     0.074 A 
ATOM     44  C   UNL A   1      36.902  30.220  29.037  1.00  0.00     0.031 C 
ATOM     45  C   UNL A   1      42.840  28.968  30.982  1.00  0.00     0.029 A 
ATOM     46  C   UNL A   1      43.368  28.288  29.806  1.00  0.00     0.049 A 
ATOM     47  H   UNL A   1      42.292  26.723  28.830  1.00  0.00     0.167 HD
ATOM     48  C   UNL A   1      37.877  32.291  30.197  1.00  0.00     0.037 A 
ATOM     49  C   UNL A   1      44.256  28.843  28.924  1.00  0.00     0.037 A 
ATOM     50  C   UNL A   1      39.216  32.524  30.707  1.00  0.00     0.049 A 
ATOM     51  C   UNL A   1      44.236  30.349  29.007  1.00  0.00     0.074 A 
ATOM     52  C   UNL A   1      39.823  32.036  31.854  1.00  0.00     0.029 A 
ATOM     53  N   UNL A   1      40.219  32.984  29.875  1.00  0.00    -0.354 N 
ATOM     54  N   UNL A   1      43.167  31.056  29.259  1.00  0.00    -0.248 NA
ATOM     55  C   UNL A   1      45.442  31.158  28.902  1.00  0.00     0.031 C 
ATOM     56  C   UNL A   1      41.215  32.215  31.714  1.00  0.00     0.029 A 
ATOM     57  C   UNL A   1      41.445  32.801  30.482  1.00  0.00     0.049 A 
ATOM     58  H   UNL A   1      40.081  33.382  28.986  1.00  0.00     0.167 HD
ATOM     59  C   UNL A   1      43.537  32.365  29.459  1.00  0.00     0.074 A 
ATOM     60  C   UNL A   1      44.965  32.378  29.201  1.00  0.00     0.031 C 
ATOM     61  C   UNL A   1      42.652  33.321  29.877  1.00  0.00     0.037 A 
BRANCH  48  62
ATOM     62  C   UNL A   1      36.658  32.892  30.868  1.00  0.00     0.064 A 
ATOM     63  C   UNL A   1      35.841  33.816  30.172  1.00  0.00     0.173 A 
ATOM     64  C   UNL A   1      36.238  32.605  32.178  1.00  0.00     0.173 A 
ATOM     65  F   UNL A   1      36.046  34.106  28.880  1.00  0.00    -0.203 F 
ATOM     66  C   UNL A   1      34.768  34.479  30.768  1.00  0.00     0.198 A 
ATOM     67  C   UNL A   1      35.171  33.287  32.785  1.00  0.00     0.198 A 
ATOM     68  F   UNL A   1      36.818  31.632  32.894  1.00  0.00    -0.203 F 
ATOM     69  F   UNL A   1      34.053  35.362  30.056  1.00  0.00    -0.200 F 
ATOM     70  C   UNL A   1      34.448  34.233  32.084  1.00  0.00     0.200 A 
ATOM     71  F   UNL A   1      34.847  33.019  34.058  1.00  0.00    -0.200 F 
ATOM     72  F   UNL A   1      33.433  34.887  32.666  1.00  0.00    -0.200 F 
ENDBRANCH  48  62
BRANCH  49  73
ATOM     73  C   UNL A   1      44.378  28.051  27.661  1.00  0.00     0.064 A 
ATOM     74  C   UNL A   1      44.802  26.706  27.750  1.00  0.00     0.173 A 
ATOM     75  C   UNL A   1      43.652  28.416  26.525  1.00  0.00     0.173 A 
ATOM     76  F   UNL A   1      45.486  26.293  28.829  1.00  0.00    -0.203 F 
ATOM     77  C   UNL A   1      44.406  25.747  26.816  1.00  0.00     0.198 A 
ATOM     78  C   UNL A   1      43.235  27.438  25.620  1.00  0.00     0.198 A 
ATOM     79  F   UNL A   1      43.203  29.670  26.369  1.00  0.00    -0.203 F 
ATOM     80  F   UNL A   1      44.717  24.456  26.994  1.00  0.00    -0.200 F 
ATOM     81  C   UNL A   1      43.591  26.112  25.766  1.00  0.00     0.200 A 
ATOM     82  F   UNL A   1      42.341  27.738  24.679  1.00  0.00    -0.200 F 
ATOM     83  F   UNL A   1      43.085  25.192  24.934  1.00  0.00    -0.200 F 
ENDBRANCH  49  73
BRANCH  61  84
ATOM     84  C   UNL A   1      42.836  34.825  29.915  1.00  0.00     0.064 A 
ATOM     85  C   UNL A   1      43.484  35.513  30.947  1.00  0.00     0.173 A 
ATOM     86  C   UNL A   1      42.481  35.627  28.792  1.00  0.00     0.173 A 
ATOM     87  F   UNL A   1      43.997  34.872  32.004  1.00  0.00    -0.203 F 
ATOM     88  C   UNL A   1      43.695  36.894  30.898  1.00  0.00     0.198 A 
ATOM     89  C   UNL A   1      42.765  36.986  28.713  1.00  0.00     0.198 A 
ATOM     90  F   UNL A   1      41.873  35.120  27.709  1.00  0.00    -0.203 F 
ATOM     91  F   UNL A   1      44.269  37.509  31.941  1.00  0.00    -0.200 F 
ATOM     92  C   UNL A   1      43.352  37.627  29.777  1.00  0.00     0.200 A 
ATOM     93  F   UNL A   1      42.485  37.660  27.588  1.00  0.00    -0.200 F 
ATOM     94  F   UNL A   1      43.608  38.939  29.717  1.00  0.00    -0.200 F 
ENDBRANCH  61  84
ENDBRANCH  35  36
ENDBRANCH  28  30
ENDBRANCH  27  28
ENDBRANCH  26  27
ENDBRANCH   1  26
TORSDOF 14
ENDMDL
