MODEL 1
REMARK VINA RESULT:     -13.2      0.000      0.000
REMARK SMILES Cc1ccc(C)c(/C=C2\SC(=S)N(CC(=O)OCCOC(=O)c3ccc(-c4c5nc(c(-c6c(F)c(F)c(F)c(F)c6F)c6ccc([nH]6)c(-c6c(F)c(F)c(F)c(F)c6F)c6nc(c(-c7c(F)c(F)c(F)c(F)c7F)c7ccc4[nH]7)C=C6)C=C5)cc3)C2=O)c1
REMARK SMILES IDX 18 1 17 2 15 3 16 4 14 5 13 6 8 7 9 8 10 9 86 10 11 11 87 12
REMARK SMILES IDX 12 13 7 14 1 15 2 16 3 17 88 18 4 19 5 20 6 21 19 22 20 23
REMARK SMILES IDX 21 24 22 25 23 26 24 27 85 28 25 29 84 30 26 31 27 32 28 33
REMARK SMILES IDX 78 34 29 35 83 36 77 37 79 38 30 39 82 40 76 41 75 42 31 44
REMARK SMILES IDX 63 45 43 46 62 47 44 48 47 49 61 50 80 51 45 52 46 53 60 55
REMARK SMILES IDX 81 56 48 57 32 58 33 59 41 60 34 61 35 62 39 63 42 64 36 65
REMARK SMILES IDX 37 66 40 67 38 68 64 69 65 70 73 71 66 72 67 73 71 74 74 75
REMARK SMILES IDX 68 76 69 77 72 78 70 79 49 80 50 81 58 82 51 83 52 84 56 85
REMARK SMILES IDX 59 86 53 87 54 88 57 89 55 90
REMARK H PARENT 79 43 47 54
REMARK Flexibility Score: inf
ROOT
ATOM      1  C   UNL A   1      33.755  34.621  28.187  1.00  0.00     0.274 C 
ENDROOT
BRANCH   1   2
ATOM      2  O   UNL A   1      32.706  33.715  27.866  1.00  0.00    -0.461 OA
BRANCH   2   3
ATOM      3  C   UNL A   1      33.058  32.327  27.802  1.00  0.00     0.326 C 
ATOM      4  O   UNL A   1      34.108  32.214  28.486  1.00  0.00    -0.250 OA
BRANCH   3   5
ATOM      5  C   UNL A   1      31.891  30.853  26.669  1.00  0.00     0.250 C 
BRANCH   5   6
ATOM      6  N   UNL A   1      32.287  29.429  25.741  1.00  0.00    -0.282 N 
ATOM      7  C   UNL A   1      34.122  26.299  25.813  1.00  0.00     0.029 C 
ATOM      8  C   UNL A   1      33.383  27.330  25.349  1.00  0.00     0.081 C 
ATOM      9  S   UNL A   1      32.096  27.308  24.221  1.00  0.00    -0.054 SA
ATOM     10  C   UNL A   1      33.510  28.752  25.826  1.00  0.00     0.266 C 
ATOM     11  C   UNL A   1      31.579  28.959  24.650  1.00  0.00     0.148 C 
ATOM     12  O   UNL A   1      34.586  29.225  26.159  1.00  0.00    -0.268 OA
ATOM     13  S   UNL A   1      30.398  29.732  23.765  1.00  0.00    -0.052 S 
BRANCH   7  14
ATOM     14  C   UNL A   1      34.089  24.863  25.403  1.00  0.00    -0.021 A 
ATOM     15  C   UNL A   1      36.402  22.497  23.446  1.00  0.00     0.044 C 
ATOM     16  C   UNL A   1      35.242  23.015  24.245  1.00  0.00    -0.051 A 
ATOM     17  C   UNL A   1      34.203  22.148  24.573  1.00  0.00     0.004 A 
ATOM     18  C   UNL A   1      35.176  24.360  24.659  1.00  0.00     0.011 A 
ATOM     19  C   UNL A   1      33.139  22.607  25.343  1.00  0.00     0.004 A 
ATOM     20  C   UNL A   1      33.079  23.948  25.789  1.00  0.00    -0.044 A 
ATOM     21  C   UNL A   1      31.905  24.286  26.666  1.00  0.00     0.045 C 
ENDBRANCH   7  14
ENDBRANCH   5   6
ENDBRANCH   3   5
ENDBRANCH   2   3
ENDBRANCH   1   2
BRANCH   1  22
ATOM     22  C   UNL A   1      33.153  35.745  29.026  1.00  0.00     0.275 C 
BRANCH  22  23
ATOM     23  O   UNL A   1      33.702  35.897  30.370  1.00  0.00    -0.458 OA
BRANCH  23  24
ATOM     24  C   UNL A   1      33.099  35.671  31.573  1.00  0.00     0.338 C 
ATOM     25  O   UNL A   1      32.107  36.280  31.936  1.00  0.00    -0.246 OA
BRANCH  24  26
ATOM     26  C   UNL A   1      33.884  34.869  32.542  1.00  0.00     0.060 A 
ATOM     27  C   UNL A   1      35.377  35.676  33.176  1.00  0.00     0.016 A 
ATOM     28  C   UNL A   1      33.840  33.073  32.355  1.00  0.00     0.016 A 
ATOM     29  C   UNL A   1      36.903  34.687  33.370  1.00  0.00     0.010 A 
ATOM     30  C   UNL A   1      35.347  32.108  32.601  1.00  0.00     0.010 A 
ATOM     31  C   UNL A   1      36.912  32.945  32.923  1.00  0.00    -0.014 A 
BRANCH  31  32
ATOM     32  C   UNL A   1      38.128  32.216  32.347  1.00  0.00     0.031 A 
ATOM     33  C   UNL A   1      38.951  31.876  33.521  1.00  0.00     0.074 A 
ATOM     34  C   UNL A   1      38.461  31.710  31.097  1.00  0.00     0.049 A 
ATOM     35  N   UNL A   1      39.966  32.560  33.931  1.00  0.00    -0.248 NA
ATOM     36  C   UNL A   1      38.427  30.927  34.515  1.00  0.00     0.031 C 
ATOM     37  C   UNL A   1      37.737  31.783  29.813  1.00  0.00     0.029 A 
ATOM     38  N   UNL A   1      39.570  30.932  30.694  1.00  0.00    -0.354 N 
ATOM     39  C   UNL A   1      40.353  31.926  35.102  1.00  0.00     0.074 A 
ATOM     40  C   UNL A   1      39.213  31.191  35.559  1.00  0.00     0.031 C 
ATOM     41  C   UNL A   1      38.247  30.921  28.889  1.00  0.00     0.029 A 
ATOM     42  C   UNL A   1      39.453  30.301  29.409  1.00  0.00     0.049 A 
ATOM     43  H   UNL A   1      40.372  30.829  31.257  1.00  0.00     0.167 HD
ATOM     44  C   UNL A   1      41.673  31.699  35.336  1.00  0.00     0.037 A 
ATOM     45  C   UNL A   1      40.325  29.447  28.759  1.00  0.00     0.037 A 
ATOM     46  C   UNL A   1      42.480  32.495  34.444  1.00  0.00     0.049 A 
ATOM     47  C   UNL A   1      41.651  29.682  29.351  1.00  0.00     0.074 A 
ATOM     48  C   UNL A   1      42.715  33.840  34.252  1.00  0.00     0.029 A 
ATOM     49  N   UNL A   1      42.759  31.864  33.261  1.00  0.00    -0.354 N 
ATOM     50  N   UNL A   1      42.319  30.784  29.188  1.00  0.00    -0.248 NA
ATOM     51  C   UNL A   1      42.024  28.858  30.483  1.00  0.00     0.031 C 
ATOM     52  C   UNL A   1      42.949  34.007  32.853  1.00  0.00     0.029 A 
ATOM     53  C   UNL A   1      42.957  32.753  32.245  1.00  0.00     0.049 A 
ATOM     54  H   UNL A   1      42.810  30.887  33.157  1.00  0.00     0.167 HD
ATOM     55  C   UNL A   1      42.818  31.041  30.449  1.00  0.00     0.074 A 
ATOM     56  C   UNL A   1      42.710  29.770  31.172  1.00  0.00     0.031 C 
ATOM     57  C   UNL A   1      42.950  32.332  30.866  1.00  0.00     0.037 A 
BRANCH  44  58
ATOM     58  C   UNL A   1      42.195  30.408  35.933  1.00  0.00     0.064 A 
ATOM     59  C   UNL A   1      43.183  30.481  36.930  1.00  0.00     0.173 A 
ATOM     60  C   UNL A   1      41.988  29.120  35.380  1.00  0.00     0.173 A 
ATOM     61  F   UNL A   1      43.501  31.660  37.484  1.00  0.00    -0.203 F 
ATOM     62  C   UNL A   1      43.924  29.359  37.318  1.00  0.00     0.198 A 
ATOM     63  C   UNL A   1      42.685  27.995  35.811  1.00  0.00     0.198 A 
ATOM     64  F   UNL A   1      41.199  28.904  34.323  1.00  0.00    -0.203 F 
ATOM     65  F   UNL A   1      44.927  29.497  38.195  1.00  0.00    -0.200 F 
ATOM     66  C   UNL A   1      43.670  28.117  36.763  1.00  0.00     0.200 A 
ATOM     67  F   UNL A   1      42.445  26.810  35.230  1.00  0.00    -0.200 F 
ATOM     68  F   UNL A   1      44.409  27.053  37.100  1.00  0.00    -0.200 F 
ENDBRANCH  44  58
BRANCH  45  69
ATOM     69  C   UNL A   1      40.168  28.240  27.852  1.00  0.00     0.064 A 
ATOM     70  C   UNL A   1      40.961  28.010  26.690  1.00  0.00     0.173 A 
ATOM     71  C   UNL A   1      39.493  27.106  28.331  1.00  0.00     0.173 A 
ATOM     72  F   UNL A   1      41.716  28.993  26.177  1.00  0.00    -0.203 F 
ATOM     73  C   UNL A   1      41.063  26.743  26.073  1.00  0.00     0.198 A 
ATOM     74  C   UNL A   1      39.606  25.842  27.723  1.00  0.00     0.198 A 
ATOM     75  F   UNL A   1      38.796  27.182  29.472  1.00  0.00    -0.203 F 
ATOM     76  F   UNL A   1      41.865  26.563  25.010  1.00  0.00    -0.200 F 
ATOM     77  C   UNL A   1      40.393  25.656  26.601  1.00  0.00     0.200 A 
ATOM     78  F   UNL A   1      38.998  24.785  28.281  1.00  0.00    -0.200 F 
ATOM     79  F   UNL A   1      40.537  24.434  26.064  1.00  0.00    -0.200 F 
ENDBRANCH  45  69
BRANCH  57  80
ATOM     80  C   UNL A   1      42.962  33.405  29.813  1.00  0.00     0.064 A 
ATOM     81  C   UNL A   1      41.869  34.225  29.485  1.00  0.00     0.173 A 
ATOM     82  C   UNL A   1      44.187  33.682  29.195  1.00  0.00     0.173 A 
ATOM     83  F   UNL A   1      40.682  34.065  30.084  1.00  0.00    -0.203 F 
ATOM     84  C   UNL A   1      42.002  35.265  28.563  1.00  0.00     0.198 A 
ATOM     85  C   UNL A   1      44.326  34.741  28.304  1.00  0.00     0.198 A 
ATOM     86  F   UNL A   1      45.270  32.951  29.500  1.00  0.00    -0.203 F 
ATOM     87  F   UNL A   1      40.947  36.038  28.261  1.00  0.00    -0.200 F 
ATOM     88  C   UNL A   1      43.233  35.527  27.982  1.00  0.00     0.200 A 
ATOM     89  F   UNL A   1      45.529  35.015  27.783  1.00  0.00    -0.200 F 
ATOM     90  F   UNL A   1      43.374  36.553  27.131  1.00  0.00    -0.200 F 
ENDBRANCH  57  80
ENDBRANCH  31  32
ENDBRANCH  24  26
ENDBRANCH  23  24
ENDBRANCH  22  23
ENDBRANCH   1  22
TORSDOF 13
ENDMDL
MODEL 2
REMARK VINA RESULT:     -13.2      5.478     10.222
REMARK SMILES Cc1ccc(C)c(/C=C2\SC(=S)N(CC(=O)OCCOC(=O)c3ccc(-c4c5nc(c(-c6c(F)c(F)c(F)c(F)c6F)c6ccc([nH]6)c(-c6c(F)c(F)c(F)c(F)c6F)c6nc(c(-c7c(F)c(F)c(F)c(F)c7F)c7ccc4[nH]7)C=C6)C=C5)cc3)C2=O)c1
REMARK SMILES IDX 18 1 17 2 15 3 16 4 14 5 13 6 8 7 9 8 10 9 86 10 11 11 87 12
REMARK SMILES IDX 12 13 7 14 1 15 2 16 3 17 88 18 4 19 5 20 6 21 19 22 20 23
REMARK SMILES IDX 21 24 22 25 23 26 24 27 85 28 25 29 84 30 26 31 27 32 28 33
REMARK SMILES IDX 78 34 29 35 83 36 77 37 79 38 30 39 82 40 76 41 75 42 31 44
REMARK SMILES IDX 63 45 43 46 62 47 44 48 47 49 61 50 80 51 45 52 46 53 60 55
REMARK SMILES IDX 81 56 48 57 32 58 33 59 41 60 34 61 35 62 39 63 42 64 36 65
REMARK SMILES IDX 37 66 40 67 38 68 64 69 65 70 73 71 66 72 67 73 71 74 74 75
REMARK SMILES IDX 68 76 69 77 72 78 70 79 49 80 50 81 58 82 51 83 52 84 56 85
REMARK SMILES IDX 59 86 53 87 54 88 57 89 55 90
REMARK H PARENT 79 43 47 54
REMARK Flexibility Score: inf
ROOT
ATOM      1  C   UNL A   1      42.166  27.426  34.857  1.00  0.00     0.274 C 
ENDROOT
BRANCH   1   2
ATOM      2  O   UNL A   1      40.989  27.534  34.065  1.00  0.00    -0.461 OA
BRANCH   2   3
ATOM      3  C   UNL A   1      40.926  28.649  33.166  1.00  0.00     0.326 C 
ATOM      4  O   UNL A   1      41.993  28.609  32.502  1.00  0.00    -0.250 OA
BRANCH   3   5
ATOM      5  C   UNL A   1      39.235  30.047  33.121  1.00  0.00     0.250 C 
BRANCH   5   6
ATOM      6  N   UNL A   1      38.344  30.853  31.854  1.00  0.00    -0.282 N 
ATOM      7  C   UNL A   1      35.101  32.213  30.958  1.00  0.00     0.029 C 
ATOM      8  C   UNL A   1      36.386  31.810  30.849  1.00  0.00     0.081 C 
ATOM      9  S   UNL A   1      37.661  32.514  29.951  1.00  0.00    -0.054 SA
ATOM     10  C   UNL A   1      36.981  30.651  31.602  1.00  0.00     0.266 C 
ATOM     11  C   UNL A   1      38.902  31.561  30.806  1.00  0.00     0.148 C 
ATOM     12  O   UNL A   1      36.330  29.651  31.865  1.00  0.00    -0.268 OA
ATOM     13  S   UNL A   1      40.489  31.594  30.301  1.00  0.00    -0.052 S 
BRANCH   7  14
ATOM     14  C   UNL A   1      34.408  33.333  30.253  1.00  0.00    -0.021 A 
ATOM     15  C   UNL A   1      33.220  36.867  31.188  1.00  0.00     0.044 C 
ATOM     16  C   UNL A   1      33.507  35.625  30.397  1.00  0.00    -0.051 A 
ATOM     17  C   UNL A   1      33.128  35.571  29.057  1.00  0.00     0.004 A 
ATOM     18  C   UNL A   1      34.139  34.510  30.982  1.00  0.00     0.011 A 
ATOM     19  C   UNL A   1      33.421  34.438  28.303  1.00  0.00     0.004 A 
ATOM     20  C   UNL A   1      34.082  33.325  28.875  1.00  0.00    -0.044 A 
ATOM     21  C   UNL A   1      34.391  32.200  27.926  1.00  0.00     0.045 C 
ENDBRANCH   7  14
ENDBRANCH   5   6
ENDBRANCH   3   5
ENDBRANCH   2   3
ENDBRANCH   1   2
BRANCH   1  22
ATOM     22  C   UNL A   1      42.421  25.941  35.102  1.00  0.00     0.275 C 
BRANCH  22  23
ATOM     23  O   UNL A   1      42.861  25.586  36.448  1.00  0.00    -0.458 OA
BRANCH  23  24
ATOM     24  C   UNL A   1      44.116  25.640  36.982  1.00  0.00     0.338 C 
ATOM     25  O   UNL A   1      44.328  26.002  38.128  1.00  0.00    -0.246 OA
BRANCH  24  26
ATOM     26  C   UNL A   1      45.231  25.529  36.011  1.00  0.00     0.060 A 
ATOM     27  C   UNL A   1      45.751  27.091  35.258  1.00  0.00     0.016 A 
ATOM     28  C   UNL A   1      45.361  23.989  35.076  1.00  0.00     0.016 A 
ATOM     29  C   UNL A   1      46.156  27.122  33.475  1.00  0.00     0.010 A 
ATOM     30  C   UNL A   1      45.812  24.037  33.327  1.00  0.00     0.010 A 
ATOM     31  C   UNL A   1      46.022  25.622  32.493  1.00  0.00    -0.014 A 
BRANCH  31  32
ATOM     32  C   UNL A   1      45.615  25.598  31.018  1.00  0.00     0.031 A 
ATOM     33  C   UNL A   1      46.593  26.472  30.346  1.00  0.00     0.074 A 
ATOM     34  C   UNL A   1      44.725  24.845  30.263  1.00  0.00     0.049 A 
ATOM     35  N   UNL A   1      46.388  27.710  30.043  1.00  0.00    -0.248 NA
ATOM     36  C   UNL A   1      48.008  26.074  30.313  1.00  0.00     0.031 C 
ATOM     37  C   UNL A   1      43.761  23.807  30.678  1.00  0.00     0.029 A 
ATOM     38  N   UNL A   1      44.512  24.814  28.866  1.00  0.00    -0.354 N 
ATOM     39  C   UNL A   1      47.600  28.141  29.526  1.00  0.00     0.074 A 
ATOM     40  C   UNL A   1      48.594  27.237  30.022  1.00  0.00     0.031 C 
ATOM     41  C   UNL A   1      43.279  23.103  29.616  1.00  0.00     0.029 A 
ATOM     42  C   UNL A   1      43.751  23.698  28.378  1.00  0.00     0.049 A 
ATOM     43  H   UNL A   1      44.861  25.514  28.267  1.00  0.00     0.167 HD
ATOM     44  C   UNL A   1      47.616  28.902  28.401  1.00  0.00     0.037 A 
ATOM     45  C   UNL A   1      43.417  23.355  27.081  1.00  0.00     0.037 A 
ATOM     46  C   UNL A   1      46.297  29.424  28.136  1.00  0.00     0.049 A 
ATOM     47  C   UNL A   1      43.513  24.590  26.288  1.00  0.00     0.074 A 
ATOM     48  C   UNL A   1      45.435  30.305  28.755  1.00  0.00     0.029 A 
ATOM     49  N   UNL A   1      45.536  28.596  27.356  1.00  0.00    -0.354 N 
ATOM     50  N   UNL A   1      42.697  25.591  26.428  1.00  0.00    -0.248 NA
ATOM     51  C   UNL A   1      44.787  24.874  25.659  1.00  0.00     0.031 C 
ATOM     52  C   UNL A   1      44.117  29.836  28.470  1.00  0.00     0.029 A 
ATOM     53  C   UNL A   1      44.202  28.751  27.601  1.00  0.00     0.049 A 
ATOM     54  H   UNL A   1      45.905  27.965  26.698  1.00  0.00     0.167 HD
ATOM     55  C   UNL A   1      43.533  26.688  26.387  1.00  0.00     0.074 A 
ATOM     56  C   UNL A   1      44.781  26.200  25.793  1.00  0.00     0.031 C 
ATOM     57  C   UNL A   1      43.236  27.783  27.143  1.00  0.00     0.037 A 
BRANCH  44  58
ATOM     58  C   UNL A   1      48.627  28.712  27.289  1.00  0.00     0.064 A 
ATOM     59  C   UNL A   1      48.703  27.459  26.658  1.00  0.00     0.173 A 
ATOM     60  C   UNL A   1      49.702  29.593  27.015  1.00  0.00     0.173 A 
ATOM     61  F   UNL A   1      47.767  26.526  26.889  1.00  0.00    -0.203 F 
ATOM     62  C   UNL A   1      49.784  27.107  25.843  1.00  0.00     0.198 A 
ATOM     63  C   UNL A   1      50.747  29.262  26.157  1.00  0.00     0.198 A 
ATOM     64  F   UNL A   1      49.863  30.758  27.649  1.00  0.00    -0.203 F 
ATOM     65  F   UNL A   1      49.867  25.865  25.349  1.00  0.00    -0.200 F 
ATOM     66  C   UNL A   1      50.802  28.010  25.589  1.00  0.00     0.200 A 
ATOM     67  F   UNL A   1      51.739  30.142  25.958  1.00  0.00    -0.200 F 
ATOM     68  F   UNL A   1      51.859  27.659  24.847  1.00  0.00    -0.200 F 
ENDBRANCH  44  58
BRANCH  45  69
ATOM     69  C   UNL A   1      43.263  22.048  26.323  1.00  0.00     0.064 A 
ATOM     70  C   UNL A   1      44.358  21.297  25.804  1.00  0.00     0.173 A 
ATOM     71  C   UNL A   1      42.062  21.328  26.434  1.00  0.00     0.173 A 
ATOM     72  F   UNL A   1      45.579  21.845  25.721  1.00  0.00    -0.203 F 
ATOM     73  C   UNL A   1      44.245  19.938  25.434  1.00  0.00     0.198 A 
ATOM     74  C   UNL A   1      41.955  19.971  26.078  1.00  0.00     0.198 A 
ATOM     75  F   UNL A   1      40.994  21.904  26.999  1.00  0.00    -0.203 F 
ATOM     76  F   UNL A   1      45.318  19.257  24.999  1.00  0.00    -0.200 F 
ATOM     77  C   UNL A   1      43.043  19.273  25.585  1.00  0.00     0.200 A 
ATOM     78  F   UNL A   1      40.800  19.324  26.285  1.00  0.00    -0.200 F 
ATOM     79  F   UNL A   1      42.942  17.965  25.302  1.00  0.00    -0.200 F 
ENDBRANCH  45  69
BRANCH  57  80
ATOM     80  C   UNL A   1      41.824  27.924  27.640  1.00  0.00     0.064 A 
ATOM     81  C   UNL A   1      41.362  27.481  28.890  1.00  0.00     0.173 A 
ATOM     82  C   UNL A   1      40.934  28.652  26.842  1.00  0.00     0.173 A 
ATOM     83  F   UNL A   1      42.174  26.835  29.737  1.00  0.00    -0.203 F 
ATOM     84  C   UNL A   1      40.056  27.745  29.308  1.00  0.00     0.198 A 
ATOM     85  C   UNL A   1      39.646  28.945  27.275  1.00  0.00     0.198 A 
ATOM     86  F   UNL A   1      41.337  29.129  25.653  1.00  0.00    -0.203 F 
ATOM     87  F   UNL A   1      39.631  27.313  30.506  1.00  0.00    -0.200 F 
ATOM     88  C   UNL A   1      39.204  28.486  28.505  1.00  0.00     0.200 A 
ATOM     89  F   UNL A   1      38.845  29.701  26.512  1.00  0.00    -0.200 F 
ATOM     90  F   UNL A   1      37.965  28.779  28.923  1.00  0.00    -0.200 F 
ENDBRANCH  57  80
ENDBRANCH  31  32
ENDBRANCH  24  26
ENDBRANCH  23  24
ENDBRANCH  22  23
ENDBRANCH   1  22
TORSDOF 13
ENDMDL
MODEL 3
REMARK VINA RESULT:     -13.0      4.815      8.736
REMARK SMILES Cc1ccc(C)c(/C=C2\SC(=S)N(CC(=O)OCCOC(=O)c3ccc(-c4c5nc(c(-c6c(F)c(F)c(F)c(F)c6F)c6ccc([nH]6)c(-c6c(F)c(F)c(F)c(F)c6F)c6nc(c(-c7c(F)c(F)c(F)c(F)c7F)c7ccc4[nH]7)C=C6)C=C5)cc3)C2=O)c1
REMARK SMILES IDX 18 1 17 2 15 3 16 4 14 5 13 6 8 7 9 8 10 9 86 10 11 11 87 12
REMARK SMILES IDX 12 13 7 14 1 15 2 16 3 17 88 18 4 19 5 20 6 21 19 22 20 23
REMARK SMILES IDX 21 24 22 25 23 26 24 27 85 28 25 29 84 30 26 31 27 32 28 33
REMARK SMILES IDX 78 34 29 35 83 36 77 37 79 38 30 39 82 40 76 41 75 42 31 44
REMARK SMILES IDX 63 45 43 46 62 47 44 48 47 49 61 50 80 51 45 52 46 53 60 55
REMARK SMILES IDX 81 56 48 57 32 58 33 59 41 60 34 61 35 62 39 63 42 64 36 65
REMARK SMILES IDX 37 66 40 67 38 68 64 69 65 70 73 71 66 72 67 73 71 74 74 75
REMARK SMILES IDX 68 76 69 77 72 78 70 79 49 80 50 81 58 82 51 83 52 84 56 85
REMARK SMILES IDX 59 86 53 87 54 88 57 89 55 90
REMARK H PARENT 79 43 47 54
REMARK Flexibility Score: inf
ROOT
ATOM      1  C   UNL A   1      46.098  32.700  26.153  1.00  0.00     0.274 C 
ENDROOT
BRANCH   1   2
ATOM      2  O   UNL A   1      45.945  31.543  26.967  1.00  0.00    -0.461 OA
BRANCH   2   3
ATOM      3  C   UNL A   1      45.462  30.361  26.314  1.00  0.00     0.326 C 
ATOM      4  O   UNL A   1      46.298  30.113  25.406  1.00  0.00    -0.250 OA
BRANCH   3   5
ATOM      5  C   UNL A   1      43.608  29.347  26.905  1.00  0.00     0.250 C 
BRANCH   5   6
ATOM      6  N   UNL A   1      43.131  27.678  27.094  1.00  0.00    -0.282 N 
ATOM      7  C   UNL A   1      42.769  24.517  25.349  1.00  0.00     0.029 C 
ATOM      8  C   UNL A   1      42.698  25.446  26.327  1.00  0.00     0.081 C 
ATOM      9  S   UNL A   1      42.882  25.243  28.016  1.00  0.00    -0.054 SA
ATOM     10  C   UNL A   1      42.514  26.920  26.091  1.00  0.00     0.266 C 
ATOM     11  C   UNL A   1      43.057  26.995  28.293  1.00  0.00     0.148 C 
ATOM     12  O   UNL A   1      41.836  27.345  25.167  1.00  0.00    -0.268 OA
ATOM     13  S   UNL A   1      43.098  27.606  29.843  1.00  0.00    -0.052 S 
BRANCH   7  14
ATOM     14  C   UNL A   1      42.935  23.037  25.471  1.00  0.00    -0.021 A 
ATOM     15  C   UNL A   1      45.780  20.521  24.878  1.00  0.00     0.044 C 
ATOM     16  C   UNL A   1      44.444  21.099  25.242  1.00  0.00    -0.051 A 
ATOM     17  C   UNL A   1      43.433  20.248  25.680  1.00  0.00     0.004 A 
ATOM     18  C   UNL A   1      44.188  22.481  25.140  1.00  0.00     0.011 A 
ATOM     19  C   UNL A   1      42.201  20.776  26.055  1.00  0.00     0.004 A 
ATOM     20  C   UNL A   1      41.944  22.165  25.983  1.00  0.00    -0.044 A 
ATOM     21  C   UNL A   1      40.593  22.599  26.482  1.00  0.00     0.045 C 
ENDBRANCH   7  14
ENDBRANCH   5   6
ENDBRANCH   3   5
ENDBRANCH   2   3
ENDBRANCH   1   2
BRANCH   1  22
ATOM     22  C   UNL A   1      44.712  33.306  25.950  1.00  0.00     0.275 C 
BRANCH  22  23
ATOM     23  O   UNL A   1      44.645  34.764  25.994  1.00  0.00    -0.458 OA
BRANCH  23  24
ATOM     24  C   UNL A   1      45.455  35.640  26.655  1.00  0.00     0.338 C 
ATOM     25  O   UNL A   1      46.523  36.019  26.202  1.00  0.00    -0.246 OA
BRANCH  24  26
ATOM     26  C   UNL A   1      45.121  35.871  28.081  1.00  0.00     0.060 A 
ATOM     27  C   UNL A   1      45.640  34.558  29.214  1.00  0.00     0.016 A 
ATOM     28  C   UNL A   1      43.632  36.831  28.434  1.00  0.00     0.016 A 
ATOM     29  C   UNL A   1      44.509  34.051  30.559  1.00  0.00     0.010 A 
ATOM     30  C   UNL A   1      42.554  36.345  29.800  1.00  0.00     0.010 A 
ATOM     31  C   UNL A   1      42.904  34.843  30.735  1.00  0.00    -0.014 A 
BRANCH  31  32
ATOM     32  C   UNL A   1      41.649  34.130  31.244  1.00  0.00     0.031 A 
ATOM     33  C   UNL A   1      41.956  33.787  32.644  1.00  0.00     0.074 A 
ATOM     34  C   UNL A   1      40.365  33.943  30.750  1.00  0.00     0.049 A 
ATOM     35  N   UNL A   1      42.376  32.634  33.044  1.00  0.00    -0.248 NA
ATOM     36  C   UNL A   1      42.152  34.868  33.622  1.00  0.00     0.031 C 
ATOM     37  C   UNL A   1      39.775  34.330  29.454  1.00  0.00     0.029 A 
ATOM     38  N   UNL A   1      39.227  33.370  31.362  1.00  0.00    -0.354 N 
ATOM     39  C   UNL A   1      42.619  32.810  34.398  1.00  0.00     0.074 A 
ATOM     40  C   UNL A   1      42.788  34.218  34.598  1.00  0.00     0.031 C 
ATOM     41  C   UNL A   1      38.415  34.229  29.461  1.00  0.00     0.029 A 
ATOM     42  C   UNL A   1      37.975  33.621  30.704  1.00  0.00     0.049 A 
ATOM     43  H   UNL A   1      39.288  32.832  32.186  1.00  0.00     0.167 HD
ATOM     44  C   UNL A   1      42.214  31.859  35.281  1.00  0.00     0.037 A 
ATOM     45  C   UNL A   1      36.693  33.251  31.069  1.00  0.00     0.037 A 
ATOM     46  C   UNL A   1      41.896  30.637  34.583  1.00  0.00     0.049 A 
ATOM     47  C   UNL A   1      36.837  32.100  31.975  1.00  0.00     0.074 A 
ATOM     48  C   UNL A   1      42.596  29.701  33.851  1.00  0.00     0.029 A 
ATOM     49  N   UNL A   1      40.590  30.571  34.179  1.00  0.00    -0.354 N 
ATOM     50  N   UNL A   1      37.260  30.936  31.585  1.00  0.00    -0.248 NA
ATOM     51  C   UNL A   1      36.931  32.384  33.393  1.00  0.00     0.031 C 
ATOM     52  C   UNL A   1      41.693  29.220  32.855  1.00  0.00     0.029 A 
ATOM     53  C   UNL A   1      40.441  29.791  33.068  1.00  0.00     0.049 A 
ATOM     54  H   UNL A   1      39.848  31.029  34.633  1.00  0.00     0.167 HD
ATOM     55  C   UNL A   1      38.126  30.560  32.592  1.00  0.00     0.074 A 
ATOM     56  C   UNL A   1      37.793  31.425  33.728  1.00  0.00     0.031 C 
ATOM     57  C   UNL A   1      39.232  29.826  32.283  1.00  0.00     0.037 A 
BRANCH  44  58
ATOM     58  C   UNL A   1      41.587  32.189  36.620  1.00  0.00     0.064 A 
ATOM     59  C   UNL A   1      40.420  32.971  36.641  1.00  0.00     0.173 A 
ATOM     60  C   UNL A   1      42.225  32.022  37.874  1.00  0.00     0.173 A 
ATOM     61  F   UNL A   1      39.765  33.241  35.502  1.00  0.00    -0.203 F 
ATOM     62  C   UNL A   1      39.950  33.564  37.818  1.00  0.00     0.198 A 
ATOM     63  C   UNL A   1      41.722  32.563  39.053  1.00  0.00     0.198 A 
ATOM     64  F   UNL A   1      43.420  31.438  38.006  1.00  0.00    -0.203 F 
ATOM     65  F   UNL A   1      38.895  34.387  37.771  1.00  0.00    -0.200 F 
ATOM     66  C   UNL A   1      40.597  33.354  39.023  1.00  0.00     0.200 A 
ATOM     67  F   UNL A   1      42.389  32.375  40.201  1.00  0.00    -0.200 F 
ATOM     68  F   UNL A   1      40.174  33.957  40.141  1.00  0.00    -0.200 F 
ENDBRANCH  44  58
BRANCH  45  69
ATOM     69  C   UNL A   1      35.322  33.894  30.967  1.00  0.00     0.064 A 
ATOM     70  C   UNL A   1      34.865  34.933  31.830  1.00  0.00     0.173 A 
ATOM     71  C   UNL A   1      34.586  33.757  29.779  1.00  0.00     0.173 A 
ATOM     72  F   UNL A   1      35.528  35.218  32.961  1.00  0.00    -0.203 F 
ATOM     73  C   UNL A   1      33.765  35.761  31.513  1.00  0.00     0.198 A 
ATOM     74  C   UNL A   1      33.499  34.591  29.458  1.00  0.00     0.198 A 
ATOM     75  F   UNL A   1      34.984  32.877  28.851  1.00  0.00    -0.203 F 
ATOM     76  F   UNL A   1      33.405  36.762  32.333  1.00  0.00    -0.200 F 
ATOM     77  C   UNL A   1      33.091  35.595  30.318  1.00  0.00     0.200 A 
ATOM     78  F   UNL A   1      32.893  34.458  28.270  1.00  0.00    -0.200 F 
ATOM     79  F   UNL A   1      32.089  36.420  29.975  1.00  0.00    -0.200 F 
ENDBRANCH  45  69
BRANCH  57  80
ATOM     80  C   UNL A   1      39.239  29.099  30.967  1.00  0.00     0.064 A 
ATOM     81  C   UNL A   1      39.710  29.631  29.755  1.00  0.00     0.173 A 
ATOM     82  C   UNL A   1      38.853  27.754  30.976  1.00  0.00     0.173 A 
ATOM     83  F   UNL A   1      40.160  30.891  29.683  1.00  0.00    -0.203 F 
ATOM     84  C   UNL A   1      39.772  28.847  28.601  1.00  0.00     0.198 A 
ATOM     85  C   UNL A   1      38.949  26.965  29.835  1.00  0.00     0.198 A 
ATOM     86  F   UNL A   1      38.428  27.187  32.116  1.00  0.00    -0.203 F 
ATOM     87  F   UNL A   1      40.224  29.373  27.452  1.00  0.00    -0.200 F 
ATOM     88  C   UNL A   1      39.401  27.512  28.646  1.00  0.00     0.200 A 
ATOM     89  F   UNL A   1      38.632  25.665  29.898  1.00  0.00    -0.200 F 
ATOM     90  F   UNL A   1      39.502  26.746  27.551  1.00  0.00    -0.200 F 
ENDBRANCH  57  80
ENDBRANCH  31  32
ENDBRANCH  24  26
ENDBRANCH  23  24
ENDBRANCH  22  23
ENDBRANCH   1  22
TORSDOF 13
ENDMDL
