MODEL 1
REMARK VINA RESULT:     -13.7      0.000      0.000
REMARK SMILES O=C(OCCOC(=O)c1cc(Cl)c2c(c1)[C@H]1C=CC[C@H]1[C@H](c1ccc(S(=O)(=O)N3CCOCC3)cc1)N2)c1ccc(-c2c3nc(c(-c4c(F)c(F)c(F)c(F)c4F)c4ccc([nH]4)c(-c4c(F)c(F)c(F)c(F)c4F)c4nc(c(-c5c(F)c(F)c(F)c(F)c5F)c5ccc2[nH]5)C=C4)C=C3)cc1
REMARK SMILES IDX 5 1 4 2 3 3 2 4 1 5 38 6 39 7 100 8 40 9 99 10 41 11 42 12
REMARK SMILES IDX 43 13 93 14 44 15 98 16 92 17 94 18 45 19 97 20 91 21 90 22
REMARK SMILES IDX 46 24 78 25 58 26 77 27 59 28 62 29 76 30 95 31 60 32 61 33
REMARK SMILES IDX 75 35 96 36 63 37 47 38 48 39 56 40 49 41 50 42 54 43 57 44
REMARK SMILES IDX 51 45 52 46 55 47 53 48 79 49 80 50 88 51 81 52 82 53 86 54
REMARK SMILES IDX 89 55 83 56 84 57 87 58 85 59 64 60 65 61 73 62 66 63 67 64
REMARK SMILES IDX 71 65 74 66 68 67 69 68 72 69 70 70 6 71 7 72 8 73 9 74
REMARK SMILES IDX 10 75 15 76 11 77 14 78 12 79 13 80 16 81 37 82 17 83 20 84
REMARK SMILES IDX 21 85 18 87 19 88 22 89 23 90 36 91 24 92 35 93 25 94 26 95
REMARK SMILES IDX 27 96 28 97 29 98 30 99 34 100 31 101 33 102 32 103
REMARK H PARENT 94 23 62 34 37 86
REMARK Flexibility Score: inf
ROOT
ATOM      1  C   UNL A   1      43.135  20.635  25.697  1.00  0.00     0.275 C 
ENDROOT
BRANCH   1   2
ATOM      2  C   UNL A   1      44.098  21.681  25.118  1.00  0.00     0.275 C 
BRANCH   2   3
ATOM      3  O   UNL A   1      44.355  22.801  25.976  1.00  0.00    -0.458 OA
BRANCH   3   4
ATOM      4  C   UNL A   1      44.211  24.118  25.704  1.00  0.00     0.338 C 
ATOM      5  O   UNL A   1      44.624  24.549  24.629  1.00  0.00    -0.246 OA
BRANCH   4   6
ATOM      6  C   UNL A   1      43.741  25.118  26.718  1.00  0.00     0.060 A 
ATOM      7  C   UNL A   1      44.208  26.421  26.901  1.00  0.00     0.016 A 
ATOM      8  C   UNL A   1      42.689  24.689  27.544  1.00  0.00     0.016 A 
ATOM      9  C   UNL A   1      43.587  27.299  27.791  1.00  0.00     0.010 A 
ATOM     10  C   UNL A   1      42.055  25.556  28.436  1.00  0.00     0.010 A 
ATOM     11  C   UNL A   1      42.514  26.869  28.566  1.00  0.00    -0.014 A 
BRANCH  11  12
ATOM     12  C   UNL A   1      42.101  27.679  29.726  1.00  0.00     0.031 A 
ATOM     13  C   UNL A   1      40.916  28.568  29.530  1.00  0.00     0.074 A 
ATOM     14  C   UNL A   1      42.684  27.564  30.930  1.00  0.00     0.049 A 
ATOM     15  N   UNL A   1      40.299  29.317  30.399  1.00  0.00    -0.248 NA
ATOM     16  C   UNL A   1      40.307  28.564  28.187  1.00  0.00     0.031 C 
ATOM     17  C   UNL A   1      43.725  26.606  31.267  1.00  0.00     0.029 A 
ATOM     18  N   UNL A   1      42.481  28.255  32.096  1.00  0.00    -0.354 N 
ATOM     19  C   UNL A   1      39.190  29.805  29.731  1.00  0.00     0.074 A 
ATOM     20  C   UNL A   1      39.263  29.355  28.363  1.00  0.00     0.031 C 
ATOM     21  C   UNL A   1      44.134  26.819  32.529  1.00  0.00     0.029 A 
ATOM     22  C   UNL A   1      43.370  27.924  33.090  1.00  0.00     0.049 A 
ATOM     23  H   UNL A   1      41.767  28.924  32.212  1.00  0.00     0.167 HD
ATOM     24  C   UNL A   1      38.168  30.522  30.242  1.00  0.00     0.037 A 
ATOM     25  C   UNL A   1      43.543  28.454  34.314  1.00  0.00     0.037 A 
ATOM     26  C   UNL A   1      38.141  31.005  31.591  1.00  0.00     0.049 A 
ATOM     27  C   UNL A   1      42.535  29.463  34.785  1.00  0.00     0.074 A 
ATOM     28  C   UNL A   1      37.186  31.792  32.203  1.00  0.00     0.029 A 
ATOM     29  N   UNL A   1      39.134  30.763  32.531  1.00  0.00    -0.354 N 
ATOM     30  N   UNL A   1      41.469  29.905  34.162  1.00  0.00    -0.248 NA
ATOM     31  C   UNL A   1      42.712  30.008  36.136  1.00  0.00     0.031 C 
ATOM     32  C   UNL A   1      37.635  32.083  33.495  1.00  0.00     0.029 A 
ATOM     33  C   UNL A   1      38.839  31.427  33.708  1.00  0.00     0.049 A 
ATOM     34  H   UNL A   1      39.929  30.202  32.382  1.00  0.00     0.167 HD
ATOM     35  C   UNL A   1      40.818  30.736  35.057  1.00  0.00     0.074 A 
ATOM     36  C   UNL A   1      41.615  30.741  36.270  1.00  0.00     0.031 C 
ATOM     37  C   UNL A   1      39.657  31.418  34.897  1.00  0.00     0.037 A 
BRANCH  24  38
ATOM     38  C   UNL A   1      37.036  30.828  29.316  1.00  0.00     0.064 A 
ATOM     39  C   UNL A   1      36.828  32.127  28.823  1.00  0.00     0.173 A 
ATOM     40  C   UNL A   1      36.133  29.827  28.941  1.00  0.00     0.173 A 
ATOM     41  F   UNL A   1      37.643  33.128  29.190  1.00  0.00    -0.203 F 
ATOM     42  C   UNL A   1      35.745  32.412  27.998  1.00  0.00     0.198 A 
ATOM     43  C   UNL A   1      35.066  30.109  28.095  1.00  0.00     0.198 A 
ATOM     44  F   UNL A   1      36.278  28.578  29.408  1.00  0.00    -0.203 F 
ATOM     45  F   UNL A   1      35.534  33.669  27.581  1.00  0.00    -0.200 F 
ATOM     46  C   UNL A   1      34.870  31.402  27.627  1.00  0.00     0.200 A 
ATOM     47  F   UNL A   1      34.218  29.134  27.741  1.00  0.00    -0.200 F 
ATOM     48  F   UNL A   1      33.827  31.677  26.832  1.00  0.00    -0.200 F 
ENDBRANCH  24  38
BRANCH  25  49
ATOM     49  C   UNL A   1      44.680  28.021  35.169  1.00  0.00     0.064 A 
ATOM     50  C   UNL A   1      44.551  26.971  36.085  1.00  0.00     0.173 A 
ATOM     51  C   UNL A   1      45.931  28.658  35.082  1.00  0.00     0.173 A 
ATOM     52  F   UNL A   1      43.376  26.338  36.216  1.00  0.00    -0.203 F 
ATOM     53  C   UNL A   1      45.620  26.584  36.896  1.00  0.00     0.198 A 
ATOM     54  C   UNL A   1      47.002  28.260  35.879  1.00  0.00     0.198 A 
ATOM     55  F   UNL A   1      46.112  29.665  34.214  1.00  0.00    -0.203 F 
ATOM     56  F   UNL A   1      45.456  25.597  37.787  1.00  0.00    -0.200 F 
ATOM     57  C   UNL A   1      46.844  27.226  36.790  1.00  0.00     0.200 A 
ATOM     58  F   UNL A   1      48.186  28.879  35.767  1.00  0.00    -0.200 F 
ATOM     59  F   UNL A   1      47.868  26.852  37.570  1.00  0.00    -0.200 F 
ENDBRANCH  25  49
BRANCH  37  60
ATOM     60  C   UNL A   1      39.169  32.222  36.063  1.00  0.00     0.064 A 
ATOM     61  C   UNL A   1      38.284  31.680  37.004  1.00  0.00     0.173 A 
ATOM     62  C   UNL A   1      39.660  33.518  36.286  1.00  0.00     0.173 A 
ATOM     63  F   UNL A   1      37.778  30.450  36.826  1.00  0.00    -0.203 F 
ATOM     64  C   UNL A   1      37.894  32.413  38.120  1.00  0.00     0.198 A 
ATOM     65  C   UNL A   1      39.298  34.232  37.423  1.00  0.00     0.198 A 
ATOM     66  F   UNL A   1      40.518  34.075  35.417  1.00  0.00    -0.203 F 
ATOM     67  F   UNL A   1      37.017  31.890  38.988  1.00  0.00    -0.200 F 
ATOM     68  C   UNL A   1      38.412  33.682  38.335  1.00  0.00     0.200 A 
ATOM     69  F   UNL A   1      39.818  35.449  37.640  1.00  0.00    -0.200 F 
ATOM     70  F   UNL A   1      38.056  34.376  39.425  1.00  0.00    -0.200 F 
ENDBRANCH  37  60
ENDBRANCH  11  12
ENDBRANCH   4   6
ENDBRANCH   3   4
ENDBRANCH   2   3
ENDBRANCH   1   2
BRANCH   1  71
ATOM     71  O   UNL A   1      41.971  21.179  26.344  1.00  0.00    -0.458 OA
BRANCH  71  72
ATOM     72  C   UNL A   1      40.819  20.478  26.165  1.00  0.00     0.338 C 
ATOM     73  O   UNL A   1      40.693  19.271  26.147  1.00  0.00    -0.246 OA
BRANCH  72  74
ATOM     74  C   UNL A   1      39.685  21.420  26.097  1.00  0.00     0.062 A 
ATOM     75  C   UNL A   1      39.802  22.704  26.618  1.00  0.00     0.038 A 
ATOM     76  C   UNL A   1      38.516  21.040  25.429  1.00  0.00     0.022 A 
ATOM     77  C   UNL A   1      38.713  23.572  26.524  1.00  0.00     0.065 A 
ATOM     78  C   UNL A   1      37.402  21.901  25.384  1.00  0.00    -0.015 A 
ATOM     79  Cl  UNL A   1      38.953  25.223  26.997  1.00  0.00    -0.082 Cl
ATOM     80  C   UNL A   1      37.464  23.147  26.022  1.00  0.00     0.057 A 
ATOM     81  C   UNL A   1      36.210  21.538  24.543  1.00  0.00     0.049 C 
ATOM     82  N   UNL A   1      36.359  23.986  26.056  1.00  0.00    -0.376 N 
ATOM     83  C   UNL A   1      35.281  20.466  25.050  1.00  0.00    -0.023 C 
ATOM     84  C   UNL A   1      35.222  22.702  24.288  1.00  0.00     0.031 C 
ATOM     85  C   UNL A   1      35.046  23.544  25.601  1.00  0.00     0.114 C 
ATOM     86  H   UNL A   1      36.465  24.904  26.397  1.00  0.00     0.161 HD
ATOM     87  C   UNL A   1      34.030  20.681  24.625  1.00  0.00    -0.030 C 
ATOM     88  C   UNL A   1      33.996  21.909  23.778  1.00  0.00     0.034 C 
BRANCH  85  89
ATOM     89  C   UNL A   1      34.135  24.761  25.423  1.00  0.00    -0.025 A 
ATOM     90  C   UNL A   1      33.038  25.105  26.244  1.00  0.00     0.007 A 
ATOM     91  C   UNL A   1      34.411  25.613  24.364  1.00  0.00     0.007 A 
ATOM     92  C   UNL A   1      32.311  26.298  26.043  1.00  0.00     0.022 A 
ATOM     93  C   UNL A   1      33.799  26.846  24.268  1.00  0.00     0.022 A 
ATOM     94  C   UNL A   1      32.733  27.197  25.068  1.00  0.00     0.082 A 
BRANCH  94  95
ATOM     95  S   UNL A   1      31.894  28.742  24.793  1.00  0.00     0.243 S 
ATOM     96  O   UNL A   1      31.029  28.937  25.939  1.00  0.00    -0.207 OA
ATOM     97  O   UNL A   1      32.912  29.701  24.434  1.00  0.00    -0.207 OA
BRANCH  95  98
ATOM     98  N   UNL A   1      30.903  28.506  23.447  1.00  0.00    -0.193 NA
ATOM     99  C   UNL A   1      30.938  29.393  22.264  1.00  0.00     0.131 C 
ATOM    100  C   UNL A   1      29.777  27.549  23.442  1.00  0.00     0.131 C 
ATOM    101  C   UNL A   1      29.571  30.046  22.004  1.00  0.00     0.177 C 
ATOM    102  C   UNL A   1      28.442  28.252  23.163  1.00  0.00     0.177 C 
ATOM    103  O   UNL A   1      28.485  29.108  22.011  1.00  0.00    -0.379 OA
ENDBRANCH  95  98
ENDBRANCH  94  95
ENDBRANCH  85  89
ENDBRANCH  72  74
ENDBRANCH  71  72
ENDBRANCH   1  71
TORSDOF 14
ENDMDL
MODEL 2
REMARK VINA RESULT:     -13.7      4.822     10.756
REMARK SMILES O=C(OCCOC(=O)c1cc(Cl)c2c(c1)[C@H]1C=CC[C@H]1[C@H](c1ccc(S(=O)(=O)N3CCOCC3)cc1)N2)c1ccc(-c2c3nc(c(-c4c(F)c(F)c(F)c(F)c4F)c4ccc([nH]4)c(-c4c(F)c(F)c(F)c(F)c4F)c4nc(c(-c5c(F)c(F)c(F)c(F)c5F)c5ccc2[nH]5)C=C4)C=C3)cc1
REMARK SMILES IDX 5 1 4 2 3 3 2 4 1 5 38 6 39 7 100 8 40 9 99 10 41 11 42 12
REMARK SMILES IDX 43 13 93 14 44 15 98 16 92 17 94 18 45 19 97 20 91 21 90 22
REMARK SMILES IDX 46 24 78 25 58 26 77 27 59 28 62 29 76 30 95 31 60 32 61 33
REMARK SMILES IDX 75 35 96 36 63 37 47 38 48 39 56 40 49 41 50 42 54 43 57 44
REMARK SMILES IDX 51 45 52 46 55 47 53 48 79 49 80 50 88 51 81 52 82 53 86 54
REMARK SMILES IDX 89 55 83 56 84 57 87 58 85 59 64 60 65 61 73 62 66 63 67 64
REMARK SMILES IDX 71 65 74 66 68 67 69 68 72 69 70 70 6 71 7 72 8 73 9 74
REMARK SMILES IDX 10 75 15 76 11 77 14 78 12 79 13 80 16 81 37 82 17 83 20 84
REMARK SMILES IDX 21 85 18 87 19 88 22 89 23 90 36 91 24 92 35 93 25 94 26 95
REMARK SMILES IDX 27 96 28 97 29 98 30 99 34 100 31 101 33 102 32 103
REMARK H PARENT 94 23 62 34 37 86
REMARK Flexibility Score: inf
ROOT
ATOM      1  C   UNL A   1      33.943  34.730  30.123  1.00  0.00     0.275 C 
ENDROOT
BRANCH   1   2
ATOM      2  C   UNL A   1      34.214  34.367  31.590  1.00  0.00     0.275 C 
BRANCH   2   3
ATOM      3  O   UNL A   1      34.547  32.990  31.815  1.00  0.00    -0.458 OA
BRANCH   3   4
ATOM      4  C   UNL A   1      35.552  32.479  32.563  1.00  0.00     0.338 C 
ATOM      5  O   UNL A   1      35.607  32.769  33.757  1.00  0.00    -0.246 OA
BRANCH   4   6
ATOM      6  C   UNL A   1      36.708  31.724  31.978  1.00  0.00     0.060 A 
ATOM      7  C   UNL A   1      37.517  30.786  32.621  1.00  0.00     0.016 A 
ATOM      8  C   UNL A   1      36.968  31.977  30.621  1.00  0.00     0.016 A 
ATOM      9  C   UNL A   1      38.475  30.050  31.921  1.00  0.00     0.010 A 
ATOM     10  C   UNL A   1      37.920  31.247  29.907  1.00  0.00     0.010 A 
ATOM     11  C   UNL A   1      38.685  30.282  30.564  1.00  0.00    -0.014 A 
BRANCH  11  12
ATOM     12  C   UNL A   1      39.908  29.759  29.932  1.00  0.00     0.031 A 
ATOM     13  C   UNL A   1      41.070  30.696  29.851  1.00  0.00     0.074 A 
ATOM     14  C   UNL A   1      40.026  28.481  29.534  1.00  0.00     0.049 A 
ATOM     15  N   UNL A   1      42.279  30.469  29.424  1.00  0.00    -0.248 NA
ATOM     16  C   UNL A   1      40.856  32.054  30.383  1.00  0.00     0.031 C 
ATOM     17  C   UNL A   1      39.018  27.450  29.728  1.00  0.00     0.029 A 
ATOM     18  N   UNL A   1      41.045  27.831  28.889  1.00  0.00    -0.354 N 
ATOM     19  C   UNL A   1      42.985  31.625  29.708  1.00  0.00     0.074 A 
ATOM     20  C   UNL A   1      42.058  32.587  30.252  1.00  0.00     0.031 C 
ATOM     21  C   UNL A   1      39.428  26.313  29.141  1.00  0.00     0.029 A 
ATOM     22  C   UNL A   1      40.735  26.539  28.542  1.00  0.00     0.049 A 
ATOM     23  H   UNL A   1      41.915  28.248  28.695  1.00  0.00     0.167 HD
ATOM     24  C   UNL A   1      44.310  31.837  29.577  1.00  0.00     0.037 A 
ATOM     25  C   UNL A   1      41.433  25.641  27.822  1.00  0.00     0.037 A 
ATOM     26  C   UNL A   1      45.206  30.887  28.983  1.00  0.00     0.049 A 
ATOM     27  C   UNL A   1      42.843  25.994  27.446  1.00  0.00     0.074 A 
ATOM     28  C   UNL A   1      46.558  31.015  28.742  1.00  0.00     0.029 A 
ATOM     29  N   UNL A   1      44.824  29.636  28.514  1.00  0.00    -0.354 N 
ATOM     30  N   UNL A   1      43.520  27.078  27.740  1.00  0.00    -0.248 NA
ATOM     31  C   UNL A   1      43.607  24.993  26.692  1.00  0.00     0.031 C 
ATOM     32  C   UNL A   1      46.983  29.869  28.064  1.00  0.00     0.029 A 
ATOM     33  C   UNL A   1      45.908  28.999  27.939  1.00  0.00     0.049 A 
ATOM     34  H   UNL A   1      43.917  29.260  28.581  1.00  0.00     0.167 HD
ATOM     35  C   UNL A   1      44.801  26.874  27.257  1.00  0.00     0.074 A 
ATOM     36  C   UNL A   1      44.806  25.558  26.644  1.00  0.00     0.031 C 
ATOM     37  C   UNL A   1      45.880  27.691  27.330  1.00  0.00     0.037 A 
BRANCH  24  38
ATOM     38  C   UNL A   1      44.831  33.149  30.065  1.00  0.00     0.064 A 
ATOM     39  C   UNL A   1      44.939  34.256  29.206  1.00  0.00     0.173 A 
ATOM     40  C   UNL A   1      45.254  33.299  31.390  1.00  0.00     0.173 A 
ATOM     41  F   UNL A   1      44.585  34.147  27.915  1.00  0.00    -0.203 F 
ATOM     42  C   UNL A   1      45.466  35.461  29.657  1.00  0.00     0.198 A 
ATOM     43  C   UNL A   1      45.756  34.513  31.845  1.00  0.00     0.198 A 
ATOM     44  F   UNL A   1      45.193  32.262  32.239  1.00  0.00    -0.203 F 
ATOM     45  F   UNL A   1      45.610  36.488  28.808  1.00  0.00    -0.200 F 
ATOM     46  C   UNL A   1      45.867  35.591  30.978  1.00  0.00     0.200 A 
ATOM     47  F   UNL A   1      46.148  34.637  33.121  1.00  0.00    -0.200 F 
ATOM     48  F   UNL A   1      46.375  36.752  31.413  1.00  0.00    -0.200 F 
ENDBRANCH  24  38
BRANCH  25  49
ATOM     49  C   UNL A   1      40.821  24.337  27.447  1.00  0.00     0.064 A 
ATOM     50  C   UNL A   1      41.273  23.131  27.996  1.00  0.00     0.173 A 
ATOM     51  C   UNL A   1      39.763  24.276  26.524  1.00  0.00     0.173 A 
ATOM     52  F   UNL A   1      42.288  23.133  28.872  1.00  0.00    -0.203 F 
ATOM     53  C   UNL A   1      40.705  21.912  27.625  1.00  0.00     0.198 A 
ATOM     54  C   UNL A   1      39.185  23.059  26.167  1.00  0.00     0.198 A 
ATOM     55  F   UNL A   1      39.286  25.403  25.974  1.00  0.00    -0.203 F 
ATOM     56  F   UNL A   1      41.181  20.771  28.142  1.00  0.00    -0.200 F 
ATOM     57  C   UNL A   1      39.661  21.877  26.713  1.00  0.00     0.200 A 
ATOM     58  F   UNL A   1      38.170  23.032  25.292  1.00  0.00    -0.200 F 
ATOM     59  F   UNL A   1      39.117  20.704  26.359  1.00  0.00    -0.200 F 
ENDBRANCH  25  49
BRANCH  37  60
ATOM     60  C   UNL A   1      47.162  27.188  26.742  1.00  0.00     0.064 A 
ATOM     61  C   UNL A   1      48.049  26.404  27.492  1.00  0.00     0.173 A 
ATOM     62  C   UNL A   1      47.463  27.421  25.391  1.00  0.00     0.173 A 
ATOM     63  F   UNL A   1      47.810  26.165  28.789  1.00  0.00    -0.203 F 
ATOM     64  C   UNL A   1      49.202  25.883  26.912  1.00  0.00     0.198 A 
ATOM     65  C   UNL A   1      48.596  26.866  24.807  1.00  0.00     0.198 A 
ATOM     66  F   UNL A   1      46.637  28.157  24.632  1.00  0.00    -0.203 F 
ATOM     67  F   UNL A   1      50.057  25.167  27.656  1.00  0.00    -0.200 F 
ATOM     68  C   UNL A   1      49.467  26.103  25.569  1.00  0.00     0.200 A 
ATOM     69  F   UNL A   1      48.837  27.061  23.503  1.00  0.00    -0.200 F 
ATOM     70  F   UNL A   1      50.564  25.578  25.006  1.00  0.00    -0.200 F 
ENDBRANCH  37  60
ENDBRANCH  11  12
ENDBRANCH   4   6
ENDBRANCH   3   4
ENDBRANCH   2   3
ENDBRANCH   1   2
BRANCH   1  71
ATOM     71  O   UNL A   1      34.299  33.711  29.172  1.00  0.00    -0.458 OA
BRANCH  71  72
ATOM     72  C   UNL A   1      33.351  33.419  28.242  1.00  0.00     0.338 C 
ATOM     73  O   UNL A   1      32.500  34.167  27.805  1.00  0.00    -0.246 OA
BRANCH  72  74
ATOM     74  C   UNL A   1      33.570  32.048  27.741  1.00  0.00     0.062 A 
ATOM     75  C   UNL A   1      34.769  31.390  27.989  1.00  0.00     0.038 A 
ATOM     76  C   UNL A   1      32.529  31.383  27.084  1.00  0.00     0.022 A 
ATOM     77  C   UNL A   1      34.936  30.089  27.512  1.00  0.00     0.065 A 
ATOM     78  C   UNL A   1      32.723  30.090  26.557  1.00  0.00    -0.015 A 
ATOM     79  Cl  UNL A   1      36.354  29.222  28.008  1.00  0.00    -0.082 Cl
ATOM     80  C   UNL A   1      33.972  29.470  26.687  1.00  0.00     0.057 A 
ATOM     81  C   UNL A   1      31.557  29.335  25.983  1.00  0.00     0.049 C 
ATOM     82  N   UNL A   1      34.214  28.227  26.117  1.00  0.00    -0.376 N 
ATOM     83  C   UNL A   1      31.043  29.742  24.626  1.00  0.00    -0.023 C 
ATOM     84  C   UNL A   1      31.809  27.822  25.772  1.00  0.00     0.031 C 
ATOM     85  C   UNL A   1      33.258  27.601  25.212  1.00  0.00     0.114 C 
ATOM     86  H   UNL A   1      35.053  27.759  26.328  1.00  0.00     0.161 HD
ATOM     87  C   UNL A   1      30.524  28.691  23.979  1.00  0.00    -0.030 C 
ATOM     88  C   UNL A   1      30.622  27.478  24.842  1.00  0.00     0.034 C 
BRANCH  85  89
ATOM     89  C   UNL A   1      33.621  26.124  25.035  1.00  0.00    -0.025 A 
ATOM     90  C   UNL A   1      34.161  25.533  23.872  1.00  0.00     0.007 A 
ATOM     91  C   UNL A   1      33.406  25.283  26.118  1.00  0.00     0.007 A 
ATOM     92  C   UNL A   1      34.540  24.174  23.841  1.00  0.00     0.022 A 
ATOM     93  C   UNL A   1      33.918  24.002  26.132  1.00  0.00     0.022 A 
ATOM     94  C   UNL A   1      34.456  23.417  25.005  1.00  0.00     0.082 A 
BRANCH  94  95
ATOM     95  S   UNL A   1      34.961  21.711  25.052  1.00  0.00     0.243 S 
ATOM     96  O   UNL A   1      35.836  21.522  23.912  1.00  0.00    -0.207 OA
ATOM     97  O   UNL A   1      35.403  21.453  26.402  1.00  0.00    -0.207 OA
BRANCH  95  98
ATOM     98  N   UNL A   1      33.568  20.800  24.776  1.00  0.00    -0.193 NA
ATOM     99  C   UNL A   1      33.473  19.363  25.114  1.00  0.00     0.131 C 
ATOM    100  C   UNL A   1      32.431  21.300  23.976  1.00  0.00     0.131 C 
ATOM    101  C   UNL A   1      33.165  18.508  23.875  1.00  0.00     0.177 C 
ATOM    102  C   UNL A   1      32.158  20.402  22.762  1.00  0.00     0.177 C 
ATOM    103  O   UNL A   1      32.066  19.010  23.101  1.00  0.00    -0.379 OA
ENDBRANCH  95  98
ENDBRANCH  94  95
ENDBRANCH  85  89
ENDBRANCH  72  74
ENDBRANCH  71  72
ENDBRANCH   1  71
TORSDOF 14
ENDMDL
MODEL 3
REMARK VINA RESULT:     -13.4      1.030      7.031
REMARK SMILES O=C(OCCOC(=O)c1cc(Cl)c2c(c1)[C@H]1C=CC[C@H]1[C@H](c1ccc(S(=O)(=O)N3CCOCC3)cc1)N2)c1ccc(-c2c3nc(c(-c4c(F)c(F)c(F)c(F)c4F)c4ccc([nH]4)c(-c4c(F)c(F)c(F)c(F)c4F)c4nc(c(-c5c(F)c(F)c(F)c(F)c5F)c5ccc2[nH]5)C=C4)C=C3)cc1
REMARK SMILES IDX 5 1 4 2 3 3 2 4 1 5 38 6 39 7 100 8 40 9 99 10 41 11 42 12
REMARK SMILES IDX 43 13 93 14 44 15 98 16 92 17 94 18 45 19 97 20 91 21 90 22
REMARK SMILES IDX 46 24 78 25 58 26 77 27 59 28 62 29 76 30 95 31 60 32 61 33
REMARK SMILES IDX 75 35 96 36 63 37 47 38 48 39 56 40 49 41 50 42 54 43 57 44
REMARK SMILES IDX 51 45 52 46 55 47 53 48 79 49 80 50 88 51 81 52 82 53 86 54
REMARK SMILES IDX 89 55 83 56 84 57 87 58 85 59 64 60 65 61 73 62 66 63 67 64
REMARK SMILES IDX 71 65 74 66 68 67 69 68 72 69 70 70 6 71 7 72 8 73 9 74
REMARK SMILES IDX 10 75 15 76 11 77 14 78 12 79 13 80 16 81 37 82 17 83 20 84
REMARK SMILES IDX 21 85 18 87 19 88 22 89 23 90 36 91 24 92 35 93 25 94 26 95
REMARK SMILES IDX 27 96 28 97 29 98 30 99 34 100 31 101 33 102 32 103
REMARK H PARENT 94 23 62 34 37 86
REMARK Flexibility Score: inf
ROOT
ATOM      1  C   UNL A   1      43.886  20.636  25.328  1.00  0.00     0.275 C 
ENDROOT
BRANCH   1   2
ATOM      2  C   UNL A   1      45.010  21.643  25.047  1.00  0.00     0.275 C 
BRANCH   2   3
ATOM      3  O   UNL A   1      45.010  22.795  25.902  1.00  0.00    -0.458 OA
BRANCH   3   4
ATOM      4  C   UNL A   1      44.773  24.085  25.573  1.00  0.00     0.338 C 
ATOM      5  O   UNL A   1      45.257  24.530  24.534  1.00  0.00    -0.246 OA
BRANCH   4   6
ATOM      6  C   UNL A   1      44.102  25.057  26.497  1.00  0.00     0.060 A 
ATOM      7  C   UNL A   1      44.303  26.436  26.565  1.00  0.00     0.016 A 
ATOM      8  C   UNL A   1      43.143  24.503  27.360  1.00  0.00     0.016 A 
ATOM      9  C   UNL A   1      43.510  27.250  27.378  1.00  0.00     0.010 A 
ATOM     10  C   UNL A   1      42.339  25.302  28.176  1.00  0.00     0.010 A 
ATOM     11  C   UNL A   1      42.530  26.685  28.191  1.00  0.00    -0.014 A 
BRANCH  11  12
ATOM     12  C   UNL A   1      41.952  27.495  29.277  1.00  0.00     0.031 A 
ATOM     13  C   UNL A   1      42.652  27.440  30.595  1.00  0.00     0.074 A 
ATOM     14  C   UNL A   1      40.911  28.322  29.084  1.00  0.00     0.049 A 
ATOM     15  N   UNL A   1      42.406  28.111  31.684  1.00  0.00    -0.248 NA
ATOM     16  C   UNL A   1      43.828  26.555  30.678  1.00  0.00     0.031 C 
ATOM     17  C   UNL A   1      40.273  28.577  27.802  1.00  0.00     0.029 A 
ATOM     18  N   UNL A   1      40.209  29.104  29.964  1.00  0.00    -0.354 N 
ATOM     19  C   UNL A   1      43.439  27.790  32.547  1.00  0.00     0.074 A 
ATOM     20  C   UNL A   1      44.260  26.794  31.904  1.00  0.00     0.031 C 
ATOM     21  C   UNL A   1      39.219  29.391  27.985  1.00  0.00     0.029 A 
ATOM     22  C   UNL A   1      39.121  29.722  29.399  1.00  0.00     0.049 A 
ATOM     23  H   UNL A   1      40.462  29.214  30.910  1.00  0.00     0.167 HD
ATOM     24  C   UNL A   1      43.704  28.329  33.755  1.00  0.00     0.037 A 
ATOM     25  C   UNL A   1      38.156  30.471  29.963  1.00  0.00     0.037 A 
ATOM     26  C   UNL A   1      42.845  29.278  34.401  1.00  0.00     0.049 A 
ATOM     27  C   UNL A   1      38.327  30.858  31.404  1.00  0.00     0.074 A 
ATOM     28  C   UNL A   1      42.981  29.849  35.649  1.00  0.00     0.029 A 
ATOM     29  N   UNL A   1      41.672  29.776  33.849  1.00  0.00    -0.354 N 
ATOM     30  N   UNL A   1      39.320  30.575  32.213  1.00  0.00    -0.248 NA
ATOM     31  C   UNL A   1      37.287  31.704  32.000  1.00  0.00     0.031 C 
ATOM     32  C   UNL A   1      41.853  30.641  35.883  1.00  0.00     0.029 A 
ATOM     33  C   UNL A   1      41.045  30.613  34.754  1.00  0.00     0.049 A 
ATOM     34  H   UNL A   1      41.336  29.564  32.948  1.00  0.00     0.167 HD
ATOM     35  C   UNL A   1      39.056  31.248  33.394  1.00  0.00     0.074 A 
ATOM     36  C   UNL A   1      37.803  31.952  33.196  1.00  0.00     0.031 C 
ATOM     37  C   UNL A   1      39.793  31.295  34.531  1.00  0.00     0.037 A 
BRANCH  24  38
ATOM     38  C   UNL A   1      44.955  27.872  34.432  1.00  0.00     0.064 A 
ATOM     39  C   UNL A   1      46.181  28.524  34.217  1.00  0.00     0.173 A 
ATOM     40  C   UNL A   1      44.939  26.758  35.279  1.00  0.00     0.173 A 
ATOM     41  F   UNL A   1      46.253  29.571  33.380  1.00  0.00    -0.203 F 
ATOM     42  C   UNL A   1      47.349  28.064  34.816  1.00  0.00     0.198 A 
ATOM     43  C   UNL A   1      46.104  26.317  35.897  1.00  0.00     0.198 A 
ATOM     44  F   UNL A   1      43.797  26.089  35.493  1.00  0.00    -0.203 F 
ATOM     45  F   UNL A   1      48.517  28.668  34.556  1.00  0.00    -0.200 F 
ATOM     46  C   UNL A   1      47.308  26.966  35.663  1.00  0.00     0.200 A 
ATOM     47  F   UNL A   1      46.065  25.253  36.711  1.00  0.00    -0.200 F 
ATOM     48  F   UNL A   1      48.433  26.523  36.240  1.00  0.00    -0.200 F 
ENDBRANCH  24  38
BRANCH  25  49
ATOM     49  C   UNL A   1      36.983  30.916  29.163  1.00  0.00     0.064 A 
ATOM     50  C   UNL A   1      36.845  32.243  28.741  1.00  0.00     0.173 A 
ATOM     51  C   UNL A   1      35.970  30.010  28.804  1.00  0.00     0.173 A 
ATOM     52  F   UNL A   1      37.777  33.150  29.068  1.00  0.00    -0.203 F 
ATOM     53  C   UNL A   1      35.732  32.655  28.006  1.00  0.00     0.198 A 
ATOM     54  C   UNL A   1      34.867  30.418  28.056  1.00  0.00     0.198 A 
ATOM     55  F   UNL A   1      36.056  28.724  29.175  1.00  0.00    -0.203 F 
ATOM     56  F   UNL A   1      35.611  33.939  27.645  1.00  0.00    -0.200 F 
ATOM     57  C   UNL A   1      34.746  31.743  27.662  1.00  0.00     0.200 A 
ATOM     58  F   UNL A   1      33.922  29.530  27.718  1.00  0.00    -0.200 F 
ATOM     59  F   UNL A   1      33.679  32.141  26.957  1.00  0.00    -0.200 F 
ENDBRANCH  25  49
BRANCH  37  60
ATOM     60  C   UNL A   1      39.272  32.142  35.651  1.00  0.00     0.064 A 
ATOM     61  C   UNL A   1      38.449  31.605  36.649  1.00  0.00     0.173 A 
ATOM     62  C   UNL A   1      39.671  33.482  35.771  1.00  0.00     0.173 A 
ATOM     63  F   UNL A   1      38.031  30.333  36.570  1.00  0.00    -0.203 F 
ATOM     64  C   UNL A   1      38.030  32.386  37.722  1.00  0.00     0.198 A 
ATOM     65  C   UNL A   1      39.282  34.247  36.865  1.00  0.00     0.198 A 
ATOM     66  F   UNL A   1      40.468  34.037  34.844  1.00  0.00    -0.203 F 
ATOM     67  F   UNL A   1      37.211  31.864  38.646  1.00  0.00    -0.200 F 
ATOM     68  C   UNL A   1      38.457  33.700  37.836  1.00  0.00     0.200 A 
ATOM     69  F   UNL A   1      39.715  35.510  36.984  1.00  0.00    -0.200 F 
ATOM     70  F   UNL A   1      38.074  34.442  38.883  1.00  0.00    -0.200 F 
ENDBRANCH  37  60
ENDBRANCH  11  12
ENDBRANCH   4   6
ENDBRANCH   3   4
ENDBRANCH   2   3
ENDBRANCH   1   2
BRANCH   1  71
ATOM     71  O   UNL A   1      42.670  21.213  25.838  1.00  0.00    -0.458 OA
BRANCH  71  72
ATOM     72  C   UNL A   1      41.611  20.365  25.928  1.00  0.00     0.338 C 
ATOM     73  O   UNL A   1      41.648  19.153  25.985  1.00  0.00    -0.246 OA
BRANCH  72  74
ATOM     74  C   UNL A   1      40.370  21.153  26.059  1.00  0.00     0.062 A 
ATOM     75  C   UNL A   1      40.362  22.343  26.777  1.00  0.00     0.038 A 
ATOM     76  C   UNL A   1      39.218  20.737  25.383  1.00  0.00     0.022 A 
ATOM     77  C   UNL A   1      39.174  23.069  26.868  1.00  0.00     0.065 A 
ATOM     78  C   UNL A   1      38.008  21.444  25.523  1.00  0.00    -0.015 A 
ATOM     79  Cl  UNL A   1      39.242  24.642  27.595  1.00  0.00    -0.082 Cl
ATOM     80  C   UNL A   1      37.957  22.572  26.352  1.00  0.00     0.057 A 
ATOM     81  C   UNL A   1      36.821  21.069  24.680  1.00  0.00     0.049 C 
ATOM     82  N   UNL A   1      36.763  23.247  26.566  1.00  0.00    -0.376 N 
ATOM     83  C   UNL A   1      36.058  19.820  25.041  1.00  0.00    -0.023 C 
ATOM     84  C   UNL A   1      35.687  22.122  24.658  1.00  0.00     0.031 C 
ATOM     85  C   UNL A   1      35.489  22.718  26.096  1.00  0.00     0.114 C 
ATOM     86  H   UNL A   1      36.779  24.106  27.048  1.00  0.00     0.161 HD
ATOM     87  C   UNL A   1      34.768  19.938  24.705  1.00  0.00    -0.030 C 
ATOM     88  C   UNL A   1      34.537  21.269  24.073  1.00  0.00     0.034 C 
BRANCH  85  89
ATOM     89  C   UNL A   1      34.429  23.821  26.155  1.00  0.00    -0.025 A 
ATOM     90  C   UNL A   1      34.600  25.162  25.744  1.00  0.00     0.007 A 
ATOM     91  C   UNL A   1      33.180  23.476  26.651  1.00  0.00     0.007 A 
ATOM     92  C   UNL A   1      33.530  26.082  25.763  1.00  0.00     0.022 A 
ATOM     93  C   UNL A   1      32.106  24.332  26.522  1.00  0.00     0.022 A 
ATOM     94  C   UNL A   1      32.258  25.640  26.115  1.00  0.00     0.082 A 
BRANCH  94  95
ATOM     95  S   UNL A   1      30.854  26.733  26.113  1.00  0.00     0.243 S 
ATOM     96  O   UNL A   1      29.696  25.896  25.868  1.00  0.00    -0.207 OA
ATOM     97  O   UNL A   1      30.968  27.547  27.300  1.00  0.00    -0.207 OA
BRANCH  95  98
ATOM     98  N   UNL A   1      31.042  27.740  24.771  1.00  0.00    -0.193 NA
ATOM     99  C   UNL A   1      30.752  27.293  23.391  1.00  0.00     0.131 C 
ATOM    100  C   UNL A   1      31.721  29.050  24.844  1.00  0.00     0.131 C 
ATOM    101  C   UNL A   1      31.992  27.400  22.488  1.00  0.00     0.177 C 
ATOM    102  C   UNL A   1      32.939  29.106  23.913  1.00  0.00     0.177 C 
ATOM    103  O   UNL A   1      32.647  28.674  22.576  1.00  0.00    -0.379 OA
ENDBRANCH  95  98
ENDBRANCH  94  95
ENDBRANCH  85  89
ENDBRANCH  72  74
ENDBRANCH  71  72
ENDBRANCH   1  71
TORSDOF 14
ENDMDL
