MODEL 1
REMARK VINA RESULT:     -11.9      0.000      0.000
REMARK SMILES Cc1ccc(NC(=O)C[N@H+]2CC[C@@H](C(=O)OCCOC(=O)c3ccc(-c4c5nc(c(-c6c(F)c(F)c(F)c(F)c6F)c6ccc([nH]6)c(-c6c(F)c(F)c(F)c(F)c6F)c6nc(c(-c7c(F)c(F)c(F)c(F)c7F)c7ccc4[nH]7)C=C6)C=C5)cc3)[C@@H]2C)cc1
REMARK SMILES IDX 17 1 16 2 14 3 15 4 13 5 10 6 11 7 85 8 12 10 86 11 9 12
REMARK SMILES IDX 7 13 6 14 8 16 5 17 1 18 2 19 3 20 88 21 4 22 87 23 18 24
REMARK SMILES IDX 19 25 20 26 21 27 22 28 23 29 84 30 24 31 83 32 25 33 26 34
REMARK SMILES IDX 27 35 77 36 28 37 82 38 76 39 78 40 29 41 81 42 75 43 74 44
REMARK SMILES IDX 30 46 62 47 42 48 61 49 43 50 46 51 60 52 79 53 44 54 45 55
REMARK SMILES IDX 59 57 80 58 47 59 31 60 32 61 40 62 33 63 34 64 38 65 41 66
REMARK SMILES IDX 35 67 36 68 39 69 37 70 63 71 64 72 72 73 65 74 66 75 70 76
REMARK SMILES IDX 73 77 67 78 68 79 71 80 69 81 48 82 49 83 57 84 50 85 51 86
REMARK SMILES IDX 55 87 58 88 52 89 53 90 56 91 54 92
REMARK H PARENT 10 9 6 15 78 45 46 56
REMARK Flexibility Score: inf
ROOT
ATOM      1  C   UNL A   1      46.207  26.670  24.681  1.00  0.00     0.274 C 
ENDROOT
BRANCH   1   2
ATOM      2  O   UNL A   1      47.050  25.488  24.553  1.00  0.00    -0.462 OA
BRANCH   2   3
ATOM      3  C   UNL A   1      46.792  24.344  25.214  1.00  0.00     0.315 C 
ATOM      4  O   UNL A   1      47.369  24.086  26.267  1.00  0.00    -0.252 OA
BRANCH   3   5
ATOM      5  C   UNL A   1      45.646  23.376  24.681  1.00  0.00     0.162 C 
ATOM      6  N   UNL A   1      44.409  22.131  26.322  1.00  0.00    -0.324 N 
ATOM      7  C   UNL A   1      43.472  22.203  25.221  1.00  0.00     0.264 C 
ATOM      8  C   UNL A   1      45.766  22.196  25.626  1.00  0.00     0.195 C 
ATOM      9  H   UNL A   1      44.316  21.280  26.877  1.00  0.00     0.348 HD
ATOM     10  C   UNL A   1      44.122  23.198  24.251  1.00  0.00     0.083 C 
ATOM     11  C   UNL A   1      46.217  21.084  24.626  1.00  0.00     0.076 C 
BRANCH   6  12
ATOM     12  C   UNL A   1      44.163  23.205  27.429  1.00  0.00     0.364 C 
BRANCH  12  13
ATOM     13  C   UNL A   1      43.157  22.948  28.740  1.00  0.00     0.279 C 
ATOM     14  N   UNL A   1      41.737  23.179  28.853  1.00  0.00    -0.321 N 
ATOM     15  H   UNL A   1      41.441  23.450  29.752  1.00  0.00     0.170 HD
ATOM     16  O   UNL A   1      43.709  22.625  29.809  1.00  0.00    -0.268 OA
BRANCH  14  17
ATOM     17  C   UNL A   1      40.667  23.080  27.876  1.00  0.00     0.041 A 
ATOM     18  C   UNL A   1      37.028  22.038  24.238  1.00  0.00     0.044 C 
ATOM     19  C   UNL A   1      38.042  22.170  25.429  1.00  0.00    -0.051 A 
ATOM     20  C   UNL A   1      39.543  20.999  26.126  1.00  0.00     0.005 A 
ATOM     21  C   UNL A   1      38.110  23.888  26.129  1.00  0.00     0.005 A 
ATOM     22  C   UNL A   1      40.695  21.624  27.279  1.00  0.00     0.026 A 
ATOM     23  C   UNL A   1      39.398  24.243  27.385  1.00  0.00     0.026 A 
ENDBRANCH  14  17
ENDBRANCH  12  13
ENDBRANCH   6  12
ENDBRANCH   3   5
ENDBRANCH   2   3
ENDBRANCH   1   2
BRANCH   1  24
ATOM     24  C   UNL A   1      45.239  26.889  25.900  1.00  0.00     0.275 C 
BRANCH  24  25
ATOM     25  O   UNL A   1      43.797  26.829  25.750  1.00  0.00    -0.458 OA
BRANCH  25  26
ATOM     26  C   UNL A   1      42.849  27.790  25.693  1.00  0.00     0.338 C 
ATOM     27  O   UNL A   1      42.396  28.203  24.632  1.00  0.00    -0.246 OA
BRANCH  26  28
ATOM     28  C   UNL A   1      42.184  28.211  26.931  1.00  0.00     0.060 A 
ATOM     29  C   UNL A   1      42.912  29.647  27.706  1.00  0.00     0.016 A 
ATOM     30  C   UNL A   1      40.503  27.742  27.154  1.00  0.00     0.016 A 
ATOM     31  C   UNL A   1      42.006  30.753  28.702  1.00  0.00     0.010 A 
ATOM     32  C   UNL A   1      39.411  28.820  28.071  1.00  0.00     0.010 A 
ATOM     33  C   UNL A   1      40.260  30.428  29.021  1.00  0.00    -0.014 A 
BRANCH  33  34
ATOM     34  C   UNL A   1      40.269  31.039  30.500  1.00  0.00     0.031 A 
ATOM     35  C   UNL A   1      39.974  32.486  30.630  1.00  0.00     0.074 A 
ATOM     36  C   UNL A   1      40.528  30.182  31.556  1.00  0.00     0.049 A 
ATOM     37  N   UNL A   1      39.440  33.011  31.666  1.00  0.00    -0.248 NA
ATOM     38  C   UNL A   1      39.964  33.465  29.538  1.00  0.00     0.031 C 
ATOM     39  C   UNL A   1      39.594  29.558  32.545  1.00  0.00     0.029 A 
ATOM     40  N   UNL A   1      41.479  29.150  31.559  1.00  0.00    -0.354 N 
ATOM     41  C   UNL A   1      38.406  33.769  31.140  1.00  0.00     0.074 A 
ATOM     42  C   UNL A   1      38.938  34.261  29.898  1.00  0.00     0.031 C 
ATOM     43  C   UNL A   1      40.213  28.596  33.279  1.00  0.00     0.029 A 
ATOM     44  C   UNL A   1      41.573  28.495  32.788  1.00  0.00     0.049 A 
ATOM     45  H   UNL A   1      42.025  28.914  30.774  1.00  0.00     0.167 HD
ATOM     46  C   UNL A   1      37.183  33.629  31.739  1.00  0.00     0.037 A 
ATOM     47  C   UNL A   1      42.751  28.719  33.424  1.00  0.00     0.037 A 
ATOM     48  C   UNL A   1      37.305  32.685  32.869  1.00  0.00     0.049 A 
ATOM     49  C   UNL A   1      42.451  29.960  34.258  1.00  0.00     0.074 A 
ATOM     50  C   UNL A   1      36.822  31.452  33.250  1.00  0.00     0.029 A 
ATOM     51  N   UNL A   1      38.338  32.941  33.744  1.00  0.00    -0.354 N 
ATOM     52  N   UNL A   1      41.438  30.762  34.029  1.00  0.00    -0.248 NA
ATOM     53  C   UNL A   1      43.140  30.306  35.481  1.00  0.00     0.031 C 
ATOM     54  C   UNL A   1      37.661  30.990  34.352  1.00  0.00     0.029 A 
ATOM     55  C   UNL A   1      38.715  31.886  34.531  1.00  0.00     0.049 A 
ATOM     56  H   UNL A   1      38.774  33.822  33.800  1.00  0.00     0.167 HD
ATOM     57  C   UNL A   1      41.143  31.497  35.124  1.00  0.00     0.074 A 
ATOM     58  C   UNL A   1      42.380  31.338  35.903  1.00  0.00     0.031 C 
ATOM     59  C   UNL A   1      39.919  32.097  35.361  1.00  0.00     0.037 A 
BRANCH  46  60
ATOM     60  C   UNL A   1      35.840  34.199  31.343  1.00  0.00     0.064 A 
ATOM     61  C   UNL A   1      35.171  35.024  32.281  1.00  0.00     0.173 A 
ATOM     62  C   UNL A   1      35.148  33.988  30.137  1.00  0.00     0.173 A 
ATOM     63  F   UNL A   1      35.733  35.327  33.459  1.00  0.00    -0.203 F 
ATOM     64  C   UNL A   1      33.914  35.582  32.045  1.00  0.00     0.198 A 
ATOM     65  C   UNL A   1      33.893  34.579  29.887  1.00  0.00     0.198 A 
ATOM     66  F   UNL A   1      35.640  33.185  29.182  1.00  0.00    -0.203 F 
ATOM     67  F   UNL A   1      33.331  36.327  32.995  1.00  0.00    -0.200 F 
ATOM     68  C   UNL A   1      33.278  35.370  30.843  1.00  0.00     0.200 A 
ATOM     69  F   UNL A   1      33.272  34.370  28.716  1.00  0.00    -0.200 F 
ATOM     70  F   UNL A   1      32.077  35.920  30.611  1.00  0.00    -0.200 F 
ENDBRANCH  46  60
BRANCH  47  71
ATOM     71  C   UNL A   1      43.869  28.443  32.425  1.00  0.00     0.064 A 
ATOM     72  C   UNL A   1      44.053  27.098  31.975  1.00  0.00     0.173 A 
ATOM     73  C   UNL A   1      44.428  29.436  31.611  1.00  0.00     0.173 A 
ATOM     74  F   UNL A   1      43.473  26.084  32.640  1.00  0.00    -0.203 F 
ATOM     75  C   UNL A   1      44.684  26.786  30.764  1.00  0.00     0.198 A 
ATOM     76  C   UNL A   1      45.071  29.116  30.401  1.00  0.00     0.198 A 
ATOM     77  F   UNL A   1      44.236  30.728  31.902  1.00  0.00    -0.203 F 
ATOM     78  F   UNL A   1      44.673  25.525  30.301  1.00  0.00    -0.200 F 
ATOM     79  C   UNL A   1      45.199  27.799  29.979  1.00  0.00     0.200 A 
ATOM     80  F   UNL A   1      45.455  30.099  29.574  1.00  0.00    -0.200 F 
ATOM     81  F   UNL A   1      45.709  27.523  28.769  1.00  0.00    -0.200 F 
ENDBRANCH  47  71
BRANCH  59  82
ATOM     82  C   UNL A   1      39.840  33.166  36.411  1.00  0.00     0.064 A 
ATOM     83  C   UNL A   1      40.483  34.386  36.246  1.00  0.00     0.173 A 
ATOM     84  C   UNL A   1      39.044  33.040  37.578  1.00  0.00     0.173 A 
ATOM     85  F   UNL A   1      41.449  34.535  35.328  1.00  0.00    -0.203 F 
ATOM     86  C   UNL A   1      40.126  35.488  37.011  1.00  0.00     0.198 A 
ATOM     87  C   UNL A   1      38.798  34.104  38.420  1.00  0.00     0.198 A 
ATOM     88  F   UNL A   1      38.425  31.913  37.945  1.00  0.00    -0.203 F 
ATOM     89  F   UNL A   1      40.588  36.696  36.670  1.00  0.00    -0.200 F 
ATOM     90  C   UNL A   1      39.278  35.348  38.094  1.00  0.00     0.200 A 
ATOM     91  F   UNL A   1      38.048  33.914  39.514  1.00  0.00    -0.200 F 
ATOM     92  F   UNL A   1      38.932  36.406  38.832  1.00  0.00    -0.200 F 
ENDBRANCH  59  82
ENDBRANCH  33  34
ENDBRANCH  26  28
ENDBRANCH  25  26
ENDBRANCH  24  25
ENDBRANCH   1  24
TORSDOF 14
ENDMDL
MODEL 2
REMARK VINA RESULT:     -11.6      5.139      8.916
REMARK SMILES Cc1ccc(NC(=O)C[N@H+]2CC[C@@H](C(=O)OCCOC(=O)c3ccc(-c4c5nc(c(-c6c(F)c(F)c(F)c(F)c6F)c6ccc([nH]6)c(-c6c(F)c(F)c(F)c(F)c6F)c6nc(c(-c7c(F)c(F)c(F)c(F)c7F)c7ccc4[nH]7)C=C6)C=C5)cc3)[C@@H]2C)cc1
REMARK SMILES IDX 17 1 16 2 14 3 15 4 13 5 10 6 11 7 85 8 12 10 86 11 9 12
REMARK SMILES IDX 7 13 6 14 8 16 5 17 1 18 2 19 3 20 88 21 4 22 87 23 18 24
REMARK SMILES IDX 19 25 20 26 21 27 22 28 23 29 84 30 24 31 83 32 25 33 26 34
REMARK SMILES IDX 27 35 77 36 28 37 82 38 76 39 78 40 29 41 81 42 75 43 74 44
REMARK SMILES IDX 30 46 62 47 42 48 61 49 43 50 46 51 60 52 79 53 44 54 45 55
REMARK SMILES IDX 59 57 80 58 47 59 31 60 32 61 40 62 33 63 34 64 38 65 41 66
REMARK SMILES IDX 35 67 36 68 39 69 37 70 63 71 64 72 72 73 65 74 66 75 70 76
REMARK SMILES IDX 73 77 67 78 68 79 71 80 69 81 48 82 49 83 57 84 50 85 51 86
REMARK SMILES IDX 55 87 58 88 52 89 53 90 56 91 54 92
REMARK H PARENT 10 9 6 15 78 45 46 56
REMARK Flexibility Score: inf
ROOT
ATOM      1  C   UNL A   1      37.926  23.081  26.053  1.00  0.00     0.274 C 
ENDROOT
BRANCH   1   2
ATOM      2  O   UNL A   1      36.719  23.241  25.250  1.00  0.00    -0.462 OA
BRANCH   2   3
ATOM      3  C   UNL A   1      35.487  23.040  25.754  1.00  0.00     0.315 C 
ATOM      4  O   UNL A   1      35.197  23.441  26.878  1.00  0.00    -0.252 OA
BRANCH   3   5
ATOM      5  C   UNL A   1      34.367  22.377  24.836  1.00  0.00     0.162 C 
ATOM      6  N   UNL A   1      32.451  21.443  25.944  1.00  0.00    -0.324 N 
ATOM      7  C   UNL A   1      31.927  21.748  24.629  1.00  0.00     0.264 C 
ATOM      8  C   UNL A   1      33.932  21.192  25.677  1.00  0.00     0.195 C 
ATOM      9  H   UNL A   1      32.009  20.632  26.378  1.00  0.00     0.348 HD
ATOM     10  C   UNL A   1      33.042  22.571  23.973  1.00  0.00     0.083 C 
ATOM     11  C   UNL A   1      34.402  20.017  24.761  1.00  0.00     0.076 C 
BRANCH   6  12
ATOM     12  C   UNL A   1      32.131  22.533  27.017  1.00  0.00     0.364 C 
BRANCH  12  13
ATOM     13  C   UNL A   1      30.729  23.443  27.000  1.00  0.00     0.279 C 
ATOM     14  N   UNL A   1      30.537  24.806  26.567  1.00  0.00    -0.321 N 
ATOM     15  H   UNL A   1      29.847  25.298  27.069  1.00  0.00     0.170 HD
ATOM     16  O   UNL A   1      29.728  22.933  27.540  1.00  0.00    -0.268 OA
BRANCH  14  17
ATOM     17  C   UNL A   1      31.180  25.581  25.520  1.00  0.00     0.041 A 
ATOM     18  C   UNL A   1      34.081  28.406  22.180  1.00  0.00     0.044 C 
ATOM     19  C   UNL A   1      33.382  27.420  23.181  1.00  0.00    -0.051 A 
ATOM     20  C   UNL A   1      33.828  26.773  25.049  1.00  0.00     0.005 A 
ATOM     21  C   UNL A   1      31.630  27.033  22.704  1.00  0.00     0.005 A 
ATOM     22  C   UNL A   1      32.637  25.926  26.004  1.00  0.00     0.026 A 
ATOM     23  C   UNL A   1      30.623  26.061  23.889  1.00  0.00     0.026 A 
ENDBRANCH  14  17
ENDBRANCH  12  13
ENDBRANCH   6  12
ENDBRANCH   3   5
ENDBRANCH   2   3
ENDBRANCH   1   2
BRANCH   1  24
ATOM     24  C   UNL A   1      38.950  21.912  25.815  1.00  0.00     0.275 C 
BRANCH  24  25
ATOM     25  O   UNL A   1      39.705  21.326  26.906  1.00  0.00    -0.458 OA
BRANCH  25  26
ATOM     26  C   UNL A   1      40.978  21.497  27.325  1.00  0.00     0.338 C 
ATOM     27  O   UNL A   1      41.633  20.588  27.821  1.00  0.00    -0.246 OA
BRANCH  26  28
ATOM     28  C   UNL A   1      41.677  22.744  26.995  1.00  0.00     0.060 A 
ATOM     29  C   UNL A   1      41.550  24.014  28.245  1.00  0.00     0.016 A 
ATOM     30  C   UNL A   1      43.004  22.653  25.843  1.00  0.00     0.016 A 
ATOM     31  C   UNL A   1      42.763  25.241  28.481  1.00  0.00     0.010 A 
ATOM     32  C   UNL A   1      44.381  23.782  26.007  1.00  0.00     0.010 A 
ATOM     33  C   UNL A   1      44.202  25.284  27.393  1.00  0.00    -0.014 A 
BRANCH  33  34
ATOM     34  C   UNL A   1      44.350  26.877  27.413  1.00  0.00     0.031 A 
ATOM     35  C   UNL A   1      43.314  27.656  26.694  1.00  0.00     0.074 A 
ATOM     36  C   UNL A   1      45.415  27.422  28.109  1.00  0.00     0.049 A 
ATOM     37  N   UNL A   1      42.970  28.844  27.015  1.00  0.00    -0.248 NA
ATOM     38  C   UNL A   1      42.343  27.120  25.734  1.00  0.00     0.031 C 
ATOM     39  C   UNL A   1      45.455  28.076  29.455  1.00  0.00     0.029 A 
ATOM     40  N   UNL A   1      46.722  26.912  28.138  1.00  0.00    -0.354 N 
ATOM     41  C   UNL A   1      41.587  28.769  27.072  1.00  0.00     0.074 A 
ATOM     42  C   UNL A   1      41.248  27.852  26.018  1.00  0.00     0.031 C 
ATOM     43  C   UNL A   1      46.732  28.268  29.879  1.00  0.00     0.029 A 
ATOM     44  C   UNL A   1      47.606  27.711  28.866  1.00  0.00     0.049 A 
ATOM     45  H   UNL A   1      46.988  26.077  27.690  1.00  0.00     0.167 HD
ATOM     46  C   UNL A   1      40.994  29.307  28.183  1.00  0.00     0.037 A 
ATOM     47  C   UNL A   1      48.541  28.316  28.090  1.00  0.00     0.037 A 
ATOM     48  C   UNL A   1      42.037  29.887  29.054  1.00  0.00     0.049 A 
ATOM     49  C   UNL A   1      47.867  29.632  27.717  1.00  0.00     0.074 A 
ATOM     50  C   UNL A   1      42.559  29.701  30.315  1.00  0.00     0.029 A 
ATOM     51  N   UNL A   1      42.931  30.727  28.426  1.00  0.00    -0.354 N 
ATOM     52  N   UNL A   1      46.575  29.841  27.816  1.00  0.00    -0.248 NA
ATOM     53  C   UNL A   1      48.577  30.842  27.367  1.00  0.00     0.031 C 
ATOM     54  C   UNL A   1      43.821  30.433  30.364  1.00  0.00     0.029 A 
ATOM     55  C   UNL A   1      44.107  30.937  29.094  1.00  0.00     0.049 A 
ATOM     56  H   UNL A   1      42.736  31.148  27.557  1.00  0.00     0.167 HD
ATOM     57  C   UNL A   1      46.298  31.163  27.851  1.00  0.00     0.074 A 
ATOM     58  C   UNL A   1      47.554  31.721  27.330  1.00  0.00     0.031 C 
ATOM     59  C   UNL A   1      45.135  31.709  28.366  1.00  0.00     0.037 A 
BRANCH  46  60
ATOM     60  C   UNL A   1      39.546  29.280  28.616  1.00  0.00     0.064 A 
ATOM     61  C   UNL A   1      38.560  29.579  27.642  1.00  0.00     0.173 A 
ATOM     62  C   UNL A   1      39.046  29.010  29.902  1.00  0.00     0.173 A 
ATOM     63  F   UNL A   1      38.900  29.828  26.369  1.00  0.00    -0.203 F 
ATOM     64  C   UNL A   1      37.196  29.618  27.925  1.00  0.00     0.198 A 
ATOM     65  C   UNL A   1      37.664  29.018  30.180  1.00  0.00     0.198 A 
ATOM     66  F   UNL A   1      39.869  28.765  30.932  1.00  0.00    -0.203 F 
ATOM     67  F   UNL A   1      36.325  29.939  26.957  1.00  0.00    -0.200 F 
ATOM     68  C   UNL A   1      36.743  29.326  29.192  1.00  0.00     0.200 A 
ATOM     69  F   UNL A   1      37.225  28.736  31.416  1.00  0.00    -0.200 F 
ATOM     70  F   UNL A   1      35.429  29.348  29.461  1.00  0.00    -0.200 F 
ENDBRANCH  46  60
BRANCH  47  71
ATOM     71  C   UNL A   1      49.170  27.241  27.211  1.00  0.00     0.064 A 
ATOM     72  C   UNL A   1      48.954  27.314  25.799  1.00  0.00     0.173 A 
ATOM     73  C   UNL A   1      50.262  26.464  27.618  1.00  0.00     0.173 A 
ATOM     74  F   UNL A   1      47.988  28.109  25.309  1.00  0.00    -0.203 F 
ATOM     75  C   UNL A   1      49.817  26.715  24.871  1.00  0.00     0.198 A 
ATOM     76  C   UNL A   1      51.118  25.855  26.682  1.00  0.00     0.198 A 
ATOM     77  F   UNL A   1      50.595  26.404  28.913  1.00  0.00    -0.203 F 
ATOM     78  F   UNL A   1      49.674  26.962  23.559  1.00  0.00    -0.200 F 
ATOM     79  C   UNL A   1      50.897  25.979  25.317  1.00  0.00     0.200 A 
ATOM     80  F   UNL A   1      52.239  25.252  27.103  1.00  0.00    -0.200 F 
ATOM     81  F   UNL A   1      51.789  25.491  24.441  1.00  0.00    -0.200 F 
ENDBRANCH  47  71
BRANCH  59  82
ATOM     82  C   UNL A   1      44.798  33.129  28.017  1.00  0.00     0.064 A 
ATOM     83  C   UNL A   1      44.281  33.461  26.771  1.00  0.00     0.173 A 
ATOM     84  C   UNL A   1      44.896  34.193  28.949  1.00  0.00     0.173 A 
ATOM     85  F   UNL A   1      44.374  32.608  25.740  1.00  0.00    -0.203 F 
ATOM     86  C   UNL A   1      43.636  34.672  26.568  1.00  0.00     0.198 A 
ATOM     87  C   UNL A   1      44.375  35.444  28.695  1.00  0.00     0.198 A 
ATOM     88  F   UNL A   1      45.447  34.080  30.162  1.00  0.00    -0.203 F 
ATOM     89  F   UNL A   1      42.946  34.863  25.438  1.00  0.00    -0.200 F 
ATOM     90  C   UNL A   1      43.677  35.662  27.533  1.00  0.00     0.200 A 
ATOM     91  F   UNL A   1      44.513  36.410  29.613  1.00  0.00    -0.200 F 
ATOM     92  F   UNL A   1      43.056  36.829  27.341  1.00  0.00    -0.200 F 
ENDBRANCH  59  82
ENDBRANCH  33  34
ENDBRANCH  26  28
ENDBRANCH  25  26
ENDBRANCH  24  25
ENDBRANCH   1  24
TORSDOF 14
ENDMDL
MODEL 3
REMARK VINA RESULT:     -11.5      5.203      9.118
REMARK SMILES Cc1ccc(NC(=O)C[N@H+]2CC[C@@H](C(=O)OCCOC(=O)c3ccc(-c4c5nc(c(-c6c(F)c(F)c(F)c(F)c6F)c6ccc([nH]6)c(-c6c(F)c(F)c(F)c(F)c6F)c6nc(c(-c7c(F)c(F)c(F)c(F)c7F)c7ccc4[nH]7)C=C6)C=C5)cc3)[C@@H]2C)cc1
REMARK SMILES IDX 17 1 16 2 14 3 15 4 13 5 10 6 11 7 85 8 12 10 86 11 9 12
REMARK SMILES IDX 7 13 6 14 8 16 5 17 1 18 2 19 3 20 88 21 4 22 87 23 18 24
REMARK SMILES IDX 19 25 20 26 21 27 22 28 23 29 84 30 24 31 83 32 25 33 26 34
REMARK SMILES IDX 27 35 77 36 28 37 82 38 76 39 78 40 29 41 81 42 75 43 74 44
REMARK SMILES IDX 30 46 62 47 42 48 61 49 43 50 46 51 60 52 79 53 44 54 45 55
REMARK SMILES IDX 59 57 80 58 47 59 31 60 32 61 40 62 33 63 34 64 38 65 41 66
REMARK SMILES IDX 35 67 36 68 39 69 37 70 63 71 64 72 72 73 65 74 66 75 70 76
REMARK SMILES IDX 73 77 67 78 68 79 71 80 69 81 48 82 49 83 57 84 50 85 51 86
REMARK SMILES IDX 55 87 58 88 52 89 53 90 56 91 54 92
REMARK H PARENT 10 9 6 15 78 45 46 56
REMARK Flexibility Score: inf
ROOT
ATOM      1  C   UNL A   1      37.809  21.372  25.521  1.00  0.00     0.274 C 
ENDROOT
BRANCH   1   2
ATOM      2  O   UNL A   1      37.195  21.681  24.235  1.00  0.00    -0.462 OA
BRANCH   2   3
ATOM      3  C   UNL A   1      35.985  22.263  24.136  1.00  0.00     0.315 C 
ATOM      4  O   UNL A   1      35.814  23.229  23.397  1.00  0.00    -0.252 OA
BRANCH   3   5
ATOM      5  C   UNL A   1      34.744  21.618  24.897  1.00  0.00     0.162 C 
ATOM      6  N   UNL A   1      32.549  22.258  24.157  1.00  0.00    -0.324 N 
ATOM      7  C   UNL A   1      32.306  20.961  24.754  1.00  0.00     0.264 C 
ATOM      8  C   UNL A   1      33.761  22.773  24.930  1.00  0.00     0.195 C 
ATOM      9  H   UNL A   1      31.758  22.896  24.240  1.00  0.00     0.348 HD
ATOM     10  C   UNL A   1      33.713  20.409  25.014  1.00  0.00     0.083 C 
ATOM     11  C   UNL A   1      33.689  23.032  26.469  1.00  0.00     0.076 C 
BRANCH   6  12
ATOM     12  C   UNL A   1      32.704  22.217  22.603  1.00  0.00     0.364 C 
BRANCH  12  13
ATOM     13  C   UNL A   1      32.936  23.589  21.675  1.00  0.00     0.279 C 
ATOM     14  N   UNL A   1      32.567  24.953  21.966  1.00  0.00    -0.321 N 
ATOM     15  H   UNL A   1      32.322  25.484  21.174  1.00  0.00     0.170 HD
ATOM     16  O   UNL A   1      33.378  23.413  20.524  1.00  0.00    -0.268 OA
BRANCH  14  17
ATOM     17  C   UNL A   1      32.496  25.683  23.220  1.00  0.00     0.041 A 
ATOM     18  C   UNL A   1      31.523  28.193  27.726  1.00  0.00     0.044 C 
ATOM     19  C   UNL A   1      31.709  27.272  26.469  1.00  0.00    -0.051 A 
ATOM     20  C   UNL A   1      30.420  26.380  25.184  1.00  0.00     0.005 A 
ATOM     21  C   UNL A   1      33.451  27.276  25.826  1.00  0.00     0.005 A 
ATOM     22  C   UNL A   1      30.993  25.694  23.684  1.00  0.00     0.026 A 
ATOM     23  C   UNL A   1      33.772  26.411  24.242  1.00  0.00     0.026 A 
ENDBRANCH  14  17
ENDBRANCH  12  13
ENDBRANCH   6  12
ENDBRANCH   3   5
ENDBRANCH   2   3
ENDBRANCH   1   2
BRANCH   1  24
ATOM     24  C   UNL A   1      39.260  21.845  25.898  1.00  0.00     0.275 C 
BRANCH  24  25
ATOM     25  O   UNL A   1      40.045  21.164  26.911  1.00  0.00    -0.458 OA
BRANCH  25  26
ATOM     26  C   UNL A   1      41.288  21.379  27.395  1.00  0.00     0.338 C 
ATOM     27  O   UNL A   1      41.932  20.504  27.959  1.00  0.00    -0.246 OA
BRANCH  26  28
ATOM     28  C   UNL A   1      41.979  22.629  27.059  1.00  0.00     0.060 A 
ATOM     29  C   UNL A   1      41.814  23.915  28.289  1.00  0.00     0.016 A 
ATOM     30  C   UNL A   1      43.327  22.538  25.932  1.00  0.00     0.016 A 
ATOM     31  C   UNL A   1      43.008  25.160  28.529  1.00  0.00     0.010 A 
ATOM     32  C   UNL A   1      44.687  23.685  26.105  1.00  0.00     0.010 A 
ATOM     33  C   UNL A   1      44.466  25.205  27.466  1.00  0.00    -0.014 A 
BRANCH  33  34
ATOM     34  C   UNL A   1      44.595  26.799  27.466  1.00  0.00     0.031 A 
ATOM     35  C   UNL A   1      43.546  27.558  26.744  1.00  0.00     0.074 A 
ATOM     36  C   UNL A   1      45.658  27.365  28.150  1.00  0.00     0.049 A 
ATOM     37  N   UNL A   1      43.189  28.745  27.052  1.00  0.00    -0.248 NA
ATOM     38  C   UNL A   1      42.577  26.998  25.795  1.00  0.00     0.031 C 
ATOM     39  C   UNL A   1      45.697  28.036  29.488  1.00  0.00     0.029 A 
ATOM     40  N   UNL A   1      46.970  26.872  28.178  1.00  0.00    -0.354 N 
ATOM     41  C   UNL A   1      41.808  28.655  27.118  1.00  0.00     0.074 A 
ATOM     42  C   UNL A   1      41.475  27.721  26.076  1.00  0.00     0.031 C 
ATOM     43  C   UNL A   1      46.973  28.248  29.903  1.00  0.00     0.029 A 
ATOM     44  C   UNL A   1      47.848  27.689  28.891  1.00  0.00     0.049 A 
ATOM     45  H   UNL A   1      47.244  26.034  27.739  1.00  0.00     0.167 HD
ATOM     46  C   UNL A   1      41.214  29.198  28.225  1.00  0.00     0.037 A 
ATOM     47  C   UNL A   1      48.772  28.296  28.103  1.00  0.00     0.037 A 
ATOM     48  C   UNL A   1      42.255  29.801  29.083  1.00  0.00     0.049 A 
ATOM     49  C   UNL A   1      48.080  29.599  27.718  1.00  0.00     0.074 A 
ATOM     50  C   UNL A   1      42.786  29.637  30.344  1.00  0.00     0.029 A 
ATOM     51  N   UNL A   1      43.135  30.644  28.441  1.00  0.00    -0.354 N 
ATOM     52  N   UNL A   1      46.787  29.794  27.822  1.00  0.00    -0.248 NA
ATOM     53  C   UNL A   1      48.774  30.813  27.350  1.00  0.00     0.031 C 
ATOM     54  C   UNL A   1      44.039  30.384  30.377  1.00  0.00     0.029 A 
ATOM     55  C   UNL A   1      44.312  30.876  29.100  1.00  0.00     0.049 A 
ATOM     56  H   UNL A   1      42.931  31.052  27.568  1.00  0.00     0.167 HD
ATOM     57  C   UNL A   1      46.494  31.113  27.843  1.00  0.00     0.074 A 
ATOM     58  C   UNL A   1      47.741  31.680  27.308  1.00  0.00     0.031 C 
ATOM     59  C   UNL A   1      45.327  31.651  28.358  1.00  0.00     0.037 A 
BRANCH  46  60
ATOM     60  C   UNL A   1      39.769  29.160  28.666  1.00  0.00     0.064 A 
ATOM     61  C   UNL A   1      38.780  29.519  27.717  1.00  0.00     0.173 A 
ATOM     62  C   UNL A   1      39.276  28.824  29.940  1.00  0.00     0.173 A 
ATOM     63  F   UNL A   1      39.113  29.835  26.457  1.00  0.00    -0.203 F 
ATOM     64  C   UNL A   1      37.417  29.554  28.012  1.00  0.00     0.198 A 
ATOM     65  C   UNL A   1      37.896  28.827  30.227  1.00  0.00     0.198 A 
ATOM     66  F   UNL A   1      40.103  28.516  30.948  1.00  0.00    -0.203 F 
ATOM     67  F   UNL A   1      36.543  29.934  27.068  1.00  0.00    -0.200 F 
ATOM     68  C   UNL A   1      36.971  29.197  29.264  1.00  0.00     0.200 A 
ATOM     69  F   UNL A   1      37.463  28.482  31.449  1.00  0.00    -0.200 F 
ATOM     70  F   UNL A   1      35.659  29.214  29.543  1.00  0.00    -0.200 F 
ENDBRANCH  46  60
BRANCH  47  71
ATOM     71  C   UNL A   1      49.409  27.218  27.234  1.00  0.00     0.064 A 
ATOM     72  C   UNL A   1      49.217  27.293  25.819  1.00  0.00     0.173 A 
ATOM     73  C   UNL A   1      50.489  26.435  27.659  1.00  0.00     0.173 A 
ATOM     74  F   UNL A   1      48.264  28.094  25.313  1.00  0.00    -0.203 F 
ATOM     75  C   UNL A   1      50.092  26.690  24.905  1.00  0.00     0.198 A 
ATOM     76  C   UNL A   1      51.357  25.821  26.736  1.00  0.00     0.198 A 
ATOM     77  F   UNL A   1      50.801  26.372  28.959  1.00  0.00    -0.203 F 
ATOM     78  F   UNL A   1      49.972  26.938  23.591  1.00  0.00    -0.200 F 
ATOM     79  C   UNL A   1      51.160  25.947  25.367  1.00  0.00     0.200 A 
ATOM     80  F   UNL A   1      52.468  25.211  27.175  1.00  0.00    -0.200 F 
ATOM     81  F   UNL A   1      52.063  25.455  24.506  1.00  0.00    -0.200 F 
ENDBRANCH  47  71
BRANCH  59  82
ATOM     82  C   UNL A   1      44.972  33.063  27.993  1.00  0.00     0.064 A 
ATOM     83  C   UNL A   1      45.324  34.128  28.812  1.00  0.00     0.173 A 
ATOM     84  C   UNL A   1      44.346  33.405  26.768  1.00  0.00     0.173 A 
ATOM     85  F   UNL A   1      45.687  33.925  30.087  1.00  0.00    -0.203 F 
ATOM     86  C   UNL A   1      45.332  35.428  28.325  1.00  0.00     0.198 A 
ATOM     87  C   UNL A   1      44.227  34.711  26.342  1.00  0.00     0.198 A 
ATOM     88  F   UNL A   1      43.861  32.513  25.899  1.00  0.00    -0.203 F 
ATOM     89  F   UNL A   1      45.898  36.395  29.055  1.00  0.00    -0.200 F 
ATOM     90  C   UNL A   1      44.789  35.719  27.087  1.00  0.00     0.200 A 
ATOM     91  F   UNL A   1      43.612  34.968  25.180  1.00  0.00    -0.200 F 
ATOM     92  F   UNL A   1      44.796  36.968  26.614  1.00  0.00    -0.200 F 
ENDBRANCH  59  82
ENDBRANCH  33  34
ENDBRANCH  26  28
ENDBRANCH  25  26
ENDBRANCH  24  25
ENDBRANCH   1  24
TORSDOF 14
ENDMDL
