MODEL 1
REMARK VINA RESULT:     -12.6      0.000      0.000
REMARK SMILES C[C@@H]1OCC[C@@H]1C(=O)Nc1ccc(C(=O)OCCOC(=O)c2ccc(-c3c4nc(c(-c5c(F)c(F)c(F)c(F)c5F)c5ccc([nH]5)c(-c5c(F)c(F)c(F)c(F)c5F)c5nc(c(-c6c(F)c(F)c(F)c(F)c6F)c6ccc3[nH]6)C=C5)C=C4)cc2)cc1F
REMARK SMILES IDX 17 1 16 2 14 3 15 4 13 5 10 6 11 7 86 8 12 9 85 10 87 11
REMARK SMILES IDX 9 12 7 13 8 14 6 16 1 17 2 18 3 19 4 20 5 21 18 22 19 23
REMARK SMILES IDX 20 24 21 25 22 26 23 27 84 28 24 29 83 30 25 31 26 32 27 33
REMARK SMILES IDX 77 34 28 35 82 36 76 37 78 38 29 39 81 40 75 41 74 42 30 44
REMARK SMILES IDX 62 45 42 46 61 47 43 48 46 49 60 50 79 51 44 52 45 53 59 55
REMARK SMILES IDX 80 56 47 57 31 58 32 59 40 60 33 61 34 62 38 63 41 64 35 65
REMARK SMILES IDX 36 66 39 67 37 68 63 69 64 70 72 71 65 72 66 73 70 74 73 75
REMARK SMILES IDX 67 76 68 77 71 78 69 79 48 80 49 81 57 82 50 83 51 84 55 85
REMARK SMILES IDX 58 86 52 87 53 88 56 89 54 90
REMARK H PARENT 9 15 78 43 46 54
REMARK Flexibility Score: inf
ROOT
ATOM      1  C   UNL A   1      32.706  29.330  24.752  1.00  0.00     0.275 C 
ENDROOT
BRANCH   1   2
ATOM      2  O   UNL A   1      32.500  27.905  24.770  1.00  0.00    -0.458 OA
BRANCH   2   3
ATOM      3  C   UNL A   1      32.855  27.248  23.645  1.00  0.00     0.338 C 
ATOM      4  O   UNL A   1      32.646  27.574  22.487  1.00  0.00    -0.246 OA
BRANCH   3   5
ATOM      5  C   UNL A   1      33.519  25.990  24.005  1.00  0.00     0.063 A 
ATOM      6  C   UNL A   1      34.998  23.614  24.437  1.00  0.00     0.077 A 
ATOM      7  C   UNL A   1      34.990  24.642  25.388  1.00  0.00     0.030 A 
ATOM      8  C   UNL A   1      34.251  23.840  23.265  1.00  0.00     0.147 A 
ATOM      9  C   UNL A   1      34.269  25.821  25.169  1.00  0.00     0.018 A 
ATOM     10  C   UNL A   1      33.503  24.988  23.058  1.00  0.00     0.057 A 
ATOM     11  F   UNL A   1      34.225  23.016  22.220  1.00  0.00    -0.205 F 
BRANCH   6  12
ATOM     12  N   UNL A   1      35.783  22.490  24.798  1.00  0.00    -0.323 N 
ATOM     13  C   UNL A   1      35.575  21.139  24.854  1.00  0.00     0.230 C 
ATOM     14  O   UNL A   1      36.523  20.419  25.175  1.00  0.00    -0.274 OA
ATOM     15  H   UNL A   1      36.695  22.742  25.074  1.00  0.00     0.170 HD
BRANCH  13  16
ATOM     16  C   UNL A   1      34.225  20.573  24.555  1.00  0.00     0.110 C 
ATOM     17  C   UNL A   1      33.544  21.071  26.998  1.00  0.00     0.039 C 
ATOM     18  C   UNL A   1      33.134  21.037  25.527  1.00  0.00     0.127 C 
ATOM     19  O   UNL A   1      32.061  20.079  25.393  1.00  0.00    -0.378 OA
ATOM     20  C   UNL A   1      32.503  19.058  24.484  1.00  0.00     0.161 C 
ATOM     21  C   UNL A   1      34.019  19.079  24.557  1.00  0.00     0.044 C 
ENDBRANCH  13  16
ENDBRANCH   6  12
ENDBRANCH   3   5
ENDBRANCH   2   3
ENDBRANCH   1   2
BRANCH   1  22
ATOM     22  C   UNL A   1      31.760  30.029  25.726  1.00  0.00     0.275 C 
BRANCH  22  23
ATOM     23  O   UNL A   1      32.390  30.185  27.012  1.00  0.00    -0.458 OA
BRANCH  23  24
ATOM     24  C   UNL A   1      33.032  31.361  27.199  1.00  0.00     0.338 C 
ATOM     25  O   UNL A   1      32.561  32.483  27.159  1.00  0.00    -0.246 OA
BRANCH  24  26
ATOM     26  C   UNL A   1      34.428  31.125  27.600  1.00  0.00     0.060 A 
ATOM     27  C   UNL A   1      34.808  29.821  27.871  1.00  0.00     0.016 A 
ATOM     28  C   UNL A   1      35.272  32.174  27.947  1.00  0.00     0.016 A 
ATOM     29  C   UNL A   1      35.927  29.559  28.648  1.00  0.00     0.010 A 
ATOM     30  C   UNL A   1      36.497  31.890  28.573  1.00  0.00     0.010 A 
ATOM     31  C   UNL A   1      36.819  30.581  28.980  1.00  0.00    -0.014 A 
BRANCH  31  32
ATOM     32  C   UNL A   1      38.047  30.264  29.771  1.00  0.00     0.031 A 
ATOM     33  C   UNL A   1      39.156  29.442  29.162  1.00  0.00     0.074 A 
ATOM     34  C   UNL A   1      38.206  30.750  31.021  1.00  0.00     0.049 A 
ATOM     35  N   UNL A   1      40.187  28.884  29.745  1.00  0.00    -0.248 NA
ATOM     36  C   UNL A   1      39.091  29.203  27.712  1.00  0.00     0.031 C 
ATOM     37  C   UNL A   1      37.261  31.622  31.723  1.00  0.00     0.029 A 
ATOM     38  N   UNL A   1      39.235  30.603  31.921  1.00  0.00    -0.354 N 
ATOM     39  C   UNL A   1      40.844  28.167  28.754  1.00  0.00     0.074 A 
ATOM     40  C   UNL A   1      40.101  28.364  27.528  1.00  0.00     0.031 C 
ATOM     41  C   UNL A   1      37.785  31.996  32.897  1.00  0.00     0.029 A 
ATOM     42  C   UNL A   1      39.034  31.277  33.103  1.00  0.00     0.049 A 
ATOM     43  H   UNL A   1      40.041  30.067  31.738  1.00  0.00     0.167 HD
ATOM     44  C   UNL A   1      41.962  27.410  28.863  1.00  0.00     0.037 A 
ATOM     45  C   UNL A   1      39.729  31.272  34.256  1.00  0.00     0.037 A 
ATOM     46  C   UNL A   1      42.737  27.283  30.071  1.00  0.00     0.049 A 
ATOM     47  C   UNL A   1      40.934  30.387  34.371  1.00  0.00     0.074 A 
ATOM     48  C   UNL A   1      43.888  26.544  30.283  1.00  0.00     0.029 A 
ATOM     49  N   UNL A   1      42.453  27.929  31.266  1.00  0.00    -0.354 N 
ATOM     50  N   UNL A   1      41.487  29.625  33.460  1.00  0.00    -0.248 NA
ATOM     51  C   UNL A   1      41.592  30.331  35.683  1.00  0.00     0.031 C 
ATOM     52  C   UNL A   1      44.277  26.710  31.615  1.00  0.00     0.029 A 
ATOM     53  C   UNL A   1      43.399  27.594  32.221  1.00  0.00     0.049 A 
ATOM     54  H   UNL A   1      41.691  28.536  31.412  1.00  0.00     0.167 HD
ATOM     55  C   UNL A   1      42.555  28.999  34.083  1.00  0.00     0.074 A 
ATOM     56  C   UNL A   1      42.591  29.492  35.446  1.00  0.00     0.031 C 
ATOM     57  C   UNL A   1      43.420  28.090  33.574  1.00  0.00     0.037 A 
BRANCH  44  58
ATOM     58  C   UNL A   1      42.405  26.625  27.661  1.00  0.00     0.064 A 
ATOM     59  C   UNL A   1      41.882  25.342  27.431  1.00  0.00     0.173 A 
ATOM     60  C   UNL A   1      43.381  27.102  26.775  1.00  0.00     0.173 A 
ATOM     61  F   UNL A   1      40.949  24.835  28.251  1.00  0.00    -0.203 F 
ATOM     62  C   UNL A   1      42.331  24.561  26.369  1.00  0.00     0.198 A 
ATOM     63  C   UNL A   1      43.806  26.329  25.695  1.00  0.00     0.198 A 
ATOM     64  F   UNL A   1      43.903  28.326  26.940  1.00  0.00    -0.203 F 
ATOM     65  F   UNL A   1      41.840  23.326  26.192  1.00  0.00    -0.200 F 
ATOM     66  C   UNL A   1      43.288  25.057  25.499  1.00  0.00     0.200 A 
ATOM     67  F   UNL A   1      44.712  26.820  24.839  1.00  0.00    -0.200 F 
ATOM     68  F   UNL A   1      43.711  24.310  24.470  1.00  0.00    -0.200 F 
ENDBRANCH  44  58
BRANCH  45  69
ATOM     69  C   UNL A   1      39.256  32.093  35.403  1.00  0.00     0.064 A 
ATOM     70  C   UNL A   1      39.660  33.428  35.564  1.00  0.00     0.173 A 
ATOM     71  C   UNL A   1      38.431  31.540  36.391  1.00  0.00     0.173 A 
ATOM     72  F   UNL A   1      40.447  34.006  34.645  1.00  0.00    -0.203 F 
ATOM     73  C   UNL A   1      39.295  34.163  36.688  1.00  0.00     0.198 A 
ATOM     74  C   UNL A   1      38.037  32.288  37.500  1.00  0.00     0.198 A 
ATOM     75  F   UNL A   1      37.995  30.278  36.270  1.00  0.00    -0.203 F 
ATOM     76  F   UNL A   1      39.745  35.416  36.843  1.00  0.00    -0.200 F 
ATOM     77  C   UNL A   1      38.481  33.593  37.655  1.00  0.00     0.200 A 
ATOM     78  F   UNL A   1      37.228  31.744  38.419  1.00  0.00    -0.200 F 
ATOM     79  F   UNL A   1      38.125  34.301  38.735  1.00  0.00    -0.200 F 
ENDBRANCH  45  69
BRANCH  57  80
ATOM     80  C   UNL A   1      44.497  27.579  34.485  1.00  0.00     0.064 A 
ATOM     81  C   UNL A   1      45.723  28.253  34.583  1.00  0.00     0.173 A 
ATOM     82  C   UNL A   1      44.336  26.391  35.211  1.00  0.00     0.173 A 
ATOM     83  F   UNL A   1      45.926  29.391  33.903  1.00  0.00    -0.203 F 
ATOM     84  C   UNL A   1      46.756  27.747  35.366  1.00  0.00     0.198 A 
ATOM     85  C   UNL A   1      45.362  25.903  36.016  1.00  0.00     0.198 A 
ATOM     86  F   UNL A   1      43.176  25.720  35.161  1.00  0.00    -0.203 F 
ATOM     87  F   UNL A   1      47.930  28.391  35.420  1.00  0.00    -0.200 F 
ATOM     88  C   UNL A   1      46.573  26.575  36.084  1.00  0.00     0.200 A 
ATOM     89  F   UNL A   1      45.175  24.785  36.730  1.00  0.00    -0.200 F 
ATOM     90  F   UNL A   1      47.564  26.095  36.848  1.00  0.00    -0.200 F 
ENDBRANCH  57  80
ENDBRANCH  31  32
ENDBRANCH  24  26
ENDBRANCH  23  24
ENDBRANCH  22  23
ENDBRANCH   1  22
TORSDOF 13
ENDMDL
MODEL 2
REMARK VINA RESULT:     -12.5      1.244      1.844
REMARK SMILES C[C@@H]1OCC[C@@H]1C(=O)Nc1ccc(C(=O)OCCOC(=O)c2ccc(-c3c4nc(c(-c5c(F)c(F)c(F)c(F)c5F)c5ccc([nH]5)c(-c5c(F)c(F)c(F)c(F)c5F)c5nc(c(-c6c(F)c(F)c(F)c(F)c6F)c6ccc3[nH]6)C=C5)C=C4)cc2)cc1F
REMARK SMILES IDX 17 1 16 2 14 3 15 4 13 5 10 6 11 7 86 8 12 9 85 10 87 11
REMARK SMILES IDX 9 12 7 13 8 14 6 16 1 17 2 18 3 19 4 20 5 21 18 22 19 23
REMARK SMILES IDX 20 24 21 25 22 26 23 27 84 28 24 29 83 30 25 31 26 32 27 33
REMARK SMILES IDX 77 34 28 35 82 36 76 37 78 38 29 39 81 40 75 41 74 42 30 44
REMARK SMILES IDX 62 45 42 46 61 47 43 48 46 49 60 50 79 51 44 52 45 53 59 55
REMARK SMILES IDX 80 56 47 57 31 58 32 59 40 60 33 61 34 62 38 63 41 64 35 65
REMARK SMILES IDX 36 66 39 67 37 68 63 69 64 70 72 71 65 72 66 73 70 74 73 75
REMARK SMILES IDX 67 76 68 77 71 78 69 79 48 80 49 81 57 82 50 83 51 84 55 85
REMARK SMILES IDX 58 86 52 87 53 88 56 89 54 90
REMARK H PARENT 9 15 78 43 46 54
REMARK Flexibility Score: inf
ROOT
ATOM      1  C   UNL A   1      31.607  29.619  24.672  1.00  0.00     0.275 C 
ENDROOT
BRANCH   1   2
ATOM      2  O   UNL A   1      30.323  29.303  24.101  1.00  0.00    -0.458 OA
BRANCH   2   3
ATOM      3  C   UNL A   1      30.340  28.876  22.820  1.00  0.00     0.338 C 
ATOM      4  O   UNL A   1      30.154  29.534  21.807  1.00  0.00    -0.246 OA
BRANCH   3   5
ATOM      5  C   UNL A   1      30.572  27.428  22.792  1.00  0.00     0.063 A 
ATOM      6  C   UNL A   1      31.323  24.699  22.860  1.00  0.00     0.077 A 
ATOM      7  C   UNL A   1      30.256  25.173  23.632  1.00  0.00     0.030 A 
ATOM      8  C   UNL A   1      31.999  25.651  22.075  1.00  0.00     0.147 A 
ATOM      9  C   UNL A   1      29.892  26.524  23.608  1.00  0.00     0.018 A 
ATOM     10  C   UNL A   1      31.621  26.984  22.015  1.00  0.00     0.057 A 
ATOM     11  F   UNL A   1      33.091  25.396  21.359  1.00  0.00    -0.205 F 
BRANCH   6  12
ATOM     12  N   UNL A   1      31.575  23.311  23.002  1.00  0.00    -0.323 N 
ATOM     13  C   UNL A   1      32.303  22.540  23.867  1.00  0.00     0.230 C 
ATOM     14  O   UNL A   1      32.262  21.316  23.729  1.00  0.00    -0.274 OA
ATOM     15  H   UNL A   1      31.116  22.774  22.315  1.00  0.00     0.170 HD
BRANCH  13  16
ATOM     16  C   UNL A   1      33.139  23.184  24.925  1.00  0.00     0.110 C 
ATOM     17  C   UNL A   1      35.170  23.019  23.336  1.00  0.00     0.039 C 
ATOM     18  C   UNL A   1      34.420  23.832  24.389  1.00  0.00     0.127 C 
ATOM     19  O   UNL A   1      35.291  23.976  25.534  1.00  0.00    -0.378 OA
ATOM     20  C   UNL A   1      34.631  23.374  26.658  1.00  0.00     0.161 C 
ATOM     21  C   UNL A   1      33.671  22.356  26.069  1.00  0.00     0.044 C 
ENDBRANCH  13  16
ENDBRANCH   6  12
ENDBRANCH   3   5
ENDBRANCH   2   3
ENDBRANCH   1   2
BRANCH   1  22
ATOM     22  C   UNL A   1      31.458  30.589  25.842  1.00  0.00     0.275 C 
BRANCH  22  23
ATOM     23  O   UNL A   1      32.536  30.409  26.781  1.00  0.00    -0.458 OA
BRANCH  23  24
ATOM     24  C   UNL A   1      33.156  31.547  27.169  1.00  0.00     0.338 C 
ATOM     25  O   UNL A   1      32.673  32.658  27.283  1.00  0.00    -0.246 OA
BRANCH  24  26
ATOM     26  C   UNL A   1      34.540  31.261  27.582  1.00  0.00     0.060 A 
ATOM     27  C   UNL A   1      34.868  29.947  27.868  1.00  0.00     0.016 A 
ATOM     28  C   UNL A   1      35.421  32.280  27.926  1.00  0.00     0.016 A 
ATOM     29  C   UNL A   1      35.971  29.650  28.656  1.00  0.00     0.010 A 
ATOM     30  C   UNL A   1      36.630  31.956  28.563  1.00  0.00     0.010 A 
ATOM     31  C   UNL A   1      36.899  30.639  28.985  1.00  0.00    -0.014 A 
BRANCH  31  32
ATOM     32  C   UNL A   1      38.109  30.284  29.786  1.00  0.00     0.031 A 
ATOM     33  C   UNL A   1      39.205  29.442  29.182  1.00  0.00     0.074 A 
ATOM     34  C   UNL A   1      38.264  30.751  31.044  1.00  0.00     0.049 A 
ATOM     35  N   UNL A   1      40.215  28.853  29.771  1.00  0.00    -0.248 NA
ATOM     36  C   UNL A   1      39.153  29.221  27.729  1.00  0.00     0.031 C 
ATOM     37  C   UNL A   1      37.330  31.638  31.745  1.00  0.00     0.029 A 
ATOM     38  N   UNL A   1      39.277  30.569  31.956  1.00  0.00    -0.354 N 
ATOM     39  C   UNL A   1      40.867  28.131  28.780  1.00  0.00     0.074 A 
ATOM     40  C   UNL A   1      40.145  28.360  27.547  1.00  0.00     0.031 C 
ATOM     41  C   UNL A   1      37.849  31.986  32.929  1.00  0.00     0.029 A 
ATOM     42  C   UNL A   1      39.077  31.234  33.143  1.00  0.00     0.049 A 
ATOM     43  H   UNL A   1      40.071  30.015  31.776  1.00  0.00     0.167 HD
ATOM     44  C   UNL A   1      41.964  27.346  28.894  1.00  0.00     0.037 A 
ATOM     45  C   UNL A   1      39.757  31.199  34.304  1.00  0.00     0.037 A 
ATOM     46  C   UNL A   1      42.720  27.185  30.110  1.00  0.00     0.049 A 
ATOM     47  C   UNL A   1      40.939  30.283  34.424  1.00  0.00     0.074 A 
ATOM     48  C   UNL A   1      43.851  26.417  30.328  1.00  0.00     0.029 A 
ATOM     49  N   UNL A   1      42.437  27.824  31.309  1.00  0.00    -0.354 N 
ATOM     50  N   UNL A   1      41.484  29.518  33.511  1.00  0.00    -0.248 NA
ATOM     51  C   UNL A   1      41.578  30.196  35.743  1.00  0.00     0.031 C 
ATOM     52  C   UNL A   1      44.226  26.558  31.667  1.00  0.00     0.029 A 
ATOM     53  C   UNL A   1      43.362  27.455  32.272  1.00  0.00     0.049 A 
ATOM     54  H   UNL A   1      41.689  28.448  31.453  1.00  0.00     0.167 HD
ATOM     55  C   UNL A   1      42.529  28.860  34.140  1.00  0.00     0.074 A 
ATOM     56  C   UNL A   1      42.559  29.335  35.509  1.00  0.00     0.031 C 
ATOM     57  C   UNL A   1      43.378  27.936  33.630  1.00  0.00     0.037 A 
BRANCH  44  58
ATOM     58  C   UNL A   1      42.404  26.564  27.688  1.00  0.00     0.064 A 
ATOM     59  C   UNL A   1      41.878  25.282  27.456  1.00  0.00     0.173 A 
ATOM     60  C   UNL A   1      43.378  27.043  26.801  1.00  0.00     0.173 A 
ATOM     61  F   UNL A   1      40.947  24.774  28.276  1.00  0.00    -0.203 F 
ATOM     62  C   UNL A   1      42.324  24.504  26.390  1.00  0.00     0.198 A 
ATOM     63  C   UNL A   1      43.799  26.273  25.718  1.00  0.00     0.198 A 
ATOM     64  F   UNL A   1      43.902  28.265  26.969  1.00  0.00    -0.203 F 
ATOM     65  F   UNL A   1      41.831  23.271  26.210  1.00  0.00    -0.200 F 
ATOM     66  C   UNL A   1      43.280  25.002  25.519  1.00  0.00     0.200 A 
ATOM     67  F   UNL A   1      44.704  26.765  24.862  1.00  0.00    -0.200 F 
ATOM     68  F   UNL A   1      43.699  24.258  24.487  1.00  0.00    -0.200 F 
ENDBRANCH  44  58
BRANCH  45  69
ATOM     69  C   UNL A   1      39.289  32.017  35.455  1.00  0.00     0.064 A 
ATOM     70  C   UNL A   1      39.722  33.341  35.635  1.00  0.00     0.173 A 
ATOM     71  C   UNL A   1      38.440  31.473  36.427  1.00  0.00     0.173 A 
ATOM     72  F   UNL A   1      40.533  33.911  34.732  1.00  0.00    -0.203 F 
ATOM     73  C   UNL A   1      39.360  34.071  36.764  1.00  0.00     0.198 A 
ATOM     74  C   UNL A   1      38.050  32.218  37.539  1.00  0.00     0.198 A 
ATOM     75  F   UNL A   1      37.977  30.222  36.287  1.00  0.00    -0.203 F 
ATOM     76  F   UNL A   1      39.837  35.312  36.938  1.00  0.00    -0.200 F 
ATOM     77  C   UNL A   1      38.522  33.510  37.714  1.00  0.00     0.200 A 
ATOM     78  F   UNL A   1      37.218  31.682  38.442  1.00  0.00    -0.200 F 
ATOM     79  F   UNL A   1      38.170  34.214  38.799  1.00  0.00    -0.200 F 
ENDBRANCH  45  69
BRANCH  57  80
ATOM     80  C   UNL A   1      44.430  27.388  34.549  1.00  0.00     0.064 A 
ATOM     81  C   UNL A   1      45.674  28.026  34.664  1.00  0.00     0.173 A 
ATOM     82  C   UNL A   1      44.229  26.200  35.265  1.00  0.00     0.173 A 
ATOM     83  F   UNL A   1      45.917  29.162  33.994  1.00  0.00    -0.203 F 
ATOM     84  C   UNL A   1      46.684  27.485  35.454  1.00  0.00     0.198 A 
ATOM     85  C   UNL A   1      45.231  25.677  36.077  1.00  0.00     0.198 A 
ATOM     86  F   UNL A   1      43.050  25.563  35.199  1.00  0.00    -0.203 F 
ATOM     87  F   UNL A   1      47.876  28.094  35.524  1.00  0.00    -0.200 F 
ATOM     88  C   UNL A   1      46.460  26.314  36.162  1.00  0.00     0.200 A 
ATOM     89  F   UNL A   1      45.006  24.561  36.782  1.00  0.00    -0.200 F 
ATOM     90  F   UNL A   1      47.430  25.801  36.933  1.00  0.00    -0.200 F 
ENDBRANCH  57  80
ENDBRANCH  31  32
ENDBRANCH  24  26
ENDBRANCH  23  24
ENDBRANCH  22  23
ENDBRANCH   1  22
TORSDOF 13
ENDMDL
MODEL 3
REMARK VINA RESULT:     -12.5      3.185      9.004
REMARK SMILES C[C@@H]1OCC[C@@H]1C(=O)Nc1ccc(C(=O)OCCOC(=O)c2ccc(-c3c4nc(c(-c5c(F)c(F)c(F)c(F)c5F)c5ccc([nH]5)c(-c5c(F)c(F)c(F)c(F)c5F)c5nc(c(-c6c(F)c(F)c(F)c(F)c6F)c6ccc3[nH]6)C=C5)C=C4)cc2)cc1F
REMARK SMILES IDX 17 1 16 2 14 3 15 4 13 5 10 6 11 7 86 8 12 9 85 10 87 11
REMARK SMILES IDX 9 12 7 13 8 14 6 16 1 17 2 18 3 19 4 20 5 21 18 22 19 23
REMARK SMILES IDX 20 24 21 25 22 26 23 27 84 28 24 29 83 30 25 31 26 32 27 33
REMARK SMILES IDX 77 34 28 35 82 36 76 37 78 38 29 39 81 40 75 41 74 42 30 44
REMARK SMILES IDX 62 45 42 46 61 47 43 48 46 49 60 50 79 51 44 52 45 53 59 55
REMARK SMILES IDX 80 56 47 57 31 58 32 59 40 60 33 61 34 62 38 63 41 64 35 65
REMARK SMILES IDX 36 66 39 67 37 68 63 69 64 70 72 71 65 72 66 73 70 74 73 75
REMARK SMILES IDX 67 76 68 77 71 78 69 79 48 80 49 81 57 82 50 83 51 84 55 85
REMARK SMILES IDX 58 86 52 87 53 88 56 89 54 90
REMARK H PARENT 9 15 78 43 46 54
REMARK Flexibility Score: inf
ROOT
ATOM      1  C   UNL A   1      34.307  35.242  28.780  1.00  0.00     0.275 C 
ENDROOT
BRANCH   1   2
ATOM      2  O   UNL A   1      34.014  33.847  28.572  1.00  0.00    -0.458 OA
BRANCH   2   3
ATOM      3  C   UNL A   1      35.062  33.076  28.210  1.00  0.00     0.338 C 
ATOM      4  O   UNL A   1      36.222  33.418  28.040  1.00  0.00    -0.246 OA
BRANCH   3   5
ATOM      5  C   UNL A   1      34.599  31.703  27.982  1.00  0.00     0.063 A 
ATOM      6  C   UNL A   1      33.636  29.149  27.229  1.00  0.00     0.077 A 
ATOM      7  C   UNL A   1      34.968  29.331  27.619  1.00  0.00     0.030 A 
ATOM      8  C   UNL A   1      32.824  30.298  27.217  1.00  0.00     0.147 A 
ATOM      9  C   UNL A   1      35.447  30.596  27.980  1.00  0.00     0.018 A 
ATOM     10  C   UNL A   1      33.281  31.547  27.610  1.00  0.00     0.057 A 
ATOM     11  F   UNL A   1      31.567  30.326  26.782  1.00  0.00    -0.205 F 
BRANCH   6  12
ATOM     12  N   UNL A   1      33.307  27.814  26.883  1.00  0.00    -0.323 N 
ATOM     13  C   UNL A   1      33.252  27.098  25.718  1.00  0.00     0.230 C 
ATOM     14  O   UNL A   1      32.966  25.901  25.785  1.00  0.00    -0.274 OA
ATOM     15  H   UNL A   1      33.060  27.273  27.668  1.00  0.00     0.170 HD
BRANCH  13  16
ATOM     16  C   UNL A   1      33.511  27.773  24.410  1.00  0.00     0.110 C 
ATOM     17  C   UNL A   1      30.969  28.193  24.195  1.00  0.00     0.039 C 
ATOM     18  C   UNL A   1      32.387  28.718  23.972  1.00  0.00     0.127 C 
ATOM     19  O   UNL A   1      32.567  28.904  22.550  1.00  0.00    -0.378 OA
ATOM     20  C   UNL A   1      33.653  28.060  22.138  1.00  0.00     0.161 C 
ATOM     21  C   UNL A   1      33.715  26.945  23.165  1.00  0.00     0.044 C 
ENDBRANCH  13  16
ENDBRANCH   6  12
ENDBRANCH   3   5
ENDBRANCH   2   3
ENDBRANCH   1   2
BRANCH   1  22
ATOM     22  C   UNL A   1      33.072  35.989  29.279  1.00  0.00     0.275 C 
BRANCH  22  23
ATOM     23  O   UNL A   1      32.465  35.277  30.375  1.00  0.00    -0.458 OA
BRANCH  23  24
ATOM     24  C   UNL A   1      32.619  35.851  31.589  1.00  0.00     0.338 C 
ATOM     25  O   UNL A   1      31.966  36.756  32.075  1.00  0.00    -0.246 OA
BRANCH  24  26
ATOM     26  C   UNL A   1      33.651  35.142  32.364  1.00  0.00     0.060 A 
ATOM     27  C   UNL A   1      34.904  35.725  32.452  1.00  0.00     0.016 A 
ATOM     28  C   UNL A   1      33.475  33.826  32.776  1.00  0.00     0.016 A 
ATOM     29  C   UNL A   1      36.018  34.961  32.767  1.00  0.00     0.010 A 
ATOM     30  C   UNL A   1      34.576  33.109  33.272  1.00  0.00     0.010 A 
ATOM     31  C   UNL A   1      35.876  33.650  33.225  1.00  0.00    -0.014 A 
BRANCH  31  32
ATOM     32  C   UNL A   1      37.087  32.866  33.614  1.00  0.00     0.031 A 
ATOM     33  C   UNL A   1      37.705  33.040  34.979  1.00  0.00     0.074 A 
ATOM     34  C   UNL A   1      37.617  31.953  32.770  1.00  0.00     0.049 A 
ATOM     35  N   UNL A   1      38.864  32.622  35.422  1.00  0.00    -0.248 NA
ATOM     36  C   UNL A   1      36.926  33.795  35.972  1.00  0.00     0.031 C 
ATOM     37  C   UNL A   1      37.093  31.612  31.445  1.00  0.00     0.029 A 
ATOM     38  N   UNL A   1      38.703  31.121  32.908  1.00  0.00    -0.354 N 
ATOM     39  C   UNL A   1      38.986  33.129  36.709  1.00  0.00     0.074 A 
ATOM     40  C   UNL A   1      37.780  33.881  36.983  1.00  0.00     0.031 C 
ATOM     41  C   UNL A   1      37.798  30.596  30.933  1.00  0.00     0.029 A 
ATOM     42  C   UNL A   1      38.917  30.309  31.819  1.00  0.00     0.049 A 
ATOM     43  H   UNL A   1      39.274  31.107  33.711  1.00  0.00     0.167 HD
ATOM     44  C   UNL A   1      40.015  32.982  37.577  1.00  0.00     0.037 A 
ATOM     45  C   UNL A   1      39.931  29.474  31.522  1.00  0.00     0.037 A 
ATOM     46  C   UNL A   1      41.177  32.169  37.324  1.00  0.00     0.049 A 
ATOM     47  C   UNL A   1      41.084  29.367  32.474  1.00  0.00     0.074 A 
ATOM     48  C   UNL A   1      42.272  31.950  38.142  1.00  0.00     0.029 A 
ATOM     49  N   UNL A   1      41.383  31.420  36.174  1.00  0.00    -0.354 N 
ATOM     50  N   UNL A   1      41.243  29.937  33.643  1.00  0.00    -0.248 NA
ATOM     51  C   UNL A   1      42.215  28.531  32.052  1.00  0.00     0.031 C 
ATOM     52  C   UNL A   1      43.159  31.104  37.471  1.00  0.00     0.029 A 
ATOM     53  C   UNL A   1      42.594  30.751  36.256  1.00  0.00     0.049 A 
ATOM     54  H   UNL A   1      40.761  31.371  35.413  1.00  0.00     0.167 HD
ATOM     55  C   UNL A   1      42.487  29.530  34.099  1.00  0.00     0.074 A 
ATOM     56  C   UNL A   1      43.032  28.643  33.091  1.00  0.00     0.031 C 
ATOM     57  C   UNL A   1      43.124  29.873  35.244  1.00  0.00     0.037 A 
BRANCH  44  58
ATOM     58  C   UNL A   1      39.961  33.741  38.873  1.00  0.00     0.064 A 
ATOM     59  C   UNL A   1      40.657  34.954  39.003  1.00  0.00     0.173 A 
ATOM     60  C   UNL A   1      39.282  33.253  39.998  1.00  0.00     0.173 A 
ATOM     61  F   UNL A   1      41.327  35.465  37.959  1.00  0.00    -0.203 F 
ATOM     62  C   UNL A   1      40.689  35.640  40.215  1.00  0.00     0.198 A 
ATOM     63  C   UNL A   1      39.291  33.958  41.201  1.00  0.00     0.198 A 
ATOM     64  F   UNL A   1      38.590  32.107  39.924  1.00  0.00    -0.203 F 
ATOM     65  F   UNL A   1      41.389  36.778  40.322  1.00  0.00    -0.200 F 
ATOM     66  C   UNL A   1      40.001  35.144  41.311  1.00  0.00     0.200 A 
ATOM     67  F   UNL A   1      38.604  33.491  42.253  1.00  0.00    -0.200 F 
ATOM     68  F   UNL A   1      40.021  35.811  42.473  1.00  0.00    -0.200 F 
ENDBRANCH  44  58
BRANCH  45  69
ATOM     69  C   UNL A   1      39.914  28.728  30.235  1.00  0.00     0.064 A 
ATOM     70  C   UNL A   1      39.338  27.451  30.137  1.00  0.00     0.173 A 
ATOM     71  C   UNL A   1      40.522  29.256  29.089  1.00  0.00     0.173 A 
ATOM     72  F   UNL A   1      38.740  26.901  31.204  1.00  0.00    -0.203 F 
ATOM     73  C   UNL A   1      39.410  26.715  28.958  1.00  0.00     0.198 A 
ATOM     74  C   UNL A   1      40.563  28.532  27.898  1.00  0.00     0.198 A 
ATOM     75  F   UNL A   1      41.062  30.483  29.123  1.00  0.00    -0.203 F 
ATOM     76  F   UNL A   1      38.903  25.475  28.912  1.00  0.00    -0.200 F 
ATOM     77  C   UNL A   1      40.021  27.257  27.838  1.00  0.00     0.200 A 
ATOM     78  F   UNL A   1      41.129  29.070  26.809  1.00  0.00    -0.200 F 
ATOM     79  F   UNL A   1      40.086  26.551  26.701  1.00  0.00    -0.200 F 
ENDBRANCH  45  69
BRANCH  57  80
ATOM     80  C   UNL A   1      44.477  29.272  35.485  1.00  0.00     0.064 A 
ATOM     81  C   UNL A   1      44.601  28.056  36.174  1.00  0.00     0.173 A 
ATOM     82  C   UNL A   1      45.650  29.929  35.089  1.00  0.00     0.173 A 
ATOM     83  F   UNL A   1      43.508  27.392  36.578  1.00  0.00    -0.203 F 
ATOM     84  C   UNL A   1      45.853  27.527  36.470  1.00  0.00     0.198 A 
ATOM     85  C   UNL A   1      46.901  29.383  35.362  1.00  0.00     0.198 A 
ATOM     86  F   UNL A   1      45.581  31.086  34.414  1.00  0.00    -0.203 F 
ATOM     87  F   UNL A   1      45.949  26.380  37.157  1.00  0.00    -0.200 F 
ATOM     88  C   UNL A   1      47.002  28.189  36.060  1.00  0.00     0.200 A 
ATOM     89  F   UNL A   1      48.009  30.008  34.943  1.00  0.00    -0.200 F 
ATOM     90  F   UNL A   1      48.208  27.672  36.335  1.00  0.00    -0.200 F 
ENDBRANCH  57  80
ENDBRANCH  31  32
ENDBRANCH  24  26
ENDBRANCH  23  24
ENDBRANCH  22  23
ENDBRANCH   1  22
TORSDOF 13
ENDMDL
