MODEL 1
REMARK VINA RESULT:      -9.4      0.000      0.000
REMARK SMILES CC[C@H](Nc1cccc(C(F)(F)F)c1)C(=O)OCCOC(=O)c1ccc(-c2c3nc(c(-c4c(F)c(F)c(F)c(F)c4F)c4ccc([nH]4)c(-c4c(F)c(F)c(F)c(F)c4F)c4nc(c(-c5c(F)c(F)c(F)c(F)c5F)c5ccc2[nH]5)C=C4)C=C3)cc1
REMARK SMILES IDX 18 1 17 2 15 3 16 4 3 5 2 6 1 7 4 8 5 10 6 11 14 12 7 13
REMARK SMILES IDX 9 14 8 15 10 16 11 17 12 18 13 19 19 20 20 21 21 22 22 23
REMARK SMILES IDX 23 24 24 25 85 26 25 27 84 28 26 29 27 30 28 31 78 32 29 33
REMARK SMILES IDX 83 34 77 35 79 36 30 37 82 38 76 39 75 40 31 42 63 43 43 44
REMARK SMILES IDX 62 45 44 46 47 47 61 48 80 49 45 50 46 51 60 53 81 54 48 55
REMARK SMILES IDX 32 56 33 57 41 58 34 59 35 60 39 61 42 62 36 63 37 64 40 65
REMARK SMILES IDX 38 66 64 67 65 68 73 69 66 70 67 71 71 72 74 73 68 74 69 75
REMARK SMILES IDX 72 76 70 77 49 78 50 79 58 80 51 81 52 82 56 83 59 84 53 85
REMARK SMILES IDX 54 86 57 87 55 88
REMARK H PARENT 4 9 79 41 47 52
REMARK Flexibility Score: inf
ROOT
ATOM      1  C   UNL A   1      42.292  19.602  26.791  1.00  0.00     0.274 C 
ENDROOT
BRANCH   1   2
ATOM      2  O   UNL A   1      43.075  19.185  25.659  1.00  0.00    -0.461 OA
BRANCH   2   3
ATOM      3  C   UNL A   1      43.853  20.099  25.036  1.00  0.00     0.328 C 
ATOM      4  O   UNL A   1      44.435  19.889  23.974  1.00  0.00    -0.250 OA
BRANCH   3   5
ATOM      5  C   UNL A   1      43.970  21.446  25.774  1.00  0.00     0.189 C 
BRANCH   5   6
ATOM      6  C   UNL A   1      43.139  22.576  25.164  1.00  0.00     0.033 C 
ATOM      7  C   UNL A   1      43.877  23.534  24.249  1.00  0.00     0.007 C 
ENDBRANCH   5   6
BRANCH   5   8
ATOM      8  N   UNL A   1      45.283  21.879  26.294  1.00  0.00    -0.372 N 
ATOM      9  H   UNL A   1      46.050  21.374  25.937  1.00  0.00     0.161 HD
BRANCH   8  10
ATOM     10  C   UNL A   1      45.616  22.866  27.193  1.00  0.00     0.035 A 
ATOM     11  C   UNL A   1      46.703  23.701  26.895  1.00  0.00     0.026 A 
ATOM     12  C   UNL A   1      44.893  23.163  28.348  1.00  0.00     0.038 A 
ATOM     13  C   UNL A   1      47.031  24.803  27.691  1.00  0.00     0.003 A 
ATOM     14  C   UNL A   1      45.180  24.282  29.149  1.00  0.00     0.058 A 
ATOM     15  C   UNL A   1      46.264  25.100  28.812  1.00  0.00     0.013 A 
BRANCH  14  16
ATOM     16  C   UNL A   1      44.305  24.629  30.324  1.00  0.00     0.416 C 
ATOM     17  F   UNL A   1      45.015  24.871  31.459  1.00  0.00    -0.166 F 
ATOM     18  F   UNL A   1      43.559  25.749  30.102  1.00  0.00    -0.166 F 
ATOM     19  F   UNL A   1      43.407  23.654  30.647  1.00  0.00    -0.166 F 
ENDBRANCH  14  16
ENDBRANCH   8  10
ENDBRANCH   5   8
ENDBRANCH   3   5
ENDBRANCH   2   3
ENDBRANCH   1   2
BRANCH   1  20
ATOM     20  C   UNL A   1      40.817  19.673  26.400  1.00  0.00     0.275 C 
BRANCH  20  21
ATOM     21  O   UNL A   1      40.158  20.682  27.186  1.00  0.00    -0.458 OA
BRANCH  21  22
ATOM     22  C   UNL A   1      39.419  21.582  26.500  1.00  0.00     0.338 C 
ATOM     23  O   UNL A   1      38.480  21.384  25.755  1.00  0.00    -0.246 OA
BRANCH  22  24
ATOM     24  C   UNL A   1      39.893  22.924  26.853  1.00  0.00     0.060 A 
ATOM     25  C   UNL A   1      39.416  24.016  26.126  1.00  0.00     0.016 A 
ATOM     26  C   UNL A   1      40.850  23.088  27.854  1.00  0.00     0.016 A 
ATOM     27  C   UNL A   1      39.899  25.293  26.399  1.00  0.00     0.010 A 
ATOM     28  C   UNL A   1      41.331  24.369  28.129  1.00  0.00     0.010 A 
ATOM     29  C   UNL A   1      40.866  25.476  27.395  1.00  0.00    -0.014 A 
BRANCH  29  30
ATOM     30  C   UNL A   1      41.438  26.818  27.641  1.00  0.00     0.031 A 
ATOM     31  C   UNL A   1      42.833  27.123  27.183  1.00  0.00     0.074 A 
ATOM     32  C   UNL A   1      40.709  27.750  28.278  1.00  0.00     0.049 A 
ATOM     33  N   UNL A   1      43.561  28.189  27.396  1.00  0.00    -0.248 NA
ATOM     34  C   UNL A   1      43.499  26.087  26.379  1.00  0.00     0.031 C 
ATOM     35  C   UNL A   1      39.330  27.576  28.734  1.00  0.00     0.029 A 
ATOM     36  N   UNL A   1      41.034  29.026  28.664  1.00  0.00    -0.354 N 
ATOM     37  C   UNL A   1      44.775  27.946  26.769  1.00  0.00     0.074 A 
ATOM     38  C   UNL A   1      44.693  26.625  26.180  1.00  0.00     0.031 C 
ATOM     39  C   UNL A   1      38.929  28.702  29.347  1.00  0.00     0.029 A 
ATOM     40  C   UNL A   1      40.035  29.656  29.364  1.00  0.00     0.049 A 
ATOM     41  H   UNL A   1      41.899  29.449  28.459  1.00  0.00     0.167 HD
ATOM     42  C   UNL A   1      45.859  28.754  26.696  1.00  0.00     0.037 A 
ATOM     43  C   UNL A   1      40.028  30.854  29.976  1.00  0.00     0.037 A 
ATOM     44  C   UNL A   1      45.931  30.068  27.280  1.00  0.00     0.049 A 
ATOM     45  C   UNL A   1      41.262  31.714  29.921  1.00  0.00     0.074 A 
ATOM     46  C   UNL A   1      46.981  30.968  27.258  1.00  0.00     0.029 A 
ATOM     47  N   UNL A   1      44.903  30.668  27.993  1.00  0.00    -0.354 N 
ATOM     48  N   UNL A   1      42.410  31.474  29.337  1.00  0.00    -0.248 NA
ATOM     49  C   UNL A   1      41.200  33.007  30.616  1.00  0.00     0.031 C 
ATOM     50  C   UNL A   1      46.601  32.100  27.989  1.00  0.00     0.029 A 
ATOM     51  C   UNL A   1      45.301  31.922  28.431  1.00  0.00     0.049 A 
ATOM     52  H   UNL A   1      44.023  30.263  28.164  1.00  0.00     0.167 HD
ATOM     53  C   UNL A   1      43.201  32.588  29.579  1.00  0.00     0.074 A 
ATOM     54  C   UNL A   1      42.397  33.512  30.350  1.00  0.00     0.031 C 
ATOM     55  C   UNL A   1      44.481  32.824  29.198  1.00  0.00     0.037 A 
BRANCH  42  56
ATOM     56  C   UNL A   1      47.065  28.225  25.980  1.00  0.00     0.064 A 
ATOM     57  C   UNL A   1      47.097  28.103  24.583  1.00  0.00     0.173 A 
ATOM     58  C   UNL A   1      48.210  27.854  26.700  1.00  0.00     0.173 A 
ATOM     59  F   UNL A   1      46.021  28.429  23.852  1.00  0.00    -0.203 F 
ATOM     60  C   UNL A   1      48.226  27.609  23.934  1.00  0.00     0.198 A 
ATOM     61  C   UNL A   1      49.345  27.382  26.045  1.00  0.00     0.198 A 
ATOM     62  F   UNL A   1      48.230  27.952  28.037  1.00  0.00    -0.203 F 
ATOM     63  F   UNL A   1      48.221  27.462  22.602  1.00  0.00    -0.200 F 
ATOM     64  C   UNL A   1      49.351  27.254  24.665  1.00  0.00     0.200 A 
ATOM     65  F   UNL A   1      50.434  27.045  26.753  1.00  0.00    -0.200 F 
ATOM     66  F   UNL A   1      50.436  26.780  24.039  1.00  0.00    -0.200 F 
ENDBRANCH  42  56
BRANCH  43  67
ATOM     67  C   UNL A   1      38.817  31.299  30.710  1.00  0.00     0.064 A 
ATOM     68  C   UNL A   1      38.671  31.050  32.081  1.00  0.00     0.173 A 
ATOM     69  C   UNL A   1      37.786  31.991  30.056  1.00  0.00     0.173 A 
ATOM     70  F   UNL A   1      39.619  30.371  32.741  1.00  0.00    -0.203 F 
ATOM     71  C   UNL A   1      37.534  31.469  32.769  1.00  0.00     0.198 A 
ATOM     72  C   UNL A   1      36.662  32.430  30.751  1.00  0.00     0.198 A 
ATOM     73  F   UNL A   1      37.879  32.250  28.744  1.00  0.00    -0.203 F 
ATOM     74  F   UNL A   1      37.403  31.188  34.072  1.00  0.00    -0.200 F 
ATOM     75  C   UNL A   1      36.535  32.166  32.106  1.00  0.00     0.200 A 
ATOM     76  F   UNL A   1      35.703  33.111  30.108  1.00  0.00    -0.200 F 
ATOM     77  F   UNL A   1      35.446  32.575  32.771  1.00  0.00    -0.200 F 
ENDBRANCH  43  67
BRANCH  55  78
ATOM     78  C   UNL A   1      45.078  34.141  29.592  1.00  0.00     0.064 A 
ATOM     79  C   UNL A   1      44.947  35.276  28.778  1.00  0.00     0.173 A 
ATOM     80  C   UNL A   1      45.755  34.278  30.812  1.00  0.00     0.173 A 
ATOM     81  F   UNL A   1      44.322  35.189  27.594  1.00  0.00    -0.203 F 
ATOM     82  C   UNL A   1      45.490  36.497  29.166  1.00  0.00     0.198 A 
ATOM     83  C   UNL A   1      46.277  35.507  31.207  1.00  0.00     0.198 A 
ATOM     84  F   UNL A   1      45.902  33.221  31.625  1.00  0.00    -0.203 F 
ATOM     85  F   UNL A   1      45.388  37.561  28.356  1.00  0.00    -0.200 F 
ATOM     86  C   UNL A   1      46.149  36.614  30.380  1.00  0.00     0.200 A 
ATOM     87  F   UNL A   1      46.905  35.619  32.385  1.00  0.00    -0.200 F 
ATOM     88  F   UNL A   1      46.668  37.791  30.754  1.00  0.00    -0.200 F 
ENDBRANCH  55  78
ENDBRANCH  29  30
ENDBRANCH  22  24
ENDBRANCH  21  22
ENDBRANCH  20  21
ENDBRANCH   1  20
TORSDOF 15
ENDMDL
MODEL 2
REMARK VINA RESULT:      -9.4      2.430      3.801
REMARK SMILES CC[C@H](Nc1cccc(C(F)(F)F)c1)C(=O)OCCOC(=O)c1ccc(-c2c3nc(c(-c4c(F)c(F)c(F)c(F)c4F)c4ccc([nH]4)c(-c4c(F)c(F)c(F)c(F)c4F)c4nc(c(-c5c(F)c(F)c(F)c(F)c5F)c5ccc2[nH]5)C=C4)C=C3)cc1
REMARK SMILES IDX 18 1 17 2 15 3 16 4 3 5 2 6 1 7 4 8 5 10 6 11 14 12 7 13
REMARK SMILES IDX 9 14 8 15 10 16 11 17 12 18 13 19 19 20 20 21 21 22 22 23
REMARK SMILES IDX 23 24 24 25 85 26 25 27 84 28 26 29 27 30 28 31 78 32 29 33
REMARK SMILES IDX 83 34 77 35 79 36 30 37 82 38 76 39 75 40 31 42 63 43 43 44
REMARK SMILES IDX 62 45 44 46 47 47 61 48 80 49 45 50 46 51 60 53 81 54 48 55
REMARK SMILES IDX 32 56 33 57 41 58 34 59 35 60 39 61 42 62 36 63 37 64 40 65
REMARK SMILES IDX 38 66 64 67 65 68 73 69 66 70 67 71 71 72 74 73 68 74 69 75
REMARK SMILES IDX 72 76 70 77 49 78 50 79 58 80 51 81 52 82 56 83 59 84 53 85
REMARK SMILES IDX 54 86 57 87 55 88
REMARK H PARENT 4 9 79 41 47 52
REMARK Flexibility Score: inf
ROOT
ATOM      1  C   UNL A   1      40.990  19.893  26.654  1.00  0.00     0.274 C 
ENDROOT
BRANCH   1   2
ATOM      2  O   UNL A   1      41.681  19.261  25.563  1.00  0.00    -0.461 OA
BRANCH   2   3
ATOM      3  C   UNL A   1      42.993  18.968  25.708  1.00  0.00     0.328 C 
ATOM      4  O   UNL A   1      43.410  17.903  26.158  1.00  0.00    -0.250 OA
BRANCH   3   5
ATOM      5  C   UNL A   1      43.950  20.093  25.270  1.00  0.00     0.189 C 
BRANCH   5   6
ATOM      6  C   UNL A   1      45.163  19.617  24.470  1.00  0.00     0.033 C 
ATOM      7  C   UNL A   1      46.398  19.258  25.272  1.00  0.00     0.007 C 
ENDBRANCH   5   6
BRANCH   5   8
ATOM      8  N   UNL A   1      44.240  21.204  26.198  1.00  0.00    -0.372 N 
ATOM      9  H   UNL A   1      44.275  20.944  27.147  1.00  0.00     0.161 HD
BRANCH   8  10
ATOM     10  C   UNL A   1      44.471  22.540  25.963  1.00  0.00     0.035 A 
ATOM     11  C   UNL A   1      43.534  23.257  25.204  1.00  0.00     0.026 A 
ATOM     12  C   UNL A   1      45.532  23.267  26.503  1.00  0.00     0.038 A 
ATOM     13  C   UNL A   1      43.630  24.640  25.023  1.00  0.00     0.003 A 
ATOM     14  C   UNL A   1      45.636  24.663  26.364  1.00  0.00     0.058 A 
ATOM     15  C   UNL A   1      44.675  25.345  25.612  1.00  0.00     0.013 A 
BRANCH  14  16
ATOM     16  C   UNL A   1      46.736  25.422  27.058  1.00  0.00     0.416 C 
ATOM     17  F   UNL A   1      46.648  26.767  26.871  1.00  0.00    -0.166 F 
ATOM     18  F   UNL A   1      46.727  25.229  28.408  1.00  0.00    -0.166 F 
ATOM     19  F   UNL A   1      47.989  25.069  26.650  1.00  0.00    -0.166 F 
ENDBRANCH  14  16
ENDBRANCH   8  10
ENDBRANCH   5   8
ENDBRANCH   3   5
ENDBRANCH   2   3
ENDBRANCH   1   2
BRANCH   1  20
ATOM     20  C   UNL A   1      39.826  20.724  26.115  1.00  0.00     0.275 C 
BRANCH  20  21
ATOM     21  O   UNL A   1      40.090  22.121  26.337  1.00  0.00    -0.458 OA
BRANCH  21  22
ATOM     22  C   UNL A   1      39.033  22.953  26.207  1.00  0.00     0.338 C 
ATOM     23  O   UNL A   1      37.939  22.726  25.728  1.00  0.00    -0.246 OA
BRANCH  22  24
ATOM     24  C   UNL A   1      39.386  24.236  26.822  1.00  0.00     0.060 A 
ATOM     25  C   UNL A   1      40.111  25.164  26.073  1.00  0.00     0.016 A 
ATOM     26  C   UNL A   1      39.055  24.490  28.153  1.00  0.00     0.016 A 
ATOM     27  C   UNL A   1      40.513  26.363  26.655  1.00  0.00     0.010 A 
ATOM     28  C   UNL A   1      39.455  25.693  28.735  1.00  0.00     0.010 A 
ATOM     29  C   UNL A   1      40.196  26.630  27.993  1.00  0.00    -0.014 A 
BRANCH  29  30
ATOM     30  C   UNL A   1      40.682  27.868  28.640  1.00  0.00     0.031 A 
ATOM     31  C   UNL A   1      42.123  27.974  29.043  1.00  0.00     0.074 A 
ATOM     32  C   UNL A   1      39.832  28.883  28.871  1.00  0.00     0.049 A 
ATOM     33  N   UNL A   1      42.727  28.917  29.721  1.00  0.00    -0.248 NA
ATOM     34  C   UNL A   1      43.001  26.870  28.630  1.00  0.00     0.031 C 
ATOM     35  C   UNL A   1      38.421  28.903  28.488  1.00  0.00     0.029 A 
ATOM     36  N   UNL A   1      40.030  30.088  29.495  1.00  0.00    -0.354 N 
ATOM     37  C   UNL A   1      44.050  28.512  29.831  1.00  0.00     0.074 A 
ATOM     38  C   UNL A   1      44.159  27.232  29.163  1.00  0.00     0.031 C 
ATOM     39  C   UNL A   1      37.876  30.062  28.894  1.00  0.00     0.029 A 
ATOM     40  C   UNL A   1      38.888  30.842  29.601  1.00  0.00     0.049 A 
ATOM     41  H   UNL A   1      40.906  30.384  29.834  1.00  0.00     0.167 HD
ATOM     42  C   UNL A   1      45.077  29.153  30.436  1.00  0.00     0.037 A 
ATOM     43  C   UNL A   1      38.678  32.015  30.228  1.00  0.00     0.037 A 
ATOM     44  C   UNL A   1      44.961  30.429  31.093  1.00  0.00     0.049 A 
ATOM     45  C   UNL A   1      39.825  32.685  30.935  1.00  0.00     0.074 A 
ATOM     46  C   UNL A   1      45.942  31.166  31.733  1.00  0.00     0.029 A 
ATOM     47  N   UNL A   1      43.784  31.158  31.192  1.00  0.00    -0.354 N 
ATOM     48  N   UNL A   1      41.070  32.292  31.045  1.00  0.00    -0.248 NA
ATOM     49  C   UNL A   1      39.535  33.957  31.610  1.00  0.00     0.031 C 
ATOM     50  C   UNL A   1      45.351  32.325  32.249  1.00  0.00     0.029 A 
ATOM     51  C   UNL A   1      44.011  32.330  31.897  1.00  0.00     0.049 A 
ATOM     52  H   UNL A   1      42.916  30.883  30.818  1.00  0.00     0.167 HD
ATOM     53  C   UNL A   1      41.716  33.271  31.785  1.00  0.00     0.074 A 
ATOM     54  C   UNL A   1      40.728  34.287  32.086  1.00  0.00     0.031 C 
ATOM     55  C   UNL A   1      43.012  33.325  32.183  1.00  0.00     0.037 A 
BRANCH  42  56
ATOM     56  C   UNL A   1      46.411  28.469  30.439  1.00  0.00     0.064 A 
ATOM     57  C   UNL A   1      46.796  27.614  31.482  1.00  0.00     0.173 A 
ATOM     58  C   UNL A   1      47.305  28.655  29.375  1.00  0.00     0.173 A 
ATOM     59  F   UNL A   1      45.982  27.418  32.529  1.00  0.00    -0.203 F 
ATOM     60  C   UNL A   1      48.039  26.986  31.469  1.00  0.00     0.198 A 
ATOM     61  C   UNL A   1      48.538  28.007  29.355  1.00  0.00     0.198 A 
ATOM     62  F   UNL A   1      46.983  29.462  28.353  1.00  0.00    -0.203 F 
ATOM     63  F   UNL A   1      48.405  26.206  32.495  1.00  0.00    -0.200 F 
ATOM     64  C   UNL A   1      48.906  27.179  30.403  1.00  0.00     0.200 A 
ATOM     65  F   UNL A   1      49.372  28.190  28.321  1.00  0.00    -0.200 F 
ATOM     66  F   UNL A   1      50.101  26.573  30.391  1.00  0.00    -0.200 F 
ENDBRANCH  42  56
BRANCH  43  67
ATOM     67  C   UNL A   1      37.322  32.616  30.229  1.00  0.00     0.064 A 
ATOM     68  C   UNL A   1      36.890  33.427  29.171  1.00  0.00     0.173 A 
ATOM     69  C   UNL A   1      36.426  32.383  31.283  1.00  0.00     0.173 A 
ATOM     70  F   UNL A   1      37.721  33.697  28.155  1.00  0.00    -0.203 F 
ATOM     71  C   UNL A   1      35.615  33.990  29.172  1.00  0.00     0.198 A 
ATOM     72  C   UNL A   1      35.143  32.926  31.271  1.00  0.00     0.198 A 
ATOM     73  F   UNL A   1      36.793  31.616  32.320  1.00  0.00    -0.203 F 
ATOM     74  F   UNL A   1      35.239  34.790  28.165  1.00  0.00    -0.200 F 
ATOM     75  C   UNL A   1      34.741  33.733  30.217  1.00  0.00     0.200 A 
ATOM     76  F   UNL A   1      34.298  32.668  32.278  1.00  0.00    -0.200 F 
ATOM     77  F   UNL A   1      33.512  34.269  30.212  1.00  0.00    -0.200 F 
ENDBRANCH  43  67
BRANCH  55  78
ATOM     78  C   UNL A   1      43.435  34.531  32.966  1.00  0.00     0.064 A 
ATOM     79  C   UNL A   1      43.824  35.718  32.327  1.00  0.00     0.173 A 
ATOM     80  C   UNL A   1      43.415  34.511  34.368  1.00  0.00     0.173 A 
ATOM     81  F   UNL A   1      43.874  35.778  30.987  1.00  0.00    -0.203 F 
ATOM     82  C   UNL A   1      44.197  36.836  33.067  1.00  0.00     0.198 A 
ATOM     83  C   UNL A   1      43.766  35.640  35.104  1.00  0.00     0.198 A 
ATOM     84  F   UNL A   1      43.045  33.401  35.023  1.00  0.00    -0.203 F 
ATOM     85  F   UNL A   1      44.602  37.948  32.438  1.00  0.00    -0.200 F 
ATOM     86  C   UNL A   1      44.162  36.799  34.453  1.00  0.00     0.200 A 
ATOM     87  F   UNL A   1      43.724  35.604  36.443  1.00  0.00    -0.200 F 
ATOM     88  F   UNL A   1      44.517  37.878  35.163  1.00  0.00    -0.200 F 
ENDBRANCH  55  78
ENDBRANCH  29  30
ENDBRANCH  22  24
ENDBRANCH  21  22
ENDBRANCH  20  21
ENDBRANCH   1  20
TORSDOF 15
ENDMDL
MODEL 3
REMARK VINA RESULT:      -9.4      4.931     11.671
REMARK SMILES CC[C@H](Nc1cccc(C(F)(F)F)c1)C(=O)OCCOC(=O)c1ccc(-c2c3nc(c(-c4c(F)c(F)c(F)c(F)c4F)c4ccc([nH]4)c(-c4c(F)c(F)c(F)c(F)c4F)c4nc(c(-c5c(F)c(F)c(F)c(F)c5F)c5ccc2[nH]5)C=C4)C=C3)cc1
REMARK SMILES IDX 18 1 17 2 15 3 16 4 3 5 2 6 1 7 4 8 5 10 6 11 14 12 7 13
REMARK SMILES IDX 9 14 8 15 10 16 11 17 12 18 13 19 19 20 20 21 21 22 22 23
REMARK SMILES IDX 23 24 24 25 85 26 25 27 84 28 26 29 27 30 28 31 78 32 29 33
REMARK SMILES IDX 83 34 77 35 79 36 30 37 82 38 76 39 75 40 31 42 63 43 43 44
REMARK SMILES IDX 62 45 44 46 47 47 61 48 80 49 45 50 46 51 60 53 81 54 48 55
REMARK SMILES IDX 32 56 33 57 41 58 34 59 35 60 39 61 42 62 36 63 37 64 40 65
REMARK SMILES IDX 38 66 64 67 65 68 73 69 66 70 67 71 71 72 74 73 68 74 69 75
REMARK SMILES IDX 72 76 70 77 49 78 50 79 58 80 51 81 52 82 56 83 59 84 53 85
REMARK SMILES IDX 54 86 57 87 55 88
REMARK H PARENT 4 9 79 41 47 52
REMARK Flexibility Score: inf
ROOT
ATOM      1  C   UNL A   1      34.378  34.790  27.641  1.00  0.00     0.274 C 
ENDROOT
BRANCH   1   2
ATOM      2  O   UNL A   1      34.404  35.733  28.726  1.00  0.00    -0.461 OA
BRANCH   2   3
ATOM      3  C   UNL A   1      33.275  35.930  29.443  1.00  0.00     0.328 C 
ATOM      4  O   UNL A   1      32.221  36.334  28.959  1.00  0.00    -0.250 OA
BRANCH   3   5
ATOM      5  C   UNL A   1      33.411  35.617  30.945  1.00  0.00     0.189 C 
BRANCH   5   6
ATOM      6  C   UNL A   1      32.528  36.475  31.854  1.00  0.00     0.033 C 
ATOM      7  C   UNL A   1      31.374  35.766  32.534  1.00  0.00     0.007 C 
ENDBRANCH   5   6
BRANCH   5   8
ATOM      8  N   UNL A   1      34.742  35.319  31.510  1.00  0.00    -0.372 N 
ATOM      9  H   UNL A   1      35.403  36.042  31.400  1.00  0.00     0.161 HD
BRANCH   8  10
ATOM     10  C   UNL A   1      35.218  34.205  32.162  1.00  0.00     0.035 A 
ATOM     11  C   UNL A   1      35.013  32.948  31.574  1.00  0.00     0.026 A 
ATOM     12  C   UNL A   1      35.975  34.236  33.333  1.00  0.00     0.038 A 
ATOM     13  C   UNL A   1      35.569  31.781  32.108  1.00  0.00     0.003 A 
ATOM     14  C   UNL A   1      36.573  33.083  33.874  1.00  0.00     0.058 A 
ATOM     15  C   UNL A   1      36.358  31.850  33.252  1.00  0.00     0.013 A 
BRANCH  14  16
ATOM     16  C   UNL A   1      37.475  33.180  35.075  1.00  0.00     0.416 C 
ATOM     17  F   UNL A   1      38.571  33.956  34.852  1.00  0.00    -0.166 F 
ATOM     18  F   UNL A   1      36.844  33.726  36.154  1.00  0.00    -0.166 F 
ATOM     19  F   UNL A   1      37.951  31.976  35.504  1.00  0.00    -0.166 F 
ENDBRANCH  14  16
ENDBRANCH   8  10
ENDBRANCH   5   8
ENDBRANCH   3   5
ENDBRANCH   2   3
ENDBRANCH   1   2
BRANCH   1  20
ATOM     20  C   UNL A   1      34.075  33.392  28.179  1.00  0.00     0.275 C 
BRANCH  20  21
ATOM     21  O   UNL A   1      34.797  32.414  27.410  1.00  0.00    -0.458 OA
BRANCH  21  22
ATOM     22  C   UNL A   1      34.549  31.120  27.710  1.00  0.00     0.338 C 
ATOM     23  O   UNL A   1      33.519  30.490  27.570  1.00  0.00    -0.246 OA
BRANCH  22  24
ATOM     24  C   UNL A   1      35.793  30.519  28.200  1.00  0.00     0.060 A 
ATOM     25  C   UNL A   1      35.736  29.647  29.289  1.00  0.00     0.016 A 
ATOM     26  C   UNL A   1      37.014  30.869  27.623  1.00  0.00     0.016 A 
ATOM     27  C   UNL A   1      36.910  29.114  29.813  1.00  0.00     0.010 A 
ATOM     28  C   UNL A   1      38.191  30.331  28.147  1.00  0.00     0.010 A 
ATOM     29  C   UNL A   1      38.145  29.461  29.251  1.00  0.00    -0.014 A 
BRANCH  29  30
ATOM     30  C   UNL A   1      39.402  28.957  29.847  1.00  0.00     0.031 A 
ATOM     31  C   UNL A   1      39.990  29.660  31.035  1.00  0.00     0.074 A 
ATOM     32  C   UNL A   1      40.011  27.883  29.319  1.00  0.00     0.049 A 
ATOM     33  N   UNL A   1      41.134  29.454  31.637  1.00  0.00    -0.248 NA
ATOM     34  C   UNL A   1      39.183  30.740  31.622  1.00  0.00     0.031 C 
ATOM     35  C   UNL A   1      39.510  27.101  28.189  1.00  0.00     0.029 A 
ATOM     36  N   UNL A   1      41.193  27.272  29.655  1.00  0.00    -0.354 N 
ATOM     37  C   UNL A   1      41.192  30.390  32.660  1.00  0.00     0.074 A 
ATOM     38  C   UNL A   1      39.976  31.173  32.591  1.00  0.00     0.031 C 
ATOM     39  C   UNL A   1      40.383  26.116  27.919  1.00  0.00     0.029 A 
ATOM     40  C   UNL A   1      41.522  26.227  28.828  1.00  0.00     0.049 A 
ATOM     41  H   UNL A   1      41.750  27.554  30.416  1.00  0.00     0.167 HD
ATOM     42  C   UNL A   1      42.174  30.575  33.574  1.00  0.00     0.037 A 
ATOM     43  C   UNL A   1      42.634  25.469  28.788  1.00  0.00     0.037 A 
ATOM     44  C   UNL A   1      43.378  29.787  33.640  1.00  0.00     0.049 A 
ATOM     45  C   UNL A   1      43.732  25.726  29.784  1.00  0.00     0.074 A 
ATOM     46  C   UNL A   1      44.433  29.892  34.529  1.00  0.00     0.029 A 
ATOM     47  N   UNL A   1      43.684  28.745  32.776  1.00  0.00    -0.354 N 
ATOM     48  N   UNL A   1      43.787  26.619  30.742  1.00  0.00    -0.248 NA
ATOM     49  C   UNL A   1      44.926  24.875  29.687  1.00  0.00     0.031 C 
ATOM     50  C   UNL A   1      45.393  28.935  34.182  1.00  0.00     0.029 A 
ATOM     51  C   UNL A   1      44.919  28.208  33.102  1.00  0.00     0.049 A 
ATOM     52  H   UNL A   1      43.108  28.435  32.040  1.00  0.00     0.167 HD
ATOM     53  C   UNL A   1      45.008  26.429  31.372  1.00  0.00     0.074 A 
ATOM     54  C   UNL A   1      45.659  25.324  30.697  1.00  0.00     0.031 C 
ATOM     55  C   UNL A   1      45.546  27.109  32.415  1.00  0.00     0.037 A 
BRANCH  42  56
ATOM     56  C   UNL A   1      41.998  31.692  34.558  1.00  0.00     0.064 A 
ATOM     57  C   UNL A   1      41.247  31.527  35.731  1.00  0.00     0.173 A 
ATOM     58  C   UNL A   1      42.605  32.936  34.333  1.00  0.00     0.173 A 
ATOM     59  F   UNL A   1      40.633  30.361  35.981  1.00  0.00    -0.203 F 
ATOM     60  C   UNL A   1      41.093  32.575  36.634  1.00  0.00     0.198 A 
ATOM     61  C   UNL A   1      42.468  33.975  35.251  1.00  0.00     0.198 A 
ATOM     62  F   UNL A   1      43.334  33.143  33.227  1.00  0.00    -0.203 F 
ATOM     63  F   UNL A   1      40.338  32.410  37.728  1.00  0.00    -0.200 F 
ATOM     64  C   UNL A   1      41.708  33.797  36.396  1.00  0.00     0.200 A 
ATOM     65  F   UNL A   1      43.068  35.152  35.022  1.00  0.00    -0.200 F 
ATOM     66  F   UNL A   1      41.560  34.804  37.267  1.00  0.00    -0.200 F 
ENDBRANCH  42  56
BRANCH  43  67
ATOM     67  C   UNL A   1      42.766  24.411  27.757  1.00  0.00     0.064 A 
ATOM     68  C   UNL A   1      43.248  24.707  26.476  1.00  0.00     0.173 A 
ATOM     69  C   UNL A   1      42.424  23.079  28.037  1.00  0.00     0.173 A 
ATOM     70  F   UNL A   1      43.564  25.970  26.156  1.00  0.00    -0.203 F 
ATOM     71  C   UNL A   1      43.374  23.712  25.508  1.00  0.00     0.198 A 
ATOM     72  C   UNL A   1      42.574  22.081  27.077  1.00  0.00     0.198 A 
ATOM     73  F   UNL A   1      41.956  22.746  29.248  1.00  0.00    -0.203 F 
ATOM     74  F   UNL A   1      43.804  24.028  24.279  1.00  0.00    -0.200 F 
ATOM     75  C   UNL A   1      43.045  22.399  25.812  1.00  0.00     0.200 A 
ATOM     76  F   UNL A   1      42.263  20.813  27.376  1.00  0.00    -0.200 F 
ATOM     77  F   UNL A   1      43.174  21.442  24.883  1.00  0.00    -0.200 F 
ENDBRANCH  43  67
BRANCH  55  78
ATOM     78  C   UNL A   1      46.891  26.661  32.901  1.00  0.00     0.064 A 
ATOM     79  C   UNL A   1      47.022  25.635  33.848  1.00  0.00     0.173 A 
ATOM     80  C   UNL A   1      48.061  27.238  32.386  1.00  0.00     0.173 A 
ATOM     81  F   UNL A   1      45.930  25.065  34.381  1.00  0.00    -0.203 F 
ATOM     82  C   UNL A   1      48.278  25.217  34.277  1.00  0.00     0.198 A 
ATOM     83  C   UNL A   1      49.316  26.800  32.799  1.00  0.00     0.198 A 
ATOM     84  F   UNL A   1      47.985  28.219  31.474  1.00  0.00    -0.203 F 
ATOM     85  F   UNL A   1      48.381  24.262  35.211  1.00  0.00    -0.200 F 
ATOM     86  C   UNL A   1      49.424  25.795  33.749  1.00  0.00     0.200 A 
ATOM     87  F   UNL A   1      50.421  27.354  32.282  1.00  0.00    -0.200 F 
ATOM     88  F   UNL A   1      50.632  25.387  34.159  1.00  0.00    -0.200 F 
ENDBRANCH  55  78
ENDBRANCH  29  30
ENDBRANCH  22  24
ENDBRANCH  21  22
ENDBRANCH  20  21
ENDBRANCH   1  20
TORSDOF 15
ENDMDL
