MODEL 1
REMARK VINA RESULT:     -11.3      0.000      0.000
REMARK SMILES C[C@@H](C(=O)OCCOC(=O)c1ccc(-c2c3nc(c(-c4c(F)c(F)c(F)c(F)c4F)c4ccc([nH]4)c(-c4c(F)c(F)c(F)c(F)c4F)c4nc(c(-c5c(F)c(F)c(F)c(F)c5F)c5ccc2[nH]5)C=C4)C=C3)cc1)c1ccc(=O)n(C(F)F)c1
REMARK SMILES IDX 6 1 5 2 3 3 4 4 2 5 1 6 74 7 75 8 83 9 76 10 79 11 77 12
REMARK SMILES IDX 78 13 80 14 81 15 82 16 7 17 8 18 9 19 10 20 11 21 12 22
REMARK SMILES IDX 73 23 13 24 72 25 14 26 15 27 16 28 66 29 17 30 71 31 65 32
REMARK SMILES IDX 67 33 18 34 70 35 64 36 63 37 19 39 51 40 31 41 50 42 32 43
REMARK SMILES IDX 35 44 49 45 68 46 33 47 34 48 48 50 69 51 36 52 20 53 21 54
REMARK SMILES IDX 29 55 22 56 23 57 27 58 30 59 24 60 25 61 28 62 26 63 52 64
REMARK SMILES IDX 53 65 61 66 54 67 55 68 59 69 62 70 56 71 57 72 60 73 58 74
REMARK SMILES IDX 37 75 38 76 46 77 39 78 40 79 44 80 47 81 41 82 42 83 45 84
REMARK SMILES IDX 43 85
REMARK H PARENT 67 38 35 49
REMARK Flexibility Score: inf
ROOT
ATOM      1  C   UNL A   1      43.959  21.884  25.346  1.00  0.00     0.274 C 
ENDROOT
BRANCH   1   2
ATOM      2  O   UNL A   1      42.535  21.709  25.493  1.00  0.00    -0.462 OA
BRANCH   2   3
ATOM      3  C   UNL A   1      42.045  21.687  26.761  1.00  0.00     0.313 C 
ATOM      4  O   UNL A   1      42.607  22.178  27.734  1.00  0.00    -0.252 OA
BRANCH   3   5
ATOM      5  C   UNL A   1      40.710  20.939  26.855  1.00  0.00     0.127 C 
ATOM      6  C   UNL A   1      40.683  19.594  26.124  1.00  0.00     0.025 C 
BRANCH   5   7
ATOM      7  C   UNL A   1      39.570  21.840  26.408  1.00  0.00    -0.017 A 
ATOM      8  C   UNL A   1      39.609  23.235  26.807  1.00  0.00     0.012 A 
ATOM      9  C   UNL A   1      38.506  21.408  25.709  1.00  0.00     0.099 A 
ATOM     10  C   UNL A   1      38.589  24.060  26.535  1.00  0.00     0.072 A 
ATOM     11  N   UNL A   1      37.449  22.245  25.389  1.00  0.00    -0.258 N 
ATOM     12  C   UNL A   1      37.383  23.557  25.828  1.00  0.00     0.254 A 
ATOM     13  O   UNL A   1      36.428  24.315  25.691  1.00  0.00    -0.269 OA
BRANCH  11  14
ATOM     14  C   UNL A   1      36.288  21.698  24.731  1.00  0.00     0.451 C 
ATOM     15  F   UNL A   1      36.111  22.189  23.485  1.00  0.00    -0.185 F 
ATOM     16  F   UNL A   1      36.426  20.352  24.572  1.00  0.00    -0.185 F 
ENDBRANCH  11  14
ENDBRANCH   5   7
ENDBRANCH   3   5
ENDBRANCH   2   3
ENDBRANCH   1   2
BRANCH   1  17
ATOM     17  C   UNL A   1      44.262  22.984  24.335  1.00  0.00     0.275 C 
BRANCH  17  18
ATOM     18  O   UNL A   1      43.475  24.149  24.645  1.00  0.00    -0.458 OA
BRANCH  18  19
ATOM     19  C   UNL A   1      44.161  25.242  25.024  1.00  0.00     0.338 C 
ATOM     20  O   UNL A   1      45.281  25.588  24.638  1.00  0.00    -0.246 OA
BRANCH  19  21
ATOM     21  C   UNL A   1      43.381  26.040  25.979  1.00  0.00     0.060 A 
ATOM     22  C   UNL A   1      43.799  27.329  26.305  1.00  0.00     0.016 A 
ATOM     23  C   UNL A   1      42.337  25.442  26.686  1.00  0.00     0.016 A 
ATOM     24  C   UNL A   1      43.265  27.961  27.427  1.00  0.00     0.010 A 
ATOM     25  C   UNL A   1      41.729  26.127  27.742  1.00  0.00     0.010 A 
ATOM     26  C   UNL A   1      42.225  27.372  28.167  1.00  0.00    -0.014 A 
BRANCH  26  27
ATOM     27  C   UNL A   1      41.698  28.033  29.398  1.00  0.00     0.031 A 
ATOM     28  C   UNL A   1      40.458  28.897  29.345  1.00  0.00     0.074 A 
ATOM     29  C   UNL A   1      42.305  27.835  30.584  1.00  0.00     0.049 A 
ATOM     30  N   UNL A   1      39.912  29.626  30.290  1.00  0.00    -0.248 NA
ATOM     31  C   UNL A   1      39.735  28.951  28.067  1.00  0.00     0.031 C 
ATOM     32  C   UNL A   1      43.485  26.996  30.800  1.00  0.00     0.029 A 
ATOM     33  N   UNL A   1      42.014  28.322  31.836  1.00  0.00    -0.354 N 
ATOM     34  C   UNL A   1      38.785  30.210  29.720  1.00  0.00     0.074 A 
ATOM     35  C   UNL A   1      38.734  29.773  28.343  1.00  0.00     0.031 C 
ATOM     36  C   UNL A   1      43.792  26.996  32.105  1.00  0.00     0.029 A 
ATOM     37  C   UNL A   1      42.897  27.913  32.803  1.00  0.00     0.049 A 
ATOM     38  H   UNL A   1      41.244  28.907  32.021  1.00  0.00     0.167 HD
ATOM     39  C   UNL A   1      37.873  31.033  30.291  1.00  0.00     0.037 A 
ATOM     40  C   UNL A   1      43.021  28.272  34.095  1.00  0.00     0.037 A 
ATOM     41  C   UNL A   1      37.921  31.480  31.659  1.00  0.00     0.049 A 
ATOM     42  C   UNL A   1      42.074  29.281  34.674  1.00  0.00     0.074 A 
ATOM     43  C   UNL A   1      37.060  32.343  32.317  1.00  0.00     0.029 A 
ATOM     44  N   UNL A   1      38.886  31.102  32.578  1.00  0.00    -0.354 N 
ATOM     45  N   UNL A   1      41.051  29.874  34.108  1.00  0.00    -0.248 NA
ATOM     46  C   UNL A   1      42.315  29.696  36.063  1.00  0.00     0.031 C 
ATOM     47  C   UNL A   1      37.534  32.527  33.619  1.00  0.00     0.029 A 
ATOM     48  C   UNL A   1      38.662  31.741  33.788  1.00  0.00     0.049 A 
ATOM     49  H   UNL A   1      39.622  30.473  32.399  1.00  0.00     0.167 HD
ATOM     50  C   UNL A   1      40.528  30.730  35.066  1.00  0.00     0.074 A 
ATOM     51  C   UNL A   1      41.331  30.563  36.259  1.00  0.00     0.031 C 
ATOM     52  C   UNL A   1      39.482  31.584  34.960  1.00  0.00     0.037 A 
BRANCH  39  53
ATOM     53  C   UNL A   1      36.759  31.548  29.428  1.00  0.00     0.064 A 
ATOM     54  C   UNL A   1      35.686  30.733  29.039  1.00  0.00     0.173 A 
ATOM     55  C   UNL A   1      36.733  32.898  29.042  1.00  0.00     0.173 A 
ATOM     56  F   UNL A   1      35.668  29.435  29.372  1.00  0.00    -0.203 F 
ATOM     57  C   UNL A   1      34.631  31.250  28.289  1.00  0.00     0.198 A 
ATOM     58  C   UNL A   1      35.667  33.415  28.312  1.00  0.00     0.198 A 
ATOM     59  F   UNL A   1      37.734  33.720  29.393  1.00  0.00    -0.203 F 
ATOM     60  F   UNL A   1      33.626  30.449  27.907  1.00  0.00    -0.200 F 
ATOM     61  C   UNL A   1      34.618  32.591  27.934  1.00  0.00     0.200 A 
ATOM     62  F   UNL A   1      35.651  34.714  27.981  1.00  0.00    -0.200 F 
ATOM     63  F   UNL A   1      33.595  33.089  27.227  1.00  0.00    -0.200 F 
ENDBRANCH  39  53
BRANCH  40  64
ATOM     64  C   UNL A   1      44.144  27.719  34.898  1.00  0.00     0.064 A 
ATOM     65  C   UNL A   1      45.387  28.360  34.951  1.00  0.00     0.173 A 
ATOM     66  C   UNL A   1      43.976  26.552  35.659  1.00  0.00     0.173 A 
ATOM     67  F   UNL A   1      45.607  29.459  34.215  1.00  0.00    -0.203 F 
ATOM     68  C   UNL A   1      46.417  27.860  35.744  1.00  0.00     0.198 A 
ATOM     69  C   UNL A   1      44.994  26.072  36.478  1.00  0.00     0.198 A 
ATOM     70  F   UNL A   1      42.806  25.896  35.636  1.00  0.00    -0.203 F 
ATOM     71  F   UNL A   1      47.608  28.474  35.759  1.00  0.00    -0.200 F 
ATOM     72  C   UNL A   1      46.215  26.725  36.518  1.00  0.00     0.200 A 
ATOM     73  F   UNL A   1      44.786  24.987  37.235  1.00  0.00    -0.200 F 
ATOM     74  F   UNL A   1      47.199  26.260  37.299  1.00  0.00    -0.200 F 
ENDBRANCH  40  64
BRANCH  52  75
ATOM     75  C   UNL A   1      39.150  32.404  36.170  1.00  0.00     0.064 A 
ATOM     76  C   UNL A   1      39.686  33.687  36.350  1.00  0.00     0.173 A 
ATOM     77  C   UNL A   1      38.276  31.910  37.150  1.00  0.00     0.173 A 
ATOM     78  F   UNL A   1      40.538  34.196  35.448  1.00  0.00    -0.203 F 
ATOM     79  C   UNL A   1      39.380  34.436  37.484  1.00  0.00     0.198 A 
ATOM     80  C   UNL A   1      37.953  32.671  38.269  1.00  0.00     0.198 A 
ATOM     81  F   UNL A   1      37.733  30.691  37.019  1.00  0.00    -0.203 F 
ATOM     82  F   UNL A   1      39.941  35.640  37.660  1.00  0.00    -0.200 F 
ATOM     83  C   UNL A   1      38.511  33.929  38.439  1.00  0.00     0.200 A 
ATOM     84  F   UNL A   1      37.107  32.185  39.187  1.00  0.00    -0.200 F 
ATOM     85  F   UNL A   1      38.221  34.650  39.531  1.00  0.00    -0.200 F 
ENDBRANCH  52  75
ENDBRANCH  26  27
ENDBRANCH  19  21
ENDBRANCH  18  19
ENDBRANCH  17  18
ENDBRANCH   1  17
TORSDOF 13
ENDMDL
MODEL 2
REMARK VINA RESULT:     -11.1      5.431     11.664
REMARK SMILES C[C@@H](C(=O)OCCOC(=O)c1ccc(-c2c3nc(c(-c4c(F)c(F)c(F)c(F)c4F)c4ccc([nH]4)c(-c4c(F)c(F)c(F)c(F)c4F)c4nc(c(-c5c(F)c(F)c(F)c(F)c5F)c5ccc2[nH]5)C=C4)C=C3)cc1)c1ccc(=O)n(C(F)F)c1
REMARK SMILES IDX 6 1 5 2 3 3 4 4 2 5 1 6 74 7 75 8 83 9 76 10 79 11 77 12
REMARK SMILES IDX 78 13 80 14 81 15 82 16 7 17 8 18 9 19 10 20 11 21 12 22
REMARK SMILES IDX 73 23 13 24 72 25 14 26 15 27 16 28 66 29 17 30 71 31 65 32
REMARK SMILES IDX 67 33 18 34 70 35 64 36 63 37 19 39 51 40 31 41 50 42 32 43
REMARK SMILES IDX 35 44 49 45 68 46 33 47 34 48 48 50 69 51 36 52 20 53 21 54
REMARK SMILES IDX 29 55 22 56 23 57 27 58 30 59 24 60 25 61 28 62 26 63 52 64
REMARK SMILES IDX 53 65 61 66 54 67 55 68 59 69 62 70 56 71 57 72 60 73 58 74
REMARK SMILES IDX 37 75 38 76 46 77 39 78 40 79 44 80 47 81 41 82 42 83 45 84
REMARK SMILES IDX 43 85
REMARK H PARENT 67 38 35 49
REMARK Flexibility Score: inf
ROOT
ATOM      1  C   UNL A   1      34.635  34.128  32.095  1.00  0.00     0.274 C 
ENDROOT
BRANCH   1   2
ATOM      2  O   UNL A   1      34.572  33.367  30.871  1.00  0.00    -0.462 OA
BRANCH   2   3
ATOM      3  C   UNL A   1      35.392  33.760  29.859  1.00  0.00     0.313 C 
ATOM      4  O   UNL A   1      36.540  34.163  30.009  1.00  0.00    -0.252 OA
BRANCH   3   5
ATOM      5  C   UNL A   1      34.706  33.677  28.491  1.00  0.00     0.127 C 
ATOM      6  C   UNL A   1      33.386  34.447  28.395  1.00  0.00     0.025 C 
BRANCH   5   7
ATOM      7  C   UNL A   1      34.536  32.225  28.074  1.00  0.00    -0.017 A 
ATOM      8  C   UNL A   1      35.712  31.374  28.081  1.00  0.00     0.012 A 
ATOM      9  C   UNL A   1      33.373  31.699  27.653  1.00  0.00     0.099 A 
ATOM     10  C   UNL A   1      35.655  30.114  27.630  1.00  0.00     0.072 A 
ATOM     11  N   UNL A   1      33.278  30.390  27.207  1.00  0.00    -0.258 N 
ATOM     12  C   UNL A   1      34.383  29.563  27.095  1.00  0.00     0.254 A 
ATOM     13  O   UNL A   1      34.396  28.444  26.595  1.00  0.00    -0.269 OA
BRANCH  11  14
ATOM     14  C   UNL A   1      32.027  29.917  26.667  1.00  0.00     0.451 C 
ATOM     15  F   UNL A   1      31.403  29.038  27.483  1.00  0.00    -0.185 F 
ATOM     16  F   UNL A   1      31.154  30.952  26.519  1.00  0.00    -0.185 F 
ENDBRANCH  11  14
ENDBRANCH   5   7
ENDBRANCH   3   5
ENDBRANCH   2   3
ENDBRANCH   1   2
BRANCH   1  17
ATOM     17  C   UNL A   1      34.912  33.213  33.282  1.00  0.00     0.275 C 
BRANCH  17  18
ATOM     18  O   UNL A   1      35.625  32.046  32.831  1.00  0.00    -0.458 OA
BRANCH  18  19
ATOM     19  C   UNL A   1      36.766  31.762  33.485  1.00  0.00     0.338 C 
ATOM     20  O   UNL A   1      37.032  32.021  34.661  1.00  0.00    -0.246 OA
BRANCH  19  21
ATOM     21  C   UNL A   1      37.703  31.048  32.608  1.00  0.00     0.060 A 
ATOM     22  C   UNL A   1      38.916  30.592  33.120  1.00  0.00     0.016 A 
ATOM     23  C   UNL A   1      37.455  30.990  31.236  1.00  0.00     0.016 A 
ATOM     24  C   UNL A   1      39.931  30.209  32.244  1.00  0.00     0.010 A 
ATOM     25  C   UNL A   1      38.439  30.500  30.371  1.00  0.00     0.010 A 
ATOM     26  C   UNL A   1      39.713  30.160  30.857  1.00  0.00    -0.014 A 
BRANCH  26  27
ATOM     27  C   UNL A   1      40.823  29.800  29.925  1.00  0.00     0.031 A 
ATOM     28  C   UNL A   1      40.908  28.420  29.314  1.00  0.00     0.074 A 
ATOM     29  C   UNL A   1      41.748  30.721  29.588  1.00  0.00     0.049 A 
ATOM     30  N   UNL A   1      41.851  27.899  28.563  1.00  0.00    -0.248 NA
ATOM     31  C   UNL A   1      39.791  27.502  29.578  1.00  0.00     0.031 C 
ATOM     32  C   UNL A   1      41.775  32.104  30.063  1.00  0.00     0.029 A 
ATOM     33  N   UNL A   1      42.843  30.635  28.762  1.00  0.00    -0.354 N 
ATOM     34  C   UNL A   1      41.430  26.607  28.263  1.00  0.00     0.074 A 
ATOM     35  C   UNL A   1      40.163  26.409  28.928  1.00  0.00     0.031 C 
ATOM     36  C   UNL A   1      42.806  32.745  29.495  1.00  0.00     0.029 A 
ATOM     37  C   UNL A   1      43.573  31.795  28.695  1.00  0.00     0.049 A 
ATOM     38  H   UNL A   1      43.081  29.819  28.265  1.00  0.00     0.167 HD
ATOM     39  C   UNL A   1      42.043  25.670  27.500  1.00  0.00     0.037 A 
ATOM     40  C   UNL A   1      44.756  32.062  28.111  1.00  0.00     0.037 A 
ATOM     41  C   UNL A   1      43.309  25.855  26.840  1.00  0.00     0.049 A 
ATOM     42  C   UNL A   1      45.478  30.972  27.374  1.00  0.00     0.074 A 
ATOM     43  C   UNL A   1      44.025  24.950  26.074  1.00  0.00     0.029 A 
ATOM     44  N   UNL A   1      44.051  27.024  26.872  1.00  0.00    -0.354 N 
ATOM     45  N   UNL A   1      45.100  29.737  27.151  1.00  0.00    -0.248 NA
ATOM     46  C   UNL A   1      46.803  31.303  26.834  1.00  0.00     0.031 C 
ATOM     47  C   UNL A   1      45.224  25.555  25.686  1.00  0.00     0.029 A 
ATOM     48  C   UNL A   1      45.233  26.854  26.169  1.00  0.00     0.049 A 
ATOM     49  H   UNL A   1      43.779  27.854  27.327  1.00  0.00     0.167 HD
ATOM     50  C   UNL A   1      46.138  29.143  26.448  1.00  0.00     0.074 A 
ATOM     51  C   UNL A   1      47.151  30.160  26.259  1.00  0.00     0.031 C 
ATOM     52  C   UNL A   1      46.243  27.866  26.008  1.00  0.00     0.037 A 
BRANCH  39  53
ATOM     53  C   UNL A   1      41.376  24.332  27.367  1.00  0.00     0.064 A 
ATOM     54  C   UNL A   1      40.225  24.153  26.588  1.00  0.00     0.173 A 
ATOM     55  C   UNL A   1      41.942  23.200  27.975  1.00  0.00     0.173 A 
ATOM     56  F   UNL A   1      39.639  25.203  25.994  1.00  0.00    -0.203 F 
ATOM     57  C   UNL A   1      39.659  22.889  26.428  1.00  0.00     0.198 A 
ATOM     58  C   UNL A   1      41.386  21.936  27.795  1.00  0.00     0.198 A 
ATOM     59  F   UNL A   1      43.046  23.317  28.727  1.00  0.00    -0.203 F 
ATOM     60  F   UNL A   1      38.544  22.742  25.698  1.00  0.00    -0.200 F 
ATOM     61  C   UNL A   1      40.244  21.782  27.024  1.00  0.00     0.200 A 
ATOM     62  F   UNL A   1      41.961  20.867  28.362  1.00  0.00    -0.200 F 
ATOM     63  F   UNL A   1      39.708  20.565  26.856  1.00  0.00    -0.200 F 
ENDBRANCH  39  53
BRANCH  40  64
ATOM     64  C   UNL A   1      45.359  33.411  28.276  1.00  0.00     0.064 A 
ATOM     65  C   UNL A   1      46.242  33.691  29.324  1.00  0.00     0.173 A 
ATOM     66  C   UNL A   1      45.086  34.437  27.357  1.00  0.00     0.173 A 
ATOM     67  F   UNL A   1      46.508  32.755  30.247  1.00  0.00    -0.203 F 
ATOM     68  C   UNL A   1      46.839  34.945  29.442  1.00  0.00     0.198 A 
ATOM     69  C   UNL A   1      45.710  35.678  27.455  1.00  0.00     0.198 A 
ATOM     70  F   UNL A   1      44.240  34.221  26.339  1.00  0.00    -0.203 F 
ATOM     71  F   UNL A   1      47.660  35.200  30.469  1.00  0.00    -0.200 F 
ATOM     72  C   UNL A   1      46.584  35.932  28.500  1.00  0.00     0.200 A 
ATOM     73  F   UNL A   1      45.472  36.618  26.533  1.00  0.00    -0.200 F 
ATOM     74  F   UNL A   1      47.178  37.128  28.601  1.00  0.00    -0.200 F 
ENDBRANCH  40  64
BRANCH  52  75
ATOM     75  C   UNL A   1      47.501  27.500  25.280  1.00  0.00     0.064 A 
ATOM     76  C   UNL A   1      48.600  26.948  25.955  1.00  0.00     0.173 A 
ATOM     77  C   UNL A   1      47.605  27.687  23.894  1.00  0.00     0.173 A 
ATOM     78  F   UNL A   1      48.553  26.765  27.283  1.00  0.00    -0.203 F 
ATOM     79  C   UNL A   1      49.768  26.622  25.272  1.00  0.00     0.198 A 
ATOM     80  C   UNL A   1      48.765  27.337  23.210  1.00  0.00     0.198 A 
ATOM     81  F   UNL A   1      46.579  28.206  23.203  1.00  0.00    -0.203 F 
ATOM     82  F   UNL A   1      50.823  26.141  25.944  1.00  0.00    -0.200 F 
ATOM     83  C   UNL A   1      49.848  26.813  23.900  1.00  0.00     0.200 A 
ATOM     84  F   UNL A   1      48.839  27.513  21.884  1.00  0.00    -0.200 F 
ATOM     85  F   UNL A   1      50.975  26.502  23.245  1.00  0.00    -0.200 F 
ENDBRANCH  52  75
ENDBRANCH  26  27
ENDBRANCH  19  21
ENDBRANCH  18  19
ENDBRANCH  17  18
ENDBRANCH   1  17
TORSDOF 13
ENDMDL
MODEL 3
REMARK VINA RESULT:     -11.0      4.872      7.910
REMARK SMILES C[C@@H](C(=O)OCCOC(=O)c1ccc(-c2c3nc(c(-c4c(F)c(F)c(F)c(F)c4F)c4ccc([nH]4)c(-c4c(F)c(F)c(F)c(F)c4F)c4nc(c(-c5c(F)c(F)c(F)c(F)c5F)c5ccc2[nH]5)C=C4)C=C3)cc1)c1ccc(=O)n(C(F)F)c1
REMARK SMILES IDX 6 1 5 2 3 3 4 4 2 5 1 6 74 7 75 8 83 9 76 10 79 11 77 12
REMARK SMILES IDX 78 13 80 14 81 15 82 16 7 17 8 18 9 19 10 20 11 21 12 22
REMARK SMILES IDX 73 23 13 24 72 25 14 26 15 27 16 28 66 29 17 30 71 31 65 32
REMARK SMILES IDX 67 33 18 34 70 35 64 36 63 37 19 39 51 40 31 41 50 42 32 43
REMARK SMILES IDX 35 44 49 45 68 46 33 47 34 48 48 50 69 51 36 52 20 53 21 54
REMARK SMILES IDX 29 55 22 56 23 57 27 58 30 59 24 60 25 61 28 62 26 63 52 64
REMARK SMILES IDX 53 65 61 66 54 67 55 68 59 69 62 70 56 71 57 72 60 73 58 74
REMARK SMILES IDX 37 75 38 76 46 77 39 78 40 79 44 80 47 81 41 82 42 83 45 84
REMARK SMILES IDX 43 85
REMARK H PARENT 67 38 35 49
REMARK Flexibility Score: inf
ROOT
ATOM      1  C   UNL A   1      36.655  22.790  23.702  1.00  0.00     0.274 C 
ENDROOT
BRANCH   1   2
ATOM      2  O   UNL A   1      35.294  22.775  23.224  1.00  0.00    -0.462 OA
BRANCH   2   3
ATOM      3  C   UNL A   1      34.325  23.129  24.111  1.00  0.00     0.313 C 
ATOM      4  O   UNL A   1      34.520  23.780  25.131  1.00  0.00    -0.252 OA
BRANCH   3   5
ATOM      5  C   UNL A   1      32.947  22.591  23.711  1.00  0.00     0.127 C 
ATOM      6  C   UNL A   1      31.768  23.430  24.210  1.00  0.00     0.025 C 
BRANCH   5   7
ATOM      7  C   UNL A   1      32.811  21.135  24.126  1.00  0.00    -0.017 A 
ATOM      8  C   UNL A   1      32.884  20.821  25.542  1.00  0.00     0.012 A 
ATOM      9  C   UNL A   1      32.677  20.119  23.256  1.00  0.00     0.099 A 
ATOM     10  C   UNL A   1      32.874  19.552  25.969  1.00  0.00     0.072 A 
ATOM     11  N   UNL A   1      32.635  18.797  23.672  1.00  0.00    -0.258 N 
ATOM     12  C   UNL A   1      32.801  18.431  24.997  1.00  0.00     0.254 A 
ATOM     13  O   UNL A   1      32.901  17.284  25.419  1.00  0.00    -0.269 OA
BRANCH  11  14
ATOM     14  C   UNL A   1      32.598  17.746  22.684  1.00  0.00     0.451 C 
ATOM     15  F   UNL A   1      32.258  18.194  21.455  1.00  0.00    -0.185 F 
ATOM     16  F   UNL A   1      33.835  17.194  22.536  1.00  0.00    -0.185 F 
ENDBRANCH  11  14
ENDBRANCH   5   7
ENDBRANCH   3   5
ENDBRANCH   2   3
ENDBRANCH   1   2
BRANCH   1  17
ATOM     17  C   UNL A   1      36.999  21.470  24.381  1.00  0.00     0.275 C 
BRANCH  17  18
ATOM     18  O   UNL A   1      37.396  21.720  25.742  1.00  0.00    -0.458 OA
BRANCH  18  19
ATOM     19  C   UNL A   1      38.704  21.562  26.014  1.00  0.00     0.338 C 
ATOM     20  O   UNL A   1      39.404  20.580  25.756  1.00  0.00    -0.246 OA
BRANCH  19  21
ATOM     21  C   UNL A   1      39.247  22.761  26.665  1.00  0.00     0.060 A 
ATOM     22  C   UNL A   1      38.722  24.014  26.351  1.00  0.00     0.016 A 
ATOM     23  C   UNL A   1      40.396  22.660  27.450  1.00  0.00     0.016 A 
ATOM     24  C   UNL A   1      39.428  25.163  26.706  1.00  0.00     0.010 A 
ATOM     25  C   UNL A   1      41.038  23.818  27.897  1.00  0.00     0.010 A 
ATOM     26  C   UNL A   1      40.598  25.087  27.481  1.00  0.00    -0.014 A 
BRANCH  26  27
ATOM     27  C   UNL A   1      41.373  26.319  27.810  1.00  0.00     0.031 A 
ATOM     28  C   UNL A   1      40.751  27.436  28.617  1.00  0.00     0.074 A 
ATOM     29  C   UNL A   1      42.658  26.433  27.421  1.00  0.00     0.049 A 
ATOM     30  N   UNL A   1      41.239  28.619  28.915  1.00  0.00    -0.248 NA
ATOM     31  C   UNL A   1      39.407  27.199  29.161  1.00  0.00     0.031 C 
ATOM     32  C   UNL A   1      43.407  25.423  26.673  1.00  0.00     0.029 A 
ATOM     33  N   UNL A   1      43.566  27.449  27.602  1.00  0.00    -0.354 N 
ATOM     34  C   UNL A   1      40.267  29.250  29.684  1.00  0.00     0.074 A 
ATOM     35  C   UNL A   1      39.152  28.337  29.790  1.00  0.00     0.031 C 
ATOM     36  C   UNL A   1      44.665  25.850  26.494  1.00  0.00     0.029 A 
ATOM     37  C   UNL A   1      44.786  27.205  27.022  1.00  0.00     0.049 A 
ATOM     38  H   UNL A   1      43.362  28.272  28.102  1.00  0.00     0.167 HD
ATOM     39  C   UNL A   1      40.300  30.479  30.254  1.00  0.00     0.037 A 
ATOM     40  C   UNL A   1      45.866  27.995  26.872  1.00  0.00     0.037 A 
ATOM     41  C   UNL A   1      41.402  31.399  30.147  1.00  0.00     0.049 A 
ATOM     42  C   UNL A   1      45.834  29.398  27.404  1.00  0.00     0.074 A 
ATOM     43  C   UNL A   1      41.512  32.680  30.662  1.00  0.00     0.029 A 
ATOM     44  N   UNL A   1      42.586  31.136  29.476  1.00  0.00    -0.354 N 
ATOM     45  N   UNL A   1      44.886  30.005  28.074  1.00  0.00    -0.248 NA
ATOM     46  C   UNL A   1      47.010  30.236  27.132  1.00  0.00     0.031 C 
ATOM     47  C   UNL A   1      42.741  33.211  30.257  1.00  0.00     0.029 A 
ATOM     48  C   UNL A   1      43.417  32.243  29.533  1.00  0.00     0.049 A 
ATOM     49  H   UNL A   1      42.803  30.288  29.025  1.00  0.00     0.167 HD
ATOM     50  C   UNL A   1      45.347  31.293  28.303  1.00  0.00     0.074 A 
ATOM     51  C   UNL A   1      46.671  31.373  27.723  1.00  0.00     0.031 C 
ATOM     52  C   UNL A   1      44.723  32.318  28.932  1.00  0.00     0.037 A 
BRANCH  39  53
ATOM     53  C   UNL A   1      39.087  30.930  31.015  1.00  0.00     0.064 A 
ATOM     54  C   UNL A   1      38.002  31.548  30.378  1.00  0.00     0.173 A 
ATOM     55  C   UNL A   1      38.984  30.676  32.392  1.00  0.00     0.173 A 
ATOM     56  F   UNL A   1      38.054  31.823  29.066  1.00  0.00    -0.203 F 
ATOM     57  C   UNL A   1      36.860  31.903  31.094  1.00  0.00     0.198 A 
ATOM     58  C   UNL A   1      37.833  31.011  33.099  1.00  0.00     0.198 A 
ATOM     59  F   UNL A   1      39.993  30.083  33.046  1.00  0.00    -0.203 F 
ATOM     60  F   UNL A   1      35.842  32.515  30.472  1.00  0.00    -0.200 F 
ATOM     61  C   UNL A   1      36.773  31.626  32.451  1.00  0.00     0.200 A 
ATOM     62  F   UNL A   1      37.747  30.732  34.406  1.00  0.00    -0.200 F 
ATOM     63  F   UNL A   1      35.668  31.953  33.134  1.00  0.00    -0.200 F 
ENDBRANCH  39  53
BRANCH  40  64
ATOM     64  C   UNL A   1      47.038  27.484  26.114  1.00  0.00     0.064 A 
ATOM     65  C   UNL A   1      47.116  27.608  24.722  1.00  0.00     0.173 A 
ATOM     66  C   UNL A   1      48.123  26.893  26.780  1.00  0.00     0.173 A 
ATOM     67  F   UNL A   1      46.091  28.135  24.036  1.00  0.00    -0.203 F 
ATOM     68  C   UNL A   1      48.241  27.170  24.026  1.00  0.00     0.198 A 
ATOM     69  C   UNL A   1      49.261  26.487  26.088  1.00  0.00     0.198 A 
ATOM     70  F   UNL A   1      48.094  26.744  28.112  1.00  0.00    -0.203 F 
ATOM     71  F   UNL A   1      48.283  27.274  22.690  1.00  0.00    -0.200 F 
ATOM     72  C   UNL A   1      49.318  26.623  24.710  1.00  0.00     0.200 A 
ATOM     73  F   UNL A   1      50.303  25.977  26.757  1.00  0.00    -0.200 F 
ATOM     74  F   UNL A   1      50.408  26.225  24.041  1.00  0.00    -0.200 F 
ENDBRANCH  40  64
BRANCH  52  75
ATOM     75  C   UNL A   1      45.468  33.616  29.019  1.00  0.00     0.064 A 
ATOM     76  C   UNL A   1      46.347  33.882  30.078  1.00  0.00     0.173 A 
ATOM     77  C   UNL A   1      45.313  34.596  28.027  1.00  0.00     0.173 A 
ATOM     78  F   UNL A   1      46.516  32.982  31.058  1.00  0.00    -0.203 F 
ATOM     79  C   UNL A   1      47.025  35.096  30.156  1.00  0.00     0.198 A 
ATOM     80  C   UNL A   1      46.011  35.798  28.095  1.00  0.00     0.198 A 
ATOM     81  F   UNL A   1      44.488  34.386  26.991  1.00  0.00    -0.203 F 
ATOM     82  F   UNL A   1      47.824  35.349  31.202  1.00  0.00    -0.200 F 
ATOM     83  C   UNL A   1      46.860  36.050  29.163  1.00  0.00     0.200 A 
ATOM     84  F   UNL A   1      45.858  36.715  27.132  1.00  0.00    -0.200 F 
ATOM     85  F   UNL A   1      47.511  37.219  29.242  1.00  0.00    -0.200 F 
ENDBRANCH  52  75
ENDBRANCH  26  27
ENDBRANCH  19  21
ENDBRANCH  18  19
ENDBRANCH  17  18
ENDBRANCH   1  17
TORSDOF 13
ENDMDL
