MODEL 1
REMARK VINA RESULT:     -12.6      0.000      0.000
REMARK SMILES CCOC(=O)c1ccc(NC(=O)[C@@H]2[C@H]3c4ccccc4[C@H](c4ccccc43)[C@@H]2C(=O)OCCOC(=O)c2ccc(-c3c4nc(c(-c5c(F)c(F)c(F)c(F)c5F)c5ccc([nH]5)c(-c5c(F)c(F)c(F)c(F)c5F)c5nc(c(-c6c(F)c(F)c(F)c(F)c6F)c6ccc3[nH]6)C=C5)C=C4)cc2)cc1
REMARK SMILES IDX 31 1 29 2 30 3 28 4 13 5 14 6 15 7 27 8 21 9 16 10 20 11
REMARK SMILES IDX 22 12 26 13 17 14 19 15 23 16 25 17 18 18 24 19 11 20 10 21
REMARK SMILES IDX 12 23 9 24 6 25 7 26 101 27 8 28 100 29 4 30 5 31 3 32 2 33
REMARK SMILES IDX 1 34 32 35 33 36 34 37 35 38 36 39 37 40 38 41 99 42 39 43
REMARK SMILES IDX 98 44 40 45 41 46 42 47 92 48 43 49 97 50 91 51 93 52 44 53
REMARK SMILES IDX 96 54 90 55 89 56 45 58 77 59 57 60 76 61 58 62 61 63 75 64
REMARK SMILES IDX 94 65 59 66 60 67 74 69 95 70 62 71 46 72 47 73 55 74 48 75
REMARK SMILES IDX 49 76 53 77 56 78 50 79 51 80 54 81 52 82 78 83 79 84 87 85
REMARK SMILES IDX 80 86 81 87 85 88 88 89 82 90 83 91 86 92 84 93 63 94 64 95
REMARK SMILES IDX 72 96 65 97 66 98 70 99 73 100 67 101 68 102 71 103 69 104
REMARK H PARENT 10 22 93 57 61 68
REMARK Flexibility Score: inf
ROOT
ATOM      1  O   UNL A   1      44.802  41.571  28.608  1.00  0.00    -0.462 OA
ENDROOT
BRANCH   1   2
ATOM      2  C   UNL A   1      45.159  42.750  28.083  1.00  0.00     0.310 C 
ATOM      3  O   UNL A   1      45.413  43.745  28.757  1.00  0.00    -0.252 OA
BRANCH   2   4
ATOM      4  C   UNL A   1      45.364  42.705  26.495  1.00  0.00     0.124 C 
ATOM      5  C   UNL A   1      45.059  41.256  25.449  1.00  0.00     0.106 C 
ATOM      6  C   UNL A   1      46.616  39.908  25.123  1.00  0.00     0.063 C 
ATOM      7  C   UNL A   1      46.918  41.253  23.953  1.00  0.00    -0.036 A 
ATOM      8  C   UNL A   1      47.922  39.683  26.941  1.00  0.00    -0.036 A 
ATOM      9  C   UNL A   1      46.850  42.719  26.625  1.00  0.00     0.065 C 
ATOM     10  C   UNL A   1      47.181  40.941  22.624  1.00  0.00     0.004 A 
ATOM     11  C   UNL A   1      46.955  42.657  24.687  1.00  0.00    -0.036 A 
ATOM     12  C   UNL A   1      47.691  41.323  27.794  1.00  0.00    -0.036 A 
ATOM     13  C   UNL A   1      48.732  38.793  27.681  1.00  0.00     0.004 A 
ATOM     14  C   UNL A   1      47.345  42.042  21.825  1.00  0.00     0.000 A 
ATOM     15  C   UNL A   1      46.976  43.689  23.772  1.00  0.00     0.004 A 
ATOM     16  C   UNL A   1      48.054  41.566  29.085  1.00  0.00     0.004 A 
ATOM     17  C   UNL A   1      49.159  39.264  28.957  1.00  0.00     0.000 A 
ATOM     18  C   UNL A   1      47.157  43.355  22.367  1.00  0.00     0.000 A 
ATOM     19  C   UNL A   1      48.778  40.502  29.633  1.00  0.00     0.000 A 
BRANCH   5  20
ATOM     20  C   UNL A   1      43.374  41.427  25.540  1.00  0.00     0.229 C 
ATOM     21  N   UNL A   1      42.440  42.065  24.627  1.00  0.00    -0.326 N 
ATOM     22  H   UNL A   1      41.533  41.909  24.976  1.00  0.00     0.169 HD
ATOM     23  O   UNL A   1      42.804  40.830  26.475  1.00  0.00    -0.274 OA
BRANCH  21  24
ATOM     24  C   UNL A   1      42.305  42.866  23.369  1.00  0.00     0.041 A 
ATOM     25  C   UNL A   1      43.076  43.732  20.683  1.00  0.00     0.060 A 
ATOM     26  C   UNL A   1      41.872  43.047  20.915  1.00  0.00     0.018 A 
ATOM     27  C   UNL A   1      43.657  44.301  21.819  1.00  0.00     0.018 A 
ATOM     28  C   UNL A   1      41.476  42.639  22.250  1.00  0.00     0.027 A 
ATOM     29  C   UNL A   1      43.258  43.894  23.147  1.00  0.00     0.027 A 
BRANCH  25  30
ATOM     30  C   UNL A   1      43.743  43.668  19.298  1.00  0.00     0.338 C 
ATOM     31  O   UNL A   1      44.915  43.966  19.118  1.00  0.00    -0.246 OA
BRANCH  30  32
ATOM     32  O   UNL A   1      42.880  43.328  18.284  1.00  0.00    -0.462 OA
BRANCH  32  33
ATOM     33  C   UNL A   1      42.326  44.391  17.441  1.00  0.00     0.230 C 
ATOM     34  C   UNL A   1      40.830  44.685  17.580  1.00  0.00     0.049 C 
ENDBRANCH  32  33
ENDBRANCH  30  32
ENDBRANCH  25  30
ENDBRANCH  21  24
ENDBRANCH   5  20
ENDBRANCH   2   4
ENDBRANCH   1   2
BRANCH   1  35
ATOM     35  C   UNL A   1      44.563  41.400  30.027  1.00  0.00     0.274 C 
BRANCH  35  36
ATOM     36  C   UNL A   1      45.003  39.977  30.292  1.00  0.00     0.275 C 
BRANCH  36  37
ATOM     37  O   UNL A   1      44.865  39.362  29.010  1.00  0.00    -0.458 OA
BRANCH  37  38
ATOM     38  C   UNL A   1      43.828  38.502  29.065  1.00  0.00     0.338 C 
ATOM     39  O   UNL A   1      42.659  38.867  29.142  1.00  0.00    -0.246 OA
BRANCH  38  40
ATOM     40  C   UNL A   1      44.194  37.110  29.442  1.00  0.00     0.060 A 
ATOM     41  C   UNL A   1      44.776  35.555  30.664  1.00  0.00     0.016 A 
ATOM     42  C   UNL A   1      43.902  36.501  27.808  1.00  0.00     0.016 A 
ATOM     43  C   UNL A   1      44.875  33.997  30.128  1.00  0.00     0.010 A 
ATOM     44  C   UNL A   1      44.054  34.877  27.550  1.00  0.00     0.010 A 
ATOM     45  C   UNL A   1      44.450  33.729  28.725  1.00  0.00    -0.014 A 
BRANCH  45  46
ATOM     46  C   UNL A   1      44.137  32.294  28.604  1.00  0.00     0.031 A 
ATOM     47  C   UNL A   1      42.837  31.945  29.181  1.00  0.00     0.074 A 
ATOM     48  C   UNL A   1      44.917  31.438  27.881  1.00  0.00     0.049 A 
ATOM     49  N   UNL A   1      42.264  30.788  29.229  1.00  0.00    -0.248 NA
ATOM     50  C   UNL A   1      42.078  33.048  29.801  1.00  0.00     0.031 C 
ATOM     51  C   UNL A   1      46.178  31.759  27.170  1.00  0.00     0.029 A 
ATOM     52  N   UNL A   1      44.753  30.111  27.569  1.00  0.00    -0.354 N 
ATOM     53  C   UNL A   1      41.091  31.027  29.906  1.00  0.00     0.074 A 
ATOM     54  C   UNL A   1      41.076  32.395  30.349  1.00  0.00     0.031 C 
ATOM     55  C   UNL A   1      46.655  30.684  26.531  1.00  0.00     0.029 A 
ATOM     56  C   UNL A   1      45.778  29.574  26.812  1.00  0.00     0.049 A 
ATOM     57  H   UNL A   1      43.972  29.587  27.858  1.00  0.00     0.167 HD
ATOM     58  C   UNL A   1      40.089  30.157  30.083  1.00  0.00     0.037 A 
ATOM     59  C   UNL A   1      45.991  28.310  26.409  1.00  0.00     0.037 A 
ATOM     60  C   UNL A   1      40.161  28.814  29.609  1.00  0.00     0.049 A 
ATOM     61  C   UNL A   1      44.912  27.332  26.758  1.00  0.00     0.074 A 
ATOM     62  C   UNL A   1      39.232  27.812  29.756  1.00  0.00     0.029 A 
ATOM     63  N   UNL A   1      41.246  28.285  28.915  1.00  0.00    -0.354 N 
ATOM     64  N   UNL A   1      43.789  27.556  27.401  1.00  0.00    -0.248 NA
ATOM     65  C   UNL A   1      45.098  25.948  26.322  1.00  0.00     0.031 C 
ATOM     66  C   UNL A   1      39.801  26.644  29.256  1.00  0.00     0.029 A 
ATOM     67  C   UNL A   1      41.031  26.943  28.680  1.00  0.00     0.049 A 
ATOM     68  H   UNL A   1      42.043  28.790  28.637  1.00  0.00     0.167 HD
ATOM     69  C   UNL A   1      43.113  26.355  27.414  1.00  0.00     0.074 A 
ATOM     70  C   UNL A   1      43.948  25.408  26.697  1.00  0.00     0.031 C 
ATOM     71  C   UNL A   1      41.910  26.057  27.961  1.00  0.00     0.037 A 
BRANCH  58  72
ATOM     72  C   UNL A   1      38.936  30.637  30.884  1.00  0.00     0.064 A 
ATOM     73  C   UNL A   1      38.906  30.560  32.286  1.00  0.00     0.173 A 
ATOM     74  C   UNL A   1      37.803  31.111  30.216  1.00  0.00     0.173 A 
ATOM     75  F   UNL A   1      39.941  30.036  32.962  1.00  0.00    -0.203 F 
ATOM     76  C   UNL A   1      37.769  30.939  32.989  1.00  0.00     0.198 A 
ATOM     77  C   UNL A   1      36.690  31.536  30.924  1.00  0.00     0.198 A 
ATOM     78  F   UNL A   1      37.771  31.138  28.875  1.00  0.00    -0.203 F 
ATOM     79  F   UNL A   1      37.725  30.783  34.319  1.00  0.00    -0.200 F 
ATOM     80  C   UNL A   1      36.672  31.445  32.308  1.00  0.00     0.200 A 
ATOM     81  F   UNL A   1      35.629  32.018  30.265  1.00  0.00    -0.200 F 
ATOM     82  F   UNL A   1      35.584  31.832  32.988  1.00  0.00    -0.200 F 
ENDBRANCH  58  72
BRANCH  59  83
ATOM     83  C   UNL A   1      47.235  27.908  25.689  1.00  0.00     0.064 A 
ATOM     84  C   UNL A   1      47.291  27.839  24.290  1.00  0.00     0.173 A 
ATOM     85  C   UNL A   1      48.391  27.530  26.394  1.00  0.00     0.173 A 
ATOM     86  F   UNL A   1      46.222  28.191  23.559  1.00  0.00    -0.203 F 
ATOM     87  C   UNL A   1      48.423  27.357  23.630  1.00  0.00     0.198 A 
ATOM     88  C   UNL A   1      49.537  27.087  25.733  1.00  0.00     0.198 A 
ATOM     89  F   UNL A   1      48.411  27.585  27.734  1.00  0.00    -0.203 F 
ATOM     90  F   UNL A   1      48.414  27.227  22.296  1.00  0.00    -0.200 F 
ATOM     91  C   UNL A   1      49.545  26.982  24.352  1.00  0.00     0.200 A 
ATOM     92  F   UNL A   1      50.627  26.750  26.436  1.00  0.00    -0.200 F 
ATOM     93  F   UNL A   1      50.625  26.505  23.719  1.00  0.00    -0.200 F 
ENDBRANCH  59  83
BRANCH  71  94
ATOM     94  C   UNL A   1      41.416  24.664  27.751  1.00  0.00     0.064 A 
ATOM     95  C   UNL A   1      40.391  24.374  26.844  1.00  0.00     0.173 A 
ATOM     96  C   UNL A   1      42.029  23.602  28.433  1.00  0.00     0.173 A 
ATOM     97  F   UNL A   1      39.778  25.362  26.173  1.00  0.00    -0.203 F 
ATOM     98  C   UNL A   1      39.959  23.067  26.664  1.00  0.00     0.198 A 
ATOM     99  C   UNL A   1      41.640  22.293  28.200  1.00  0.00     0.198 A 
ATOM    100  F   UNL A   1      43.030  23.836  29.296  1.00  0.00    -0.203 F 
ATOM    101  F   UNL A   1      38.919  22.816  25.858  1.00  0.00    -0.200 F 
ATOM    102  C   UNL A   1      40.593  22.028  27.331  1.00  0.00     0.200 A 
ATOM    103  F   UNL A   1      42.282  21.289  28.813  1.00  0.00    -0.200 F 
ATOM    104  F   UNL A   1      40.188  20.766  27.140  1.00  0.00    -0.200 F 
ENDBRANCH  71  94
ENDBRANCH  45  46
ENDBRANCH  38  40
ENDBRANCH  37  38
ENDBRANCH  36  37
ENDBRANCH  35  36
ENDBRANCH   1  35
TORSDOF 16
ENDMDL
MODEL 2
REMARK VINA RESULT:     -12.3      6.348     16.252
REMARK SMILES CCOC(=O)c1ccc(NC(=O)[C@@H]2[C@H]3c4ccccc4[C@H](c4ccccc43)[C@@H]2C(=O)OCCOC(=O)c2ccc(-c3c4nc(c(-c5c(F)c(F)c(F)c(F)c5F)c5ccc([nH]5)c(-c5c(F)c(F)c(F)c(F)c5F)c5nc(c(-c6c(F)c(F)c(F)c(F)c6F)c6ccc3[nH]6)C=C5)C=C4)cc2)cc1
REMARK SMILES IDX 31 1 29 2 30 3 28 4 13 5 14 6 15 7 27 8 21 9 16 10 20 11
REMARK SMILES IDX 22 12 26 13 17 14 19 15 23 16 25 17 18 18 24 19 11 20 10 21
REMARK SMILES IDX 12 23 9 24 6 25 7 26 101 27 8 28 100 29 4 30 5 31 3 32 2 33
REMARK SMILES IDX 1 34 32 35 33 36 34 37 35 38 36 39 37 40 38 41 99 42 39 43
REMARK SMILES IDX 98 44 40 45 41 46 42 47 92 48 43 49 97 50 91 51 93 52 44 53
REMARK SMILES IDX 96 54 90 55 89 56 45 58 77 59 57 60 76 61 58 62 61 63 75 64
REMARK SMILES IDX 94 65 59 66 60 67 74 69 95 70 62 71 46 72 47 73 55 74 48 75
REMARK SMILES IDX 49 76 53 77 56 78 50 79 51 80 54 81 52 82 78 83 79 84 87 85
REMARK SMILES IDX 80 86 81 87 85 88 88 89 82 90 83 91 86 92 84 93 63 94 64 95
REMARK SMILES IDX 72 96 65 97 66 98 70 99 73 100 67 101 68 102 71 103 69 104
REMARK H PARENT 10 22 93 57 61 68
REMARK Flexibility Score: inf
ROOT
ATOM      1  O   UNL A   1      35.961  21.641  26.487  1.00  0.00    -0.462 OA
ENDROOT
BRANCH   1   2
ATOM      2  C   UNL A   1      34.671  21.935  26.689  1.00  0.00     0.310 C 
ATOM      3  O   UNL A   1      34.009  21.488  27.623  1.00  0.00    -0.252 OA
BRANCH   2   4
ATOM      4  C   UNL A   1      34.104  23.043  25.680  1.00  0.00     0.124 C 
ATOM      5  C   UNL A   1      32.351  23.303  25.302  1.00  0.00     0.106 C 
ATOM      6  C   UNL A   1      31.496  22.240  23.726  1.00  0.00     0.063 C 
ATOM      7  C   UNL A   1      32.336  23.634  22.940  1.00  0.00    -0.036 A 
ATOM      8  C   UNL A   1      32.350  20.166  23.554  1.00  0.00    -0.036 A 
ATOM      9  C   UNL A   1      34.599  22.297  24.486  1.00  0.00     0.065 C 
ATOM     10  C   UNL A   1      31.647  24.393  22.001  1.00  0.00     0.004 A 
ATOM     11  C   UNL A   1      33.858  23.710  23.379  1.00  0.00    -0.036 A 
ATOM     12  C   UNL A   1      34.045  20.379  24.297  1.00  0.00    -0.036 A 
ATOM     13  C   UNL A   1      32.076  18.827  23.197  1.00  0.00     0.004 A 
ATOM     14  C   UNL A   1      32.371  25.448  21.511  1.00  0.00     0.000 A 
ATOM     15  C   UNL A   1      34.436  24.885  22.946  1.00  0.00     0.004 A 
ATOM     16  C   UNL A   1      34.843  19.343  24.680  1.00  0.00     0.004 A 
ATOM     17  C   UNL A   1      33.088  17.881  23.532  1.00  0.00     0.000 A 
ATOM     18  C   UNL A   1      33.674  25.728  22.035  1.00  0.00     0.000 A 
ATOM     19  C   UNL A   1      34.319  18.107  24.285  1.00  0.00     0.000 A 
BRANCH   5  20
ATOM     20  C   UNL A   1      32.042  24.052  26.793  1.00  0.00     0.229 C 
ATOM     21  N   UNL A   1      32.068  25.457  27.165  1.00  0.00    -0.326 N 
ATOM     22  H   UNL A   1      31.771  25.520  28.101  1.00  0.00     0.169 HD
ATOM     23  O   UNL A   1      31.623  23.318  27.709  1.00  0.00    -0.274 OA
BRANCH  21  24
ATOM     24  C   UNL A   1      32.368  26.847  26.696  1.00  0.00     0.041 A 
ATOM     25  C   UNL A   1      33.416  29.566  26.964  1.00  0.00     0.060 A 
ATOM     26  C   UNL A   1      33.973  28.652  26.055  1.00  0.00     0.018 A 
ATOM     27  C   UNL A   1      32.135  29.239  27.417  1.00  0.00     0.018 A 
ATOM     28  C   UNL A   1      33.439  27.312  25.903  1.00  0.00     0.027 A 
ATOM     29  C   UNL A   1      31.606  27.903  27.261  1.00  0.00     0.027 A 
BRANCH  25  30
ATOM     30  C   UNL A   1      34.270  30.719  27.518  1.00  0.00     0.338 C 
ATOM     31  O   UNL A   1      33.795  31.804  27.821  1.00  0.00    -0.246 OA
BRANCH  30  32
ATOM     32  O   UNL A   1      35.616  30.440  27.557  1.00  0.00    -0.462 OA
BRANCH  32  33
ATOM     33  C   UNL A   1      36.149  29.692  28.700  1.00  0.00     0.230 C 
ATOM     34  C   UNL A   1      36.143  30.395  30.059  1.00  0.00     0.049 C 
ENDBRANCH  32  33
ENDBRANCH  30  32
ENDBRANCH  25  30
ENDBRANCH  21  24
ENDBRANCH   5  20
ENDBRANCH   2   4
ENDBRANCH   1   2
BRANCH   1  35
ATOM     35  C   UNL A   1      36.925  22.643  26.079  1.00  0.00     0.274 C 
BRANCH  35  36
ATOM     36  C   UNL A   1      38.083  21.826  25.548  1.00  0.00     0.275 C 
BRANCH  36  37
ATOM     37  O   UNL A   1      38.932  21.704  26.691  1.00  0.00    -0.458 OA
BRANCH  37  38
ATOM     38  C   UNL A   1      40.175  22.084  26.335  1.00  0.00     0.338 C 
ATOM     39  O   UNL A   1      40.854  21.471  25.518  1.00  0.00    -0.246 OA
BRANCH  38  40
ATOM     40  C   UNL A   1      40.829  23.033  27.276  1.00  0.00     0.060 A 
ATOM     41  C   UNL A   1      42.102  23.665  28.769  1.00  0.00     0.016 A 
ATOM     42  C   UNL A   1      39.927  24.415  26.642  1.00  0.00     0.016 A 
ATOM     43  C   UNL A   1      42.236  25.251  29.205  1.00  0.00     0.010 A 
ATOM     44  C   UNL A   1      40.278  25.911  27.249  1.00  0.00     0.010 A 
ATOM     45  C   UNL A   1      41.448  26.244  28.422  1.00  0.00    -0.014 A 
BRANCH  45  46
ATOM     46  C   UNL A   1      42.061  27.571  28.610  1.00  0.00     0.031 A 
ATOM     47  C   UNL A   1      43.377  27.686  27.980  1.00  0.00     0.074 A 
ATOM     48  C   UNL A   1      41.380  28.613  29.173  1.00  0.00     0.049 A 
ATOM     49  N   UNL A   1      44.167  28.707  27.948  1.00  0.00    -0.248 NA
ATOM     50  C   UNL A   1      43.883  26.480  27.297  1.00  0.00     0.031 C 
ATOM     51  C   UNL A   1      40.000  28.591  29.717  1.00  0.00     0.029 A 
ATOM     52  N   UNL A   1      41.727  29.929  29.350  1.00  0.00    -0.354 N 
ATOM     53  C   UNL A   1      45.269  28.253  27.264  1.00  0.00     0.074 A 
ATOM     54  C   UNL A   1      45.109  26.850  26.995  1.00  0.00     0.031 C 
ATOM     55  C   UNL A   1      39.639  29.804  30.156  1.00  0.00     0.029 A 
ATOM     56  C   UNL A   1      40.762  30.692  29.980  1.00  0.00     0.049 A 
ATOM     57  H   UNL A   1      42.589  30.298  29.051  1.00  0.00     0.167 HD
ATOM     58  C   UNL A   1      46.307  28.994  26.854  1.00  0.00     0.037 A 
ATOM     59  C   UNL A   1      40.796  31.972  30.391  1.00  0.00     0.037 A 
ATOM     60  C   UNL A   1      46.402  30.387  27.144  1.00  0.00     0.049 A 
ATOM     61  C   UNL A   1      42.040  32.727  30.042  1.00  0.00     0.074 A 
ATOM     62  C   UNL A   1      47.421  31.252  26.824  1.00  0.00     0.029 A 
ATOM     63  N   UNL A   1      45.444  31.108  27.851  1.00  0.00    -0.354 N 
ATOM     64  N   UNL A   1      43.094  32.298  29.386  1.00  0.00    -0.248 NA
ATOM     65  C   UNL A   1      42.109  34.128  30.456  1.00  0.00     0.031 C 
ATOM     66  C   UNL A   1      47.137  32.470  27.437  1.00  0.00     0.029 A 
ATOM     67  C   UNL A   1      45.882  32.403  28.029  1.00  0.00     0.049 A 
ATOM     68  H   UNL A   1      44.586  30.749  28.174  1.00  0.00     0.167 HD
ATOM     69  C   UNL A   1      43.937  33.383  29.270  1.00  0.00     0.074 A 
ATOM     70  C   UNL A   1      43.260  34.497  29.912  1.00  0.00     0.031 C 
ATOM     71  C   UNL A   1      45.155  33.462  28.684  1.00  0.00     0.037 A 
BRANCH  58  72
ATOM     72  C   UNL A   1      47.401  28.269  26.163  1.00  0.00     0.064 A 
ATOM     73  C   UNL A   1      47.341  27.930  24.801  1.00  0.00     0.173 A 
ATOM     74  C   UNL A   1      48.500  27.836  26.912  1.00  0.00     0.173 A 
ATOM     75  F   UNL A   1      46.266  28.257  24.065  1.00  0.00    -0.203 F 
ATOM     76  C   UNL A   1      48.348  27.173  24.218  1.00  0.00     0.198 A 
ATOM     77  C   UNL A   1      49.527  27.124  26.313  1.00  0.00     0.198 A 
ATOM     78  F   UNL A   1      48.560  28.085  28.228  1.00  0.00    -0.203 F 
ATOM     79  F   UNL A   1      48.238  26.788  22.939  1.00  0.00    -0.200 F 
ATOM     80  C   UNL A   1      49.449  26.789  24.969  1.00  0.00     0.200 A 
ATOM     81  F   UNL A   1      50.585  26.749  27.043  1.00  0.00    -0.200 F 
ATOM     82  F   UNL A   1      50.432  26.078  24.401  1.00  0.00    -0.200 F 
ENDBRANCH  58  72
BRANCH  59  83
ATOM     83  C   UNL A   1      39.678  32.583  31.167  1.00  0.00     0.064 A 
ATOM     84  C   UNL A   1      39.641  32.541  32.569  1.00  0.00     0.173 A 
ATOM     85  C   UNL A   1      38.586  33.183  30.517  1.00  0.00     0.173 A 
ATOM     86  F   UNL A   1      40.656  31.987  33.249  1.00  0.00    -0.203 F 
ATOM     87  C   UNL A   1      38.539  33.018  33.282  1.00  0.00     0.198 A 
ATOM     88  C   UNL A   1      37.503  33.697  31.232  1.00  0.00     0.198 A 
ATOM     89  F   UNL A   1      38.562  33.270  29.179  1.00  0.00    -0.203 F 
ATOM     90  F   UNL A   1      38.500  32.889  34.615  1.00  0.00    -0.200 F 
ATOM     91  C   UNL A   1      37.471  33.595  32.613  1.00  0.00     0.200 A 
ATOM     92  F   UNL A   1      36.485  34.276  30.581  1.00  0.00    -0.200 F 
ATOM     93  F   UNL A   1      36.408  34.039  33.297  1.00  0.00    -0.200 F 
ENDBRANCH  59  83
BRANCH  71  94
ATOM     94  C   UNL A   1      45.797  34.809  28.670  1.00  0.00     0.064 A 
ATOM     95  C   UNL A   1      46.679  35.217  29.678  1.00  0.00     0.173 A 
ATOM     96  C   UNL A   1      45.565  35.675  27.591  1.00  0.00     0.173 A 
ATOM     97  F   UNL A   1      46.926  34.418  30.728  1.00  0.00    -0.203 F 
ATOM     98  C   UNL A   1      47.267  36.472  29.632  1.00  0.00     0.198 A 
ATOM     99  C   UNL A   1      46.207  36.901  27.516  1.00  0.00     0.198 A 
ATOM    100  F   UNL A   1      44.743  35.313  26.593  1.00  0.00    -0.203 F 
ATOM    101  F   UNL A   1      48.038  36.882  30.647  1.00  0.00    -0.200 F 
ATOM    102  C   UNL A   1      47.042  37.306  28.545  1.00  0.00     0.200 A 
ATOM    103  F   UNL A   1      46.022  37.684  26.446  1.00  0.00    -0.200 F 
ATOM    104  F   UNL A   1      47.628  38.510  28.494  1.00  0.00    -0.200 F 
ENDBRANCH  71  94
ENDBRANCH  45  46
ENDBRANCH  38  40
ENDBRANCH  37  38
ENDBRANCH  36  37
ENDBRANCH  35  36
ENDBRANCH   1  35
TORSDOF 16
ENDMDL
MODEL 3
REMARK VINA RESULT:     -12.2      6.382     16.138
REMARK SMILES CCOC(=O)c1ccc(NC(=O)[C@@H]2[C@H]3c4ccccc4[C@H](c4ccccc43)[C@@H]2C(=O)OCCOC(=O)c2ccc(-c3c4nc(c(-c5c(F)c(F)c(F)c(F)c5F)c5ccc([nH]5)c(-c5c(F)c(F)c(F)c(F)c5F)c5nc(c(-c6c(F)c(F)c(F)c(F)c6F)c6ccc3[nH]6)C=C5)C=C4)cc2)cc1
REMARK SMILES IDX 31 1 29 2 30 3 28 4 13 5 14 6 15 7 27 8 21 9 16 10 20 11
REMARK SMILES IDX 22 12 26 13 17 14 19 15 23 16 25 17 18 18 24 19 11 20 10 21
REMARK SMILES IDX 12 23 9 24 6 25 7 26 101 27 8 28 100 29 4 30 5 31 3 32 2 33
REMARK SMILES IDX 1 34 32 35 33 36 34 37 35 38 36 39 37 40 38 41 99 42 39 43
REMARK SMILES IDX 98 44 40 45 41 46 42 47 92 48 43 49 97 50 91 51 93 52 44 53
REMARK SMILES IDX 96 54 90 55 89 56 45 58 77 59 57 60 76 61 58 62 61 63 75 64
REMARK SMILES IDX 94 65 59 66 60 67 74 69 95 70 62 71 46 72 47 73 55 74 48 75
REMARK SMILES IDX 49 76 53 77 56 78 50 79 51 80 54 81 52 82 78 83 79 84 87 85
REMARK SMILES IDX 80 86 81 87 85 88 88 89 82 90 83 91 86 92 84 93 63 94 64 95
REMARK SMILES IDX 72 96 65 97 66 98 70 99 73 100 67 101 68 102 71 103 69 104
REMARK H PARENT 10 22 93 57 61 68
REMARK Flexibility Score: inf
ROOT
ATOM      1  O   UNL A   1      35.940  21.689  26.523  1.00  0.00    -0.462 OA
ENDROOT
BRANCH   1   2
ATOM      2  C   UNL A   1      34.635  21.938  26.685  1.00  0.00     0.310 C 
ATOM      3  O   UNL A   1      33.957  21.454  27.589  1.00  0.00    -0.252 OA
BRANCH   2   4
ATOM      4  C   UNL A   1      34.066  23.043  25.675  1.00  0.00     0.124 C 
ATOM      5  C   UNL A   1      32.314  23.290  25.284  1.00  0.00     0.106 C 
ATOM      6  C   UNL A   1      31.480  22.224  23.698  1.00  0.00     0.063 C 
ATOM      7  C   UNL A   1      32.315  23.627  22.922  1.00  0.00    -0.036 A 
ATOM      8  C   UNL A   1      32.353  20.157  23.527  1.00  0.00    -0.036 A 
ATOM      9  C   UNL A   1      34.577  22.305  24.483  1.00  0.00     0.065 C 
ATOM     10  C   UNL A   1      31.627  24.382  21.979  1.00  0.00     0.004 A 
ATOM     11  C   UNL A   1      33.833  23.714  23.373  1.00  0.00    -0.036 A 
ATOM     12  C   UNL A   1      34.040  20.383  24.285  1.00  0.00    -0.036 A 
ATOM     13  C   UNL A   1      32.093  18.817  23.166  1.00  0.00     0.004 A 
ATOM     14  C   UNL A   1      32.346  25.445  21.498  1.00  0.00     0.000 A 
ATOM     15  C   UNL A   1      34.404  24.896  22.947  1.00  0.00     0.004 A 
ATOM     16  C   UNL A   1      34.844  19.353  24.671  1.00  0.00     0.004 A 
ATOM     17  C   UNL A   1      33.110  17.879  23.506  1.00  0.00     0.000 A 
ATOM     18  C   UNL A   1      33.642  25.735  22.033  1.00  0.00     0.000 A 
ATOM     19  C   UNL A   1      34.334  18.113  24.269  1.00  0.00     0.000 A 
BRANCH   5  20
ATOM     20  C   UNL A   1      31.988  24.033  26.774  1.00  0.00     0.229 C 
ATOM     21  N   UNL A   1      32.033  25.434  27.158  1.00  0.00    -0.326 N 
ATOM     22  H   UNL A   1      31.716  25.495  28.088  1.00  0.00     0.169 HD
ATOM     23  O   UNL A   1      31.534  23.299  27.674  1.00  0.00    -0.274 OA
BRANCH  21  24
ATOM     24  C   UNL A   1      32.370  26.822  26.708  1.00  0.00     0.041 A 
ATOM     25  C   UNL A   1      33.452  29.521  27.026  1.00  0.00     0.060 A 
ATOM     26  C   UNL A   1      34.023  28.604  26.130  1.00  0.00     0.018 A 
ATOM     27  C   UNL A   1      32.152  29.212  27.436  1.00  0.00     0.018 A 
ATOM     28  C   UNL A   1      33.473  27.274  25.952  1.00  0.00     0.027 A 
ATOM     29  C   UNL A   1      31.607  27.886  27.255  1.00  0.00     0.027 A 
BRANCH  25  30
ATOM     30  C   UNL A   1      34.307  30.658  27.614  1.00  0.00     0.338 C 
ATOM     31  O   UNL A   1      35.372  30.455  28.179  1.00  0.00    -0.246 OA
BRANCH  30  32
ATOM     32  O   UNL A   1      33.720  31.897  27.518  1.00  0.00    -0.462 OA
BRANCH  32  33
ATOM     33  C   UNL A   1      34.200  32.975  28.386  1.00  0.00     0.230 C 
ATOM     34  C   UNL A   1      33.358  34.252  28.444  1.00  0.00     0.049 C 
ENDBRANCH  32  33
ENDBRANCH  30  32
ENDBRANCH  25  30
ENDBRANCH  21  24
ENDBRANCH   5  20
ENDBRANCH   2   4
ENDBRANCH   1   2
BRANCH   1  35
ATOM     35  C   UNL A   1      36.816  22.601  25.815  1.00  0.00     0.274 C 
BRANCH  35  36
ATOM     36  C   UNL A   1      37.957  21.716  25.361  1.00  0.00     0.275 C 
BRANCH  36  37
ATOM     37  O   UNL A   1      38.746  21.588  26.545  1.00  0.00    -0.458 OA
BRANCH  37  38
ATOM     38  C   UNL A   1      40.020  21.901  26.237  1.00  0.00     0.338 C 
ATOM     39  O   UNL A   1      40.706  21.235  25.469  1.00  0.00    -0.246 OA
BRANCH  38  40
ATOM     40  C   UNL A   1      40.675  22.846  27.183  1.00  0.00     0.060 A 
ATOM     41  C   UNL A   1      41.967  23.477  28.659  1.00  0.00     0.016 A 
ATOM     42  C   UNL A   1      39.727  24.220  26.599  1.00  0.00     0.016 A 
ATOM     43  C   UNL A   1      42.076  25.056  29.125  1.00  0.00     0.010 A 
ATOM     44  C   UNL A   1      40.059  25.710  27.229  1.00  0.00     0.010 A 
ATOM     45  C   UNL A   1      41.248  26.046  28.381  1.00  0.00    -0.014 A 
BRANCH  45  46
ATOM     46  C   UNL A   1      41.835  27.383  28.583  1.00  0.00     0.031 A 
ATOM     47  C   UNL A   1      43.161  27.520  27.979  1.00  0.00     0.074 A 
ATOM     48  C   UNL A   1      41.126  28.412  29.133  1.00  0.00     0.049 A 
ATOM     49  N   UNL A   1      43.934  28.555  27.964  1.00  0.00    -0.248 NA
ATOM     50  C   UNL A   1      43.701  26.324  27.305  1.00  0.00     0.031 C 
ATOM     51  C   UNL A   1      39.736  28.367  29.650  1.00  0.00     0.029 A 
ATOM     52  N   UNL A   1      41.447  29.734  29.319  1.00  0.00    -0.354 N 
ATOM     53  C   UNL A   1      45.058  28.120  27.302  1.00  0.00     0.074 A 
ATOM     54  C   UNL A   1      44.926  26.714  27.029  1.00  0.00     0.031 C 
ATOM     55  C   UNL A   1      39.347  29.573  30.083  1.00  0.00     0.029 A 
ATOM     56  C   UNL A   1      40.458  30.480  29.931  1.00  0.00     0.049 A 
ATOM     57  H   UNL A   1      42.309  30.118  29.038  1.00  0.00     0.167 HD
ATOM     58  C   UNL A   1      46.091  28.878  26.913  1.00  0.00     0.037 A 
ATOM     59  C   UNL A   1      40.462  31.760  30.343  1.00  0.00     0.037 A 
ATOM     60  C   UNL A   1      46.157  30.272  27.207  1.00  0.00     0.049 A 
ATOM     61  C   UNL A   1      41.701  32.535  30.020  1.00  0.00     0.074 A 
ATOM     62  C   UNL A   1      47.168  31.154  26.908  1.00  0.00     0.029 A 
ATOM     63  N   UNL A   1      45.174  30.976  27.896  1.00  0.00    -0.354 N 
ATOM     64  N   UNL A   1      42.775  32.125  29.385  1.00  0.00    -0.248 NA
ATOM     65  C   UNL A   1      41.739  33.937  30.438  1.00  0.00     0.031 C 
ATOM     66  C   UNL A   1      46.852  32.366  27.517  1.00  0.00     0.029 A 
ATOM     67  C   UNL A   1      45.587  32.278  28.084  1.00  0.00     0.049 A 
ATOM     68  H   UNL A   1      44.316  30.602  28.202  1.00  0.00     0.167 HD
ATOM     69  C   UNL A   1      43.601  33.224  29.287  1.00  0.00     0.074 A 
ATOM     70  C   UNL A   1      42.893  34.325  29.917  1.00  0.00     0.031 C 
ATOM     71  C   UNL A   1      44.830  33.323  28.726  1.00  0.00     0.037 A 
BRANCH  58  72
ATOM     72  C   UNL A   1      47.210  28.171  26.243  1.00  0.00     0.064 A 
ATOM     73  C   UNL A   1      47.193  27.856  24.876  1.00  0.00     0.173 A 
ATOM     74  C   UNL A   1      48.289  27.733  27.018  1.00  0.00     0.173 A 
ATOM     75  F   UNL A   1      46.139  28.187  24.113  1.00  0.00    -0.203 F 
ATOM     76  C   UNL A   1      48.223  27.115  24.310  1.00  0.00     0.198 A 
ATOM     77  C   UNL A   1      49.339  27.039  26.439  1.00  0.00     0.198 A 
ATOM     78  F   UNL A   1      48.308  27.961  28.340  1.00  0.00    -0.203 F 
ATOM     79  F   UNL A   1      48.154  26.751  23.022  1.00  0.00    -0.200 F 
ATOM     80  C   UNL A   1      49.304  26.726  25.088  1.00  0.00     0.200 A 
ATOM     81  F   UNL A   1      50.378  26.659  27.193  1.00  0.00    -0.200 F 
ATOM     82  F   UNL A   1      50.308  26.031  24.537  1.00  0.00    -0.200 F 
ENDBRANCH  58  72
BRANCH  59  83
ATOM     83  C   UNL A   1      39.319  32.351  31.098  1.00  0.00     0.064 A 
ATOM     84  C   UNL A   1      38.264  33.008  30.449  1.00  0.00     0.173 A 
ATOM     85  C   UNL A   1      39.284  32.319  32.504  1.00  0.00     0.173 A 
ATOM     86  F   UNL A   1      38.236  33.068  29.109  1.00  0.00    -0.203 F 
ATOM     87  C   UNL A   1      37.256  33.653  31.169  1.00  0.00     0.198 A 
ATOM     88  C   UNL A   1      38.255  32.929  33.222  1.00  0.00     0.198 A 
ATOM     89  F   UNL A   1      40.254  31.697  33.188  1.00  0.00    -0.203 F 
ATOM     90  F   UNL A   1      36.306  34.340  30.518  1.00  0.00    -0.200 F 
ATOM     91  C   UNL A   1      37.252  33.613  32.554  1.00  0.00     0.200 A 
ATOM     92  F   UNL A   1      38.244  32.865  34.560  1.00  0.00    -0.200 F 
ATOM     93  F   UNL A   1      36.293  34.246  33.244  1.00  0.00    -0.200 F 
ENDBRANCH  59  83
BRANCH  71  94
ATOM     94  C   UNL A   1      45.450  34.681  28.726  1.00  0.00     0.064 A 
ATOM     95  C   UNL A   1      45.214  35.600  27.697  1.00  0.00     0.173 A 
ATOM     96  C   UNL A   1      46.244  35.079  29.813  1.00  0.00     0.173 A 
ATOM     97  F   UNL A   1      44.461  35.258  26.640  1.00  0.00    -0.203 F 
ATOM     98  C   UNL A   1      45.797  36.858  27.731  1.00  0.00     0.198 A 
ATOM     99  C   UNL A   1      46.769  36.360  29.874  1.00  0.00     0.198 A 
ATOM    100  F   UNL A   1      46.477  34.235  30.829  1.00  0.00    -0.203 F 
ATOM    101  F   UNL A   1      45.634  37.694  26.697  1.00  0.00    -0.200 F 
ATOM    102  C   UNL A   1      46.562  37.241  28.824  1.00  0.00     0.200 A 
ATOM    103  F   UNL A   1      47.470  36.740  30.949  1.00  0.00    -0.200 F 
ATOM    104  F   UNL A   1      47.107  38.464  28.863  1.00  0.00    -0.200 F 
ENDBRANCH  71  94
ENDBRANCH  45  46
ENDBRANCH  38  40
ENDBRANCH  37  38
ENDBRANCH  36  37
ENDBRANCH  35  36
ENDBRANCH   1  35
TORSDOF 16
ENDMDL
