MODEL 1
REMARK VINA RESULT:     -10.1      0.000      0.000
REMARK SMILES CCOC(=O)[C@@H](/C=N/c1ccnn1C1CCCCC1)C(=O)OCCOC(=O)c1ccc(-c2c3nc(c(-c4c(F)c(F)c(F)c(F)c4F)c4ccc([nH]4)c(-c4c(F)c(F)c(F)c(F)c4F)c4nc(c(-c5c(F)c(F)c(F)c(F)c5F)c5ccc2[nH]5)C=C4)C=C3)cc1
REMARK SMILES IDX 23 1 22 2 20 3 21 4 6 5 4 6 5 7 3 8 2 9 1 10 7 11 8 12 9 13
REMARK SMILES IDX 10 14 13 15 11 16 12 17 14 18 15 19 19 20 16 21 18 22 17 23
REMARK SMILES IDX 24 24 25 25 26 26 27 27 28 28 29 29 90 30 30 31 89 32 31 33
REMARK SMILES IDX 32 34 33 35 83 36 34 37 88 38 82 39 84 40 35 41 87 42 81 43
REMARK SMILES IDX 80 44 36 46 68 47 48 48 67 49 49 50 52 51 66 52 85 53 50 54
REMARK SMILES IDX 51 55 65 57 86 58 53 59 37 60 38 61 46 62 39 63 40 64 44 65
REMARK SMILES IDX 47 66 41 67 42 68 45 69 43 70 69 71 70 72 78 73 71 74 72 75
REMARK SMILES IDX 76 76 79 77 73 78 74 79 77 80 75 81 54 82 55 83 63 84 56 85
REMARK SMILES IDX 57 86 61 87 64 88 58 89 59 90 62 91 60 92
REMARK H PARENT 84 45 52 56
REMARK Flexibility Score: inf
ROOT
ATOM      1  C   UNL A   1      40.136  20.205  26.171  1.00  0.00     0.274 C 
ENDROOT
BRANCH   1   2
ATOM      2  O   UNL A   1      41.467  20.511  26.635  1.00  0.00    -0.461 OA
BRANCH   2   3
ATOM      3  C   UNL A   1      42.511  20.200  25.810  1.00  0.00     0.326 C 
ATOM      4  O   UNL A   1      42.577  19.182  25.126  1.00  0.00    -0.251 OA
BRANCH   3   5
ATOM      5  C   UNL A   1      43.619  21.215  25.870  1.00  0.00     0.250 C 
BRANCH   5   6
ATOM      6  C   UNL A   1      43.772  22.026  24.625  1.00  0.00     0.325 C 
ATOM      7  O   UNL A   1      43.024  22.956  24.344  1.00  0.00    -0.251 OA
BRANCH   6   8
ATOM      8  O   UNL A   1      44.791  21.587  23.842  1.00  0.00    -0.465 OA
BRANCH   8   9
ATOM      9  C   UNL A   1      46.114  21.824  24.350  1.00  0.00     0.229 C 
ATOM     10  C   UNL A   1      46.458  23.299  24.263  1.00  0.00     0.049 C 
ENDBRANCH   8   9
ENDBRANCH   6   8
ENDBRANCH   5   6
BRANCH   5  11
ATOM     11  C   UNL A   1      43.523  22.045  27.111  1.00  0.00     0.113 C 
ATOM     12  N   UNL A   1      44.594  22.637  27.507  1.00  0.00    -0.240 NA
BRANCH  12  13
ATOM     13  C   UNL A   1      44.575  23.452  28.571  1.00  0.00     0.150 A 
ATOM     14  C   UNL A   1      44.173  23.329  29.882  1.00  0.00     0.070 A 
ATOM     15  N   UNL A   1      45.133  24.711  28.469  1.00  0.00    -0.245 N 
ATOM     16  C   UNL A   1      44.522  24.548  30.484  1.00  0.00     0.137 A 
ATOM     17  N   UNL A   1      45.093  25.402  29.630  1.00  0.00    -0.179 NA
BRANCH  15  18
ATOM     18  C   UNL A   1      45.700  25.334  27.268  1.00  0.00     0.110 C 
ATOM     19  C   UNL A   1      44.663  26.135  26.456  1.00  0.00     0.027 C 
ATOM     20  C   UNL A   1      46.940  26.187  27.592  1.00  0.00     0.027 C 
ATOM     21  C   UNL A   1      45.277  26.794  25.221  1.00  0.00     0.002 C 
ATOM     22  C   UNL A   1      47.537  26.823  26.338  1.00  0.00     0.002 C 
ATOM     23  C   UNL A   1      46.499  27.637  25.573  1.00  0.00     0.000 C 
ENDBRANCH  15  18
ENDBRANCH  12  13
ENDBRANCH   5  11
ENDBRANCH   3   5
ENDBRANCH   2   3
ENDBRANCH   1   2
BRANCH   1  24
ATOM     24  C   UNL A   1      39.253  21.446  26.126  1.00  0.00     0.275 C 
BRANCH  24  25
ATOM     25  O   UNL A   1      40.067  22.606  25.985  1.00  0.00    -0.458 OA
BRANCH  25  26
ATOM     26  C   UNL A   1      39.538  23.721  26.535  1.00  0.00     0.338 C 
ATOM     27  O   UNL A   1      38.367  23.924  26.800  1.00  0.00    -0.246 OA
BRANCH  26  28
ATOM     28  C   UNL A   1      40.584  24.730  26.716  1.00  0.00     0.060 A 
ATOM     29  C   UNL A   1      41.272  24.700  27.934  1.00  0.00     0.016 A 
ATOM     30  C   UNL A   1      40.567  25.853  25.888  1.00  0.00     0.016 A 
ATOM     31  C   UNL A   1      41.689  25.894  28.470  1.00  0.00     0.010 A 
ATOM     32  C   UNL A   1      40.931  27.049  26.443  1.00  0.00     0.010 A 
ATOM     33  C   UNL A   1      41.388  27.056  27.763  1.00  0.00    -0.014 A 
BRANCH  33  34
ATOM     34  C   UNL A   1      41.419  28.311  28.476  1.00  0.00     0.031 A 
ATOM     35  C   UNL A   1      42.592  29.155  28.196  1.00  0.00     0.074 A 
ATOM     36  C   UNL A   1      40.344  28.695  29.191  1.00  0.00     0.049 A 
ATOM     37  N   UNL A   1      43.477  29.601  29.025  1.00  0.00    -0.248 NA
ATOM     38  C   UNL A   1      42.880  29.452  26.785  1.00  0.00     0.031 C 
ATOM     39  C   UNL A   1      39.023  28.051  29.227  1.00  0.00     0.029 A 
ATOM     40  N   UNL A   1      40.165  29.816  29.938  1.00  0.00    -0.354 N 
ATOM     41  C   UNL A   1      44.345  30.367  28.254  1.00  0.00     0.074 A 
ATOM     42  C   UNL A   1      44.046  30.084  26.878  1.00  0.00     0.031 C 
ATOM     43  C   UNL A   1      38.131  28.903  29.781  1.00  0.00     0.029 A 
ATOM     44  C   UNL A   1      38.839  30.086  30.237  1.00  0.00     0.049 A 
ATOM     45  H   UNL A   1      40.909  30.385  30.239  1.00  0.00     0.167 HD
ATOM     46  C   UNL A   1      45.063  31.383  28.796  1.00  0.00     0.037 A 
ATOM     47  C   UNL A   1      38.355  31.242  30.746  1.00  0.00     0.037 A 
ATOM     48  C   UNL A   1      45.124  31.283  30.227  1.00  0.00     0.049 A 
ATOM     49  C   UNL A   1      39.494  32.004  31.312  1.00  0.00     0.074 A 
ATOM     50  C   UNL A   1      45.733  30.437  31.128  1.00  0.00     0.029 A 
ATOM     51  N   UNL A   1      44.174  31.988  30.919  1.00  0.00    -0.354 N 
ATOM     52  N   UNL A   1      40.158  31.650  32.377  1.00  0.00    -0.248 NA
ATOM     53  C   UNL A   1      40.145  33.010  30.482  1.00  0.00     0.031 C 
ATOM     54  C   UNL A   1      44.910  30.451  32.292  1.00  0.00     0.029 A 
ATOM     55  C   UNL A   1      43.829  31.301  32.052  1.00  0.00     0.049 A 
ATOM     56  H   UNL A   1      43.798  32.856  30.643  1.00  0.00     0.167 HD
ATOM     57  C   UNL A   1      41.457  32.071  32.139  1.00  0.00     0.074 A 
ATOM     58  C   UNL A   1      41.352  33.035  31.055  1.00  0.00     0.031 C 
ATOM     59  C   UNL A   1      42.514  31.375  32.646  1.00  0.00     0.037 A 
BRANCH  46  60
ATOM     60  C   UNL A   1      45.371  32.671  28.070  1.00  0.00     0.064 A 
ATOM     61  C   UNL A   1      44.316  33.553  27.773  1.00  0.00     0.173 A 
ATOM     62  C   UNL A   1      46.592  32.939  27.409  1.00  0.00     0.173 A 
ATOM     63  F   UNL A   1      43.104  33.377  28.320  1.00  0.00    -0.203 F 
ATOM     64  C   UNL A   1      44.457  34.584  26.840  1.00  0.00     0.198 A 
ATOM     65  C   UNL A   1      46.747  34.006  26.529  1.00  0.00     0.198 A 
ATOM     66  F   UNL A   1      47.647  32.120  27.491  1.00  0.00    -0.203 F 
ATOM     67  F   UNL A   1      43.392  35.319  26.497  1.00  0.00    -0.200 F 
ATOM     68  C   UNL A   1      45.673  34.810  26.220  1.00  0.00     0.200 A 
ATOM     69  F   UNL A   1      47.929  34.195  25.925  1.00  0.00    -0.200 F 
ATOM     70  F   UNL A   1      45.795  35.763  25.288  1.00  0.00    -0.200 F 
ENDBRANCH  46  60
BRANCH  47  71
ATOM     71  C   UNL A   1      37.021  31.842  30.537  1.00  0.00     0.064 A 
ATOM     72  C   UNL A   1      36.075  31.894  31.571  1.00  0.00     0.173 A 
ATOM     73  C   UNL A   1      36.736  32.598  29.383  1.00  0.00     0.173 A 
ATOM     74  F   UNL A   1      36.296  31.236  32.718  1.00  0.00    -0.203 F 
ATOM     75  C   UNL A   1      34.919  32.671  31.463  1.00  0.00     0.198 A 
ATOM     76  C   UNL A   1      35.576  33.365  29.272  1.00  0.00     0.198 A 
ATOM     77  F   UNL A   1      37.621  32.679  28.378  1.00  0.00    -0.203 F 
ATOM     78  F   UNL A   1      34.064  32.742  32.493  1.00  0.00    -0.200 F 
ATOM     79  C   UNL A   1      34.674  33.412  30.318  1.00  0.00     0.200 A 
ATOM     80  F   UNL A   1      35.370  34.103  28.173  1.00  0.00    -0.200 F 
ATOM     81  F   UNL A   1      33.592  34.199  30.236  1.00  0.00    -0.200 F 
ENDBRANCH  47  71
BRANCH  59  82
ATOM     82  C   UNL A   1      42.215  30.430  33.772  1.00  0.00     0.064 A 
ATOM     83  C   UNL A   1      41.794  29.103  33.583  1.00  0.00     0.173 A 
ATOM     84  C   UNL A   1      42.458  30.856  35.083  1.00  0.00     0.173 A 
ATOM     85  F   UNL A   1      41.634  28.602  32.352  1.00  0.00    -0.203 F 
ATOM     86  C   UNL A   1      41.577  28.258  34.668  1.00  0.00     0.198 A 
ATOM     87  C   UNL A   1      42.276  29.997  36.163  1.00  0.00     0.198 A 
ATOM     88  F   UNL A   1      42.915  32.097  35.313  1.00  0.00    -0.203 F 
ATOM     89  F   UNL A   1      41.153  27.000  34.466  1.00  0.00    -0.200 F 
ATOM     90  C   UNL A   1      41.823  28.703  35.955  1.00  0.00     0.200 A 
ATOM     91  F   UNL A   1      42.561  30.416  37.402  1.00  0.00    -0.200 F 
ATOM     92  F   UNL A   1      41.649  27.878  36.998  1.00  0.00    -0.200 F 
ENDBRANCH  59  82
ENDBRANCH  33  34
ENDBRANCH  26  28
ENDBRANCH  25  26
ENDBRANCH  24  25
ENDBRANCH   1  24
TORSDOF 17
ENDMDL
MODEL 2
REMARK VINA RESULT:      -9.8      5.286      9.775
REMARK SMILES CCOC(=O)[C@@H](/C=N/c1ccnn1C1CCCCC1)C(=O)OCCOC(=O)c1ccc(-c2c3nc(c(-c4c(F)c(F)c(F)c(F)c4F)c4ccc([nH]4)c(-c4c(F)c(F)c(F)c(F)c4F)c4nc(c(-c5c(F)c(F)c(F)c(F)c5F)c5ccc2[nH]5)C=C4)C=C3)cc1
REMARK SMILES IDX 23 1 22 2 20 3 21 4 6 5 4 6 5 7 3 8 2 9 1 10 7 11 8 12 9 13
REMARK SMILES IDX 10 14 13 15 11 16 12 17 14 18 15 19 19 20 16 21 18 22 17 23
REMARK SMILES IDX 24 24 25 25 26 26 27 27 28 28 29 29 90 30 30 31 89 32 31 33
REMARK SMILES IDX 32 34 33 35 83 36 34 37 88 38 82 39 84 40 35 41 87 42 81 43
REMARK SMILES IDX 80 44 36 46 68 47 48 48 67 49 49 50 52 51 66 52 85 53 50 54
REMARK SMILES IDX 51 55 65 57 86 58 53 59 37 60 38 61 46 62 39 63 40 64 44 65
REMARK SMILES IDX 47 66 41 67 42 68 45 69 43 70 69 71 70 72 78 73 71 74 72 75
REMARK SMILES IDX 76 76 79 77 73 78 74 79 77 80 75 81 54 82 55 83 63 84 56 85
REMARK SMILES IDX 57 86 61 87 64 88 58 89 59 90 62 91 60 92
REMARK H PARENT 84 45 52 56
REMARK Flexibility Score: inf
ROOT
ATOM      1  C   UNL A   1      32.261  29.693  26.542  1.00  0.00     0.274 C 
ENDROOT
BRANCH   1   2
ATOM      2  O   UNL A   1      31.229  29.050  25.767  1.00  0.00    -0.461 OA
BRANCH   2   3
ATOM      3  C   UNL A   1      31.573  28.564  24.536  1.00  0.00     0.326 C 
ATOM      4  O   UNL A   1      32.669  28.726  24.007  1.00  0.00    -0.251 OA
BRANCH   3   5
ATOM      5  C   UNL A   1      30.435  27.852  23.856  1.00  0.00     0.250 C 
BRANCH   5   6
ATOM      6  C   UNL A   1      30.524  27.846  22.365  1.00  0.00     0.325 C 
ATOM      7  O   UNL A   1      31.092  26.957  21.738  1.00  0.00    -0.251 OA
BRANCH   6   8
ATOM      8  O   UNL A   1      29.950  28.942  21.807  1.00  0.00    -0.465 OA
BRANCH   8   9
ATOM      9  C   UNL A   1      28.754  29.415  22.449  1.00  0.00     0.229 C 
ATOM     10  C   UNL A   1      28.043  30.422  21.566  1.00  0.00     0.049 C 
ENDBRANCH   8   9
ENDBRANCH   6   8
ENDBRANCH   5   6
BRANCH   5  11
ATOM     11  C   UNL A   1      30.221  26.493  24.444  1.00  0.00     0.113 C 
ATOM     12  N   UNL A   1      31.171  26.004  25.159  1.00  0.00    -0.240 NA
BRANCH  12  13
ATOM     13  C   UNL A   1      31.030  24.821  25.773  1.00  0.00     0.150 A 
ATOM     14  C   UNL A   1      30.027  24.214  26.494  1.00  0.00     0.070 A 
ATOM     15  N   UNL A   1      32.032  23.878  25.661  1.00  0.00    -0.245 N 
ATOM     16  C   UNL A   1      30.510  22.926  26.773  1.00  0.00     0.137 A 
ATOM     17  N   UNL A   1      31.734  22.715  26.284  1.00  0.00    -0.179 NA
BRANCH  15  18
ATOM     18  C   UNL A   1      33.328  24.036  24.993  1.00  0.00     0.110 C 
ATOM     19  C   UNL A   1      34.524  23.915  25.958  1.00  0.00     0.027 C 
ATOM     20  C   UNL A   1      33.477  23.085  23.791  1.00  0.00     0.027 C 
ATOM     21  C   UNL A   1      35.866  24.061  25.240  1.00  0.00     0.002 C 
ATOM     22  C   UNL A   1      34.821  23.263  23.088  1.00  0.00     0.002 C 
ATOM     23  C   UNL A   1      35.988  23.104  24.058  1.00  0.00     0.000 C 
ENDBRANCH  15  18
ENDBRANCH  12  13
ENDBRANCH   5  11
ENDBRANCH   3   5
ENDBRANCH   2   3
ENDBRANCH   1   2
BRANCH   1  24
ATOM     24  C   UNL A   1      31.914  31.143  26.853  1.00  0.00     0.275 C 
BRANCH  24  25
ATOM     25  O   UNL A   1      33.107  31.872  27.123  1.00  0.00    -0.458 OA
BRANCH  25  26
ATOM     26  C   UNL A   1      32.899  33.082  27.689  1.00  0.00     0.338 C 
ATOM     27  O   UNL A   1      31.956  33.829  27.498  1.00  0.00    -0.246 OA
BRANCH  26  28
ATOM     28  C   UNL A   1      34.034  33.432  28.545  1.00  0.00     0.060 A 
ATOM     29  C   UNL A   1      35.081  34.131  27.935  1.00  0.00     0.016 A 
ATOM     30  C   UNL A   1      34.190  32.740  29.748  1.00  0.00     0.016 A 
ATOM     31  C   UNL A   1      36.361  33.884  28.368  1.00  0.00     0.010 A 
ATOM     32  C   UNL A   1      35.466  32.450  30.145  1.00  0.00     0.010 A 
ATOM     33  C   UNL A   1      36.527  32.945  29.382  1.00  0.00    -0.014 A 
BRANCH  33  34
ATOM     34  C   UNL A   1      37.834  32.357  29.556  1.00  0.00     0.031 A 
ATOM     35  C   UNL A   1      37.963  30.974  29.067  1.00  0.00     0.074 A 
ATOM     36  C   UNL A   1      38.857  33.125  29.978  1.00  0.00     0.049 A 
ATOM     37  N   UNL A   1      38.302  29.917  29.728  1.00  0.00    -0.248 NA
ATOM     38  C   UNL A   1      37.553  30.715  27.679  1.00  0.00     0.031 C 
ATOM     39  C   UNL A   1      38.860  34.585  30.154  1.00  0.00     0.029 A 
ATOM     40  N   UNL A   1      40.149  32.780  30.218  1.00  0.00    -0.354 N 
ATOM     41  C   UNL A   1      38.298  28.886  28.794  1.00  0.00     0.074 A 
ATOM     42  C   UNL A   1      37.652  29.391  27.614  1.00  0.00     0.031 C 
ATOM     43  C   UNL A   1      40.137  35.014  30.263  1.00  0.00     0.029 A 
ATOM     44  C   UNL A   1      41.016  33.858  30.281  1.00  0.00     0.049 A 
ATOM     45  H   UNL A   1      40.443  31.848  30.335  1.00  0.00     0.167 HD
ATOM     46  C   UNL A   1      39.067  27.780  28.957  1.00  0.00     0.037 A 
ATOM     47  C   UNL A   1      42.368  33.799  30.264  1.00  0.00     0.037 A 
ATOM     48  C   UNL A   1      39.510  27.641  30.317  1.00  0.00     0.049 A 
ATOM     49  C   UNL A   1      42.767  32.407  30.582  1.00  0.00     0.074 A 
ATOM     50  C   UNL A   1      38.910  27.341  31.520  1.00  0.00     0.029 A 
ATOM     51  N   UNL A   1      40.741  28.169  30.603  1.00  0.00    -0.354 N 
ATOM     52  N   UNL A   1      42.618  31.848  31.750  1.00  0.00    -0.248 NA
ATOM     53  C   UNL A   1      43.027  31.484  29.484  1.00  0.00     0.031 C 
ATOM     54  C   UNL A   1      39.696  27.988  32.517  1.00  0.00     0.029 A 
ATOM     55  C   UNL A   1      40.742  28.659  31.882  1.00  0.00     0.049 A 
ATOM     56  H   UNL A   1      41.508  28.193  29.985  1.00  0.00     0.167 HD
ATOM     57  C   UNL A   1      42.361  30.515  31.474  1.00  0.00     0.074 A 
ATOM     58  C   UNL A   1      42.788  30.322  30.097  1.00  0.00     0.031 C 
ATOM     59  C   UNL A   1      41.555  29.781  32.294  1.00  0.00     0.037 A 
BRANCH  46  60
ATOM     60  C   UNL A   1      39.738  27.051  27.818  1.00  0.00     0.064 A 
ATOM     61  C   UNL A   1      39.723  25.644  27.808  1.00  0.00     0.173 A 
ATOM     62  C   UNL A   1      40.631  27.656  26.904  1.00  0.00     0.173 A 
ATOM     63  F   UNL A   1      38.936  24.963  28.655  1.00  0.00    -0.203 F 
ATOM     64  C   UNL A   1      40.580  24.903  26.990  1.00  0.00     0.198 A 
ATOM     65  C   UNL A   1      41.437  26.914  26.044  1.00  0.00     0.198 A 
ATOM     66  F   UNL A   1      40.851  28.975  26.882  1.00  0.00    -0.203 F 
ATOM     67  F   UNL A   1      40.618  23.569  27.104  1.00  0.00    -0.200 F 
ATOM     68  C   UNL A   1      41.435  25.539  26.108  1.00  0.00     0.200 A 
ATOM     69  F   UNL A   1      42.272  27.551  25.211  1.00  0.00    -0.200 F 
ATOM     70  F   UNL A   1      42.292  24.832  25.361  1.00  0.00    -0.200 F 
ENDBRANCH  46  60
BRANCH  47  71
ATOM     71  C   UNL A   1      43.317  34.798  29.733  1.00  0.00     0.064 A 
ATOM     72  C   UNL A   1      43.437  35.029  28.355  1.00  0.00     0.173 A 
ATOM     73  C   UNL A   1      43.953  35.723  30.585  1.00  0.00     0.173 A 
ATOM     74  F   UNL A   1      42.824  34.218  27.482  1.00  0.00    -0.203 F 
ATOM     75  C   UNL A   1      44.139  36.131  27.858  1.00  0.00     0.198 A 
ATOM     76  C   UNL A   1      44.662  36.816  30.088  1.00  0.00     0.198 A 
ATOM     77  F   UNL A   1      43.821  35.633  31.917  1.00  0.00    -0.203 F 
ATOM     78  F   UNL A   1      44.186  36.352  26.537  1.00  0.00    -0.200 F 
ATOM     79  C   UNL A   1      44.744  37.027  28.725  1.00  0.00     0.200 A 
ATOM     80  F   UNL A   1      45.212  37.693  30.938  1.00  0.00    -0.200 F 
ATOM     81  F   UNL A   1      45.371  38.113  28.250  1.00  0.00    -0.200 F 
ENDBRANCH  47  71
BRANCH  59  82
ATOM     82  C   UNL A   1      41.319  30.331  33.669  1.00  0.00     0.064 A 
ATOM     83  C   UNL A   1      42.182  30.108  34.754  1.00  0.00     0.173 A 
ATOM     84  C   UNL A   1      40.233  31.191  33.867  1.00  0.00     0.173 A 
ATOM     85  F   UNL A   1      43.292  29.372  34.610  1.00  0.00    -0.203 F 
ATOM     86  C   UNL A   1      41.936  30.684  35.998  1.00  0.00     0.198 A 
ATOM     87  C   UNL A   1      40.010  31.796  35.100  1.00  0.00     0.198 A 
ATOM     88  F   UNL A   1      39.410  31.481  32.846  1.00  0.00    -0.203 F 
ATOM     89  F   UNL A   1      42.761  30.441  37.028  1.00  0.00    -0.200 F 
ATOM     90  C   UNL A   1      40.854  31.531  36.168  1.00  0.00     0.200 A 
ATOM     91  F   UNL A   1      38.990  32.652  35.247  1.00  0.00    -0.200 F 
ATOM     92  F   UNL A   1      40.636  32.115  37.355  1.00  0.00    -0.200 F 
ENDBRANCH  59  82
ENDBRANCH  33  34
ENDBRANCH  26  28
ENDBRANCH  25  26
ENDBRANCH  24  25
ENDBRANCH   1  24
TORSDOF 17
ENDMDL
MODEL 3
REMARK VINA RESULT:      -9.6      3.911      6.753
REMARK SMILES CCOC(=O)[C@@H](/C=N/c1ccnn1C1CCCCC1)C(=O)OCCOC(=O)c1ccc(-c2c3nc(c(-c4c(F)c(F)c(F)c(F)c4F)c4ccc([nH]4)c(-c4c(F)c(F)c(F)c(F)c4F)c4nc(c(-c5c(F)c(F)c(F)c(F)c5F)c5ccc2[nH]5)C=C4)C=C3)cc1
REMARK SMILES IDX 23 1 22 2 20 3 21 4 6 5 4 6 5 7 3 8 2 9 1 10 7 11 8 12 9 13
REMARK SMILES IDX 10 14 13 15 11 16 12 17 14 18 15 19 19 20 16 21 18 22 17 23
REMARK SMILES IDX 24 24 25 25 26 26 27 27 28 28 29 29 90 30 30 31 89 32 31 33
REMARK SMILES IDX 32 34 33 35 83 36 34 37 88 38 82 39 84 40 35 41 87 42 81 43
REMARK SMILES IDX 80 44 36 46 68 47 48 48 67 49 49 50 52 51 66 52 85 53 50 54
REMARK SMILES IDX 51 55 65 57 86 58 53 59 37 60 38 61 46 62 39 63 40 64 44 65
REMARK SMILES IDX 47 66 41 67 42 68 45 69 43 70 69 71 70 72 78 73 71 74 72 75
REMARK SMILES IDX 76 76 79 77 73 78 74 79 77 80 75 81 54 82 55 83 63 84 56 85
REMARK SMILES IDX 57 86 61 87 64 88 58 89 59 90 62 91 60 92
REMARK H PARENT 84 45 52 56
REMARK Flexibility Score: inf
ROOT
ATOM      1  C   UNL A   1      36.704  22.337  25.765  1.00  0.00     0.274 C 
ENDROOT
BRANCH   1   2
ATOM      2  O   UNL A   1      35.416  22.581  25.164  1.00  0.00    -0.461 OA
BRANCH   2   3
ATOM      3  C   UNL A   1      34.602  23.500  25.767  1.00  0.00     0.326 C 
ATOM      4  O   UNL A   1      34.264  23.461  26.946  1.00  0.00    -0.251 OA
BRANCH   3   5
ATOM      5  C   UNL A   1      34.101  24.545  24.809  1.00  0.00     0.250 C 
BRANCH   5   6
ATOM      6  C   UNL A   1      32.892  24.134  24.034  1.00  0.00     0.325 C 
ATOM      7  O   UNL A   1      32.593  24.637  22.956  1.00  0.00    -0.251 OA
BRANCH   6   8
ATOM      8  O   UNL A   1      32.161  23.189  24.678  1.00  0.00    -0.465 OA
BRANCH   8   9
ATOM      9  C   UNL A   1      30.877  23.615  25.161  1.00  0.00     0.229 C 
ATOM     10  C   UNL A   1      30.745  23.321  26.643  1.00  0.00     0.049 C 
ENDBRANCH   8   9
ENDBRANCH   6   8
ENDBRANCH   5   6
BRANCH   5  11
ATOM     11  C   UNL A   1      33.949  25.870  25.487  1.00  0.00     0.113 C 
ATOM     12  N   UNL A   1      33.485  26.842  24.784  1.00  0.00    -0.240 NA
BRANCH  12  13
ATOM     13  C   UNL A   1      33.257  28.042  25.335  1.00  0.00     0.150 A 
ATOM     14  C   UNL A   1      33.945  28.859  26.203  1.00  0.00     0.070 A 
ATOM     15  N   UNL A   1      32.135  28.755  24.961  1.00  0.00    -0.245 N 
ATOM     16  C   UNL A   1      33.170  30.026  26.293  1.00  0.00     0.137 A 
ATOM     17  N   UNL A   1      32.060  29.968  25.554  1.00  0.00    -0.179 NA
BRANCH  15  18
ATOM     18  C   UNL A   1      31.068  28.318  24.056  1.00  0.00     0.110 C 
ATOM     19  C   UNL A   1      30.219  27.168  24.633  1.00  0.00     0.027 C 
ATOM     20  C   UNL A   1      30.185  29.492  23.595  1.00  0.00     0.027 C 
ATOM     21  C   UNL A   1      29.099  26.741  23.685  1.00  0.00     0.002 C 
ATOM     22  C   UNL A   1      29.083  29.036  22.641  1.00  0.00     0.002 C 
ATOM     23  C   UNL A   1      28.237  27.923  23.250  1.00  0.00     0.000 C 
ENDBRANCH  15  18
ENDBRANCH  12  13
ENDBRANCH   5  11
ENDBRANCH   3   5
ENDBRANCH   2   3
ENDBRANCH   1   2
BRANCH   1  24
ATOM     24  C   UNL A   1      37.681  23.474  25.490  1.00  0.00     0.275 C 
BRANCH  24  25
ATOM     25  O   UNL A   1      38.369  23.813  26.689  1.00  0.00    -0.458 OA
BRANCH  25  26
ATOM     26  C   UNL A   1      39.607  23.279  26.785  1.00  0.00     0.338 C 
ATOM     27  O   UNL A   1      39.892  22.100  26.887  1.00  0.00    -0.246 OA
BRANCH  26  28
ATOM     28  C   UNL A   1      40.607  24.348  26.823  1.00  0.00     0.060 A 
ATOM     29  C   UNL A   1      41.458  24.364  27.935  1.00  0.00     0.016 A 
ATOM     30  C   UNL A   1      40.410  25.465  26.009  1.00  0.00     0.016 A 
ATOM     31  C   UNL A   1      41.874  25.583  28.412  1.00  0.00     0.010 A 
ATOM     32  C   UNL A   1      40.777  26.682  26.513  1.00  0.00     0.010 A 
ATOM     33  C   UNL A   1      41.410  26.722  27.757  1.00  0.00    -0.014 A 
BRANCH  33  34
ATOM     34  C   UNL A   1      41.466  27.980  28.464  1.00  0.00     0.031 A 
ATOM     35  C   UNL A   1      42.654  28.802  28.176  1.00  0.00     0.074 A 
ATOM     36  C   UNL A   1      40.401  28.387  29.180  1.00  0.00     0.049 A 
ATOM     37  N   UNL A   1      43.549  29.235  29.000  1.00  0.00    -0.248 NA
ATOM     38  C   UNL A   1      42.943  29.086  26.762  1.00  0.00     0.031 C 
ATOM     39  C   UNL A   1      39.068  27.768  29.223  1.00  0.00     0.029 A 
ATOM     40  N   UNL A   1      40.244  29.515  29.922  1.00  0.00    -0.354 N 
ATOM     41  C   UNL A   1      44.429  29.982  28.223  1.00  0.00     0.074 A 
ATOM     42  C   UNL A   1      44.120  29.697  26.849  1.00  0.00     0.031 C 
ATOM     43  C   UNL A   1      38.194  28.637  29.775  1.00  0.00     0.029 A 
ATOM     44  C   UNL A   1      38.925  29.810  30.223  1.00  0.00     0.049 A 
ATOM     45  H   UNL A   1      40.999  30.072  30.218  1.00  0.00     0.167 HD
ATOM     46  C   UNL A   1      45.167  30.987  28.757  1.00  0.00     0.037 A 
ATOM     47  C   UNL A   1      38.463  30.978  30.727  1.00  0.00     0.037 A 
ATOM     48  C   UNL A   1      45.230  30.893  30.189  1.00  0.00     0.049 A 
ATOM     49  C   UNL A   1      39.617  31.722  31.287  1.00  0.00     0.074 A 
ATOM     50  C   UNL A   1      45.826  30.042  31.093  1.00  0.00     0.029 A 
ATOM     51  N   UNL A   1      44.295  31.619  30.880  1.00  0.00    -0.354 N 
ATOM     52  N   UNL A   1      40.277  31.361  32.351  1.00  0.00    -0.248 NA
ATOM     53  C   UNL A   1      40.284  32.711  30.450  1.00  0.00     0.031 C 
ATOM     54  C   UNL A   1      45.006  30.076  32.258  1.00  0.00     0.029 A 
ATOM     55  C   UNL A   1      43.941  30.944  32.018  1.00  0.00     0.049 A 
ATOM     56  H   UNL A   1      43.934  32.493  30.601  1.00  0.00     0.167 HD
ATOM     57  C   UNL A   1      41.583  31.757  32.108  1.00  0.00     0.074 A 
ATOM     58  C   UNL A   1      41.492  32.718  31.019  1.00  0.00     0.031 C 
ATOM     59  C   UNL A   1      42.629  31.045  32.615  1.00  0.00     0.037 A 
BRANCH  46  60
ATOM     60  C   UNL A   1      45.496  32.266  28.024  1.00  0.00     0.064 A 
ATOM     61  C   UNL A   1      44.455  33.162  27.718  1.00  0.00     0.173 A 
ATOM     62  C   UNL A   1      46.722  32.511  27.365  1.00  0.00     0.173 A 
ATOM     63  F   UNL A   1      43.238  33.007  28.263  1.00  0.00    -0.203 F 
ATOM     64  C   UNL A   1      44.613  34.184  26.779  1.00  0.00     0.198 A 
ATOM     65  C   UNL A   1      46.895  33.570  26.478  1.00  0.00     0.198 A 
ATOM     66  F   UNL A   1      47.764  31.677  27.454  1.00  0.00    -0.203 F 
ATOM     67  F   UNL A   1      43.560  34.933  26.429  1.00  0.00    -0.200 F 
ATOM     68  C   UNL A   1      45.834  34.388  26.161  1.00  0.00     0.200 A 
ATOM     69  F   UNL A   1      48.081  33.737  25.875  1.00  0.00    -0.200 F 
ATOM     70  F   UNL A   1      45.973  35.333  25.223  1.00  0.00    -0.200 F 
ENDBRANCH  46  60
BRANCH  47  71
ATOM     71  C   UNL A   1      37.139  31.600  30.519  1.00  0.00     0.064 A 
ATOM     72  C   UNL A   1      36.189  31.654  31.549  1.00  0.00     0.173 A 
ATOM     73  C   UNL A   1      36.871  32.375  29.373  1.00  0.00     0.173 A 
ATOM     74  F   UNL A   1      36.394  30.980  32.689  1.00  0.00    -0.203 F 
ATOM     75  C   UNL A   1      35.045  32.451  31.445  1.00  0.00     0.198 A 
ATOM     76  C   UNL A   1      35.724  33.160  29.266  1.00  0.00     0.198 A 
ATOM     77  F   UNL A   1      37.763  32.453  28.373  1.00  0.00    -0.203 F 
ATOM     78  F   UNL A   1      34.186  32.523  32.472  1.00  0.00    -0.200 F 
ATOM     79  C   UNL A   1      34.818  33.208  30.307  1.00  0.00     0.200 A 
ATOM     80  F   UNL A   1      35.535  33.914  28.174  1.00  0.00    -0.200 F 
ATOM     81  F   UNL A   1      33.748  34.013  30.230  1.00  0.00    -0.200 F 
ENDBRANCH  47  71
BRANCH  59  82
ATOM     82  C   UNL A   1      42.317  30.111  33.746  1.00  0.00     0.064 A 
ATOM     83  C   UNL A   1      41.912  28.778  33.566  1.00  0.00     0.173 A 
ATOM     84  C   UNL A   1      42.528  30.556  35.056  1.00  0.00     0.173 A 
ATOM     85  F   UNL A   1      41.783  28.260  32.338  1.00  0.00    -0.203 F 
ATOM     86  C   UNL A   1      41.681  27.944  34.657  1.00  0.00     0.198 A 
ATOM     87  C   UNL A   1      42.333  29.709  36.143  1.00  0.00     0.198 A 
ATOM     88  F   UNL A   1      42.968  31.804  35.280  1.00  0.00    -0.203 F 
ATOM     89  F   UNL A   1      41.274  26.680  34.463  1.00  0.00    -0.200 F 
ATOM     90  C   UNL A   1      41.896  28.408  35.943  1.00  0.00     0.200 A 
ATOM     91  F   UNL A   1      42.588  30.147  37.383  1.00  0.00    -0.200 F 
ATOM     92  F   UNL A   1      41.709  27.595  36.993  1.00  0.00    -0.200 F 
ENDBRANCH  59  82
ENDBRANCH  33  34
ENDBRANCH  26  28
ENDBRANCH  25  26
ENDBRANCH  24  25
ENDBRANCH   1  24
TORSDOF 17
ENDMDL
