MODEL 1
REMARK VINA RESULT:     -12.9      0.000      0.000
REMARK SMILES CC(C)Cc1cc2c(cc1Cl)C=C(C(=O)OCCOC(=O)c1ccc(-c3c4nc(c(-c5c(F)c(F)c(F)c(F)c5F)c5ccc([nH]5)c(-c5c(F)c(F)c(F)c(F)c5F)c5nc(c(-c6c(F)c(F)c(F)c(F)c6F)c6ccc3[nH]6)C=C5)C=C4)cc1)[C@H](C(F)(F)F)O2
REMARK SMILES IDX 17 1 16 2 14 3 15 4 13 5 5 6 6 7 10 8 7 9 9 10 11 11 8 12
REMARK SMILES IDX 90 13 12 14 85 15 4 16 2 17 1 18 3 19 86 20 87 21 88 22
REMARK SMILES IDX 89 23 18 24 19 25 20 26 21 27 22 28 23 29 84 30 24 31 83 32
REMARK SMILES IDX 25 33 26 34 27 35 77 36 28 37 82 38 76 39 78 40 29 41 81 42
REMARK SMILES IDX 75 43 74 44 30 46 62 47 42 48 61 49 43 50 46 51 60 52 79 53
REMARK SMILES IDX 44 54 45 55 59 57 80 58 47 59 31 60 32 61 40 62 33 63 34 64
REMARK SMILES IDX 38 65 41 66 35 67 36 68 39 69 37 70 63 71 64 72 72 73 65 74
REMARK SMILES IDX 66 75 70 76 73 77 67 78 68 79 71 80 69 81 48 82 49 83 57 84
REMARK SMILES IDX 50 85 51 86 55 87 58 88 52 89 53 90 56 91 54 92
REMARK H PARENT 78 45 46 56
REMARK Flexibility Score: inf
ROOT
ATOM      1  C   UNL A   1      31.553  29.633  24.880  1.00  0.00     0.275 C 
ENDROOT
BRANCH   1   2
ATOM      2  O   UNL A   1      32.832  28.960  24.854  1.00  0.00    -0.459 OA
BRANCH   2   3
ATOM      3  C   UNL A   1      33.287  28.577  23.642  1.00  0.00     0.338 C 
ATOM      4  O   UNL A   1      33.630  29.315  22.733  1.00  0.00    -0.246 OA
BRANCH   3   5
ATOM      5  C   UNL A   1      33.471  27.115  23.602  1.00  0.00     0.087 C 
ATOM      6  C   UNL A   1      34.833  22.450  24.852  1.00  0.00    -0.025 A 
ATOM      7  C   UNL A   1      34.740  23.138  23.620  1.00  0.00     0.052 A 
ATOM      8  C   UNL A   1      34.345  23.078  26.012  1.00  0.00     0.045 A 
ATOM      9  C   UNL A   1      34.276  24.451  23.575  1.00  0.00     0.128 A 
ATOM     10  C   UNL A   1      33.995  24.423  25.979  1.00  0.00     0.032 A 
ATOM     11  Cl  UNL A   1      34.171  22.260  27.523  1.00  0.00    -0.084 Cl
ATOM     12  C   UNL A   1      34.027  25.114  24.770  1.00  0.00     0.019 A 
ATOM     13  O   UNL A   1      34.153  25.086  22.363  1.00  0.00    -0.475 OA
ATOM     14  C   UNL A   1      33.885  26.550  24.741  1.00  0.00     0.027 C 
ATOM     15  C   UNL A   1      33.304  26.297  22.349  1.00  0.00     0.316 C 
BRANCH   6  16
ATOM     16  C   UNL A   1      35.526  21.104  24.904  1.00  0.00     0.040 C 
BRANCH  16  17
ATOM     17  C   UNL A   1      37.053  21.188  24.639  1.00  0.00    -0.013 C 
ATOM     18  C   UNL A   1      37.783  22.224  25.502  1.00  0.00     0.008 C 
ATOM     19  C   UNL A   1      37.698  19.821  24.875  1.00  0.00     0.008 C 
ENDBRANCH  16  17
ENDBRANCH   6  16
BRANCH  15  20
ATOM     20  C   UNL A   1      31.848  25.940  22.003  1.00  0.00     0.430 C 
ATOM     21  F   UNL A   1      31.509  24.713  22.463  1.00  0.00    -0.167 F 
ATOM     22  F   UNL A   1      30.985  26.811  22.583  1.00  0.00    -0.167 F 
ATOM     23  F   UNL A   1      31.610  25.962  20.674  1.00  0.00    -0.167 F 
ENDBRANCH  15  20
ENDBRANCH   3   5
ENDBRANCH   2   3
ENDBRANCH   1   2
BRANCH   1  24
ATOM     24  C   UNL A   1      31.515  30.690  25.985  1.00  0.00     0.275 C 
BRANCH  24  25
ATOM     25  O   UNL A   1      32.650  30.538  26.862  1.00  0.00    -0.458 OA
BRANCH  25  26
ATOM     26  C   UNL A   1      33.274  31.680  27.222  1.00  0.00     0.338 C 
ATOM     27  O   UNL A   1      32.825  32.815  27.213  1.00  0.00    -0.246 OA
BRANCH  26  28
ATOM     28  C   UNL A   1      34.591  31.352  27.786  1.00  0.00     0.060 A 
ATOM     29  C   UNL A   1      35.555  32.316  28.050  1.00  0.00     0.016 A 
ATOM     30  C   UNL A   1      34.803  30.035  28.173  1.00  0.00     0.016 A 
ATOM     31  C   UNL A   1      36.745  31.930  28.686  1.00  0.00     0.010 A 
ATOM     32  C   UNL A   1      35.930  29.672  28.906  1.00  0.00     0.010 A 
ATOM     33  C   UNL A   1      36.939  30.608  29.145  1.00  0.00    -0.014 A 
BRANCH  33  34
ATOM     34  C   UNL A   1      38.182  30.207  29.869  1.00  0.00     0.031 A 
ATOM     35  C   UNL A   1      38.446  30.665  31.286  1.00  0.00     0.074 A 
ATOM     36  C   UNL A   1      39.107  29.453  29.241  1.00  0.00     0.049 A 
ATOM     37  N   UNL A   1      39.454  30.375  32.074  1.00  0.00    -0.248 NA
ATOM     38  C   UNL A   1      37.481  31.600  31.885  1.00  0.00     0.031 C 
ATOM     39  C   UNL A   1      39.045  29.034  27.841  1.00  0.00     0.029 A 
ATOM     40  N   UNL A   1      40.273  28.891  29.703  1.00  0.00    -0.354 N 
ATOM     41  C   UNL A   1      39.250  31.103  33.241  1.00  0.00     0.074 A 
ATOM     42  C   UNL A   1      38.067  31.905  33.034  1.00  0.00     0.031 C 
ATOM     43  C   UNL A   1      40.077  28.217  27.580  1.00  0.00     0.029 A 
ATOM     44  C   UNL A   1      40.892  28.078  28.783  1.00  0.00     0.049 A 
ATOM     45  H   UNL A   1      40.630  29.052  30.606  1.00  0.00     0.167 HD
ATOM     46  C   UNL A   1      39.955  31.076  34.397  1.00  0.00     0.037 A 
ATOM     47  C   UNL A   1      41.976  27.287  28.901  1.00  0.00     0.037 A 
ATOM     48  C   UNL A   1      41.094  30.230  34.634  1.00  0.00     0.049 A 
ATOM     49  C   UNL A   1      42.703  27.217  30.215  1.00  0.00     0.074 A 
ATOM     50  C   UNL A   1      41.814  30.059  35.804  1.00  0.00     0.029 A 
ATOM     51  N   UNL A   1      41.673  29.405  33.683  1.00  0.00    -0.354 N 
ATOM     52  N   UNL A   1      42.441  27.837  31.339  1.00  0.00    -0.248 NA
ATOM     53  C   UNL A   1      43.878  26.333  30.280  1.00  0.00     0.031 C 
ATOM     54  C   UNL A   1      42.846  29.150  35.554  1.00  0.00     0.029 A 
ATOM     55  C   UNL A   1      42.748  28.729  34.237  1.00  0.00     0.049 A 
ATOM     56  H   UNL A   1      41.368  29.313  32.752  1.00  0.00     0.167 HD
ATOM     57  C   UNL A   1      43.403  27.413  32.244  1.00  0.00     0.074 A 
ATOM     58  C   UNL A   1      44.245  26.463  31.547  1.00  0.00     0.031 C 
ATOM     59  C   UNL A   1      43.576  27.784  33.535  1.00  0.00     0.037 A 
BRANCH  46  60
ATOM     60  C   UNL A   1      39.486  31.950  35.526  1.00  0.00     0.064 A 
ATOM     61  C   UNL A   1      38.549  31.489  36.464  1.00  0.00     0.173 A 
ATOM     62  C   UNL A   1      40.024  33.232  35.715  1.00  0.00     0.173 A 
ATOM     63  F   UNL A   1      38.001  30.272  36.328  1.00  0.00    -0.203 F 
ATOM     64  C   UNL A   1      38.147  32.288  37.531  1.00  0.00     0.198 A 
ATOM     65  C   UNL A   1      39.642  34.018  36.800  1.00  0.00     0.198 A 
ATOM     66  F   UNL A   1      40.934  33.718  34.857  1.00  0.00    -0.203 F 
ATOM     67  F   UNL A   1      37.219  31.841  38.388  1.00  0.00    -0.200 F 
ATOM     68  C   UNL A   1      38.700  33.548  37.702  1.00  0.00     0.200 A 
ATOM     69  F   UNL A   1      40.189  35.229  36.975  1.00  0.00    -0.200 F 
ATOM     70  F   UNL A   1      38.322  34.311  38.738  1.00  0.00    -0.200 F 
ENDBRANCH  46  60
BRANCH  47  71
ATOM     71  C   UNL A   1      42.387  26.432  27.758  1.00  0.00     0.064 A 
ATOM     72  C   UNL A   1      41.771  25.191  27.541  1.00  0.00     0.173 A 
ATOM     73  C   UNL A   1      43.368  26.843  26.845  1.00  0.00     0.173 A 
ATOM     74  F   UNL A   1      40.839  24.747  28.399  1.00  0.00    -0.203 F 
ATOM     75  C   UNL A   1      42.125  24.390  26.458  1.00  0.00     0.198 A 
ATOM     76  C   UNL A   1      43.705  26.052  25.749  1.00  0.00     0.198 A 
ATOM     77  F   UNL A   1      43.982  28.024  27.006  1.00  0.00    -0.203 F 
ATOM     78  F   UNL A   1      41.542  23.196  26.291  1.00  0.00    -0.200 F 
ATOM     79  C   UNL A   1      43.087  24.825  25.558  1.00  0.00     0.200 A 
ATOM     80  F   UNL A   1      44.626  26.480  24.874  1.00  0.00    -0.200 F 
ATOM     81  F   UNL A   1      43.419  24.060  24.510  1.00  0.00    -0.200 F 
ENDBRANCH  47  71
BRANCH  59  82
ATOM     82  C   UNL A   1      44.715  27.169  34.291  1.00  0.00     0.064 A 
ATOM     83  C   UNL A   1      45.961  27.805  34.372  1.00  0.00     0.173 A 
ATOM     84  C   UNL A   1      44.532  25.979  35.012  1.00  0.00     0.173 A 
ATOM     85  F   UNL A   1      46.186  28.940  33.692  1.00  0.00    -0.203 F 
ATOM     86  C   UNL A   1      46.988  27.269  35.142  1.00  0.00     0.198 A 
ATOM     87  C   UNL A   1      45.555  25.458  35.799  1.00  0.00     0.198 A 
ATOM     88  F   UNL A   1      43.355  25.338  34.972  1.00  0.00    -0.203 F 
ATOM     89  F   UNL A   1      48.180  27.880  35.187  1.00  0.00    -0.200 F 
ATOM     90  C   UNL A   1      46.782  26.101  35.863  1.00  0.00     0.200 A 
ATOM     91  F   UNL A   1      45.349  24.337  36.506  1.00  0.00    -0.200 F 
ATOM     92  F   UNL A   1      47.766  25.596  36.619  1.00  0.00    -0.200 F 
ENDBRANCH  59  82
ENDBRANCH  33  34
ENDBRANCH  26  28
ENDBRANCH  25  26
ENDBRANCH  24  25
ENDBRANCH   1  24
TORSDOF 14
ENDMDL
MODEL 2
REMARK VINA RESULT:     -12.8      0.215      1.951
REMARK SMILES CC(C)Cc1cc2c(cc1Cl)C=C(C(=O)OCCOC(=O)c1ccc(-c3c4nc(c(-c5c(F)c(F)c(F)c(F)c5F)c5ccc([nH]5)c(-c5c(F)c(F)c(F)c(F)c5F)c5nc(c(-c6c(F)c(F)c(F)c(F)c6F)c6ccc3[nH]6)C=C5)C=C4)cc1)[C@H](C(F)(F)F)O2
REMARK SMILES IDX 17 1 16 2 14 3 15 4 13 5 5 6 6 7 10 8 7 9 9 10 11 11 8 12
REMARK SMILES IDX 90 13 12 14 85 15 4 16 2 17 1 18 3 19 86 20 87 21 88 22
REMARK SMILES IDX 89 23 18 24 19 25 20 26 21 27 22 28 23 29 84 30 24 31 83 32
REMARK SMILES IDX 25 33 26 34 27 35 77 36 28 37 82 38 76 39 78 40 29 41 81 42
REMARK SMILES IDX 75 43 74 44 30 46 62 47 42 48 61 49 43 50 46 51 60 52 79 53
REMARK SMILES IDX 44 54 45 55 59 57 80 58 47 59 31 60 32 61 40 62 33 63 34 64
REMARK SMILES IDX 38 65 41 66 35 67 36 68 39 69 37 70 63 71 64 72 72 73 65 74
REMARK SMILES IDX 66 75 70 76 73 77 67 78 68 79 71 80 69 81 48 82 49 83 57 84
REMARK SMILES IDX 50 85 51 86 55 87 58 88 52 89 53 90 56 91 54 92
REMARK H PARENT 78 45 46 56
REMARK Flexibility Score: inf
ROOT
ATOM      1  C   UNL A   1      31.385  29.711  24.926  1.00  0.00     0.275 C 
ENDROOT
BRANCH   1   2
ATOM      2  O   UNL A   1      32.525  28.826  24.993  1.00  0.00    -0.459 OA
BRANCH   2   3
ATOM      3  C   UNL A   1      33.122  28.520  23.821  1.00  0.00     0.338 C 
ATOM      4  O   UNL A   1      33.528  29.315  22.989  1.00  0.00    -0.246 OA
BRANCH   3   5
ATOM      5  C   UNL A   1      33.368  27.070  23.733  1.00  0.00     0.087 C 
ATOM      6  C   UNL A   1      34.879  22.419  24.861  1.00  0.00    -0.025 A 
ATOM      7  C   UNL A   1      34.802  23.151  23.652  1.00  0.00     0.052 A 
ATOM      8  C   UNL A   1      34.323  22.982  26.023  1.00  0.00     0.045 A 
ATOM      9  C   UNL A   1      34.286  24.444  23.639  1.00  0.00     0.128 A 
ATOM     10  C   UNL A   1      33.918  24.311  26.026  1.00  0.00     0.032 A 
ATOM     11  Cl  UNL A   1      34.128  22.099  27.495  1.00  0.00    -0.084 Cl
ATOM     12  C   UNL A   1      33.965  25.050  24.847  1.00  0.00     0.019 A 
ATOM     13  O   UNL A   1      34.180  25.120  22.447  1.00  0.00    -0.475 OA
ATOM     14  C   UNL A   1      33.764  26.478  24.865  1.00  0.00     0.027 C 
ATOM     15  C   UNL A   1      33.282  26.295  22.446  1.00  0.00     0.316 C 
BRANCH   6  16
ATOM     16  C   UNL A   1      35.627  21.102  24.888  1.00  0.00     0.040 C 
BRANCH  16  17
ATOM     17  C   UNL A   1      37.154  21.257  24.661  1.00  0.00    -0.013 C 
ATOM     18  C   UNL A   1      37.834  22.241  25.619  1.00  0.00     0.008 C 
ATOM     19  C   UNL A   1      37.840  19.895  24.798  1.00  0.00     0.008 C 
ENDBRANCH  16  17
ENDBRANCH   6  16
BRANCH  15  20
ATOM     20  C   UNL A   1      31.857  25.893  22.031  1.00  0.00     0.430 C 
ATOM     21  F   UNL A   1      31.469  24.739  22.622  1.00  0.00    -0.167 F 
ATOM     22  F   UNL A   1      30.957  26.833  22.415  1.00  0.00    -0.167 F 
ATOM     23  F   UNL A   1      31.729  25.735  20.696  1.00  0.00    -0.167 F 
ENDBRANCH  15  20
ENDBRANCH   3   5
ENDBRANCH   2   3
ENDBRANCH   1   2
BRANCH   1  24
ATOM     24  C   UNL A   1      31.501  30.830  25.962  1.00  0.00     0.275 C 
BRANCH  24  25
ATOM     25  O   UNL A   1      32.682  30.645  26.768  1.00  0.00    -0.458 OA
BRANCH  25  26
ATOM     26  C   UNL A   1      33.274  31.774  27.214  1.00  0.00     0.338 C 
ATOM     27  O   UNL A   1      32.796  32.896  27.282  1.00  0.00    -0.246 OA
BRANCH  26  28
ATOM     28  C   UNL A   1      34.596  31.440  27.763  1.00  0.00     0.060 A 
ATOM     29  C   UNL A   1      35.559  32.403  28.038  1.00  0.00     0.016 A 
ATOM     30  C   UNL A   1      34.816  30.117  28.124  1.00  0.00     0.016 A 
ATOM     31  C   UNL A   1      36.754  32.009  28.659  1.00  0.00     0.010 A 
ATOM     32  C   UNL A   1      35.948  29.744  28.842  1.00  0.00     0.010 A 
ATOM     33  C   UNL A   1      36.956  30.679  29.092  1.00  0.00    -0.014 A 
BRANCH  33  34
ATOM     34  C   UNL A   1      38.205  30.270  29.800  1.00  0.00     0.031 A 
ATOM     35  C   UNL A   1      38.484  30.715  31.218  1.00  0.00     0.074 A 
ATOM     36  C   UNL A   1      39.122  29.519  29.157  1.00  0.00     0.049 A 
ATOM     37  N   UNL A   1      39.499  30.416  31.994  1.00  0.00    -0.248 NA
ATOM     38  C   UNL A   1      37.528  31.647  31.834  1.00  0.00     0.031 C 
ATOM     39  C   UNL A   1      39.045  29.112  27.754  1.00  0.00     0.029 A 
ATOM     40  N   UNL A   1      40.291  28.950  29.602  1.00  0.00    -0.354 N 
ATOM     41  C   UNL A   1      39.309  31.134  33.169  1.00  0.00     0.074 A 
ATOM     42  C   UNL A   1      38.125  31.941  32.980  1.00  0.00     0.031 C 
ATOM     43  C   UNL A   1      40.072  28.294  27.476  1.00  0.00     0.029 A 
ATOM     44  C   UNL A   1      40.899  28.144  28.669  1.00  0.00     0.049 A 
ATOM     45  H   UNL A   1      40.658  29.103  30.502  1.00  0.00     0.167 HD
ATOM     46  C   UNL A   1      40.025  31.096  34.318  1.00  0.00     0.037 A 
ATOM     47  C   UNL A   1      41.983  27.349  28.770  1.00  0.00     0.037 A 
ATOM     48  C   UNL A   1      41.165  30.246  34.536  1.00  0.00     0.049 A 
ATOM     49  C   UNL A   1      42.722  27.266  30.076  1.00  0.00     0.074 A 
ATOM     50  C   UNL A   1      41.895  30.063  35.697  1.00  0.00     0.029 A 
ATOM     51  N   UNL A   1      41.732  29.427  33.572  1.00  0.00    -0.354 N 
ATOM     52  N   UNL A   1      42.472  27.878  31.207  1.00  0.00    -0.248 NA
ATOM     53  C   UNL A   1      43.895  26.379  30.121  1.00  0.00     0.031 C 
ATOM     54  C   UNL A   1      42.923  29.154  35.429  1.00  0.00     0.029 A 
ATOM     55  C   UNL A   1      42.811  28.745  34.110  1.00  0.00     0.049 A 
ATOM     56  H   UNL A   1      41.417  29.344  32.643  1.00  0.00     0.167 HD
ATOM     57  C   UNL A   1      43.443  27.443  32.099  1.00  0.00     0.074 A 
ATOM     58  C   UNL A   1      44.275  26.498  31.385  1.00  0.00     0.031 C 
ATOM     59  C   UNL A   1      43.630  27.804  33.391  1.00  0.00     0.037 A 
BRANCH  46  60
ATOM     60  C   UNL A   1      39.570  31.962  35.458  1.00  0.00     0.064 A 
ATOM     61  C   UNL A   1      40.031  33.280  35.602  1.00  0.00     0.173 A 
ATOM     62  C   UNL A   1      38.615  31.500  36.376  1.00  0.00     0.173 A 
ATOM     63  F   UNL A   1      40.947  33.770  34.754  1.00  0.00    -0.203 F 
ATOM     64  C   UNL A   1      39.576  34.092  36.637  1.00  0.00     0.198 A 
ATOM     65  C   UNL A   1      38.139  32.324  37.393  1.00  0.00     0.198 A 
ATOM     66  F   UNL A   1      38.129  30.253  36.277  1.00  0.00    -0.203 F 
ATOM     67  F   UNL A   1      40.064  35.332  36.778  1.00  0.00    -0.200 F 
ATOM     68  C   UNL A   1      38.625  33.616  37.527  1.00  0.00     0.200 A 
ATOM     69  F   UNL A   1      37.207  31.870  38.242  1.00  0.00    -0.200 F 
ATOM     70  F   UNL A   1      38.177  34.404  38.515  1.00  0.00    -0.200 F 
ENDBRANCH  46  60
BRANCH  47  71
ATOM     71  C   UNL A   1      42.380  26.503  27.615  1.00  0.00     0.064 A 
ATOM     72  C   UNL A   1      43.380  26.932  26.731  1.00  0.00     0.173 A 
ATOM     73  C   UNL A   1      41.802  25.246  27.388  1.00  0.00     0.173 A 
ATOM     74  F   UNL A   1      43.950  28.136  26.897  1.00  0.00    -0.203 F 
ATOM     75  C   UNL A   1      43.784  26.139  25.659  1.00  0.00     0.198 A 
ATOM     76  C   UNL A   1      42.222  24.444  26.330  1.00  0.00     0.198 A 
ATOM     77  F   UNL A   1      40.845  24.790  28.209  1.00  0.00    -0.203 F 
ATOM     78  F   UNL A   1      44.721  26.585  24.813  1.00  0.00    -0.200 F 
ATOM     79  C   UNL A   1      43.209  24.891  25.464  1.00  0.00     0.200 A 
ATOM     80  F   UNL A   1      41.675  23.233  26.151  1.00  0.00    -0.200 F 
ATOM     81  F   UNL A   1      43.605  24.123  24.441  1.00  0.00    -0.200 F 
ENDBRANCH  47  71
BRANCH  59  82
ATOM     82  C   UNL A   1      44.774  27.179  34.131  1.00  0.00     0.064 A 
ATOM     83  C   UNL A   1      44.613  25.981  34.841  1.00  0.00     0.173 A 
ATOM     84  C   UNL A   1      46.059  27.736  34.058  1.00  0.00     0.173 A 
ATOM     85  F   UNL A   1      43.400  25.417  34.946  1.00  0.00    -0.203 F 
ATOM     86  C   UNL A   1      45.697  25.365  35.457  1.00  0.00     0.198 A 
ATOM     87  C   UNL A   1      47.146  27.104  34.657  1.00  0.00     0.198 A 
ATOM     88  F   UNL A   1      46.266  28.877  33.385  1.00  0.00    -0.203 F 
ATOM     89  F   UNL A   1      45.517  24.232  36.151  1.00  0.00    -0.200 F 
ATOM     90  C   UNL A   1      46.964  25.921  35.357  1.00  0.00     0.200 A 
ATOM     91  F   UNL A   1      48.372  27.636  34.547  1.00  0.00    -0.200 F 
ATOM     92  F   UNL A   1      48.010  25.316  35.936  1.00  0.00    -0.200 F 
ENDBRANCH  59  82
ENDBRANCH  33  34
ENDBRANCH  26  28
ENDBRANCH  25  26
ENDBRANCH  24  25
ENDBRANCH   1  24
TORSDOF 14
ENDMDL
MODEL 3
REMARK VINA RESULT:     -12.8      4.367      9.778
REMARK SMILES CC(C)Cc1cc2c(cc1Cl)C=C(C(=O)OCCOC(=O)c1ccc(-c3c4nc(c(-c5c(F)c(F)c(F)c(F)c5F)c5ccc([nH]5)c(-c5c(F)c(F)c(F)c(F)c5F)c5nc(c(-c6c(F)c(F)c(F)c(F)c6F)c6ccc3[nH]6)C=C5)C=C4)cc1)[C@H](C(F)(F)F)O2
REMARK SMILES IDX 17 1 16 2 14 3 15 4 13 5 5 6 6 7 10 8 7 9 9 10 11 11 8 12
REMARK SMILES IDX 90 13 12 14 85 15 4 16 2 17 1 18 3 19 86 20 87 21 88 22
REMARK SMILES IDX 89 23 18 24 19 25 20 26 21 27 22 28 23 29 84 30 24 31 83 32
REMARK SMILES IDX 25 33 26 34 27 35 77 36 28 37 82 38 76 39 78 40 29 41 81 42
REMARK SMILES IDX 75 43 74 44 30 46 62 47 42 48 61 49 43 50 46 51 60 52 79 53
REMARK SMILES IDX 44 54 45 55 59 57 80 58 47 59 31 60 32 61 40 62 33 63 34 64
REMARK SMILES IDX 38 65 41 66 35 67 36 68 39 69 37 70 63 71 64 72 72 73 65 74
REMARK SMILES IDX 66 75 70 76 73 77 67 78 68 79 71 80 69 81 48 82 49 83 57 84
REMARK SMILES IDX 50 85 51 86 55 87 58 88 52 89 53 90 56 91 54 92
REMARK H PARENT 78 45 46 56
REMARK Flexibility Score: inf
ROOT
ATOM      1  C   UNL A   1      35.566  20.902  25.110  1.00  0.00     0.275 C 
ENDROOT
BRANCH   1   2
ATOM      2  O   UNL A   1      35.355  22.084  25.914  1.00  0.00    -0.459 OA
BRANCH   2   3
ATOM      3  C   UNL A   1      34.260  22.089  26.703  1.00  0.00     0.338 C 
ATOM      4  O   UNL A   1      34.024  21.314  27.615  1.00  0.00    -0.246 OA
BRANCH   3   5
ATOM      5  C   UNL A   1      33.430  23.273  26.421  1.00  0.00     0.087 C 
ATOM      6  C   UNL A   1      32.054  27.964  25.287  1.00  0.00    -0.025 A 
ATOM      7  C   UNL A   1      31.526  26.979  26.154  1.00  0.00     0.052 A 
ATOM      8  C   UNL A   1      33.109  27.608  24.428  1.00  0.00     0.045 A 
ATOM      9  C   UNL A   1      32.111  25.718  26.232  1.00  0.00     0.128 A 
ATOM     10  C   UNL A   1      33.760  26.391  24.593  1.00  0.00     0.032 A 
ATOM     11  Cl  UNL A   1      33.674  28.633  23.157  1.00  0.00    -0.084 Cl
ATOM     12  C   UNL A   1      33.293  25.483  25.540  1.00  0.00     0.019 A 
ATOM     13  O   UNL A   1      31.556  24.762  27.048  1.00  0.00    -0.475 OA
ATOM     14  C   UNL A   1      34.071  24.318  25.887  1.00  0.00     0.027 C 
ATOM     15  C   UNL A   1      31.973  23.366  26.789  1.00  0.00     0.316 C 
BRANCH   6  16
ATOM     16  C   UNL A   1      31.533  29.385  25.367  1.00  0.00     0.040 C 
BRANCH  16  17
ATOM     17  C   UNL A   1      31.922  30.109  26.683  1.00  0.00    -0.013 C 
ATOM     18  C   UNL A   1      33.421  30.070  27.001  1.00  0.00     0.008 C 
ATOM     19  C   UNL A   1      31.478  31.572  26.621  1.00  0.00     0.008 C 
ENDBRANCH  16  17
ENDBRANCH   6  16
BRANCH  15  20
ATOM     20  C   UNL A   1      31.015  22.685  25.797  1.00  0.00     0.430 C 
ATOM     21  F   UNL A   1      31.498  21.494  25.371  1.00  0.00    -0.167 F 
ATOM     22  F   UNL A   1      29.820  22.418  26.382  1.00  0.00    -0.167 F 
ATOM     23  F   UNL A   1      30.769  23.443  24.707  1.00  0.00    -0.167 F 
ENDBRANCH  15  20
ENDBRANCH   3   5
ENDBRANCH   2   3
ENDBRANCH   1   2
BRANCH   1  24
ATOM     24  C   UNL A   1      37.057  20.583  24.989  1.00  0.00     0.275 C 
BRANCH  24  25
ATOM     25  O   UNL A   1      37.847  21.690  25.469  1.00  0.00    -0.458 OA
BRANCH  25  26
ATOM     26  C   UNL A   1      39.014  21.367  26.066  1.00  0.00     0.338 C 
ATOM     27  O   UNL A   1      39.586  20.287  26.061  1.00  0.00    -0.246 OA
BRANCH  26  28
ATOM     28  C   UNL A   1      39.613  22.578  26.642  1.00  0.00     0.060 A 
ATOM     29  C   UNL A   1      40.693  22.540  27.514  1.00  0.00     0.016 A 
ATOM     30  C   UNL A   1      39.137  23.799  26.182  1.00  0.00     0.016 A 
ATOM     31  C   UNL A   1      41.270  23.748  27.934  1.00  0.00     0.010 A 
ATOM     32  C   UNL A   1      39.778  24.991  26.505  1.00  0.00     0.010 A 
ATOM     33  C   UNL A   1      40.837  24.990  27.417  1.00  0.00    -0.014 A 
BRANCH  33  34
ATOM     34  C   UNL A   1      41.484  26.272  27.824  1.00  0.00     0.031 A 
ATOM     35  C   UNL A   1      42.890  26.615  27.383  1.00  0.00     0.074 A 
ATOM     36  C   UNL A   1      40.822  27.130  28.627  1.00  0.00     0.049 A 
ATOM     37  N   UNL A   1      43.585  27.705  27.611  1.00  0.00    -0.248 NA
ATOM     38  C   UNL A   1      43.629  25.594  26.625  1.00  0.00     0.031 C 
ATOM     39  C   UNL A   1      39.510  26.883  29.225  1.00  0.00     0.029 A 
ATOM     40  N   UNL A   1      41.155  28.388  29.067  1.00  0.00    -0.354 N 
ATOM     41  C   UNL A   1      44.836  27.486  27.045  1.00  0.00     0.074 A 
ATOM     42  C   UNL A   1      44.833  26.137  26.528  1.00  0.00     0.031 C 
ATOM     43  C   UNL A   1      39.113  27.983  29.883  1.00  0.00     0.029 A 
ATOM     44  C   UNL A   1      40.154  29.002  29.783  1.00  0.00     0.049 A 
ATOM     45  H   UNL A   1      42.025  28.812  28.887  1.00  0.00     0.167 HD
ATOM     46  C   UNL A   1      45.879  28.342  26.924  1.00  0.00     0.037 A 
ATOM     47  C   UNL A   1      40.069  30.252  30.278  1.00  0.00     0.037 A 
ATOM     48  C   UNL A   1      45.864  29.708  27.376  1.00  0.00     0.049 A 
ATOM     49  C   UNL A   1      41.209  31.210  30.071  1.00  0.00     0.074 A 
ATOM     50  C   UNL A   1      46.834  30.682  27.210  1.00  0.00     0.029 A 
ATOM     51  N   UNL A   1      44.821  30.295  28.074  1.00  0.00    -0.354 N 
ATOM     52  N   UNL A   1      42.346  31.019  29.449  1.00  0.00    -0.248 NA
ATOM     53  C   UNL A   1      41.054  32.560  30.634  1.00  0.00     0.031 C 
ATOM     54  C   UNL A   1      46.390  31.852  27.833  1.00  0.00     0.029 A 
ATOM     55  C   UNL A   1      45.128  31.616  28.356  1.00  0.00     0.049 A 
ATOM     56  H   UNL A   1      43.987  29.841  28.333  1.00  0.00     0.167 HD
ATOM     57  C   UNL A   1      43.034  32.221  29.532  1.00  0.00     0.074 A 
ATOM     58  C   UNL A   1      42.179  33.146  30.247  1.00  0.00     0.031 C 
ATOM     59  C   UNL A   1      44.268  32.527  29.065  1.00  0.00     0.037 A 
BRANCH  46  60
ATOM     60  C   UNL A   1      47.115  27.849  26.226  1.00  0.00     0.064 A 
ATOM     61  C   UNL A   1      48.213  27.358  26.950  1.00  0.00     0.173 A 
ATOM     62  C   UNL A   1      47.180  27.801  24.826  1.00  0.00     0.173 A 
ATOM     63  F   UNL A   1      48.204  27.386  28.291  1.00  0.00    -0.203 F 
ATOM     64  C   UNL A   1      49.341  26.865  26.299  1.00  0.00     0.198 A 
ATOM     65  C   UNL A   1      48.297  27.279  24.177  1.00  0.00     0.198 A 
ATOM     66  F   UNL A   1      46.153  28.243  24.084  1.00  0.00    -0.203 F 
ATOM     67  F   UNL A   1      50.393  26.443  27.012  1.00  0.00    -0.200 F 
ATOM     68  C   UNL A   1      49.378  26.819  24.913  1.00  0.00     0.200 A 
ATOM     69  F   UNL A   1      48.326  27.218  22.838  1.00  0.00    -0.200 F 
ATOM     70  F   UNL A   1      50.459  26.330  24.288  1.00  0.00    -0.200 F 
ENDBRANCH  46  60
BRANCH  47  71
ATOM     71  C   UNL A   1      38.817  30.692  30.946  1.00  0.00     0.064 A 
ATOM     72  C   UNL A   1      38.698  30.629  32.342  1.00  0.00     0.173 A 
ATOM     73  C   UNL A   1      37.736  31.210  30.220  1.00  0.00     0.173 A 
ATOM     74  F   UNL A   1      39.699  30.124  33.078  1.00  0.00    -0.203 F 
ATOM     75  C   UNL A   1      37.541  31.063  32.986  1.00  0.00     0.198 A 
ATOM     76  C   UNL A   1      36.589  31.665  30.866  1.00  0.00     0.198 A 
ATOM     77  F   UNL A   1      37.805  31.295  28.884  1.00  0.00    -0.203 F 
ATOM     78  F   UNL A   1      37.442  30.966  34.318  1.00  0.00    -0.200 F 
ATOM     79  C   UNL A   1      36.491  31.588  32.248  1.00  0.00     0.200 A 
ATOM     80  F   UNL A   1      35.581  32.184  30.152  1.00  0.00    -0.200 F 
ATOM     81  F   UNL A   1      35.383  32.016  32.868  1.00  0.00    -0.200 F 
ENDBRANCH  47  71
BRANCH  59  82
ATOM     82  C   UNL A   1      44.779  33.916  29.302  1.00  0.00     0.064 A 
ATOM     83  C   UNL A   1      45.562  34.220  30.425  1.00  0.00     0.173 A 
ATOM     84  C   UNL A   1      44.559  34.928  28.357  1.00  0.00     0.173 A 
ATOM     85  F   UNL A   1      45.791  33.286  31.361  1.00  0.00    -0.203 F 
ATOM     86  C   UNL A   1      46.101  35.491  30.596  1.00  0.00     0.198 A 
ATOM     87  C   UNL A   1      45.118  36.192  28.521  1.00  0.00     0.198 A 
ATOM     88  F   UNL A   1      43.823  34.684  27.262  1.00  0.00    -0.203 F 
ATOM     89  F   UNL A   1      46.826  35.768  31.689  1.00  0.00    -0.200 F 
ATOM     90  C   UNL A   1      45.887  36.474  29.640  1.00  0.00     0.200 A 
ATOM     91  F   UNL A   1      44.923  37.137  27.589  1.00  0.00    -0.200 F 
ATOM     92  F   UNL A   1      46.422  37.692  29.799  1.00  0.00    -0.200 F 
ENDBRANCH  59  82
ENDBRANCH  33  34
ENDBRANCH  26  28
ENDBRANCH  25  26
ENDBRANCH  24  25
ENDBRANCH   1  24
TORSDOF 14
ENDMDL
