MODEL 1
REMARK VINA RESULT:     -10.9      0.000      0.000
REMARK SMILES C[C@H]1CC[C@](C#N)([C@H](O)C(=O)OCCOC(=O)c2ccc(-c3c4nc(c(-c5c(F)c(F)c(F)c(F)c5F)c5ccc([nH]5)c(-c5c(F)c(F)c(F)c(F)c5F)c5nc(c(-c6c(F)c(F)c(F)c(F)c6F)c6ccc3[nH]6)C=C5)C=C4)cc2)C1
REMARK SMILES IDX 13 1 12 2 10 3 11 4 8 5 5 6 1 7 2 8 3 9 81 10 4 11 6 12 7 13
REMARK SMILES IDX 9 14 14 16 15 17 16 18 17 19 18 20 19 21 80 22 20 23 79 24
REMARK SMILES IDX 21 25 22 26 23 27 73 28 24 29 78 30 72 31 74 32 25 33 77 34
REMARK SMILES IDX 71 35 70 36 26 38 58 39 38 40 57 41 39 42 42 43 56 44 75 45
REMARK SMILES IDX 40 46 41 47 55 49 76 50 43 51 27 52 28 53 36 54 29 55 30 56
REMARK SMILES IDX 34 57 37 58 31 59 32 60 35 61 33 62 59 63 60 64 68 65 61 66
REMARK SMILES IDX 62 67 66 68 69 69 63 70 64 71 67 72 65 73 44 74 45 75 53 76
REMARK SMILES IDX 46 77 47 78 51 79 54 80 48 81 49 82 52 83 50 84
REMARK H PARENT 9 15 74 37 42 48
REMARK Flexibility Score: inf
ROOT
ATOM      1  C   UNL A   1      35.550  20.708  25.076  1.00  0.00     0.274 C 
ENDROOT
BRANCH   1   2
ATOM      2  O   UNL A   1      35.129  21.802  25.908  1.00  0.00    -0.460 OA
BRANCH   2   3
ATOM      3  C   UNL A   1      33.940  21.630  26.549  1.00  0.00     0.336 C 
ATOM      4  O   UNL A   1      33.821  21.399  27.745  1.00  0.00    -0.249 OA
BRANCH   3   5
ATOM      5  C   UNL A   1      32.749  21.808  25.587  1.00  0.00     0.244 C 
BRANCH   5   6
ATOM      6  C   UNL A   1      32.150  23.207  25.777  1.00  0.00     0.094 C 
ATOM      7  C   UNL A   1      30.360  25.800  25.148  1.00  0.00     0.008 C 
ATOM      8  C   UNL A   1      31.732  25.331  24.669  1.00  0.00    -0.013 C 
ATOM      9  C   UNL A   1      32.841  25.574  25.699  1.00  0.00     0.005 C 
ATOM     10  C   UNL A   1      31.779  23.828  24.425  1.00  0.00     0.029 C 
ATOM     11  C   UNL A   1      33.146  24.225  26.367  1.00  0.00     0.026 C 
BRANCH   6  12
ATOM     12  C   UNL A   1      30.983  23.103  26.693  1.00  0.00     0.072 C 
ATOM     13  N   UNL A   1      30.075  23.058  27.408  1.00  0.00    -0.198 NA
ENDBRANCH   6  12
ENDBRANCH   5   6
BRANCH   5  14
ATOM     14  O   UNL A   1      31.775  20.769  25.710  1.00  0.00    -0.380 OA
ATOM     15  H   UNL A   1      32.214  19.943  25.963  1.00  0.00     0.211 HD
ENDBRANCH   5  14
ENDBRANCH   3   5
ENDBRANCH   2   3
ENDBRANCH   1   2
BRANCH   1  16
ATOM     16  C   UNL A   1      37.079  20.645  24.973  1.00  0.00     0.275 C 
BRANCH  16  17
ATOM     17  O   UNL A   1      37.736  21.722  25.673  1.00  0.00    -0.458 OA
BRANCH  17  18
ATOM     18  C   UNL A   1      38.979  21.449  26.134  1.00  0.00     0.338 C 
ATOM     19  O   UNL A   1      39.609  20.410  25.994  1.00  0.00    -0.246 OA
BRANCH  18  20
ATOM     20  C   UNL A   1      39.595  22.661  26.696  1.00  0.00     0.060 A 
ATOM     21  C   UNL A   1      39.198  23.894  26.175  1.00  0.00     0.016 A 
ATOM     22  C   UNL A   1      40.625  22.597  27.629  1.00  0.00     0.016 A 
ATOM     23  C   UNL A   1      39.852  25.062  26.525  1.00  0.00     0.010 A 
ATOM     24  C   UNL A   1      41.261  23.781  28.020  1.00  0.00     0.010 A 
ATOM     25  C   UNL A   1      40.892  25.016  27.452  1.00  0.00    -0.014 A 
BRANCH  25  26
ATOM     26  C   UNL A   1      41.614  26.264  27.781  1.00  0.00     0.031 A 
ATOM     27  C   UNL A   1      40.929  27.326  28.588  1.00  0.00     0.074 A 
ATOM     28  C   UNL A   1      42.890  26.419  27.382  1.00  0.00     0.049 A 
ATOM     29  N   UNL A   1      41.338  28.531  28.888  1.00  0.00    -0.248 NA
ATOM     30  C   UNL A   1      39.602  26.987  29.125  1.00  0.00     0.031 C 
ATOM     31  C   UNL A   1      43.676  25.422  26.653  1.00  0.00     0.029 A 
ATOM     32  N   UNL A   1      43.750  27.477  27.530  1.00  0.00    -0.354 N 
ATOM     33  C   UNL A   1      40.307  29.106  29.618  1.00  0.00     0.074 A 
ATOM     34  C   UNL A   1      39.244  28.129  29.697  1.00  0.00     0.031 C 
ATOM     35  C   UNL A   1      44.901  25.914  26.419  1.00  0.00     0.029 A 
ATOM     36  C   UNL A   1      44.962  27.284  26.917  1.00  0.00     0.049 A 
ATOM     37  H   UNL A   1      43.520  28.295  28.029  1.00  0.00     0.167 HD
ATOM     38  C   UNL A   1      40.261  30.342  30.169  1.00  0.00     0.037 A 
ATOM     39  C   UNL A   1      45.990  28.134  26.737  1.00  0.00     0.037 A 
ATOM     40  C   UNL A   1      41.337  31.296  30.090  1.00  0.00     0.049 A 
ATOM     41  C   UNL A   1      45.878  29.529  27.290  1.00  0.00     0.074 A 
ATOM     42  C   UNL A   1      41.400  32.571  30.623  1.00  0.00     0.029 A 
ATOM     43  N   UNL A   1      42.538  31.079  29.428  1.00  0.00    -0.354 N 
ATOM     44  N   UNL A   1      44.899  30.074  27.971  1.00  0.00    -0.248 NA
ATOM     45  C   UNL A   1      47.013  30.428  27.046  1.00  0.00     0.031 C 
ATOM     46  C   UNL A   1      42.609  33.150  30.225  1.00  0.00     0.029 A 
ATOM     47  C   UNL A   1      43.335  32.209  29.513  1.00  0.00     0.049 A 
ATOM     48  H   UNL A   1      42.787  30.246  28.966  1.00  0.00     0.167 HD
ATOM     49  C   UNL A   1      45.314  31.364  28.270  1.00  0.00     0.074 A 
ATOM     50  C   UNL A   1      46.638  31.517  27.704  1.00  0.00     0.031 C 
ATOM     51  C   UNL A   1      44.658  32.335  28.953  1.00  0.00     0.037 A 
BRANCH  38  52
ATOM     52  C   UNL A   1      38.994  30.748  30.867  1.00  0.00     0.064 A 
ATOM     53  C   UNL A   1      38.830  30.615  32.254  1.00  0.00     0.173 A 
ATOM     54  C   UNL A   1      37.936  31.310  30.135  1.00  0.00     0.173 A 
ATOM     55  F   UNL A   1      39.803  30.071  33.001  1.00  0.00    -0.203 F 
ATOM     56  C   UNL A   1      37.643  31.000  32.876  1.00  0.00     0.198 A 
ATOM     57  C   UNL A   1      36.766  31.726  30.765  1.00  0.00     0.198 A 
ATOM     58  F   UNL A   1      38.039  31.463  28.806  1.00  0.00    -0.203 F 
ATOM     59  F   UNL A   1      37.489  30.811  34.194  1.00  0.00    -0.200 F 
ATOM     60  C   UNL A   1      36.618  31.563  32.132  1.00  0.00     0.200 A 
ATOM     61  F   UNL A   1      35.783  32.283  30.046  1.00  0.00    -0.200 F 
ATOM     62  F   UNL A   1      35.481  31.941  32.734  1.00  0.00    -0.200 F 
ENDBRANCH  38  52
BRANCH  39  63
ATOM     63  C   UNL A   1      47.191  27.700  25.978  1.00  0.00     0.064 A 
ATOM     64  C   UNL A   1      47.216  27.737  24.577  1.00  0.00     0.173 A 
ATOM     65  C   UNL A   1      48.337  27.225  26.636  1.00  0.00     0.173 A 
ATOM     66  F   UNL A   1      46.139  28.162  23.900  1.00  0.00    -0.203 F 
ATOM     67  C   UNL A   1      48.328  27.294  23.864  1.00  0.00     0.198 A 
ATOM     68  C   UNL A   1      49.462  26.816  25.923  1.00  0.00     0.198 A 
ATOM     69  F   UNL A   1      48.368  27.167  27.976  1.00  0.00    -0.203 F 
ATOM     70  F   UNL A   1      48.302  27.285  22.524  1.00  0.00    -0.200 F 
ATOM     71  C   UNL A   1      49.452  26.840  24.538  1.00  0.00     0.200 A 
ATOM     72  F   UNL A   1      50.551  26.393  26.580  1.00  0.00    -0.200 F 
ATOM     73  F   UNL A   1      50.521  26.414  23.851  1.00  0.00    -0.200 F 
ENDBRANCH  39  63
BRANCH  51  74
ATOM     74  C   UNL A   1      45.388  33.630  29.179  1.00  0.00     0.064 A 
ATOM     75  C   UNL A   1      45.276  34.712  28.294  1.00  0.00     0.173 A 
ATOM     76  C   UNL A   1      46.176  33.801  30.328  1.00  0.00     0.173 A 
ATOM     77  F   UNL A   1      44.546  34.595  27.174  1.00  0.00    -0.203 F 
ATOM     78  C   UNL A   1      45.950  35.905  28.534  1.00  0.00     0.198 A 
ATOM     79  C   UNL A   1      46.818  35.009  30.585  1.00  0.00     0.198 A 
ATOM     80  F   UNL A   1      46.311  32.801  31.213  1.00  0.00    -0.203 F 
ATOM     81  F   UNL A   1      45.874  36.906  27.646  1.00  0.00    -0.200 F 
ATOM     82  C   UNL A   1      46.712  36.057  29.683  1.00  0.00     0.200 A 
ATOM     83  F   UNL A   1      47.536  35.159  31.706  1.00  0.00    -0.200 F 
ATOM     84  F   UNL A   1      47.350  37.212  29.919  1.00  0.00    -0.200 F 
ENDBRANCH  51  74
ENDBRANCH  25  26
ENDBRANCH  18  20
ENDBRANCH  17  18
ENDBRANCH  16  17
ENDBRANCH   1  16
TORSDOF 14
ENDMDL
MODEL 2
REMARK VINA RESULT:     -10.8      4.818      9.894
REMARK SMILES C[C@H]1CC[C@](C#N)([C@H](O)C(=O)OCCOC(=O)c2ccc(-c3c4nc(c(-c5c(F)c(F)c(F)c(F)c5F)c5ccc([nH]5)c(-c5c(F)c(F)c(F)c(F)c5F)c5nc(c(-c6c(F)c(F)c(F)c(F)c6F)c6ccc3[nH]6)C=C5)C=C4)cc2)C1
REMARK SMILES IDX 13 1 12 2 10 3 11 4 8 5 5 6 1 7 2 8 3 9 81 10 4 11 6 12 7 13
REMARK SMILES IDX 9 14 14 16 15 17 16 18 17 19 18 20 19 21 80 22 20 23 79 24
REMARK SMILES IDX 21 25 22 26 23 27 73 28 24 29 78 30 72 31 74 32 25 33 77 34
REMARK SMILES IDX 71 35 70 36 26 38 58 39 38 40 57 41 39 42 42 43 56 44 75 45
REMARK SMILES IDX 40 46 41 47 55 49 76 50 43 51 27 52 28 53 36 54 29 55 30 56
REMARK SMILES IDX 34 57 37 58 31 59 32 60 35 61 33 62 59 63 60 64 68 65 61 66
REMARK SMILES IDX 62 67 66 68 69 69 63 70 64 71 67 72 65 73 44 74 45 75 53 76
REMARK SMILES IDX 46 77 47 78 51 79 54 80 48 81 49 82 52 83 50 84
REMARK H PARENT 9 15 74 37 42 48
REMARK Flexibility Score: inf
ROOT
ATOM      1  C   UNL A   1      31.057  30.031  24.850  1.00  0.00     0.274 C 
ENDROOT
BRANCH   1   2
ATOM      2  O   UNL A   1      30.699  28.795  24.208  1.00  0.00    -0.460 OA
BRANCH   2   3
ATOM      3  C   UNL A   1      31.396  28.498  23.077  1.00  0.00     0.336 C 
ATOM      4  O   UNL A   1      31.995  29.316  22.393  1.00  0.00    -0.249 OA
BRANCH   3   5
ATOM      5  C   UNL A   1      31.375  26.984  22.782  1.00  0.00     0.244 C 
BRANCH   5   6
ATOM      6  C   UNL A   1      32.461  26.293  23.616  1.00  0.00     0.094 C 
ATOM      7  C   UNL A   1      33.762  24.206  25.684  1.00  0.00     0.008 C 
ATOM      8  C   UNL A   1      33.032  25.537  25.856  1.00  0.00    -0.013 C 
ATOM      9  C   UNL A   1      33.920  26.749  25.553  1.00  0.00     0.005 C 
ATOM     10  C   UNL A   1      31.862  25.686  24.891  1.00  0.00     0.029 C 
ATOM     11  C   UNL A   1      33.527  27.264  24.160  1.00  0.00     0.026 C 
BRANCH   6  12
ATOM     12  C   UNL A   1      33.136  25.277  22.767  1.00  0.00     0.072 C 
ATOM     13  N   UNL A   1      33.690  24.507  22.104  1.00  0.00    -0.198 NA
ENDBRANCH   6  12
ENDBRANCH   5   6
BRANCH   5  14
ATOM     14  O   UNL A   1      31.478  26.688  21.388  1.00  0.00    -0.380 OA
ATOM     15  H   UNL A   1      31.293  27.489  20.873  1.00  0.00     0.211 HD
ENDBRANCH   5  14
ENDBRANCH   3   5
ENDBRANCH   2   3
ENDBRANCH   1   2
BRANCH   1  16
ATOM     16  C   UNL A   1      31.781  29.778  26.179  1.00  0.00     0.275 C 
BRANCH  16  17
ATOM     17  O   UNL A   1      33.162  30.193  26.156  1.00  0.00    -0.458 OA
BRANCH  17  18
ATOM     18  C   UNL A   1      33.488  31.191  27.010  1.00  0.00     0.338 C 
ATOM     19  O   UNL A   1      32.769  32.104  27.392  1.00  0.00    -0.246 OA
BRANCH  18  20
ATOM     20  C   UNL A   1      34.812  30.948  27.603  1.00  0.00     0.060 A 
ATOM     21  C   UNL A   1      35.128  29.639  27.974  1.00  0.00     0.016 A 
ATOM     22  C   UNL A   1      35.687  31.988  27.901  1.00  0.00     0.016 A 
ATOM     23  C   UNL A   1      36.276  29.357  28.692  1.00  0.00     0.010 A 
ATOM     24  C   UNL A   1      36.871  31.701  28.590  1.00  0.00     0.010 A 
ATOM     25  C   UNL A   1      37.160  30.388  29.008  1.00  0.00    -0.014 A 
BRANCH  25  26
ATOM     26  C   UNL A   1      38.359  30.081  29.817  1.00  0.00     0.031 A 
ATOM     27  C   UNL A   1      39.416  29.175  29.261  1.00  0.00     0.074 A 
ATOM     28  C   UNL A   1      38.505  30.645  31.030  1.00  0.00     0.049 A 
ATOM     29  N   UNL A   1      40.482  28.690  29.843  1.00  0.00    -0.248 NA
ATOM     30  C   UNL A   1      39.249  28.753  27.861  1.00  0.00     0.031 C 
ATOM     31  C   UNL A   1      37.573  31.595  31.639  1.00  0.00     0.029 A 
ATOM     32  N   UNL A   1      39.492  30.497  31.971  1.00  0.00    -0.354 N 
ATOM     33  C   UNL A   1      41.092  27.880  28.896  1.00  0.00     0.074 A 
ATOM     34  C   UNL A   1      40.268  27.919  27.707  1.00  0.00     0.031 C 
ATOM     35  C   UNL A   1      38.032  31.946  32.849  1.00  0.00     0.029 A 
ATOM     36  C   UNL A   1      39.249  31.193  33.129  1.00  0.00     0.049 A 
ATOM     37  H   UNL A   1      40.296  29.946  31.829  1.00  0.00     0.167 HD
ATOM     38  C   UNL A   1      42.239  27.171  29.016  1.00  0.00     0.037 A 
ATOM     39  C   UNL A   1      39.911  31.187  34.300  1.00  0.00     0.037 A 
ATOM     40  C   UNL A   1      43.053  27.156  30.204  1.00  0.00     0.049 A 
ATOM     41  C   UNL A   1      41.138  30.325  34.432  1.00  0.00     0.074 A 
ATOM     42  C   UNL A   1      44.240  26.482  30.429  1.00  0.00     0.029 A 
ATOM     43  N   UNL A   1      42.757  27.846  31.373  1.00  0.00    -0.354 N 
ATOM     44  N   UNL A   1      41.708  29.553  33.539  1.00  0.00    -0.248 NA
ATOM     45  C   UNL A   1      41.811  30.332  35.737  1.00  0.00     0.031 C 
ATOM     46  C   UNL A   1      44.624  26.708  31.754  1.00  0.00     0.029 A 
ATOM     47  C   UNL A   1      43.722  27.588  32.332  1.00  0.00     0.049 A 
ATOM     48  H   UNL A   1      41.975  28.432  31.501  1.00  0.00     0.167 HD
ATOM     49  C   UNL A   1      42.825  29.012  34.158  1.00  0.00     0.074 A 
ATOM     50  C   UNL A   1      42.858  29.553  35.502  1.00  0.00     0.031 C 
ATOM     51  C   UNL A   1      43.743  28.147  33.661  1.00  0.00     0.037 A 
BRANCH  38  52
ATOM     52  C   UNL A   1      42.659  26.320  27.851  1.00  0.00     0.064 A 
ATOM     53  C   UNL A   1      43.549  26.782  26.870  1.00  0.00     0.173 A 
ATOM     54  C   UNL A   1      42.182  25.005  27.733  1.00  0.00     0.173 A 
ATOM     55  F   UNL A   1      44.024  28.036  26.926  1.00  0.00    -0.203 F 
ATOM     56  C   UNL A   1      43.922  25.972  25.800  1.00  0.00     0.198 A 
ATOM     57  C   UNL A   1      42.584  24.186  26.681  1.00  0.00     0.198 A 
ATOM     58  F   UNL A   1      41.330  24.509  28.643  1.00  0.00    -0.203 F 
ATOM     59  F   UNL A   1      44.729  26.454  24.846  1.00  0.00    -0.200 F 
ATOM     60  C   UNL A   1      43.446  24.672  25.712  1.00  0.00     0.200 A 
ATOM     61  F   UNL A   1      42.135  22.926  26.606  1.00  0.00    -0.200 F 
ATOM     62  F   UNL A   1      43.813  23.890  24.686  1.00  0.00    -0.200 F 
ENDBRANCH  38  52
BRANCH  39  63
ATOM     63  C   UNL A   1      39.411  31.996  35.442  1.00  0.00     0.064 A 
ATOM     64  C   UNL A   1      38.552  31.443  36.401  1.00  0.00     0.173 A 
ATOM     65  C   UNL A   1      39.771  33.345  35.593  1.00  0.00     0.173 A 
ATOM     66  F   UNL A   1      38.160  30.165  36.290  1.00  0.00    -0.203 F 
ATOM     67  C   UNL A   1      38.052  32.212  37.450  1.00  0.00     0.198 A 
ATOM     68  C   UNL A   1      39.300  34.102  36.663  1.00  0.00     0.198 A 
ATOM     69  F   UNL A   1      40.592  33.925  34.705  1.00  0.00    -0.203 F 
ATOM     70  F   UNL A   1      37.184  31.673  38.318  1.00  0.00    -0.200 F 
ATOM     71  C   UNL A   1      38.432  33.539  37.583  1.00  0.00     0.200 A 
ATOM     72  F   UNL A   1      39.683  35.380  36.796  1.00  0.00    -0.200 F 
ATOM     73  F   UNL A   1      37.950  34.277  38.593  1.00  0.00    -0.200 F 
ENDBRANCH  39  63
BRANCH  51  74
ATOM     74  C   UNL A   1      44.896  27.778  34.552  1.00  0.00     0.064 A 
ATOM     75  C   UNL A   1      44.862  26.649  35.383  1.00  0.00     0.173 A 
ATOM     76  C   UNL A   1      46.071  28.547  34.537  1.00  0.00     0.173 A 
ATOM     77  F   UNL A   1      43.758  25.888  35.444  1.00  0.00    -0.203 F 
ATOM     78  C   UNL A   1      45.949  26.320  36.188  1.00  0.00     0.198 A 
ATOM     79  C   UNL A   1      47.170  28.193  35.315  1.00  0.00     0.198 A 
ATOM     80  F   UNL A   1      46.159  29.633  33.755  1.00  0.00    -0.203 F 
ATOM     81  F   UNL A   1      45.873  25.268  37.016  1.00  0.00    -0.200 F 
ATOM     82  C   UNL A   1      47.104  27.086  36.146  1.00  0.00     0.200 A 
ATOM     83  F   UNL A   1      48.291  28.923  35.257  1.00  0.00    -0.200 F 
ATOM     84  F   UNL A   1      48.154  26.760  36.912  1.00  0.00    -0.200 F 
ENDBRANCH  51  74
ENDBRANCH  25  26
ENDBRANCH  18  20
ENDBRANCH  17  18
ENDBRANCH  16  17
ENDBRANCH   1  16
TORSDOF 14
ENDMDL
MODEL 3
REMARK VINA RESULT:     -10.8      4.842      9.876
REMARK SMILES C[C@H]1CC[C@](C#N)([C@H](O)C(=O)OCCOC(=O)c2ccc(-c3c4nc(c(-c5c(F)c(F)c(F)c(F)c5F)c5ccc([nH]5)c(-c5c(F)c(F)c(F)c(F)c5F)c5nc(c(-c6c(F)c(F)c(F)c(F)c6F)c6ccc3[nH]6)C=C5)C=C4)cc2)C1
REMARK SMILES IDX 13 1 12 2 10 3 11 4 8 5 5 6 1 7 2 8 3 9 81 10 4 11 6 12 7 13
REMARK SMILES IDX 9 14 14 16 15 17 16 18 17 19 18 20 19 21 80 22 20 23 79 24
REMARK SMILES IDX 21 25 22 26 23 27 73 28 24 29 78 30 72 31 74 32 25 33 77 34
REMARK SMILES IDX 71 35 70 36 26 38 58 39 38 40 57 41 39 42 42 43 56 44 75 45
REMARK SMILES IDX 40 46 41 47 55 49 76 50 43 51 27 52 28 53 36 54 29 55 30 56
REMARK SMILES IDX 34 57 37 58 31 59 32 60 35 61 33 62 59 63 60 64 68 65 61 66
REMARK SMILES IDX 62 67 66 68 69 69 63 70 64 71 67 72 65 73 44 74 45 75 53 76
REMARK SMILES IDX 46 77 47 78 51 79 54 80 48 81 49 82 52 83 50 84
REMARK H PARENT 9 15 74 37 42 48
REMARK Flexibility Score: inf
ROOT
ATOM      1  C   UNL A   1      31.285  29.259  25.362  1.00  0.00     0.274 C 
ENDROOT
BRANCH   1   2
ATOM      2  O   UNL A   1      31.350  28.589  24.092  1.00  0.00    -0.460 OA
BRANCH   2   3
ATOM      3  C   UNL A   1      30.850  27.323  24.069  1.00  0.00     0.336 C 
ATOM      4  O   UNL A   1      30.339  26.759  25.026  1.00  0.00    -0.249 OA
BRANCH   3   5
ATOM      5  C   UNL A   1      30.966  26.695  22.665  1.00  0.00     0.244 C 
BRANCH   5   6
ATOM      6  C   UNL A   1      32.169  25.744  22.635  1.00  0.00     0.094 C 
ATOM      7  C   UNL A   1      33.776  22.964  22.530  1.00  0.00     0.008 C 
ATOM      8  C   UNL A   1      33.129  23.759  23.662  1.00  0.00    -0.013 C 
ATOM      9  C   UNL A   1      33.977  24.952  24.115  1.00  0.00     0.005 C 
ATOM     10  C   UNL A   1      31.803  24.386  23.246  1.00  0.00     0.029 C 
ATOM     11  C   UNL A   1      33.345  26.216  23.512  1.00  0.00     0.026 C 
BRANCH   6  12
ATOM     12  C   UNL A   1      32.645  25.625  21.232  1.00  0.00     0.072 C 
ATOM     13  N   UNL A   1      33.001  25.500  20.138  1.00  0.00    -0.198 NA
ENDBRANCH   6  12
ENDBRANCH   5   6
BRANCH   5  14
ATOM     14  O   UNL A   1      31.008  27.671  21.622  1.00  0.00    -0.380 OA
ATOM     15  H   UNL A   1      31.520  28.439  21.918  1.00  0.00     0.211 HD
ENDBRANCH   5  14
ENDBRANCH   3   5
ENDBRANCH   2   3
ENDBRANCH   1   2
BRANCH   1  16
ATOM     16  C   UNL A   1      32.552  30.086  25.620  1.00  0.00     0.275 C 
BRANCH  16  17
ATOM     17  O   UNL A   1      32.786  30.335  27.022  1.00  0.00    -0.458 OA
BRANCH  17  18
ATOM     18  C   UNL A   1      33.457  31.475  27.309  1.00  0.00     0.338 C 
ATOM     19  O   UNL A   1      33.024  32.618  27.275  1.00  0.00    -0.246 OA
BRANCH  18  20
ATOM     20  C   UNL A   1      34.781  31.164  27.868  1.00  0.00     0.060 A 
ATOM     21  C   UNL A   1      34.992  29.874  28.360  1.00  0.00     0.016 A 
ATOM     22  C   UNL A   1      35.763  32.138  28.021  1.00  0.00     0.016 A 
ATOM     23  C   UNL A   1      36.144  29.553  29.055  1.00  0.00     0.010 A 
ATOM     24  C   UNL A   1      36.949  31.807  28.686  1.00  0.00     0.010 A 
ATOM     25  C   UNL A   1      37.135  30.520  29.226  1.00  0.00    -0.014 A 
BRANCH  25  26
ATOM     26  C   UNL A   1      38.340  30.178  30.013  1.00  0.00     0.031 A 
ATOM     27  C   UNL A   1      39.373  29.264  29.427  1.00  0.00     0.074 A 
ATOM     28  C   UNL A   1      38.514  30.721  31.232  1.00  0.00     0.049 A 
ATOM     29  N   UNL A   1      40.438  28.751  29.986  1.00  0.00    -0.248 NA
ATOM     30  C   UNL A   1      39.178  28.867  28.023  1.00  0.00     0.031 C 
ATOM     31  C   UNL A   1      37.607  31.676  31.870  1.00  0.00     0.029 A 
ATOM     32  N   UNL A   1      39.511  30.540  32.156  1.00  0.00    -0.354 N 
ATOM     33  C   UNL A   1      41.021  27.946  29.016  1.00  0.00     0.074 A 
ATOM     34  C   UNL A   1      40.181  28.019  27.841  1.00  0.00     0.031 C 
ATOM     35  C   UNL A   1      38.089  32.000  33.079  1.00  0.00     0.029 A 
ATOM     36  C   UNL A   1      39.297  31.221  33.328  1.00  0.00     0.049 A 
ATOM     37  H   UNL A   1      40.303  29.978  31.994  1.00  0.00     0.167 HD
ATOM     38  C   UNL A   1      42.157  27.215  29.108  1.00  0.00     0.037 A 
ATOM     39  C   UNL A   1      39.975  31.185  34.490  1.00  0.00     0.037 A 
ATOM     40  C   UNL A   1      42.987  27.168  30.285  1.00  0.00     0.049 A 
ATOM     41  C   UNL A   1      41.188  30.300  34.590  1.00  0.00     0.074 A 
ATOM     42  C   UNL A   1      44.165  26.469  30.482  1.00  0.00     0.029 A 
ATOM     43  N   UNL A   1      42.720  27.843  31.468  1.00  0.00    -0.354 N 
ATOM     44  N   UNL A   1      41.732  29.533  33.676  1.00  0.00    -0.248 NA
ATOM     45  C   UNL A   1      41.880  30.274  35.885  1.00  0.00     0.031 C 
ATOM     46  C   UNL A   1      44.573  26.667  31.804  1.00  0.00     0.029 A 
ATOM     47  C   UNL A   1      43.694  27.552  32.409  1.00  0.00     0.049 A 
ATOM     48  H   UNL A   1      41.951  28.440  31.618  1.00  0.00     0.167 HD
ATOM     49  C   UNL A   1      42.849  28.963  34.271  1.00  0.00     0.074 A 
ATOM     50  C   UNL A   1      42.910  29.481  35.622  1.00  0.00     0.031 C 
ATOM     51  C   UNL A   1      43.744  28.090  33.746  1.00  0.00     0.037 A 
BRANCH  38  52
ATOM     52  C   UNL A   1      42.545  26.376  27.925  1.00  0.00     0.064 A 
ATOM     53  C   UNL A   1      42.033  25.085  27.725  1.00  0.00     0.173 A 
ATOM     54  C   UNL A   1      43.424  26.887  26.957  1.00  0.00     0.173 A 
ATOM     55  F   UNL A   1      41.201  24.541  28.626  1.00  0.00    -0.203 F 
ATOM     56  C   UNL A   1      42.410  24.327  26.618  1.00  0.00     0.198 A 
ATOM     57  C   UNL A   1      43.769  26.141  25.833  1.00  0.00     0.198 A 
ATOM     58  F   UNL A   1      43.942  28.117  27.095  1.00  0.00    -0.203 F 
ATOM     59  F   UNL A   1      41.951  23.076  26.478  1.00  0.00    -0.200 F 
ATOM     60  C   UNL A   1      43.270  24.859  25.669  1.00  0.00     0.200 A 
ATOM     61  F   UNL A   1      44.589  26.663  24.911  1.00  0.00    -0.200 F 
ATOM     62  F   UNL A   1      43.624  24.132  24.600  1.00  0.00    -0.200 F 
ENDBRANCH  38  52
BRANCH  39  63
ATOM     63  C   UNL A   1      39.506  31.984  35.652  1.00  0.00     0.064 A 
ATOM     64  C   UNL A   1      40.014  33.266  35.901  1.00  0.00     0.173 A 
ATOM     65  C   UNL A   1      38.548  31.479  36.546  1.00  0.00     0.173 A 
ATOM     66  F   UNL A   1      40.947  33.786  35.090  1.00  0.00    -0.203 F 
ATOM     67  C   UNL A   1      39.603  34.000  37.013  1.00  0.00     0.198 A 
ATOM     68  C   UNL A   1      38.112  32.228  37.635  1.00  0.00     0.198 A 
ATOM     69  F   UNL A   1      38.028  30.257  36.354  1.00  0.00    -0.203 F 
ATOM     70  F   UNL A   1      40.150  35.198  37.260  1.00  0.00    -0.200 F 
ATOM     71  C   UNL A   1      38.647  33.483  37.874  1.00  0.00     0.200 A 
ATOM     72  F   UNL A   1      37.176  31.730  38.456  1.00  0.00    -0.200 F 
ATOM     73  F   UNL A   1      38.253  34.190  38.942  1.00  0.00    -0.200 F 
ENDBRANCH  39  63
BRANCH  51  74
ATOM     74  C   UNL A   1      44.903  27.686  34.614  1.00  0.00     0.064 A 
ATOM     75  C   UNL A   1      46.091  28.429  34.662  1.00  0.00     0.173 A 
ATOM     76  C   UNL A   1      44.800  26.559  35.445  1.00  0.00     0.173 A 
ATOM     77  F   UNL A   1      46.246  29.507  33.878  1.00  0.00    -0.203 F 
ATOM     78  C   UNL A   1      47.145  28.042  35.485  1.00  0.00     0.198 A 
ATOM     79  C   UNL A   1      45.840  26.196  36.295  1.00  0.00     0.198 A 
ATOM     80  F   UNL A   1      43.682  25.817  35.444  1.00  0.00    -0.203 F 
ATOM     81  F   UNL A   1      48.292  28.735  35.473  1.00  0.00    -0.200 F 
ATOM     82  C   UNL A   1      47.015  26.933  36.307  1.00  0.00     0.200 A 
ATOM     83  F   UNL A   1      45.704  25.137  37.103  1.00  0.00    -0.200 F 
ATOM     84  F   UNL A   1      48.026  26.570  37.110  1.00  0.00    -0.200 F 
ENDBRANCH  51  74
ENDBRANCH  25  26
ENDBRANCH  18  20
ENDBRANCH  17  18
ENDBRANCH  16  17
ENDBRANCH   1  16
TORSDOF 14
ENDMDL
