MODEL 1
REMARK VINA RESULT:     -14.2      0.000      0.000
REMARK SMILES Cc1nccn1C1(C(=O)OCCOC(=O)c2ccc(-c3c4nc(c(-c5c(F)c(F)c(F)c(F)c5F)c5ccc([nH]5)c(-c5c(F)c(F)c(F)c(F)c5F)c5nc(c(-c6c(F)c(F)c(F)c(F)c6F)c6ccc3[nH]6)C=C5)C=C4)cc2)CCN(C(=O)[C@@H]2C[C@H]2c2ccccc2)CC1
REMARK SMILES IDX 11 1 10 2 8 3 9 4 7 5 79 6 94 7 80 8 93 9 81 10 82 11 83 12
REMARK SMILES IDX 6 13 1 14 2 15 3 16 4 17 5 18 84 19 85 20 86 21 87 22 88 23
REMARK SMILES IDX 92 24 89 25 91 26 90 27 12 28 13 29 14 30 15 31 16 32 17 33
REMARK SMILES IDX 78 34 18 35 77 36 19 37 20 38 21 39 71 40 22 41 76 42 70 43
REMARK SMILES IDX 72 44 23 45 75 46 69 47 68 48 24 50 56 51 36 52 55 53 37 54
REMARK SMILES IDX 40 55 54 56 73 57 38 58 39 59 53 61 74 62 41 63 25 64 26 65
REMARK SMILES IDX 34 66 27 67 28 68 32 69 35 70 29 71 30 72 33 73 31 74 57 75
REMARK SMILES IDX 58 76 66 77 59 78 60 79 64 80 67 81 61 82 62 83 65 84 63 85
REMARK SMILES IDX 42 86 43 87 51 88 44 89 45 90 49 91 52 92 46 93 47 94 50 95
REMARK SMILES IDX 48 96
REMARK H PARENT 72 49 40 60
REMARK Flexibility Score: inf
ROOT
ATOM      1  C   UNL A   1      32.581  28.848  27.206  1.00  0.00     0.274 C 
ENDROOT
BRANCH   1   2
ATOM      2  O   UNL A   1      31.609  28.558  26.180  1.00  0.00    -0.460 OA
BRANCH   2   3
ATOM      3  C   UNL A   1      31.376  27.243  25.899  1.00  0.00     0.332 C 
ATOM      4  O   UNL A   1      31.190  26.423  26.797  1.00  0.00    -0.249 OA
BRANCH   3   5
ATOM      5  C   UNL A   1      31.521  26.864  24.371  1.00  0.00     0.146 C 
ATOM      6  C   UNL A   1      33.009  26.920  23.898  1.00  0.00     0.062 C 
ATOM      7  C   UNL A   1      30.965  25.412  24.413  1.00  0.00     0.062 C 
ATOM      8  C   UNL A   1      33.524  25.791  22.999  1.00  0.00     0.122 C 
ATOM      9  C   UNL A   1      31.411  24.592  23.229  1.00  0.00     0.122 C 
ATOM     10  N   UNL A   1      32.861  24.517  23.233  1.00  0.00    -0.342 N 
ATOM     11  C   UNL A   1      33.660  23.375  23.344  1.00  0.00     0.226 C 
ATOM     12  O   UNL A   1      34.836  23.391  22.988  1.00  0.00    -0.275 OA
BRANCH   5  13
ATOM     13  N   UNL A   1      30.628  27.720  23.507  1.00  0.00    -0.318 N 
ATOM     14  C   UNL A   1      28.190  26.787  23.759  1.00  0.00     0.087 C 
ATOM     15  C   UNL A   1      29.232  27.789  23.407  1.00  0.00     0.106 A 
ATOM     16  N   UNL A   1      28.864  28.905  22.803  1.00  0.00    -0.242 NA
ATOM     17  C   UNL A   1      29.990  29.480  22.327  1.00  0.00     0.131 A 
ATOM     18  C   UNL A   1      31.078  28.727  22.671  1.00  0.00     0.108 A 
ENDBRANCH   5  13
BRANCH  11  19
ATOM     19  C   UNL A   1      33.183  22.100  23.973  1.00  0.00     0.087 C 
ATOM     20  C   UNL A   1      33.374  21.837  25.445  1.00  0.00     0.023 C 
ATOM     21  C   UNL A   1      34.040  20.952  24.419  1.00  0.00     0.032 C 
BRANCH  21  22
ATOM     22  C   UNL A   1      33.717  19.503  24.265  1.00  0.00    -0.044 A 
ATOM     23  C   UNL A   1      34.667  18.543  24.651  1.00  0.00     0.004 A 
ATOM     24  C   UNL A   1      32.650  19.091  23.453  1.00  0.00     0.004 A 
ATOM     25  C   UNL A   1      34.609  17.239  24.165  1.00  0.00     0.000 A 
ATOM     26  C   UNL A   1      32.588  17.785  22.966  1.00  0.00     0.000 A 
ATOM     27  C   UNL A   1      33.581  16.868  23.303  1.00  0.00     0.000 A 
ENDBRANCH  21  22
ENDBRANCH  11  19
ENDBRANCH   3   5
ENDBRANCH   2   3
ENDBRANCH   1   2
BRANCH   1  28
ATOM     28  C   UNL A   1      32.933  30.333  27.219  1.00  0.00     0.275 C 
BRANCH  28  29
ATOM     29  O   UNL A   1      34.293  30.588  26.843  1.00  0.00    -0.458 OA
BRANCH  29  30
ATOM     30  C   UNL A   1      34.943  31.423  27.682  1.00  0.00     0.338 C 
ATOM     31  O   UNL A   1      34.772  32.622  27.807  1.00  0.00    -0.246 OA
BRANCH  30  32
ATOM     32  C   UNL A   1      36.071  30.749  28.327  1.00  0.00     0.060 A 
ATOM     33  C   UNL A   1      37.078  31.566  28.849  1.00  0.00     0.016 A 
ATOM     34  C   UNL A   1      36.247  29.370  28.169  1.00  0.00     0.016 A 
ATOM     35  C   UNL A   1      38.318  31.015  29.096  1.00  0.00     0.010 A 
ATOM     36  C   UNL A   1      37.486  28.819  28.429  1.00  0.00     0.010 A 
ATOM     37  C   UNL A   1      38.529  29.656  28.830  1.00  0.00    -0.014 A 
BRANCH  37  38
ATOM     38  C   UNL A   1      39.870  29.140  29.045  1.00  0.00     0.031 A 
ATOM     39  C   UNL A   1      40.244  28.911  30.465  1.00  0.00     0.074 A 
ATOM     40  C   UNL A   1      40.693  28.780  28.043  1.00  0.00     0.049 A 
ATOM     41  N   UNL A   1      41.268  29.367  31.110  1.00  0.00    -0.248 NA
ATOM     42  C   UNL A   1      39.316  28.117  31.286  1.00  0.00     0.031 C 
ATOM     43  C   UNL A   1      40.397  28.671  26.614  1.00  0.00     0.029 A 
ATOM     44  N   UNL A   1      41.972  28.323  28.136  1.00  0.00    -0.354 N 
ATOM     45  C   UNL A   1      41.189  28.823  32.388  1.00  0.00     0.074 A 
ATOM     46  C   UNL A   1      39.928  28.129  32.468  1.00  0.00     0.031 C 
ATOM     47  C   UNL A   1      41.388  27.975  26.012  1.00  0.00     0.029 A 
ATOM     48  C   UNL A   1      42.433  27.707  26.987  1.00  0.00     0.049 A 
ATOM     49  H   UNL A   1      42.520  28.424  28.948  1.00  0.00     0.167 HD
ATOM     50  C   UNL A   1      42.236  28.845  33.255  1.00  0.00     0.037 A 
ATOM     51  C   UNL A   1      43.556  26.960  26.875  1.00  0.00     0.037 A 
ATOM     52  C   UNL A   1      43.203  29.848  32.917  1.00  0.00     0.049 A 
ATOM     53  C   UNL A   1      44.447  27.296  28.013  1.00  0.00     0.074 A 
ATOM     54  C   UNL A   1      43.170  31.227  32.820  1.00  0.00     0.029 A 
ATOM     55  N   UNL A   1      44.372  29.467  32.307  1.00  0.00    -0.354 N 
ATOM     56  N   UNL A   1      45.080  28.429  28.142  1.00  0.00    -0.248 NA
ATOM     57  C   UNL A   1      44.334  26.504  29.229  1.00  0.00     0.031 C 
ATOM     58  C   UNL A   1      44.054  31.547  31.748  1.00  0.00     0.029 A 
ATOM     59  C   UNL A   1      44.578  30.346  31.274  1.00  0.00     0.049 A 
ATOM     60  H   UNL A   1      44.948  28.712  32.561  1.00  0.00     0.167 HD
ATOM     61  C   UNL A   1      45.075  28.682  29.505  1.00  0.00     0.074 A 
ATOM     62  C   UNL A   1      44.709  27.416  30.129  1.00  0.00     0.031 C 
ATOM     63  C   UNL A   1      45.097  29.959  29.985  1.00  0.00     0.037 A 
BRANCH  50  64
ATOM     64  C   UNL A   1      42.505  27.761  34.259  1.00  0.00     0.064 A 
ATOM     65  C   UNL A   1      43.186  26.594  33.869  1.00  0.00     0.173 A 
ATOM     66  C   UNL A   1      41.869  27.713  35.518  1.00  0.00     0.173 A 
ATOM     67  F   UNL A   1      43.793  26.524  32.675  1.00  0.00    -0.203 F 
ATOM     68  C   UNL A   1      43.189  25.445  34.664  1.00  0.00     0.198 A 
ATOM     69  C   UNL A   1      41.916  26.584  36.331  1.00  0.00     0.198 A 
ATOM     70  F   UNL A   1      41.092  28.714  35.953  1.00  0.00    -0.203 F 
ATOM     71  F   UNL A   1      43.755  24.320  34.207  1.00  0.00    -0.200 F 
ATOM     72  C   UNL A   1      42.552  25.440  35.893  1.00  0.00     0.200 A 
ATOM     73  F   UNL A   1      41.276  26.591  37.509  1.00  0.00    -0.200 F 
ATOM     74  F   UNL A   1      42.508  24.324  36.632  1.00  0.00    -0.200 F 
ENDBRANCH  50  64
BRANCH  51  75
ATOM     75  C   UNL A   1      43.792  25.799  25.991  1.00  0.00     0.064 A 
ATOM     76  C   UNL A   1      45.038  25.590  25.383  1.00  0.00     0.173 A 
ATOM     77  C   UNL A   1      42.872  24.733  25.923  1.00  0.00     0.173 A 
ATOM     78  F   UNL A   1      45.986  26.536  25.446  1.00  0.00    -0.203 F 
ATOM     79  C   UNL A   1      45.352  24.381  24.756  1.00  0.00     0.198 A 
ATOM     80  C   UNL A   1      43.182  23.532  25.285  1.00  0.00     0.198 A 
ATOM     81  F   UNL A   1      41.691  24.798  26.552  1.00  0.00    -0.203 F 
ATOM     82  F   UNL A   1      46.574  24.196  24.237  1.00  0.00    -0.200 F 
ATOM     83  C   UNL A   1      44.426  23.352  24.713  1.00  0.00     0.200 A 
ATOM     84  F   UNL A   1      42.287  22.533  25.279  1.00  0.00    -0.200 F 
ATOM     85  F   UNL A   1      44.745  22.175  24.157  1.00  0.00    -0.200 F 
ENDBRANCH  51  75
BRANCH  63  86
ATOM     86  C   UNL A   1      45.401  31.062  29.013  1.00  0.00     0.064 A 
ATOM     87  C   UNL A   1      46.700  31.536  28.763  1.00  0.00     0.173 A 
ATOM     88  C   UNL A   1      44.364  31.564  28.216  1.00  0.00     0.173 A 
ATOM     89  F   UNL A   1      47.757  31.023  29.405  1.00  0.00    -0.203 F 
ATOM     90  C   UNL A   1      46.938  32.513  27.798  1.00  0.00     0.198 A 
ATOM     91  C   UNL A   1      44.610  32.512  27.227  1.00  0.00     0.198 A 
ATOM     92  F   UNL A   1      43.113  31.099  28.367  1.00  0.00    -0.203 F 
ATOM     93  F   UNL A   1      48.184  32.965  27.591  1.00  0.00    -0.200 F 
ATOM     94  C   UNL A   1      45.893  32.996  27.028  1.00  0.00     0.200 A 
ATOM     95  F   UNL A   1      43.607  32.939  26.448  1.00  0.00    -0.200 F 
ATOM     96  F   UNL A   1      46.128  33.909  26.075  1.00  0.00    -0.200 F 
ENDBRANCH  63  86
ENDBRANCH  37  38
ENDBRANCH  30  32
ENDBRANCH  29  30
ENDBRANCH  28  29
ENDBRANCH   1  28
TORSDOF 14
ENDMDL
MODEL 2
REMARK VINA RESULT:     -13.9      2.886      9.074
REMARK SMILES Cc1nccn1C1(C(=O)OCCOC(=O)c2ccc(-c3c4nc(c(-c5c(F)c(F)c(F)c(F)c5F)c5ccc([nH]5)c(-c5c(F)c(F)c(F)c(F)c5F)c5nc(c(-c6c(F)c(F)c(F)c(F)c6F)c6ccc3[nH]6)C=C5)C=C4)cc2)CCN(C(=O)[C@@H]2C[C@H]2c2ccccc2)CC1
REMARK SMILES IDX 11 1 10 2 8 3 9 4 7 5 79 6 94 7 80 8 93 9 81 10 82 11 83 12
REMARK SMILES IDX 6 13 1 14 2 15 3 16 4 17 5 18 84 19 85 20 86 21 87 22 88 23
REMARK SMILES IDX 92 24 89 25 91 26 90 27 12 28 13 29 14 30 15 31 16 32 17 33
REMARK SMILES IDX 78 34 18 35 77 36 19 37 20 38 21 39 71 40 22 41 76 42 70 43
REMARK SMILES IDX 72 44 23 45 75 46 69 47 68 48 24 50 56 51 36 52 55 53 37 54
REMARK SMILES IDX 40 55 54 56 73 57 38 58 39 59 53 61 74 62 41 63 25 64 26 65
REMARK SMILES IDX 34 66 27 67 28 68 32 69 35 70 29 71 30 72 33 73 31 74 57 75
REMARK SMILES IDX 58 76 66 77 59 78 60 79 64 80 67 81 61 82 62 83 65 84 63 85
REMARK SMILES IDX 42 86 43 87 51 88 44 89 45 90 49 91 52 92 46 93 47 94 50 95
REMARK SMILES IDX 48 96
REMARK H PARENT 72 49 40 60
REMARK Flexibility Score: inf
ROOT
ATOM      1  C   UNL A   1      36.625  21.036  24.994  1.00  0.00     0.274 C 
ENDROOT
BRANCH   1   2
ATOM      2  O   UNL A   1      35.931  22.297  25.105  1.00  0.00    -0.460 OA
BRANCH   2   3
ATOM      3  C   UNL A   1      34.918  22.527  24.220  1.00  0.00     0.332 C 
ATOM      4  O   UNL A   1      35.145  22.954  23.090  1.00  0.00    -0.249 OA
BRANCH   3   5
ATOM      5  C   UNL A   1      33.468  22.346  24.825  1.00  0.00     0.146 C 
ATOM      6  C   UNL A   1      33.361  22.951  26.262  1.00  0.00     0.062 C 
ATOM      7  C   UNL A   1      32.651  23.156  23.778  1.00  0.00     0.062 C 
ATOM      8  C   UNL A   1      32.110  23.766  26.611  1.00  0.00     0.122 C 
ATOM      9  C   UNL A   1      31.312  23.598  24.311  1.00  0.00     0.122 C 
ATOM     10  N   UNL A   1      31.528  24.450  25.466  1.00  0.00    -0.342 N 
ATOM     11  C   UNL A   1      31.165  25.792  25.621  1.00  0.00     0.226 C 
ATOM     12  O   UNL A   1      31.080  26.296  26.739  1.00  0.00    -0.275 OA
BRANCH   5  13
ATOM     13  N   UNL A   1      33.036  20.902  24.793  1.00  0.00    -0.318 N 
ATOM     14  C   UNL A   1      32.153  20.417  22.372  1.00  0.00     0.087 C 
ATOM     15  C   UNL A   1      32.666  20.073  23.724  1.00  0.00     0.106 A 
ATOM     16  N   UNL A   1      32.709  18.802  24.086  1.00  0.00    -0.242 NA
ATOM     17  C   UNL A   1      32.907  18.784  25.422  1.00  0.00     0.131 A 
ATOM     18  C   UNL A   1      33.025  20.062  25.893  1.00  0.00     0.108 A 
ENDBRANCH   5  13
BRANCH  11  19
ATOM     19  C   UNL A   1      30.945  26.720  24.465  1.00  0.00     0.087 C 
ATOM     20  C   UNL A   1      32.057  27.593  23.943  1.00  0.00     0.023 C 
ATOM     21  C   UNL A   1      30.813  28.212  24.534  1.00  0.00     0.032 C 
BRANCH  21  22
ATOM     22  C   UNL A   1      29.866  29.049  23.738  1.00  0.00    -0.044 A 
ATOM     23  C   UNL A   1      29.902  30.445  23.875  1.00  0.00     0.004 A 
ATOM     24  C   UNL A   1      28.744  28.470  23.126  1.00  0.00     0.004 A 
ATOM     25  C   UNL A   1      28.815  31.232  23.502  1.00  0.00     0.000 A 
ATOM     26  C   UNL A   1      27.654  29.256  22.750  1.00  0.00     0.000 A 
ATOM     27  C   UNL A   1      27.681  30.633  22.962  1.00  0.00     0.000 A 
ENDBRANCH  21  22
ENDBRANCH  11  19
ENDBRANCH   3   5
ENDBRANCH   2   3
ENDBRANCH   1   2
BRANCH   1  28
ATOM     28  C   UNL A   1      38.101  21.193  25.356  1.00  0.00     0.275 C 
BRANCH  28  29
ATOM     29  O   UNL A   1      38.364  22.372  26.127  1.00  0.00    -0.458 OA
BRANCH  29  30
ATOM     30  C   UNL A   1      39.580  22.378  26.717  1.00  0.00     0.338 C 
ATOM     31  O   UNL A   1      40.181  21.424  27.174  1.00  0.00    -0.246 OA
BRANCH  30  32
ATOM     32  C   UNL A   1      40.050  23.745  26.939  1.00  0.00     0.060 A 
ATOM     33  C   UNL A   1      41.116  23.908  27.828  1.00  0.00     0.016 A 
ATOM     34  C   UNL A   1      39.283  24.830  26.501  1.00  0.00     0.016 A 
ATOM     35  C   UNL A   1      41.337  25.152  28.381  1.00  0.00     0.010 A 
ATOM     36  C   UNL A   1      39.514  26.078  27.047  1.00  0.00     0.010 A 
ATOM     37  C   UNL A   1      40.497  26.216  28.029  1.00  0.00    -0.014 A 
BRANCH  37  38
ATOM     38  C   UNL A   1      40.730  27.490  28.687  1.00  0.00     0.031 A 
ATOM     39  C   UNL A   1      41.931  28.235  28.226  1.00  0.00     0.074 A 
ATOM     40  C   UNL A   1      39.875  28.031  29.574  1.00  0.00     0.049 A 
ATOM     41  N   UNL A   1      42.914  28.692  28.933  1.00  0.00    -0.248 NA
ATOM     42  C   UNL A   1      42.080  28.441  26.778  1.00  0.00     0.031 C 
ATOM     43  C   UNL A   1      38.528  27.584  29.933  1.00  0.00     0.029 A 
ATOM     44  N   UNL A   1      40.016  29.192  30.270  1.00  0.00    -0.354 N 
ATOM     45  C   UNL A   1      43.751  29.354  28.040  1.00  0.00     0.074 A 
ATOM     46  C   UNL A   1      43.236  29.099  26.719  1.00  0.00     0.031 C 
ATOM     47  C   UNL A   1      37.900  28.575  30.603  1.00  0.00     0.029 A 
ATOM     48  C   UNL A   1      38.840  29.663  30.824  1.00  0.00     0.049 A 
ATOM     49  H   UNL A   1      40.880  29.656  30.370  1.00  0.00     0.167 HD
ATOM     50  C   UNL A   1      44.731  30.201  28.452  1.00  0.00     0.037 A 
ATOM     51  C   UNL A   1      38.639  30.892  31.351  1.00  0.00     0.037 A 
ATOM     52  C   UNL A   1      45.103  29.979  29.820  1.00  0.00     0.049 A 
ATOM     53  C   UNL A   1      39.964  31.474  31.681  1.00  0.00     0.074 A 
ATOM     54  C   UNL A   1      45.644  28.912  30.512  1.00  0.00     0.029 A 
ATOM     55  N   UNL A   1      44.649  30.846  30.781  1.00  0.00    -0.354 N 
ATOM     56  N   UNL A   1      40.727  31.059  32.653  1.00  0.00    -0.248 NA
ATOM     57  C   UNL A   1      40.628  32.283  30.669  1.00  0.00     0.031 C 
ATOM     58  C   UNL A   1      45.052  28.969  31.808  1.00  0.00     0.029 A 
ATOM     59  C   UNL A   1      44.204  30.075  31.824  1.00  0.00     0.049 A 
ATOM     60  H   UNL A   1      44.645  31.829  30.732  1.00  0.00     0.167 HD
ATOM     61  C   UNL A   1      42.020  31.196  32.168  1.00  0.00     0.074 A 
ATOM     62  C   UNL A   1      41.901  32.057  30.998  1.00  0.00     0.031 C 
ATOM     63  C   UNL A   1      43.023  30.377  32.597  1.00  0.00     0.037 A 
BRANCH  50  64
ATOM     64  C   UNL A   1      45.159  31.414  27.679  1.00  0.00     0.064 A 
ATOM     65  C   UNL A   1      46.468  31.501  27.171  1.00  0.00     0.173 A 
ATOM     66  C   UNL A   1      44.411  32.611  27.665  1.00  0.00     0.173 A 
ATOM     67  F   UNL A   1      47.273  30.428  27.172  1.00  0.00    -0.203 F 
ATOM     68  C   UNL A   1      47.003  32.712  26.725  1.00  0.00     0.198 A 
ATOM     69  C   UNL A   1      44.930  33.805  27.172  1.00  0.00     0.198 A 
ATOM     70  F   UNL A   1      43.196  32.689  28.225  1.00  0.00    -0.203 F 
ATOM     71  F   UNL A   1      48.288  32.774  26.352  1.00  0.00    -0.200 F 
ATOM     72  C   UNL A   1      46.235  33.863  26.728  1.00  0.00     0.200 A 
ATOM     73  F   UNL A   1      44.178  34.914  27.203  1.00  0.00    -0.200 F 
ATOM     74  F   UNL A   1      46.764  35.034  26.352  1.00  0.00    -0.200 F 
ENDBRANCH  50  64
BRANCH  51  75
ATOM     75  C   UNL A   1      37.393  31.689  31.353  1.00  0.00     0.064 A 
ATOM     76  C   UNL A   1      36.673  31.908  32.535  1.00  0.00     0.173 A 
ATOM     77  C   UNL A   1      37.020  32.463  30.235  1.00  0.00     0.173 A 
ATOM     78  F   UNL A   1      36.998  31.248  33.656  1.00  0.00    -0.203 F 
ATOM     79  C   UNL A   1      35.646  32.855  32.601  1.00  0.00     0.198 A 
ATOM     80  C   UNL A   1      35.986  33.397  30.298  1.00  0.00     0.198 A 
ATOM     81  F   UNL A   1      37.707  32.395  29.087  1.00  0.00    -0.203 F 
ATOM     82  F   UNL A   1      35.018  33.078  33.763  1.00  0.00    -0.200 F 
ATOM     83  C   UNL A   1      35.308  33.601  31.484  1.00  0.00     0.200 A 
ATOM     84  F   UNL A   1      35.692  34.136  29.219  1.00  0.00    -0.200 F 
ATOM     85  F   UNL A   1      34.359  34.545  31.561  1.00  0.00    -0.200 F 
ENDBRANCH  51  75
BRANCH  63  86
ATOM     86  C   UNL A   1      42.754  29.515  33.795  1.00  0.00     0.064 A 
ATOM     87  C   UNL A   1      42.066  28.291  33.729  1.00  0.00     0.173 A 
ATOM     88  C   UNL A   1      43.322  29.872  35.025  1.00  0.00     0.173 A 
ATOM     89  F   UNL A   1      41.593  27.828  32.565  1.00  0.00    -0.203 F 
ATOM     90  C   UNL A   1      41.903  27.492  34.859  1.00  0.00     0.198 A 
ATOM     91  C   UNL A   1      43.190  29.053  36.144  1.00  0.00     0.198 A 
ATOM     92  F   UNL A   1      44.045  30.998  35.131  1.00  0.00    -0.203 F 
ATOM     93  F   UNL A   1      41.225  26.337  34.775  1.00  0.00    -0.200 F 
ATOM     94  C   UNL A   1      42.470  27.872  36.064  1.00  0.00     0.200 A 
ATOM     95  F   UNL A   1      43.784  29.397  37.295  1.00  0.00    -0.200 F 
ATOM     96  F   UNL A   1      42.346  27.086  37.142  1.00  0.00    -0.200 F 
ENDBRANCH  63  86
ENDBRANCH  37  38
ENDBRANCH  30  32
ENDBRANCH  29  30
ENDBRANCH  28  29
ENDBRANCH   1  28
TORSDOF 14
ENDMDL
MODEL 3
REMARK VINA RESULT:     -13.8      2.943      9.038
REMARK SMILES Cc1nccn1C1(C(=O)OCCOC(=O)c2ccc(-c3c4nc(c(-c5c(F)c(F)c(F)c(F)c5F)c5ccc([nH]5)c(-c5c(F)c(F)c(F)c(F)c5F)c5nc(c(-c6c(F)c(F)c(F)c(F)c6F)c6ccc3[nH]6)C=C5)C=C4)cc2)CCN(C(=O)[C@@H]2C[C@H]2c2ccccc2)CC1
REMARK SMILES IDX 11 1 10 2 8 3 9 4 7 5 79 6 94 7 80 8 93 9 81 10 82 11 83 12
REMARK SMILES IDX 6 13 1 14 2 15 3 16 4 17 5 18 84 19 85 20 86 21 87 22 88 23
REMARK SMILES IDX 92 24 89 25 91 26 90 27 12 28 13 29 14 30 15 31 16 32 17 33
REMARK SMILES IDX 78 34 18 35 77 36 19 37 20 38 21 39 71 40 22 41 76 42 70 43
REMARK SMILES IDX 72 44 23 45 75 46 69 47 68 48 24 50 56 51 36 52 55 53 37 54
REMARK SMILES IDX 40 55 54 56 73 57 38 58 39 59 53 61 74 62 41 63 25 64 26 65
REMARK SMILES IDX 34 66 27 67 28 68 32 69 35 70 29 71 30 72 33 73 31 74 57 75
REMARK SMILES IDX 58 76 66 77 59 78 60 79 64 80 67 81 61 82 62 83 65 84 63 85
REMARK SMILES IDX 42 86 43 87 51 88 44 89 45 90 49 91 52 92 46 93 47 94 50 95
REMARK SMILES IDX 48 96
REMARK H PARENT 72 49 40 60
REMARK Flexibility Score: inf
ROOT
ATOM      1  C   UNL A   1      36.577  21.269  24.913  1.00  0.00     0.274 C 
ENDROOT
BRANCH   1   2
ATOM      2  O   UNL A   1      35.798  22.367  25.432  1.00  0.00    -0.460 OA
BRANCH   2   3
ATOM      3  C   UNL A   1      34.692  22.052  26.167  1.00  0.00     0.332 C 
ATOM      4  O   UNL A   1      34.789  21.455  27.238  1.00  0.00    -0.249 OA
BRANCH   3   5
ATOM      5  C   UNL A   1      33.319  22.376  25.454  1.00  0.00     0.146 C 
ATOM      6  C   UNL A   1      32.165  22.585  26.487  1.00  0.00     0.062 C 
ATOM      7  C   UNL A   1      33.712  23.695  24.729  1.00  0.00     0.062 C 
ATOM      8  C   UNL A   1      31.192  23.748  26.257  1.00  0.00     0.122 C 
ATOM      9  C   UNL A   1      32.512  24.527  24.358  1.00  0.00     0.122 C 
ATOM     10  N   UNL A   1      31.796  24.880  25.571  1.00  0.00    -0.342 N 
ATOM     11  C   UNL A   1      31.557  26.159  26.084  1.00  0.00     0.226 C 
ATOM     12  O   UNL A   1      30.661  26.352  26.903  1.00  0.00    -0.275 OA
BRANCH   5  13
ATOM     13  N   UNL A   1      32.970  21.325  24.431  1.00  0.00    -0.318 N 
ATOM     14  C   UNL A   1      32.920  19.021  25.682  1.00  0.00     0.087 C 
ATOM     15  C   UNL A   1      32.631  19.972  24.576  1.00  0.00     0.106 A 
ATOM     16  N   UNL A   1      32.058  19.516  23.476  1.00  0.00    -0.242 NA
ATOM     17  C   UNL A   1      32.189  20.481  22.540  1.00  0.00     0.131 A 
ATOM     18  C   UNL A   1      32.822  21.567  23.076  1.00  0.00     0.108 A 
ENDBRANCH   5  13
BRANCH  11  19
ATOM     19  C   UNL A   1      32.409  27.347  25.753  1.00  0.00     0.087 C 
ATOM     20  C   UNL A   1      33.711  27.191  25.009  1.00  0.00     0.023 C 
ATOM     21  C   UNL A   1      33.697  27.732  26.418  1.00  0.00     0.032 C 
BRANCH  21  22
ATOM     22  C   UNL A   1      34.130  29.120  26.759  1.00  0.00    -0.044 A 
ATOM     23  C   UNL A   1      35.353  29.315  27.419  1.00  0.00     0.004 A 
ATOM     24  C   UNL A   1      33.211  30.180  26.736  1.00  0.00     0.004 A 
ATOM     25  C   UNL A   1      35.614  30.492  28.117  1.00  0.00     0.000 A 
ATOM     26  C   UNL A   1      33.470  31.362  27.432  1.00  0.00     0.000 A 
ATOM     27  C   UNL A   1      34.660  31.506  28.142  1.00  0.00     0.000 A 
ENDBRANCH  21  22
ENDBRANCH  11  19
ENDBRANCH   3   5
ENDBRANCH   2   3
ENDBRANCH   1   2
BRANCH   1  28
ATOM     28  C   UNL A   1      38.014  21.330  25.425  1.00  0.00     0.275 C 
BRANCH  28  29
ATOM     29  O   UNL A   1      38.277  22.499  26.211  1.00  0.00    -0.458 OA
BRANCH  29  30
ATOM     30  C   UNL A   1      39.495  22.501  26.796  1.00  0.00     0.338 C 
ATOM     31  O   UNL A   1      40.098  21.544  27.244  1.00  0.00    -0.246 OA
BRANCH  30  32
ATOM     32  C   UNL A   1      39.966  23.867  27.027  1.00  0.00     0.060 A 
ATOM     33  C   UNL A   1      41.101  24.014  27.829  1.00  0.00     0.016 A 
ATOM     34  C   UNL A   1      39.152  24.955  26.694  1.00  0.00     0.016 A 
ATOM     35  C   UNL A   1      41.353  25.242  28.405  1.00  0.00     0.010 A 
ATOM     36  C   UNL A   1      39.413  26.186  27.263  1.00  0.00     0.010 A 
ATOM     37  C   UNL A   1      40.474  26.305  28.163  1.00  0.00    -0.014 A 
BRANCH  37  38
ATOM     38  C   UNL A   1      40.747  27.558  28.844  1.00  0.00     0.031 A 
ATOM     39  C   UNL A   1      41.942  28.299  28.362  1.00  0.00     0.074 A 
ATOM     40  C   UNL A   1      39.929  28.088  29.772  1.00  0.00     0.049 A 
ATOM     41  N   UNL A   1      42.954  28.724  29.047  1.00  0.00    -0.248 NA
ATOM     42  C   UNL A   1      42.046  28.539  26.915  1.00  0.00     0.031 C 
ATOM     43  C   UNL A   1      38.588  27.650  30.165  1.00  0.00     0.029 A 
ATOM     44  N   UNL A   1      40.110  29.230  30.492  1.00  0.00    -0.354 N 
ATOM     45  C   UNL A   1      43.771  29.397  28.144  1.00  0.00     0.074 A 
ATOM     46  C   UNL A   1      43.209  29.183  26.834  1.00  0.00     0.031 C 
ATOM     47  C   UNL A   1      37.997  28.632  30.880  1.00  0.00     0.029 A 
ATOM     48  C   UNL A   1      38.959  29.701  31.096  1.00  0.00     0.049 A 
ATOM     49  H   UNL A   1      40.982  29.679  30.575  1.00  0.00     0.167 HD
ATOM     50  C   UNL A   1      44.776  30.220  28.544  1.00  0.00     0.037 A 
ATOM     51  C   UNL A   1      38.793  30.919  31.661  1.00  0.00     0.037 A 
ATOM     52  C   UNL A   1      45.189  29.959  29.893  1.00  0.00     0.049 A 
ATOM     53  C   UNL A   1      40.136  31.475  31.960  1.00  0.00     0.074 A 
ATOM     54  C   UNL A   1      45.738  28.868  30.540  1.00  0.00     0.029 A 
ATOM     55  N   UNL A   1      44.780  30.808  30.890  1.00  0.00    -0.354 N 
ATOM     56  N   UNL A   1      40.925  31.026  32.896  1.00  0.00    -0.248 NA
ATOM     57  C   UNL A   1      40.777  32.300  30.947  1.00  0.00     0.031 C 
ATOM     58  C   UNL A   1      45.190  28.900  31.856  1.00  0.00     0.029 A 
ATOM     59  C   UNL A   1      44.358  30.017  31.928  1.00  0.00     0.049 A 
ATOM     60  H   UNL A   1      44.788  31.792  30.865  1.00  0.00     0.167 HD
ATOM     61  C   UNL A   1      42.203  31.158  32.372  1.00  0.00     0.074 A 
ATOM     62  C   UNL A   1      42.058  32.049  31.228  1.00  0.00     0.031 C 
ATOM     63  C   UNL A   1      43.208  30.315  32.746  1.00  0.00     0.037 A 
BRANCH  50  64
ATOM     64  C   UNL A   1      45.194  31.447  27.788  1.00  0.00     0.064 A 
ATOM     65  C   UNL A   1      46.469  31.509  27.195  1.00  0.00     0.173 A 
ATOM     66  C   UNL A   1      44.491  32.668  27.866  1.00  0.00     0.173 A 
ATOM     67  F   UNL A   1      47.234  30.411  27.104  1.00  0.00    -0.203 F 
ATOM     68  C   UNL A   1      47.017  32.717  26.757  1.00  0.00     0.198 A 
ATOM     69  C   UNL A   1      45.019  33.862  27.382  1.00  0.00     0.198 A 
ATOM     70  F   UNL A   1      43.320  32.766  28.510  1.00  0.00    -0.203 F 
ATOM     71  F   UNL A   1      48.277  32.750  26.301  1.00  0.00    -0.200 F 
ATOM     72  C   UNL A   1      46.293  33.893  26.853  1.00  0.00     0.200 A 
ATOM     73  F   UNL A   1      44.311  34.994  27.503  1.00  0.00    -0.200 F 
ATOM     74  F   UNL A   1      46.838  35.059  26.484  1.00  0.00    -0.200 F 
ENDBRANCH  50  64
BRANCH  51  75
ATOM     75  C   UNL A   1      37.559  31.733  31.723  1.00  0.00     0.064 A 
ATOM     76  C   UNL A   1      36.885  31.937  32.935  1.00  0.00     0.173 A 
ATOM     77  C   UNL A   1      37.156  32.534  30.636  1.00  0.00     0.173 A 
ATOM     78  F   UNL A   1      37.242  31.251  34.031  1.00  0.00    -0.203 F 
ATOM     79  C   UNL A   1      35.874  32.896  33.057  1.00  0.00     0.198 A 
ATOM     80  C   UNL A   1      36.139  33.480  30.755  1.00  0.00     0.198 A 
ATOM     81  F   UNL A   1      37.800  32.480  29.462  1.00  0.00    -0.203 F 
ATOM     82  F   UNL A   1      35.293  33.104  34.246  1.00  0.00    -0.200 F 
ATOM     83  C   UNL A   1      35.507  33.669  31.969  1.00  0.00     0.200 A 
ATOM     84  F   UNL A   1      35.816  34.244  29.702  1.00  0.00    -0.200 F 
ATOM     85  F   UNL A   1      34.575  34.624  32.099  1.00  0.00    -0.200 F 
ENDBRANCH  51  75
BRANCH  63  86
ATOM     86  C   UNL A   1      42.966  29.426  33.931  1.00  0.00     0.064 A 
ATOM     87  C   UNL A   1      42.289  28.197  33.851  1.00  0.00     0.173 A 
ATOM     88  C   UNL A   1      43.550  29.764  35.159  1.00  0.00     0.173 A 
ATOM     89  F   UNL A   1      41.803  27.752  32.686  1.00  0.00    -0.203 F 
ATOM     90  C   UNL A   1      42.153  27.374  34.967  1.00  0.00     0.198 A 
ATOM     91  C   UNL A   1      43.444  28.922  36.263  1.00  0.00     0.198 A 
ATOM     92  F   UNL A   1      44.263  30.895  35.276  1.00  0.00    -0.203 F 
ATOM     93  F   UNL A   1      41.485  26.214  34.871  1.00  0.00    -0.200 F 
ATOM     94  C   UNL A   1      42.735  27.736  36.170  1.00  0.00     0.200 A 
ATOM     95  F   UNL A   1      44.052  29.250  37.412  1.00  0.00    -0.200 F 
ATOM     96  F   UNL A   1      42.635  26.927  37.235  1.00  0.00    -0.200 F 
ENDBRANCH  63  86
ENDBRANCH  37  38
ENDBRANCH  30  32
ENDBRANCH  29  30
ENDBRANCH  28  29
ENDBRANCH   1  28
TORSDOF 14
ENDMDL
