MODEL 1
REMARK VINA RESULT:     -13.2      0.000      0.000
REMARK SMILES Cc1cc2c(c(C)c1Cl)C=C(C(=O)OCCOC(=O)c1ccc(-c3c4nc(c(-c5c(F)c(F)c(F)c(F)c5F)c5ccc([nH]5)c(-c5c(F)c(F)c(F)c(F)c5F)c5nc(c(-c6c(F)c(F)c(F)c(F)c6F)c6ccc3[nH]6)C=C5)C=C4)cc1)[C@@H](C(F)(F)F)O2
REMARK SMILES IDX 16 1 15 2 14 3 12 4 13 5 11 6 1 7 2 8 3 9 8 10 4 11 6 12
REMARK SMILES IDX 9 13 5 14 88 15 7 16 10 17 83 18 84 19 85 20 86 21 87 22
REMARK SMILES IDX 17 23 18 24 19 25 20 26 21 27 82 28 22 29 81 30 23 31 24 32
REMARK SMILES IDX 25 33 75 34 26 35 80 36 74 37 76 38 27 39 79 40 73 41 72 42
REMARK SMILES IDX 28 44 60 45 40 46 59 47 41 48 44 49 58 50 77 51 42 52 43 53
REMARK SMILES IDX 57 55 78 56 45 57 29 58 30 59 38 60 31 61 32 62 36 63 39 64
REMARK SMILES IDX 33 65 34 66 37 67 35 68 61 69 62 70 70 71 63 72 64 73 68 74
REMARK SMILES IDX 71 75 65 76 66 77 69 78 67 79 46 80 47 81 55 82 48 83 49 84
REMARK SMILES IDX 53 85 56 86 50 87 51 88 54 89 52 90
REMARK H PARENT 76 43 44 54
REMARK Flexibility Score: inf
ROOT
ATOM      1  C   UNL A   1      31.778  30.067  25.685  1.00  0.00     0.275 C 
ENDROOT
BRANCH   1   2
ATOM      2  C   UNL A   1      31.501  28.617  25.288  1.00  0.00     0.275 C 
BRANCH   2   3
ATOM      3  O   UNL A   1      32.615  27.759  25.619  1.00  0.00    -0.459 OA
BRANCH   3   4
ATOM      4  C   UNL A   1      33.246  27.185  24.569  1.00  0.00     0.338 C 
ATOM      5  O   UNL A   1      33.779  27.761  23.634  1.00  0.00    -0.246 OA
BRANCH   4   6
ATOM      6  C   UNL A   1      33.231  25.714  24.698  1.00  0.00     0.087 C 
ATOM      7  C   UNL A   1      34.302  19.308  24.665  1.00  0.00     0.046 C 
ATOM      8  C   UNL A   1      34.381  20.808  24.740  1.00  0.00    -0.028 A 
ATOM      9  C   UNL A   1      33.196  21.555  24.678  1.00  0.00     0.052 A 
ATOM     10  C   UNL A   1      35.608  21.483  24.882  1.00  0.00     0.047 A 
ATOM     11  C   UNL A   1      33.224  22.948  24.726  1.00  0.00     0.128 A 
ATOM     12  C   UNL A   1      35.658  22.895  24.930  1.00  0.00    -0.021 A 
ATOM     13  Cl  UNL A   1      37.063  20.538  25.000  1.00  0.00    -0.084 Cl
ATOM     14  C   UNL A   1      34.443  23.626  24.841  1.00  0.00     0.022 A 
ATOM     15  O   UNL A   1      32.001  23.557  24.673  1.00  0.00    -0.475 OA
ATOM     16  C   UNL A   1      36.970  23.626  25.093  1.00  0.00     0.047 C 
ATOM     17  C   UNL A   1      34.403  25.085  24.845  1.00  0.00     0.027 C 
ATOM     18  C   UNL A   1      31.929  24.998  24.516  1.00  0.00     0.316 C 
BRANCH  18  19
ATOM     19  C   UNL A   1      31.299  25.323  23.152  1.00  0.00     0.430 C 
ATOM     20  F   UNL A   1      32.240  25.437  22.185  1.00  0.00    -0.167 F 
ATOM     21  F   UNL A   1      30.451  24.344  22.751  1.00  0.00    -0.167 F 
ATOM     22  F   UNL A   1      30.597  26.478  23.178  1.00  0.00    -0.167 F 
ENDBRANCH  18  19
ENDBRANCH   4   6
ENDBRANCH   3   4
ENDBRANCH   2   3
ENDBRANCH   1   2
BRANCH   1  23
ATOM     23  O   UNL A   1      32.418  30.110  26.975  1.00  0.00    -0.458 OA
BRANCH  23  24
ATOM     24  C   UNL A   1      33.086  31.252  27.250  1.00  0.00     0.338 C 
ATOM     25  O   UNL A   1      32.626  32.375  27.352  1.00  0.00    -0.246 OA
BRANCH  24  26
ATOM     26  C   UNL A   1      34.505  30.965  27.521  1.00  0.00     0.060 A 
ATOM     27  C   UNL A   1      34.901  29.648  27.702  1.00  0.00     0.016 A 
ATOM     28  C   UNL A   1      35.383  32.001  27.834  1.00  0.00     0.016 A 
ATOM     29  C   UNL A   1      36.087  29.368  28.373  1.00  0.00     0.010 A 
ATOM     30  C   UNL A   1      36.640  31.704  28.378  1.00  0.00     0.010 A 
ATOM     31  C   UNL A   1      36.980  30.387  28.736  1.00  0.00    -0.014 A 
BRANCH  31  32
ATOM     32  C   UNL A   1      38.200  30.098  29.560  1.00  0.00     0.031 A 
ATOM     33  C   UNL A   1      39.318  29.253  28.987  1.00  0.00     0.074 A 
ATOM     34  C   UNL A   1      38.366  30.612  30.798  1.00  0.00     0.049 A 
ATOM     35  N   UNL A   1      40.303  28.645  29.603  1.00  0.00    -0.248 NA
ATOM     36  C   UNL A   1      39.321  29.053  27.529  1.00  0.00     0.031 C 
ATOM     37  C   UNL A   1      37.449  31.529  31.475  1.00  0.00     0.029 A 
ATOM     38  N   UNL A   1      39.385  30.444  31.709  1.00  0.00    -0.354 N 
ATOM     39  C   UNL A   1      40.984  27.927  28.625  1.00  0.00     0.074 A 
ATOM     40  C   UNL A   1      40.306  28.180  27.371  1.00  0.00     0.031 C 
ATOM     41  C   UNL A   1      37.974  31.894  32.653  1.00  0.00     0.029 A 
ATOM     42  C   UNL A   1      39.186  31.122  32.887  1.00  0.00     0.049 A 
ATOM     43  H   UNL A   1      40.180  29.890  31.532  1.00  0.00     0.167 HD
ATOM     44  C   UNL A   1      42.070  27.129  28.762  1.00  0.00     0.037 A 
ATOM     45  C   UNL A   1      39.849  31.077  34.061  1.00  0.00     0.037 A 
ATOM     46  C   UNL A   1      42.798  26.953  29.994  1.00  0.00     0.049 A 
ATOM     47  C   UNL A   1      41.005  30.132  34.216  1.00  0.00     0.074 A 
ATOM     48  C   UNL A   1      43.909  26.163  30.236  1.00  0.00     0.029 A 
ATOM     49  N   UNL A   1      42.507  27.603  31.184  1.00  0.00    -0.354 N 
ATOM     50  N   UNL A   1      41.556  29.345  33.326  1.00  0.00    -0.248 NA
ATOM     51  C   UNL A   1      41.608  30.042  35.553  1.00  0.00     0.031 C 
ATOM     52  C   UNL A   1      44.266  26.304  31.581  1.00  0.00     0.029 A 
ATOM     53  C   UNL A   1      43.409  27.222  32.165  1.00  0.00     0.049 A 
ATOM     54  H   UNL A   1      41.769  28.242  31.311  1.00  0.00     0.167 HD
ATOM     55  C   UNL A   1      42.570  28.669  33.991  1.00  0.00     0.074 A 
ATOM     56  C   UNL A   1      42.579  29.163  35.352  1.00  0.00     0.031 C 
ATOM     57  C   UNL A   1      43.408  27.714  33.518  1.00  0.00     0.037 A 
BRANCH  44  58
ATOM     58  C   UNL A   1      42.534  26.346  27.565  1.00  0.00     0.064 A 
ATOM     59  C   UNL A   1      43.564  26.796  26.729  1.00  0.00     0.173 A 
ATOM     60  C   UNL A   1      41.984  25.079  27.301  1.00  0.00     0.173 A 
ATOM     61  F   UNL A   1      44.116  28.002  26.925  1.00  0.00    -0.203 F 
ATOM     62  C   UNL A   1      44.017  26.015  25.665  1.00  0.00     0.198 A 
ATOM     63  C   UNL A   1      42.461  24.289  26.259  1.00  0.00     0.198 A 
ATOM     64  F   UNL A   1      41.000  24.596  28.075  1.00  0.00    -0.203 F 
ATOM     65  F   UNL A   1      44.981  26.480  24.858  1.00  0.00    -0.200 F 
ATOM     66  C   UNL A   1      43.475  24.758  25.439  1.00  0.00     0.200 A 
ATOM     67  F   UNL A   1      41.945  23.068  26.055  1.00  0.00    -0.200 F 
ATOM     68  F   UNL A   1      43.927  24.001  24.431  1.00  0.00    -0.200 F 
ENDBRANCH  44  58
BRANCH  45  69
ATOM     69  C   UNL A   1      39.375  31.901  35.206  1.00  0.00     0.064 A 
ATOM     70  C   UNL A   1      38.554  31.350  36.200  1.00  0.00     0.173 A 
ATOM     71  C   UNL A   1      39.746  33.249  35.343  1.00  0.00     0.173 A 
ATOM     72  F   UNL A   1      38.142  30.078  36.098  1.00  0.00    -0.203 F 
ATOM     73  C   UNL A   1      38.130  32.113  37.287  1.00  0.00     0.198 A 
ATOM     74  C   UNL A   1      39.354  33.998  36.449  1.00  0.00     0.198 A 
ATOM     75  F   UNL A   1      40.523  33.829  34.415  1.00  0.00    -0.203 F 
ATOM     76  F   UNL A   1      37.316  31.573  38.203  1.00  0.00    -0.200 F 
ATOM     77  C   UNL A   1      38.542  33.431  37.417  1.00  0.00     0.200 A 
ATOM     78  F   UNL A   1      39.772  35.264  36.579  1.00  0.00    -0.200 F 
ATOM     79  F   UNL A   1      38.153  34.156  38.474  1.00  0.00    -0.200 F 
ENDBRANCH  45  69
BRANCH  57  80
ATOM     80  C   UNL A   1      44.418  27.153  34.475  1.00  0.00     0.064 A 
ATOM     81  C   UNL A   1      45.659  27.775  34.677  1.00  0.00     0.173 A 
ATOM     82  C   UNL A   1      44.133  25.998  35.219  1.00  0.00     0.173 A 
ATOM     83  F   UNL A   1      45.987  28.873  33.978  1.00  0.00    -0.203 F 
ATOM     84  C   UNL A   1      46.591  27.243  35.566  1.00  0.00     0.198 A 
ATOM     85  C   UNL A   1      45.054  25.488  36.131  1.00  0.00     0.198 A 
ATOM     86  F   UNL A   1      42.958  25.370  35.069  1.00  0.00    -0.203 F 
ATOM     87  F   UNL A   1      47.790  27.823  35.702  1.00  0.00    -0.200 F 
ATOM     88  C   UNL A   1      46.284  26.105  36.297  1.00  0.00     0.200 A 
ATOM     89  F   UNL A   1      44.750  24.396  36.847  1.00  0.00    -0.200 F 
ATOM     90  F   UNL A   1      47.180  25.597  37.154  1.00  0.00    -0.200 F 
ENDBRANCH  57  80
ENDBRANCH  31  32
ENDBRANCH  24  26
ENDBRANCH  23  24
ENDBRANCH   1  23
TORSDOF 12
ENDMDL
MODEL 2
REMARK VINA RESULT:     -13.1      0.094      1.604
REMARK SMILES Cc1cc2c(c(C)c1Cl)C=C(C(=O)OCCOC(=O)c1ccc(-c3c4nc(c(-c5c(F)c(F)c(F)c(F)c5F)c5ccc([nH]5)c(-c5c(F)c(F)c(F)c(F)c5F)c5nc(c(-c6c(F)c(F)c(F)c(F)c6F)c6ccc3[nH]6)C=C5)C=C4)cc1)[C@@H](C(F)(F)F)O2
REMARK SMILES IDX 16 1 15 2 14 3 12 4 13 5 11 6 1 7 2 8 3 9 8 10 4 11 6 12
REMARK SMILES IDX 9 13 5 14 88 15 7 16 10 17 83 18 84 19 85 20 86 21 87 22
REMARK SMILES IDX 17 23 18 24 19 25 20 26 21 27 82 28 22 29 81 30 23 31 24 32
REMARK SMILES IDX 25 33 75 34 26 35 80 36 74 37 76 38 27 39 79 40 73 41 72 42
REMARK SMILES IDX 28 44 60 45 40 46 59 47 41 48 44 49 58 50 77 51 42 52 43 53
REMARK SMILES IDX 57 55 78 56 45 57 29 58 30 59 38 60 31 61 32 62 36 63 39 64
REMARK SMILES IDX 33 65 34 66 37 67 35 68 61 69 62 70 70 71 63 72 64 73 68 74
REMARK SMILES IDX 71 75 65 76 66 77 69 78 67 79 46 80 47 81 55 82 48 83 49 84
REMARK SMILES IDX 53 85 56 86 50 87 51 88 54 89 52 90
REMARK H PARENT 76 43 44 54
REMARK Flexibility Score: inf
ROOT
ATOM      1  C   UNL A   1      31.665  30.085  25.656  1.00  0.00     0.275 C 
ENDROOT
BRANCH   1   2
ATOM      2  C   UNL A   1      31.404  28.670  25.139  1.00  0.00     0.275 C 
BRANCH   2   3
ATOM      3  O   UNL A   1      32.414  27.747  25.601  1.00  0.00    -0.459 OA
BRANCH   3   4
ATOM      4  C   UNL A   1      33.198  27.207  24.641  1.00  0.00     0.338 C 
ATOM      5  O   UNL A   1      33.839  27.812  23.796  1.00  0.00    -0.246 OA
BRANCH   4   6
ATOM      6  C   UNL A   1      33.207  25.734  24.747  1.00  0.00     0.087 C 
ATOM      7  C   UNL A   1      34.384  19.348  24.626  1.00  0.00     0.046 C 
ATOM      8  C   UNL A   1      34.438  20.848  24.725  1.00  0.00    -0.028 A 
ATOM      9  C   UNL A   1      33.241  21.576  24.665  1.00  0.00     0.052 A 
ATOM     10  C   UNL A   1      35.652  21.541  24.886  1.00  0.00     0.047 A 
ATOM     11  C   UNL A   1      33.246  22.968  24.734  1.00  0.00     0.128 A 
ATOM     12  C   UNL A   1      35.679  22.952  24.956  1.00  0.00    -0.021 A 
ATOM     13  Cl  UNL A   1      37.122  20.618  25.001  1.00  0.00    -0.084 Cl
ATOM     14  C   UNL A   1      34.452  23.664  24.869  1.00  0.00     0.022 A 
ATOM     15  O   UNL A   1      32.013  23.558  24.681  1.00  0.00    -0.475 OA
ATOM     16  C   UNL A   1      36.977  23.702  25.140  1.00  0.00     0.047 C 
ATOM     17  C   UNL A   1      34.388  25.123  24.894  1.00  0.00     0.027 C 
ATOM     18  C   UNL A   1      31.919  24.999  24.545  1.00  0.00     0.316 C 
BRANCH  18  19
ATOM     19  C   UNL A   1      31.293  25.335  23.181  1.00  0.00     0.430 C 
ATOM     20  F   UNL A   1      32.241  25.496  22.227  1.00  0.00    -0.167 F 
ATOM     21  F   UNL A   1      30.478  24.341  22.751  1.00  0.00    -0.167 F 
ATOM     22  F   UNL A   1      30.559  26.469  23.223  1.00  0.00    -0.167 F 
ENDBRANCH  18  19
ENDBRANCH   4   6
ENDBRANCH   3   4
ENDBRANCH   2   3
ENDBRANCH   1   2
BRANCH   1  23
ATOM     23  O   UNL A   1      32.439  30.031  26.869  1.00  0.00    -0.458 OA
BRANCH  23  24
ATOM     24  C   UNL A   1      33.071  31.178  27.202  1.00  0.00     0.338 C 
ATOM     25  O   UNL A   1      32.578  32.283  27.348  1.00  0.00    -0.246 OA
BRANCH  24  26
ATOM     26  C   UNL A   1      34.494  30.920  27.477  1.00  0.00     0.060 A 
ATOM     27  C   UNL A   1      34.921  29.608  27.627  1.00  0.00     0.016 A 
ATOM     28  C   UNL A   1      35.344  31.968  27.825  1.00  0.00     0.016 A 
ATOM     29  C   UNL A   1      36.109  29.340  28.301  1.00  0.00     0.010 A 
ATOM     30  C   UNL A   1      36.604  31.688  28.372  1.00  0.00     0.010 A 
ATOM     31  C   UNL A   1      36.974  30.370  28.698  1.00  0.00    -0.014 A 
BRANCH  31  32
ATOM     32  C   UNL A   1      38.194  30.090  29.524  1.00  0.00     0.031 A 
ATOM     33  C   UNL A   1      39.318  29.250  28.955  1.00  0.00     0.074 A 
ATOM     34  C   UNL A   1      38.355  30.607  30.762  1.00  0.00     0.049 A 
ATOM     35  N   UNL A   1      40.305  28.649  29.573  1.00  0.00    -0.248 NA
ATOM     36  C   UNL A   1      39.324  29.047  27.497  1.00  0.00     0.031 C 
ATOM     37  C   UNL A   1      37.432  31.520  31.436  1.00  0.00     0.029 A 
ATOM     38  N   UNL A   1      39.374  30.446  31.675  1.00  0.00    -0.354 N 
ATOM     39  C   UNL A   1      40.992  27.934  28.597  1.00  0.00     0.074 A 
ATOM     40  C   UNL A   1      40.315  28.180  27.342  1.00  0.00     0.031 C 
ATOM     41  C   UNL A   1      37.952  31.891  32.614  1.00  0.00     0.029 A 
ATOM     42  C   UNL A   1      39.169  31.125  32.852  1.00  0.00     0.049 A 
ATOM     43  H   UNL A   1      40.171  29.896  31.500  1.00  0.00     0.167 HD
ATOM     44  C   UNL A   1      42.082  27.142  28.738  1.00  0.00     0.037 A 
ATOM     45  C   UNL A   1      39.830  31.087  34.026  1.00  0.00     0.037 A 
ATOM     46  C   UNL A   1      42.809  26.972  29.972  1.00  0.00     0.049 A 
ATOM     47  C   UNL A   1      40.991  30.149  34.185  1.00  0.00     0.074 A 
ATOM     48  C   UNL A   1      43.924  26.189  30.217  1.00  0.00     0.029 A 
ATOM     49  N   UNL A   1      42.513  27.623  31.160  1.00  0.00    -0.354 N 
ATOM     50  N   UNL A   1      41.548  29.363  33.297  1.00  0.00    -0.248 NA
ATOM     51  C   UNL A   1      41.593  30.065  35.523  1.00  0.00     0.031 C 
ATOM     52  C   UNL A   1      44.278  26.335  31.562  1.00  0.00     0.029 A 
ATOM     53  C   UNL A   1      43.415  27.248  32.143  1.00  0.00     0.049 A 
ATOM     54  H   UNL A   1      41.771  28.258  31.285  1.00  0.00     0.167 HD
ATOM     55  C   UNL A   1      42.565  28.694  33.965  1.00  0.00     0.074 A 
ATOM     56  C   UNL A   1      42.569  29.191  35.325  1.00  0.00     0.031 C 
ATOM     57  C   UNL A   1      43.409  27.743  33.495  1.00  0.00     0.037 A 
BRANCH  44  58
ATOM     58  C   UNL A   1      42.553  26.359  27.543  1.00  0.00     0.064 A 
ATOM     59  C   UNL A   1      43.580  26.815  26.706  1.00  0.00     0.173 A 
ATOM     60  C   UNL A   1      42.012  25.088  27.282  1.00  0.00     0.173 A 
ATOM     61  F   UNL A   1      44.123  28.025  26.901  1.00  0.00    -0.203 F 
ATOM     62  C   UNL A   1      44.040  26.034  25.645  1.00  0.00     0.198 A 
ATOM     63  C   UNL A   1      42.495  24.298  26.242  1.00  0.00     0.198 A 
ATOM     64  F   UNL A   1      41.031  24.600  28.056  1.00  0.00    -0.203 F 
ATOM     65  F   UNL A   1      45.001  26.505  24.838  1.00  0.00    -0.200 F 
ATOM     66  C   UNL A   1      43.506  24.774  25.422  1.00  0.00     0.200 A 
ATOM     67  F   UNL A   1      41.989  23.074  26.041  1.00  0.00    -0.200 F 
ATOM     68  F   UNL A   1      43.965  24.017  24.416  1.00  0.00    -0.200 F 
ENDBRANCH  44  58
BRANCH  45  69
ATOM     69  C   UNL A   1      39.349  31.909  35.169  1.00  0.00     0.064 A 
ATOM     70  C   UNL A   1      39.702  33.261  35.285  1.00  0.00     0.173 A 
ATOM     71  C   UNL A   1      38.513  31.369  36.161  1.00  0.00     0.173 A 
ATOM     72  F   UNL A   1      40.528  33.815  34.385  1.00  0.00    -0.203 F 
ATOM     73  C   UNL A   1      39.233  34.040  36.341  1.00  0.00     0.198 A 
ATOM     74  C   UNL A   1      38.014  32.158  37.193  1.00  0.00     0.198 A 
ATOM     75  F   UNL A   1      38.152  30.078  36.105  1.00  0.00    -0.203 F 
ATOM     76  F   UNL A   1      39.617  35.319  36.448  1.00  0.00    -0.200 F 
ATOM     77  C   UNL A   1      38.378  33.491  37.286  1.00  0.00     0.200 A 
ATOM     78  F   UNL A   1      37.172  31.628  38.091  1.00  0.00    -0.200 F 
ATOM     79  F   UNL A   1      37.910  34.247  38.288  1.00  0.00    -0.200 F 
ENDBRANCH  45  69
BRANCH  57  80
ATOM     80  C   UNL A   1      44.421  27.190  34.455  1.00  0.00     0.064 A 
ATOM     81  C   UNL A   1      44.144  26.062  35.242  1.00  0.00     0.173 A 
ATOM     82  C   UNL A   1      45.691  27.776  34.571  1.00  0.00     0.173 A 
ATOM     83  F   UNL A   1      42.939  25.474  35.180  1.00  0.00    -0.203 F 
ATOM     84  C   UNL A   1      45.090  25.559  36.131  1.00  0.00     0.198 A 
ATOM     85  C   UNL A   1      46.646  27.250  35.437  1.00  0.00     0.198 A 
ATOM     86  F   UNL A   1      46.010  28.851  33.835  1.00  0.00    -0.203 F 
ATOM     87  F   UNL A   1      44.784  24.514  36.911  1.00  0.00    -0.200 F 
ATOM     88  C   UNL A   1      46.342  26.149  36.223  1.00  0.00     0.200 A 
ATOM     89  F   UNL A   1      47.861  27.813  35.513  1.00  0.00    -0.200 F 
ATOM     90  F   UNL A   1      47.253  25.661  37.076  1.00  0.00    -0.200 F 
ENDBRANCH  57  80
ENDBRANCH  31  32
ENDBRANCH  24  26
ENDBRANCH  23  24
ENDBRANCH   1  23
TORSDOF 12
ENDMDL
MODEL 3
REMARK VINA RESULT:     -13.0      1.246      1.967
REMARK SMILES Cc1cc2c(c(C)c1Cl)C=C(C(=O)OCCOC(=O)c1ccc(-c3c4nc(c(-c5c(F)c(F)c(F)c(F)c5F)c5ccc([nH]5)c(-c5c(F)c(F)c(F)c(F)c5F)c5nc(c(-c6c(F)c(F)c(F)c(F)c6F)c6ccc3[nH]6)C=C5)C=C4)cc1)[C@@H](C(F)(F)F)O2
REMARK SMILES IDX 16 1 15 2 14 3 12 4 13 5 11 6 1 7 2 8 3 9 8 10 4 11 6 12
REMARK SMILES IDX 9 13 5 14 88 15 7 16 10 17 83 18 84 19 85 20 86 21 87 22
REMARK SMILES IDX 17 23 18 24 19 25 20 26 21 27 82 28 22 29 81 30 23 31 24 32
REMARK SMILES IDX 25 33 75 34 26 35 80 36 74 37 76 38 27 39 79 40 73 41 72 42
REMARK SMILES IDX 28 44 60 45 40 46 59 47 41 48 44 49 58 50 77 51 42 52 43 53
REMARK SMILES IDX 57 55 78 56 45 57 29 58 30 59 38 60 31 61 32 62 36 63 39 64
REMARK SMILES IDX 33 65 34 66 37 67 35 68 61 69 62 70 70 71 63 72 64 73 68 74
REMARK SMILES IDX 71 75 65 76 66 77 69 78 67 79 46 80 47 81 55 82 48 83 49 84
REMARK SMILES IDX 53 85 56 86 50 87 51 88 54 89 52 90
REMARK H PARENT 76 43 44 54
REMARK Flexibility Score: inf
ROOT
ATOM      1  C   UNL A   1      31.413  30.786  26.380  1.00  0.00     0.275 C 
ENDROOT
BRANCH   1   2
ATOM      2  C   UNL A   1      31.284  30.079  25.031  1.00  0.00     0.275 C 
BRANCH   2   3
ATOM      3  O   UNL A   1      31.141  28.651  25.198  1.00  0.00    -0.459 OA
BRANCH   3   4
ATOM      4  C   UNL A   1      30.840  27.956  24.076  1.00  0.00     0.338 C 
ATOM      5  O   UNL A   1      29.920  28.177  23.305  1.00  0.00    -0.246 OA
BRANCH   4   6
ATOM      6  C   UNL A   1      31.809  26.861  23.871  1.00  0.00     0.087 C 
ATOM      7  C   UNL A   1      36.153  22.047  24.251  1.00  0.00     0.046 C 
ATOM      8  C   UNL A   1      35.013  23.012  24.430  1.00  0.00    -0.028 A 
ATOM      9  C   UNL A   1      34.801  24.001  23.460  1.00  0.00     0.052 A 
ATOM     10  C   UNL A   1      34.147  22.944  25.538  1.00  0.00     0.047 A 
ATOM     11  C   UNL A   1      33.768  24.927  23.595  1.00  0.00     0.128 A 
ATOM     12  C   UNL A   1      33.095  23.876  25.695  1.00  0.00    -0.021 A 
ATOM     13  Cl  UNL A   1      34.399  21.685  26.710  1.00  0.00    -0.084 Cl
ATOM     14  C   UNL A   1      32.919  24.881  24.706  1.00  0.00     0.022 A 
ATOM     15  O   UNL A   1      33.657  25.829  22.573  1.00  0.00    -0.475 OA
ATOM     16  C   UNL A   1      32.155  23.803  26.875  1.00  0.00     0.047 C 
ATOM     17  C   UNL A   1      31.884  25.906  24.805  1.00  0.00     0.027 C 
ATOM     18  C   UNL A   1      32.749  26.952  22.709  1.00  0.00     0.316 C 
BRANCH  18  19
ATOM     19  C   UNL A   1      33.565  28.255  22.752  1.00  0.00     0.430 C 
ATOM     20  F   UNL A   1      34.042  28.501  23.995  1.00  0.00    -0.167 F 
ATOM     21  F   UNL A   1      34.640  28.194  21.929  1.00  0.00    -0.167 F 
ATOM     22  F   UNL A   1      32.831  29.327  22.377  1.00  0.00    -0.167 F 
ENDBRANCH  18  19
ENDBRANCH   4   6
ENDBRANCH   3   4
ENDBRANCH   2   3
ENDBRANCH   1   2
BRANCH   1  23
ATOM     23  O   UNL A   1      32.701  30.508  26.960  1.00  0.00    -0.458 OA
BRANCH  23  24
ATOM     24  C   UNL A   1      33.385  31.591  27.393  1.00  0.00     0.338 C 
ATOM     25  O   UNL A   1      32.946  32.703  27.626  1.00  0.00    -0.246 OA
BRANCH  24  26
ATOM     26  C   UNL A   1      34.791  31.239  27.656  1.00  0.00     0.060 A 
ATOM     27  C   UNL A   1      35.131  29.902  27.808  1.00  0.00     0.016 A 
ATOM     28  C   UNL A   1      35.712  32.231  27.989  1.00  0.00     0.016 A 
ATOM     29  C   UNL A   1      36.305  29.559  28.472  1.00  0.00     0.010 A 
ATOM     30  C   UNL A   1      36.955  31.869  28.526  1.00  0.00     0.010 A 
ATOM     31  C   UNL A   1      37.240  30.532  28.856  1.00  0.00    -0.014 A 
BRANCH  31  32
ATOM     32  C   UNL A   1      38.447  30.175  29.672  1.00  0.00     0.031 A 
ATOM     33  C   UNL A   1      39.535  29.307  29.076  1.00  0.00     0.074 A 
ATOM     34  C   UNL A   1      38.629  30.645  30.925  1.00  0.00     0.049 A 
ATOM     35  N   UNL A   1      40.496  28.646  29.674  1.00  0.00    -0.248 NA
ATOM     36  C   UNL A   1      39.534  29.151  27.612  1.00  0.00     0.031 C 
ATOM     37  C   UNL A   1      37.744  31.574  31.628  1.00  0.00     0.029 A 
ATOM     38  N   UNL A   1      39.639  30.413  31.832  1.00  0.00    -0.354 N 
ATOM     39  C   UNL A   1      41.153  27.934  28.675  1.00  0.00     0.074 A 
ATOM     40  C   UNL A   1      40.488  28.248  27.429  1.00  0.00     0.031 C 
ATOM     41  C   UNL A   1      38.279  31.885  32.817  1.00  0.00     0.029 A 
ATOM     42  C   UNL A   1      39.462  31.062  33.030  1.00  0.00     0.049 A 
ATOM     43  H   UNL A   1      40.413  29.836  31.639  1.00  0.00     0.167 HD
ATOM     44  C   UNL A   1      42.209  27.093  28.790  1.00  0.00     0.037 A 
ATOM     45  C   UNL A   1      40.120  30.959  34.202  1.00  0.00     0.037 A 
ATOM     46  C   UNL A   1      42.927  26.854  30.017  1.00  0.00     0.049 A 
ATOM     47  C   UNL A   1      41.241  29.968  34.331  1.00  0.00     0.074 A 
ATOM     48  C   UNL A   1      44.009  26.017  30.237  1.00  0.00     0.029 A 
ATOM     49  N   UNL A   1      42.658  27.479  31.225  1.00  0.00    -0.354 N 
ATOM     50  N   UNL A   1      41.765  29.189  33.418  1.00  0.00    -0.248 NA
ATOM     51  C   UNL A   1      41.837  29.817  35.665  1.00  0.00     0.031 C 
ATOM     52  C   UNL A   1      44.368  26.106  31.585  1.00  0.00     0.029 A 
ATOM     53  C   UNL A   1      43.543  27.036  32.196  1.00  0.00     0.049 A 
ATOM     54  H   UNL A   1      41.943  28.140  31.371  1.00  0.00     0.167 HD
ATOM     55  C   UNL A   1      42.753  28.457  34.063  1.00  0.00     0.074 A 
ATOM     56  C   UNL A   1      42.777  28.910  35.438  1.00  0.00     0.031 C 
ATOM     57  C   UNL A   1      43.557  27.487  33.563  1.00  0.00     0.037 A 
BRANCH  44  58
ATOM     58  C   UNL A   1      42.648  26.330  27.570  1.00  0.00     0.064 A 
ATOM     59  C   UNL A   1      43.678  26.780  26.735  1.00  0.00     0.173 A 
ATOM     60  C   UNL A   1      42.071  25.080  27.282  1.00  0.00     0.173 A 
ATOM     61  F   UNL A   1      44.254  27.971  26.955  1.00  0.00    -0.203 F 
ATOM     62  C   UNL A   1      44.107  26.016  25.650  1.00  0.00     0.198 A 
ATOM     63  C   UNL A   1      42.523  24.306  26.218  1.00  0.00     0.198 A 
ATOM     64  F   UNL A   1      41.085  24.598  28.054  1.00  0.00    -0.203 F 
ATOM     65  F   UNL A   1      45.072  26.482  24.844  1.00  0.00    -0.200 F 
ATOM     66  C   UNL A   1      43.538  24.776  25.399  1.00  0.00     0.200 A 
ATOM     67  F   UNL A   1      41.983  23.100  25.990  1.00  0.00    -0.200 F 
ATOM     68  F   UNL A   1      43.968  24.034  24.370  1.00  0.00    -0.200 F 
ENDBRANCH  44  58
BRANCH  45  69
ATOM     69  C   UNL A   1      39.673  31.764  35.371  1.00  0.00     0.064 A 
ATOM     70  C   UNL A   1      40.211  33.034  35.620  1.00  0.00     0.173 A 
ATOM     71  C   UNL A   1      38.688  31.291  36.253  1.00  0.00     0.173 A 
ATOM     72  F   UNL A   1      41.181  33.516  34.829  1.00  0.00    -0.203 F 
ATOM     73  C   UNL A   1      39.777  33.800  36.700  1.00  0.00     0.198 A 
ATOM     74  C   UNL A   1      38.227  32.074  37.308  1.00  0.00     0.198 A 
ATOM     75  F   UNL A   1      38.146  30.078  36.067  1.00  0.00    -0.203 F 
ATOM     76  F   UNL A   1      40.334  34.995  36.937  1.00  0.00    -0.200 F 
ATOM     77  C   UNL A   1      38.775  33.325  37.534  1.00  0.00     0.200 A 
ATOM     78  F   UNL A   1      37.245  31.618  38.098  1.00  0.00    -0.200 F 
ATOM     79  F   UNL A   1      38.342  34.073  38.558  1.00  0.00    -0.200 F 
ENDBRANCH  45  69
BRANCH  57  80
ATOM     80  C   UNL A   1      44.544  26.862  34.504  1.00  0.00     0.064 A 
ATOM     81  C   UNL A   1      45.810  27.426  34.717  1.00  0.00     0.173 A 
ATOM     82  C   UNL A   1      44.212  25.702  35.221  1.00  0.00     0.173 A 
ATOM     83  F   UNL A   1      46.183  28.526  34.044  1.00  0.00    -0.203 F 
ATOM     84  C   UNL A   1      46.720  26.835  35.591  1.00  0.00     0.198 A 
ATOM     85  C   UNL A   1      45.111  25.132  36.118  1.00  0.00     0.198 A 
ATOM     86  F   UNL A   1      43.011  25.127  35.060  1.00  0.00    -0.203 F 
ATOM     87  F   UNL A   1      47.943  27.360  35.738  1.00  0.00    -0.200 F 
ATOM     88  C   UNL A   1      46.367  25.693  36.295  1.00  0.00     0.200 A 
ATOM     89  F   UNL A   1      44.763  24.037  36.809  1.00  0.00    -0.200 F 
ATOM     90  F   UNL A   1      47.242  25.128  37.139  1.00  0.00    -0.200 F 
ENDBRANCH  57  80
ENDBRANCH  31  32
ENDBRANCH  24  26
ENDBRANCH  23  24
ENDBRANCH   1  23
TORSDOF 12
ENDMDL
