MODEL 1
REMARK VINA RESULT:     -11.4      0.000      0.000
REMARK SMILES CCc1[nH]nc(-n2cccc2)c1C(=O)OCCOC(=O)c1ccc(-c2c3nc(c(-c4c(F)c(F)c(F)c(F)c4F)c4ccc([nH]4)c(-c4c(F)c(F)c(F)c(F)c4F)c4nc(c(-c5c(F)c(F)c(F)c(F)c5F)c5ccc2[nH]5)C=C4)C=C3)cc1
REMARK SMILES IDX 17 1 16 2 15 3 13 4 14 5 12 6 3 7 4 8 5 9 6 11 2 12 1 13
REMARK SMILES IDX 7 14 8 15 11 16 9 17 10 18 18 19 19 20 20 21 21 22 22 23
REMARK SMILES IDX 83 24 23 25 82 26 24 27 25 28 26 29 76 30 27 31 81 32 75 33
REMARK SMILES IDX 77 34 28 35 80 36 74 37 73 38 29 40 61 41 41 42 60 43 42 44
REMARK SMILES IDX 45 45 59 46 78 47 43 48 44 49 58 51 79 52 46 53 30 54 31 55
REMARK SMILES IDX 39 56 32 57 33 58 37 59 40 60 34 61 35 62 38 63 36 64 62 65
REMARK SMILES IDX 63 66 71 67 64 68 65 69 69 70 72 71 66 72 67 73 70 74 68 75
REMARK SMILES IDX 47 76 48 77 56 78 49 79 50 80 54 81 57 82 51 83 52 84 55 85
REMARK SMILES IDX 53 86
REMARK H PARENT 4 10 77 39 45 50
REMARK Flexibility Score: inf
ROOT
ATOM      1  C   UNL A   1      39.797  22.010  26.538  1.00  0.00     0.275 C 
ENDROOT
BRANCH   1   2
ATOM      2  C   UNL A   1      41.101  21.318  26.125  1.00  0.00     0.275 C 
BRANCH   2   3
ATOM      3  O   UNL A   1      42.027  22.190  25.449  1.00  0.00    -0.458 OA
BRANCH   3   4
ATOM      4  C   UNL A   1      43.221  22.456  26.070  1.00  0.00     0.343 C 
ATOM      5  O   UNL A   1      43.349  22.549  27.272  1.00  0.00    -0.246 OA
BRANCH   4   6
ATOM      6  C   UNL A   1      44.335  22.583  25.128  1.00  0.00     0.125 A 
ATOM      7  C   UNL A   1      45.097  21.583  24.527  1.00  0.00     0.052 A 
ATOM      8  N   UNL A   1      46.076  22.225  23.811  1.00  0.00    -0.280 N 
ATOM      9  N   UNL A   1      46.063  23.557  23.946  1.00  0.00    -0.156 NA
ATOM     10  H   UNL A   1      46.728  21.749  23.248  1.00  0.00     0.190 HD
ATOM     11  C   UNL A   1      44.972  23.775  24.689  1.00  0.00     0.173 A 
BRANCH   7  12
ATOM     12  C   UNL A   1      45.070  20.091  24.604  1.00  0.00     0.053 C 
ATOM     13  C   UNL A   1      46.348  19.499  25.177  1.00  0.00     0.011 C 
ENDBRANCH   7  12
BRANCH  11  14
ATOM     14  N   UNL A   1      44.686  25.111  25.069  1.00  0.00    -0.306 N 
ATOM     15  C   UNL A   1      45.620  26.048  25.459  1.00  0.00     0.093 A 
ATOM     16  C   UNL A   1      43.445  25.710  25.101  1.00  0.00     0.093 A 
ATOM     17  C   UNL A   1      44.959  27.175  25.896  1.00  0.00     0.020 A 
ATOM     18  C   UNL A   1      43.584  26.980  25.623  1.00  0.00     0.020 A 
ENDBRANCH  11  14
ENDBRANCH   4   6
ENDBRANCH   3   4
ENDBRANCH   2   3
ENDBRANCH   1   2
BRANCH   1  19
ATOM     19  O   UNL A   1      39.992  23.107  27.441  1.00  0.00    -0.458 OA
BRANCH  19  20
ATOM     20  C   UNL A   1      39.222  24.166  27.119  1.00  0.00     0.338 C 
ATOM     21  O   UNL A   1      38.196  24.156  26.454  1.00  0.00    -0.246 OA
BRANCH  20  22
ATOM     22  C   UNL A   1      39.776  25.436  27.573  1.00  0.00     0.060 A 
ATOM     23  C   UNL A   1      39.540  25.739  28.916  1.00  0.00     0.016 A 
ATOM     24  C   UNL A   1      40.200  26.406  26.658  1.00  0.00     0.016 A 
ATOM     25  C   UNL A   1      39.615  27.046  29.337  1.00  0.00     0.010 A 
ATOM     26  C   UNL A   1      40.269  27.729  27.078  1.00  0.00     0.010 A 
ATOM     27  C   UNL A   1      39.940  28.041  28.408  1.00  0.00    -0.014 A 
BRANCH  27  28
ATOM     28  C   UNL A   1      40.178  29.385  28.960  1.00  0.00     0.031 A 
ATOM     29  C   UNL A   1      38.815  30.133  29.047  1.00  0.00     0.074 A 
ATOM     30  C   UNL A   1      41.487  29.730  29.211  1.00  0.00     0.049 A 
ATOM     31  N   UNL A   1      38.572  31.404  29.085  1.00  0.00    -0.248 NA
ATOM     32  C   UNL A   1      37.527  29.366  29.032  1.00  0.00     0.031 C 
ATOM     33  C   UNL A   1      42.665  28.838  29.034  1.00  0.00     0.029 A 
ATOM     34  N   UNL A   1      42.114  30.885  29.646  1.00  0.00    -0.354 N 
ATOM     35  C   UNL A   1      37.192  31.574  29.359  1.00  0.00     0.074 A 
ATOM     36  C   UNL A   1      36.582  30.299  29.169  1.00  0.00     0.031 C 
ATOM     37  C   UNL A   1      43.829  29.498  29.261  1.00  0.00     0.029 A 
ATOM     38  C   UNL A   1      43.547  30.867  29.654  1.00  0.00     0.049 A 
ATOM     39  H   UNL A   1      41.603  31.676  29.933  1.00  0.00     0.167 HD
ATOM     40  C   UNL A   1      36.698  32.723  29.912  1.00  0.00     0.037 A 
ATOM     41  C   UNL A   1      44.420  31.894  29.943  1.00  0.00     0.037 A 
ATOM     42  C   UNL A   1      37.763  33.654  30.064  1.00  0.00     0.049 A 
ATOM     43  C   UNL A   1      43.555  32.913  30.537  1.00  0.00     0.074 A 
ATOM     44  C   UNL A   1      38.504  34.329  29.131  1.00  0.00     0.029 A 
ATOM     45  N   UNL A   1      38.446  33.596  31.255  1.00  0.00    -0.354 N 
ATOM     46  N   UNL A   1      43.031  32.812  31.720  1.00  0.00    -0.248 NA
ATOM     47  C   UNL A   1      43.217  34.104  29.752  1.00  0.00     0.031 C 
ATOM     48  C   UNL A   1      39.809  34.156  29.622  1.00  0.00     0.029 A 
ATOM     49  C   UNL A   1      39.770  33.733  30.958  1.00  0.00     0.049 A 
ATOM     50  H   UNL A   1      38.055  33.477  32.151  1.00  0.00     0.167 HD
ATOM     51  C   UNL A   1      42.016  33.727  31.645  1.00  0.00     0.074 A 
ATOM     52  C   UNL A   1      42.389  34.684  30.619  1.00  0.00     0.031 C 
ATOM     53  C   UNL A   1      40.755  33.297  31.914  1.00  0.00     0.037 A 
BRANCH  40  54
ATOM     54  C   UNL A   1      35.428  33.063  30.640  1.00  0.00     0.064 A 
ATOM     55  C   UNL A   1      34.637  34.119  30.114  1.00  0.00     0.173 A 
ATOM     56  C   UNL A   1      35.207  32.731  31.980  1.00  0.00     0.173 A 
ATOM     57  F   UNL A   1      34.747  34.483  28.825  1.00  0.00    -0.203 F 
ATOM     58  C   UNL A   1      33.819  34.901  30.922  1.00  0.00     0.198 A 
ATOM     59  C   UNL A   1      34.339  33.486  32.776  1.00  0.00     0.198 A 
ATOM     60  F   UNL A   1      35.905  31.756  32.576  1.00  0.00    -0.203 F 
ATOM     61  F   UNL A   1      33.231  35.996  30.420  1.00  0.00    -0.200 F 
ATOM     62  C   UNL A   1      33.686  34.595  32.261  1.00  0.00     0.200 A 
ATOM     63  F   UNL A   1      34.207  33.188  34.076  1.00  0.00    -0.200 F 
ATOM     64  F   UNL A   1      32.965  35.390  33.064  1.00  0.00    -0.200 F 
ENDBRANCH  40  54
BRANCH  41  65
ATOM     65  C   UNL A   1      45.883  32.327  29.866  1.00  0.00     0.064 A 
ATOM     66  C   UNL A   1      46.552  32.808  28.739  1.00  0.00     0.173 A 
ATOM     67  C   UNL A   1      46.646  32.438  31.077  1.00  0.00     0.173 A 
ATOM     68  F   UNL A   1      46.020  32.666  27.519  1.00  0.00    -0.203 F 
ATOM     69  C   UNL A   1      47.803  33.467  28.842  1.00  0.00     0.198 A 
ATOM     70  C   UNL A   1      47.833  33.159  31.192  1.00  0.00     0.198 A 
ATOM     71  F   UNL A   1      46.252  31.857  32.218  1.00  0.00    -0.203 F 
ATOM     72  F   UNL A   1      48.414  33.915  27.737  1.00  0.00    -0.200 F 
ATOM     73  C   UNL A   1      48.408  33.695  30.071  1.00  0.00     0.200 A 
ATOM     74  F   UNL A   1      48.382  33.350  32.402  1.00  0.00    -0.200 F 
ATOM     75  F   UNL A   1      49.536  34.411  30.172  1.00  0.00    -0.200 F 
ENDBRANCH  41  65
BRANCH  53  76
ATOM     76  C   UNL A   1      40.666  32.119  32.882  1.00  0.00     0.064 A 
ATOM     77  C   UNL A   1      41.260  32.212  34.155  1.00  0.00     0.173 A 
ATOM     78  C   UNL A   1      40.111  30.867  32.572  1.00  0.00     0.173 A 
ATOM     79  F   UNL A   1      41.765  33.382  34.574  1.00  0.00    -0.203 F 
ATOM     80  C   UNL A   1      41.339  31.117  35.024  1.00  0.00     0.198 A 
ATOM     81  C   UNL A   1      40.196  29.764  33.432  1.00  0.00     0.198 A 
ATOM     82  F   UNL A   1      39.441  30.682  31.439  1.00  0.00    -0.203 F 
ATOM     83  F   UNL A   1      41.915  31.260  36.226  1.00  0.00    -0.200 F 
ATOM     84  C   UNL A   1      40.816  29.889  34.659  1.00  0.00     0.200 A 
ATOM     85  F   UNL A   1      39.660  28.587  33.072  1.00  0.00    -0.200 F 
ATOM     86  F   UNL A   1      40.882  28.843  35.495  1.00  0.00    -0.200 F 
ENDBRANCH  53  76
ENDBRANCH  27  28
ENDBRANCH  20  22
ENDBRANCH  19  20
ENDBRANCH   1  19
TORSDOF 13
ENDMDL
MODEL 2
REMARK VINA RESULT:     -11.2      4.457     11.338
REMARK SMILES CCc1[nH]nc(-n2cccc2)c1C(=O)OCCOC(=O)c1ccc(-c2c3nc(c(-c4c(F)c(F)c(F)c(F)c4F)c4ccc([nH]4)c(-c4c(F)c(F)c(F)c(F)c4F)c4nc(c(-c5c(F)c(F)c(F)c(F)c5F)c5ccc2[nH]5)C=C4)C=C3)cc1
REMARK SMILES IDX 17 1 16 2 15 3 13 4 14 5 12 6 3 7 4 8 5 9 6 11 2 12 1 13
REMARK SMILES IDX 7 14 8 15 11 16 9 17 10 18 18 19 19 20 20 21 21 22 22 23
REMARK SMILES IDX 83 24 23 25 82 26 24 27 25 28 26 29 76 30 27 31 81 32 75 33
REMARK SMILES IDX 77 34 28 35 80 36 74 37 73 38 29 40 61 41 41 42 60 43 42 44
REMARK SMILES IDX 45 45 59 46 78 47 43 48 44 49 58 51 79 52 46 53 30 54 31 55
REMARK SMILES IDX 39 56 32 57 33 58 37 59 40 60 34 61 35 62 38 63 36 64 62 65
REMARK SMILES IDX 63 66 71 67 64 68 65 69 69 70 72 71 66 72 67 73 70 74 68 75
REMARK SMILES IDX 47 76 48 77 56 78 49 79 50 80 54 81 57 82 51 83 52 84 55 85
REMARK SMILES IDX 53 86
REMARK H PARENT 4 10 77 39 45 50
REMARK Flexibility Score: inf
ROOT
ATOM      1  C   UNL A   1      34.701  31.614  28.527  1.00  0.00     0.275 C 
ENDROOT
BRANCH   1   2
ATOM      2  C   UNL A   1      34.297  33.090  28.613  1.00  0.00     0.275 C 
BRANCH   2   3
ATOM      3  O   UNL A   1      34.135  33.566  29.962  1.00  0.00    -0.458 OA
BRANCH   3   4
ATOM      4  C   UNL A   1      35.271  33.838  30.682  1.00  0.00     0.343 C 
ATOM      5  O   UNL A   1      36.349  34.068  30.178  1.00  0.00    -0.246 OA
BRANCH   4   6
ATOM      6  C   UNL A   1      35.037  33.851  32.128  1.00  0.00     0.125 A 
ATOM      7  C   UNL A   1      34.181  34.660  32.872  1.00  0.00     0.052 A 
ATOM      8  N   UNL A   1      34.405  34.346  34.189  1.00  0.00    -0.280 N 
ATOM      9  N   UNL A   1      35.384  33.452  34.375  1.00  0.00    -0.156 NA
ATOM     10  H   UNL A   1      33.893  34.743  34.930  1.00  0.00     0.190 HD
ATOM     11  C   UNL A   1      35.720  33.107  33.127  1.00  0.00     0.173 A 
BRANCH   7  12
ATOM     12  C   UNL A   1      33.227  35.751  32.505  1.00  0.00     0.053 C 
ATOM     13  C   UNL A   1      33.860  37.133  32.539  1.00  0.00     0.011 C 
ENDBRANCH   7  12
BRANCH  11  14
ATOM     14  N   UNL A   1      36.789  32.191  32.958  1.00  0.00    -0.306 N 
ATOM     15  C   UNL A   1      36.652  30.850  32.664  1.00  0.00     0.093 A 
ATOM     16  C   UNL A   1      38.136  32.472  33.040  1.00  0.00     0.093 A 
ATOM     17  C   UNL A   1      37.893  30.256  32.728  1.00  0.00     0.020 A 
ATOM     18  C   UNL A   1      38.838  31.291  32.916  1.00  0.00     0.020 A 
ENDBRANCH  11  14
ENDBRANCH   4   6
ENDBRANCH   3   4
ENDBRANCH   2   3
ENDBRANCH   1   2
BRANCH   1  19
ATOM     19  O   UNL A   1      35.906  31.392  27.784  1.00  0.00    -0.458 OA
BRANCH  19  20
ATOM     20  C   UNL A   1      36.157  30.078  27.612  1.00  0.00     0.338 C 
ATOM     21  O   UNL A   1      35.426  29.252  27.083  1.00  0.00    -0.246 OA
BRANCH  20  22
ATOM     22  C   UNL A   1      37.411  29.649  28.220  1.00  0.00     0.060 A 
ATOM     23  C   UNL A   1      38.525  29.702  27.380  1.00  0.00     0.016 A 
ATOM     24  C   UNL A   1      37.421  28.930  29.421  1.00  0.00     0.016 A 
ATOM     25  C   UNL A   1      39.630  28.938  27.674  1.00  0.00     0.010 A 
ATOM     26  C   UNL A   1      38.534  28.152  29.717  1.00  0.00     0.010 A 
ATOM     27  C   UNL A   1      39.615  28.136  28.821  1.00  0.00    -0.014 A 
BRANCH  27  28
ATOM     28  C   UNL A   1      40.890  27.488  29.170  1.00  0.00     0.031 A 
ATOM     29  C   UNL A   1      40.993  26.145  28.389  1.00  0.00     0.074 A 
ATOM     30  C   UNL A   1      41.667  28.117  30.116  1.00  0.00     0.049 A 
ATOM     31  N   UNL A   1      41.696  25.089  28.651  1.00  0.00    -0.248 NA
ATOM     32  C   UNL A   1      40.153  25.910  27.170  1.00  0.00     0.031 C 
ATOM     33  C   UNL A   1      41.357  29.423  30.760  1.00  0.00     0.029 A 
ATOM     34  N   UNL A   1      42.857  27.805  30.750  1.00  0.00    -0.354 N 
ATOM     35  C   UNL A   1      41.596  24.215  27.541  1.00  0.00     0.074 A 
ATOM     36  C   UNL A   1      40.526  24.703  26.735  1.00  0.00     0.031 C 
ATOM     37  C   UNL A   1      42.258  29.728  31.728  1.00  0.00     0.029 A 
ATOM     38  C   UNL A   1      43.274  28.694  31.795  1.00  0.00     0.049 A 
ATOM     39  H   UNL A   1      43.388  27.015  30.499  1.00  0.00     0.167 HD
ATOM     40  C   UNL A   1      42.543  23.263  27.280  1.00  0.00     0.037 A 
ATOM     41  C   UNL A   1      44.352  28.576  32.647  1.00  0.00     0.037 A 
ATOM     42  C   UNL A   1      43.517  23.286  28.316  1.00  0.00     0.049 A 
ATOM     43  C   UNL A   1      45.143  27.505  32.042  1.00  0.00     0.074 A 
ATOM     44  C   UNL A   1      43.427  22.947  29.640  1.00  0.00     0.029 A 
ATOM     45  N   UNL A   1      44.582  24.132  28.118  1.00  0.00    -0.354 N 
ATOM     46  N   UNL A   1      45.822  27.643  30.944  1.00  0.00    -0.248 NA
ATOM     47  C   UNL A   1      45.150  26.183  32.674  1.00  0.00     0.031 C 
ATOM     48  C   UNL A   1      44.080  24.026  30.258  1.00  0.00     0.029 A 
ATOM     49  C   UNL A   1      44.829  24.743  29.313  1.00  0.00     0.049 A 
ATOM     50  H   UNL A   1      45.073  24.270  27.276  1.00  0.00     0.167 HD
ATOM     51  C   UNL A   1      46.004  26.339  30.573  1.00  0.00     0.074 A 
ATOM     52  C   UNL A   1      45.901  25.540  31.781  1.00  0.00     0.031 C 
ATOM     53  C   UNL A   1      45.584  25.969  29.334  1.00  0.00     0.037 A 
BRANCH  40  54
ATOM     54  C   UNL A   1      42.917  22.480  26.053  1.00  0.00     0.064 A 
ATOM     55  C   UNL A   1      42.915  21.062  26.157  1.00  0.00     0.173 A 
ATOM     56  C   UNL A   1      43.663  23.022  25.002  1.00  0.00     0.173 A 
ATOM     57  F   UNL A   1      42.193  20.446  27.109  1.00  0.00    -0.203 F 
ATOM     58  C   UNL A   1      43.744  20.264  25.376  1.00  0.00     0.198 A 
ATOM     59  C   UNL A   1      44.452  22.208  24.183  1.00  0.00     0.198 A 
ATOM     60  F   UNL A   1      43.739  24.346  24.819  1.00  0.00    -0.203 F 
ATOM     61  F   UNL A   1      43.842  18.951  25.631  1.00  0.00    -0.200 F 
ATOM     62  C   UNL A   1      44.530  20.841  24.401  1.00  0.00     0.200 A 
ATOM     63  F   UNL A   1      45.214  22.768  23.232  1.00  0.00    -0.200 F 
ATOM     64  F   UNL A   1      45.391  20.091  23.700  1.00  0.00    -0.200 F 
ENDBRANCH  40  54
BRANCH  41  65
ATOM     65  C   UNL A   1      44.978  29.129  33.925  1.00  0.00     0.064 A 
ATOM     66  C   UNL A   1      46.063  30.004  34.013  1.00  0.00     0.173 A 
ATOM     67  C   UNL A   1      44.322  28.903  35.183  1.00  0.00     0.173 A 
ATOM     68  F   UNL A   1      46.847  30.223  32.950  1.00  0.00    -0.203 F 
ATOM     69  C   UNL A   1      46.367  30.694  35.212  1.00  0.00     0.198 A 
ATOM     70  C   UNL A   1      44.566  29.642  36.338  1.00  0.00     0.198 A 
ATOM     71  F   UNL A   1      43.390  27.952  35.334  1.00  0.00    -0.203 F 
ATOM     72  F   UNL A   1      47.417  31.525  35.255  1.00  0.00    -0.200 F 
ATOM     73  C   UNL A   1      45.584  30.558  36.350  1.00  0.00     0.200 A 
ATOM     74  F   UNL A   1      43.782  29.474  37.415  1.00  0.00    -0.200 F 
ATOM     75  F   UNL A   1      45.812  31.292  37.448  1.00  0.00    -0.200 F 
ENDBRANCH  41  65
BRANCH  53  76
ATOM     76  C   UNL A   1      45.597  27.081  28.288  1.00  0.00     0.064 A 
ATOM     77  C   UNL A   1      46.791  27.776  28.020  1.00  0.00     0.173 A 
ATOM     78  C   UNL A   1      44.462  27.561  27.613  1.00  0.00     0.173 A 
ATOM     79  F   UNL A   1      47.944  27.361  28.565  1.00  0.00    -0.203 F 
ATOM     80  C   UNL A   1      46.830  28.899  27.183  1.00  0.00     0.198 A 
ATOM     81  C   UNL A   1      44.492  28.689  26.784  1.00  0.00     0.198 A 
ATOM     82  F   UNL A   1      43.296  26.931  27.712  1.00  0.00    -0.203 F 
ATOM     83  F   UNL A   1      47.994  29.524  26.961  1.00  0.00    -0.200 F 
ATOM     84  C   UNL A   1      45.678  29.362  26.573  1.00  0.00     0.200 A 
ATOM     85  F   UNL A   1      43.370  29.110  26.179  1.00  0.00    -0.200 F 
ATOM     86  F   UNL A   1      45.718  30.431  25.764  1.00  0.00    -0.200 F 
ENDBRANCH  53  76
ENDBRANCH  27  28
ENDBRANCH  20  22
ENDBRANCH  19  20
ENDBRANCH   1  19
TORSDOF 13
ENDMDL
MODEL 3
REMARK VINA RESULT:     -11.0      3.156      5.565
REMARK SMILES CCc1[nH]nc(-n2cccc2)c1C(=O)OCCOC(=O)c1ccc(-c2c3nc(c(-c4c(F)c(F)c(F)c(F)c4F)c4ccc([nH]4)c(-c4c(F)c(F)c(F)c(F)c4F)c4nc(c(-c5c(F)c(F)c(F)c(F)c5F)c5ccc2[nH]5)C=C4)C=C3)cc1
REMARK SMILES IDX 17 1 16 2 15 3 13 4 14 5 12 6 3 7 4 8 5 9 6 11 2 12 1 13
REMARK SMILES IDX 7 14 8 15 11 16 9 17 10 18 18 19 19 20 20 21 21 22 22 23
REMARK SMILES IDX 83 24 23 25 82 26 24 27 25 28 26 29 76 30 27 31 81 32 75 33
REMARK SMILES IDX 77 34 28 35 80 36 74 37 73 38 29 40 61 41 41 42 60 43 42 44
REMARK SMILES IDX 45 45 59 46 78 47 43 48 44 49 58 51 79 52 46 53 30 54 31 55
REMARK SMILES IDX 39 56 32 57 33 58 37 59 40 60 34 61 35 62 38 63 36 64 62 65
REMARK SMILES IDX 63 66 71 67 64 68 65 69 69 70 72 71 66 72 67 73 70 74 68 75
REMARK SMILES IDX 47 76 48 77 56 78 49 79 50 80 54 81 57 82 51 83 52 84 55 85
REMARK SMILES IDX 53 86
REMARK H PARENT 4 10 77 39 45 50
REMARK Flexibility Score: inf
ROOT
ATOM      1  C   UNL A   1      37.490  23.408  25.426  1.00  0.00     0.275 C 
ENDROOT
BRANCH   1   2
ATOM      2  C   UNL A   1      36.062  23.542  24.884  1.00  0.00     0.275 C 
BRANCH   2   3
ATOM      3  O   UNL A   1      35.296  24.575  25.531  1.00  0.00    -0.458 OA
BRANCH   3   4
ATOM      4  C   UNL A   1      34.235  25.107  24.842  1.00  0.00     0.343 C 
ATOM      5  O   UNL A   1      34.319  25.557  23.720  1.00  0.00    -0.246 OA
BRANCH   4   6
ATOM      6  C   UNL A   1      32.980  25.045  25.594  1.00  0.00     0.125 A 
ATOM      7  C   UNL A   1      32.292  26.068  26.242  1.00  0.00     0.052 A 
ATOM      8  N   UNL A   1      31.232  25.474  26.879  1.00  0.00    -0.280 N 
ATOM      9  N   UNL A   1      31.206  24.141  26.762  1.00  0.00    -0.156 NA
ATOM     10  H   UNL A   1      30.551  25.983  27.377  1.00  0.00     0.190 HD
ATOM     11  C   UNL A   1      32.225  23.890  25.933  1.00  0.00     0.173 A 
BRANCH   7  12
ATOM     12  C   UNL A   1      32.549  27.532  26.403  1.00  0.00     0.053 C 
ATOM     13  C   UNL A   1      31.798  28.145  27.575  1.00  0.00     0.011 C 
ENDBRANCH   7  12
BRANCH  11  14
ATOM     14  N   UNL A   1      32.515  22.535  25.631  1.00  0.00    -0.306 N 
ATOM     15  C   UNL A   1      33.238  21.675  26.433  1.00  0.00     0.093 A 
ATOM     16  C   UNL A   1      32.122  21.839  24.509  1.00  0.00     0.093 A 
ATOM     17  C   UNL A   1      33.442  20.499  25.746  1.00  0.00     0.020 A 
ATOM     18  C   UNL A   1      32.694  20.584  24.548  1.00  0.00     0.020 A 
ENDBRANCH  11  14
ENDBRANCH   4   6
ENDBRANCH   3   4
ENDBRANCH   2   3
ENDBRANCH   1   2
BRANCH   1  19
ATOM     19  O   UNL A   1      37.747  24.229  26.572  1.00  0.00    -0.458 OA
BRANCH  19  20
ATOM     20  C   UNL A   1      39.018  24.104  27.007  1.00  0.00     0.338 C 
ATOM     21  O   UNL A   1      39.664  23.071  27.103  1.00  0.00    -0.246 OA
BRANCH  20  22
ATOM     22  C   UNL A   1      39.590  25.361  27.476  1.00  0.00     0.060 A 
ATOM     23  C   UNL A   1      39.300  25.684  28.803  1.00  0.00     0.016 A 
ATOM     24  C   UNL A   1      40.089  26.307  26.574  1.00  0.00     0.016 A 
ATOM     25  C   UNL A   1      39.397  26.993  29.216  1.00  0.00     0.010 A 
ATOM     26  C   UNL A   1      40.181  27.631  26.986  1.00  0.00     0.010 A 
ATOM     27  C   UNL A   1      39.799  27.968  28.295  1.00  0.00    -0.014 A 
BRANCH  27  28
ATOM     28  C   UNL A   1      40.052  29.308  28.847  1.00  0.00     0.031 A 
ATOM     29  C   UNL A   1      38.698  30.069  28.943  1.00  0.00     0.074 A 
ATOM     30  C   UNL A   1      41.366  29.640  29.090  1.00  0.00     0.049 A 
ATOM     31  N   UNL A   1      38.467  31.343  28.983  1.00  0.00    -0.248 NA
ATOM     32  C   UNL A   1      37.402  29.315  28.935  1.00  0.00     0.031 C 
ATOM     33  C   UNL A   1      42.535  28.737  28.906  1.00  0.00     0.029 A 
ATOM     34  N   UNL A   1      42.007  30.789  29.522  1.00  0.00    -0.354 N 
ATOM     35  C   UNL A   1      37.091  31.526  29.265  1.00  0.00     0.074 A 
ATOM     36  C   UNL A   1      36.467  30.258  29.079  1.00  0.00     0.031 C 
ATOM     37  C   UNL A   1      43.706  29.386  29.126  1.00  0.00     0.029 A 
ATOM     38  C   UNL A   1      43.440  30.757  29.521  1.00  0.00     0.049 A 
ATOM     39  H   UNL A   1      41.506  31.585  29.813  1.00  0.00     0.167 HD
ATOM     40  C   UNL A   1      36.612  32.679  29.823  1.00  0.00     0.037 A 
ATOM     41  C   UNL A   1      44.325  31.775  29.805  1.00  0.00     0.037 A 
ATOM     42  C   UNL A   1      37.686  33.600  29.968  1.00  0.00     0.049 A 
ATOM     43  C   UNL A   1      43.473  32.802  30.405  1.00  0.00     0.074 A 
ATOM     44  C   UNL A   1      38.428  34.268  29.031  1.00  0.00     0.029 A 
ATOM     45  N   UNL A   1      38.375  33.534  31.155  1.00  0.00    -0.354 N 
ATOM     46  N   UNL A   1      42.955  32.706  31.591  1.00  0.00    -0.248 NA
ATOM     47  C   UNL A   1      43.142  33.997  29.623  1.00  0.00     0.031 C 
ATOM     48  C   UNL A   1      39.734  34.083  29.514  1.00  0.00     0.029 A 
ATOM     49  C   UNL A   1      39.700  33.659  30.850  1.00  0.00     0.049 A 
ATOM     50  H   UNL A   1      37.989  33.419  32.053  1.00  0.00     0.167 HD
ATOM     51  C   UNL A   1      41.949  33.630  31.523  1.00  0.00     0.074 A 
ATOM     52  C   UNL A   1      42.325  34.585  30.495  1.00  0.00     0.031 C 
ATOM     53  C   UNL A   1      40.686  33.213  31.800  1.00  0.00     0.037 A 
BRANCH  40  54
ATOM     54  C   UNL A   1      35.350  33.031  30.558  1.00  0.00     0.064 A 
ATOM     55  C   UNL A   1      34.578  34.112  30.052  1.00  0.00     0.173 A 
ATOM     56  C   UNL A   1      35.123  32.681  31.893  1.00  0.00     0.173 A 
ATOM     57  F   UNL A   1      34.693  34.495  28.769  1.00  0.00    -0.203 F 
ATOM     58  C   UNL A   1      33.776  34.895  30.875  1.00  0.00     0.198 A 
ATOM     59  C   UNL A   1      34.272  33.438  32.703  1.00  0.00     0.198 A 
ATOM     60  F   UNL A   1      35.803  31.682  32.471  1.00  0.00    -0.203 F 
ATOM     61  F   UNL A   1      33.209  36.010  30.393  1.00  0.00    -0.200 F 
ATOM     62  C   UNL A   1      33.640  34.569  32.209  1.00  0.00     0.200 A 
ATOM     63  F   UNL A   1      34.136  33.120  33.998  1.00  0.00    -0.200 F 
ATOM     64  F   UNL A   1      32.936  35.363  33.027  1.00  0.00    -0.200 F 
ENDBRANCH  40  54
BRANCH  41  65
ATOM     65  C   UNL A   1      45.791  32.194  29.719  1.00  0.00     0.064 A 
ATOM     66  C   UNL A   1      46.484  32.577  28.569  1.00  0.00     0.173 A 
ATOM     67  C   UNL A   1      46.534  32.401  30.931  1.00  0.00     0.173 A 
ATOM     68  F   UNL A   1      45.972  32.338  27.356  1.00  0.00    -0.203 F 
ATOM     69  C   UNL A   1      47.736  33.237  28.640  1.00  0.00     0.198 A 
ATOM     70  C   UNL A   1      47.722  33.124  31.008  1.00  0.00     0.198 A 
ATOM     71  F   UNL A   1      46.116  31.918  32.109  1.00  0.00    -0.203 F 
ATOM     72  F   UNL A   1      48.369  33.590  27.513  1.00  0.00    -0.200 F 
ATOM     73  C   UNL A   1      48.320  33.563  29.857  1.00  0.00     0.200 A 
ATOM     74  F   UNL A   1      48.251  33.412  32.208  1.00  0.00    -0.200 F 
ATOM     75  F   UNL A   1      49.451  34.280  29.920  1.00  0.00    -0.200 F 
ENDBRANCH  41  65
BRANCH  53  76
ATOM     76  C   UNL A   1      40.591  32.035  32.767  1.00  0.00     0.064 A 
ATOM     77  C   UNL A   1      41.188  32.124  34.039  1.00  0.00     0.173 A 
ATOM     78  C   UNL A   1      40.028  30.786  32.458  1.00  0.00     0.173 A 
ATOM     79  F   UNL A   1      41.701  33.290  34.458  1.00  0.00    -0.203 F 
ATOM     80  C   UNL A   1      41.262  31.028  34.908  1.00  0.00     0.198 A 
ATOM     81  C   UNL A   1      40.108  29.683  33.318  1.00  0.00     0.198 A 
ATOM     82  F   UNL A   1      39.354  30.606  31.327  1.00  0.00    -0.203 F 
ATOM     83  F   UNL A   1      41.842  31.166  36.108  1.00  0.00    -0.200 F 
ATOM     84  C   UNL A   1      40.731  29.804  34.543  1.00  0.00     0.200 A 
ATOM     85  F   UNL A   1      39.564  28.509  32.959  1.00  0.00    -0.200 F 
ATOM     86  F   UNL A   1      40.792  28.757  35.379  1.00  0.00    -0.200 F 
ENDBRANCH  53  76
ENDBRANCH  27  28
ENDBRANCH  20  22
ENDBRANCH  19  20
ENDBRANCH   1  19
TORSDOF 13
ENDMDL
