MODEL 1
REMARK VINA RESULT:     -13.3      0.000      0.000
REMARK SMILES O=C(OCCOC(=O)c1cc(-c2cc3ccccc3s2)ccn1)c1ccc(-c2c3nc(c(-c4c(F)c(F)c(F)c(F)c4F)c4ccc([nH]4)c(-c4c(F)c(F)c(F)c(F)c4F)c4nc(c(-c5c(F)c(F)c(F)c(F)c5F)c5ccc2[nH]5)C=C4)C=C3)cc1
REMARK SMILES IDX 4 1 3 2 2 3 1 4 24 5 25 6 86 7 26 8 85 9 27 10 28 11 29 12
REMARK SMILES IDX 79 13 30 14 84 15 78 16 80 17 31 18 83 19 77 20 76 21 32 23
REMARK SMILES IDX 64 24 44 25 63 26 45 27 48 28 62 29 81 30 46 31 47 32 61 34
REMARK SMILES IDX 82 35 49 36 33 37 34 38 42 39 35 40 36 41 40 42 43 43 37 44
REMARK SMILES IDX 38 45 41 46 39 47 65 48 66 49 74 50 67 51 68 52 72 53 75 54
REMARK SMILES IDX 69 55 70 56 73 57 71 58 50 59 51 60 59 61 52 62 53 63 57 64
REMARK SMILES IDX 60 65 54 66 55 67 58 68 56 69 5 70 6 71 7 72 8 73 9 74 10 75
REMARK SMILES IDX 23 76 11 77 22 78 21 79 12 80 13 81 20 82 14 83 19 84 15 85
REMARK SMILES IDX 18 86 16 87 17 88
REMARK H PARENT 80 22 48 33
REMARK Flexibility Score: inf
ROOT
ATOM      1  C   UNL A   1      45.518  20.417  24.750  1.00  0.00     0.275 C 
ENDROOT
BRANCH   1   2
ATOM      2  O   UNL A   1      44.739  21.473  25.359  1.00  0.00    -0.458 OA
BRANCH   2   3
ATOM      3  C   UNL A   1      44.453  22.660  24.772  1.00  0.00     0.338 C 
ATOM      4  O   UNL A   1      44.536  22.844  23.566  1.00  0.00    -0.246 OA
BRANCH   3   5
ATOM      5  C   UNL A   1      44.109  23.787  25.652  1.00  0.00     0.060 A 
ATOM      6  C   UNL A   1      42.792  23.979  26.082  1.00  0.00     0.016 A 
ATOM      7  C   UNL A   1      45.119  24.679  26.014  1.00  0.00     0.016 A 
ATOM      8  C   UNL A   1      42.498  25.028  26.958  1.00  0.00     0.010 A 
ATOM      9  C   UNL A   1      44.819  25.735  26.873  1.00  0.00     0.010 A 
ATOM     10  C   UNL A   1      43.512  25.905  27.364  1.00  0.00    -0.014 A 
BRANCH  10  11
ATOM     11  C   UNL A   1      43.248  26.995  28.326  1.00  0.00     0.031 A 
ATOM     12  C   UNL A   1      43.431  26.781  29.815  1.00  0.00     0.074 A 
ATOM     13  C   UNL A   1      42.624  28.104  27.888  1.00  0.00     0.049 A 
ATOM     14  N   UNL A   1      42.971  27.481  30.832  1.00  0.00    -0.248 NA
ATOM     15  C   UNL A   1      44.222  25.610  30.201  1.00  0.00     0.031 C 
ATOM     16  C   UNL A   1      42.212  28.432  26.557  1.00  0.00     0.029 A 
ATOM     17  N   UNL A   1      42.082  29.084  28.669  1.00  0.00    -0.354 N 
ATOM     18  C   UNL A   1      43.442  26.861  31.982  1.00  0.00     0.074 A 
ATOM     19  C   UNL A   1      44.193  25.697  31.525  1.00  0.00     0.031 C 
ATOM     20  C   UNL A   1      41.211  29.328  26.627  1.00  0.00     0.029 A 
ATOM     21  C   UNL A   1      40.698  29.623  28.200  1.00  0.00     0.049 A 
ATOM     22  H   UNL A   1      42.535  29.427  29.473  1.00  0.00     0.167 HD
ATOM     23  C   UNL A   1      43.324  27.204  33.293  1.00  0.00     0.037 A 
ATOM     24  C   UNL A   1      39.147  30.217  29.071  1.00  0.00     0.037 A 
ATOM     25  C   UNL A   1      42.559  28.276  33.901  1.00  0.00     0.049 A 
ATOM     26  C   UNL A   1      38.797  30.557  30.831  1.00  0.00     0.074 A 
ATOM     27  C   UNL A   1      42.750  28.823  35.166  1.00  0.00     0.029 A 
ATOM     28  N   UNL A   1      41.406  28.874  33.407  1.00  0.00    -0.354 N 
ATOM     29  N   UNL A   1      39.205  29.883  31.887  1.00  0.00    -0.248 NA
ATOM     30  C   UNL A   1      38.081  31.797  31.215  1.00  0.00     0.031 C 
ATOM     31  C   UNL A   1      41.691  29.694  35.456  1.00  0.00     0.029 A 
ATOM     32  C   UNL A   1      40.861  29.753  34.350  1.00  0.00     0.049 A 
ATOM     33  H   UNL A   1      41.024  28.703  32.516  1.00  0.00     0.167 HD
ATOM     34  C   UNL A   1      39.016  30.682  32.978  1.00  0.00     0.074 A 
ATOM     35  C   UNL A   1      38.161  31.767  32.548  1.00  0.00     0.031 C 
ATOM     36  C   UNL A   1      39.709  30.612  34.139  1.00  0.00     0.037 A 
BRANCH  23  37
ATOM     37  C   UNL A   1      44.206  26.421  34.227  1.00  0.00     0.064 A 
ATOM     38  C   UNL A   1      45.502  26.881  34.517  1.00  0.00     0.173 A 
ATOM     39  C   UNL A   1      43.761  25.252  34.853  1.00  0.00     0.173 A 
ATOM     40  F   UNL A   1      45.965  27.998  33.936  1.00  0.00    -0.203 F 
ATOM     41  C   UNL A   1      46.327  26.187  35.394  1.00  0.00     0.198 A 
ATOM     42  C   UNL A   1      44.589  24.562  35.735  1.00  0.00     0.198 A 
ATOM     43  F   UNL A   1      42.533  24.775  34.598  1.00  0.00    -0.203 F 
ATOM     44  F   UNL A   1      47.565  26.635  35.644  1.00  0.00    -0.200 F 
ATOM     45  C   UNL A   1      45.870  25.029  36.003  1.00  0.00     0.200 A 
ATOM     46  F   UNL A   1      44.154  23.438  36.322  1.00  0.00    -0.200 F 
ATOM     47  F   UNL A   1      46.667  24.356  36.846  1.00  0.00    -0.200 F 
ENDBRANCH  23  37
BRANCH  24  48
ATOM     48  C   UNL A   1      37.512  30.643  28.679  1.00  0.00     0.064 A 
ATOM     49  C   UNL A   1      36.479  29.714  28.415  1.00  0.00     0.173 A 
ATOM     50  C   UNL A   1      37.197  32.005  28.457  1.00  0.00     0.173 A 
ATOM     51  F   UNL A   1      36.724  28.394  28.381  1.00  0.00    -0.203 F 
ATOM     52  C   UNL A   1      35.189  30.128  28.082  1.00  0.00     0.198 A 
ATOM     53  C   UNL A   1      35.905  32.411  28.125  1.00  0.00     0.198 A 
ATOM     54  F   UNL A   1      38.147  32.947  28.524  1.00  0.00    -0.203 F 
ATOM     55  F   UNL A   1      34.239  29.213  27.845  1.00  0.00    -0.200 F 
ATOM     56  C   UNL A   1      34.899  31.475  27.957  1.00  0.00     0.200 A 
ATOM     57  F   UNL A   1      35.640  33.712  27.947  1.00  0.00    -0.200 F 
ATOM     58  F   UNL A   1      33.661  31.867  27.625  1.00  0.00    -0.200 F 
ENDBRANCH  24  48
BRANCH  36  59
ATOM     59  C   UNL A   1      39.355  31.611  35.189  1.00  0.00     0.064 A 
ATOM     60  C   UNL A   1      38.454  31.284  36.211  1.00  0.00     0.173 A 
ATOM     61  C   UNL A   1      39.937  32.885  35.197  1.00  0.00     0.173 A 
ATOM     62  F   UNL A   1      37.866  30.078  36.233  1.00  0.00    -0.203 F 
ATOM     63  C   UNL A   1      38.151  32.203  37.211  1.00  0.00     0.198 A 
ATOM     64  C   UNL A   1      39.635  33.800  36.202  1.00  0.00     0.198 A 
ATOM     65  F   UNL A   1      40.792  33.242  34.229  1.00  0.00    -0.203 F 
ATOM     66  F   UNL A   1      37.282  31.876  38.178  1.00  0.00    -0.200 F 
ATOM     67  C   UNL A   1      38.744  33.457  37.208  1.00  0.00     0.200 A 
ATOM     68  F   UNL A   1      40.204  35.013  36.194  1.00  0.00    -0.200 F 
ATOM     69  F   UNL A   1      38.452  34.340  38.174  1.00  0.00    -0.200 F 
ENDBRANCH  36  59
ENDBRANCH  10  11
ENDBRANCH   3   5
ENDBRANCH   2   3
ENDBRANCH   1   2
BRANCH   1  70
ATOM     70  C   UNL A   1      44.748  19.101  24.714  1.00  0.00     0.275 C 
BRANCH  70  71
ATOM     71  O   UNL A   1      43.327  19.341  24.678  1.00  0.00    -0.457 OA
BRANCH  71  72
ATOM     72  C   UNL A   1      42.617  18.848  25.732  1.00  0.00     0.357 C 
ATOM     73  O   UNL A   1      42.669  17.703  26.147  1.00  0.00    -0.244 OA
BRANCH  72  74
ATOM     74  C   UNL A   1      41.761  19.921  26.337  1.00  0.00     0.148 A 
ATOM     75  C   UNL A   1      40.524  20.264  25.804  1.00  0.00     0.045 A 
ATOM     76  N   UNL A   1      42.277  20.533  27.432  1.00  0.00    -0.249 NA
ATOM     77  C   UNL A   1      39.785  21.287  26.415  1.00  0.00    -0.004 A 
ATOM     78  C   UNL A   1      41.549  21.516  28.001  1.00  0.00     0.112 A 
ATOM     79  C   UNL A   1      40.315  21.929  27.532  1.00  0.00     0.030 A 
BRANCH  77  80
ATOM     80  C   UNL A   1      38.540  21.758  25.788  1.00  0.00     0.036 A 
ATOM     81  C   UNL A   1      37.669  20.950  25.066  1.00  0.00     0.029 A 
ATOM     82  S   UNL A   1      38.095  23.416  26.024  1.00  0.00    -0.135 S 
ATOM     83  C   UNL A   1      36.354  21.480  25.002  1.00  0.00    -0.007 A 
ATOM     84  C   UNL A   1      36.420  23.133  25.722  1.00  0.00     0.035 A 
ATOM     85  C   UNL A   1      34.711  20.712  24.629  1.00  0.00     0.009 A 
ATOM     86  C   UNL A   1      34.842  24.057  26.118  1.00  0.00     0.019 A 
ATOM     87  C   UNL A   1      33.099  21.618  25.047  1.00  0.00     0.001 A 
ATOM     88  C   UNL A   1      33.192  23.294  25.785  1.00  0.00     0.001 A 
ENDBRANCH  77  80
ENDBRANCH  72  74
ENDBRANCH  71  72
ENDBRANCH  70  71
ENDBRANCH   1  70
TORSDOF 12
ENDMDL
MODEL 2
REMARK VINA RESULT:     -13.2      0.354      2.011
REMARK SMILES O=C(OCCOC(=O)c1cc(-c2cc3ccccc3s2)ccn1)c1ccc(-c2c3nc(c(-c4c(F)c(F)c(F)c(F)c4F)c4ccc([nH]4)c(-c4c(F)c(F)c(F)c(F)c4F)c4nc(c(-c5c(F)c(F)c(F)c(F)c5F)c5ccc2[nH]5)C=C4)C=C3)cc1
REMARK SMILES IDX 4 1 3 2 2 3 1 4 24 5 25 6 86 7 26 8 85 9 27 10 28 11 29 12
REMARK SMILES IDX 79 13 30 14 84 15 78 16 80 17 31 18 83 19 77 20 76 21 32 23
REMARK SMILES IDX 64 24 44 25 63 26 45 27 48 28 62 29 81 30 46 31 47 32 61 34
REMARK SMILES IDX 82 35 49 36 33 37 34 38 42 39 35 40 36 41 40 42 43 43 37 44
REMARK SMILES IDX 38 45 41 46 39 47 65 48 66 49 74 50 67 51 68 52 72 53 75 54
REMARK SMILES IDX 69 55 70 56 73 57 71 58 50 59 51 60 59 61 52 62 53 63 57 64
REMARK SMILES IDX 60 65 54 66 55 67 58 68 56 69 5 70 6 71 7 72 8 73 9 74 10 75
REMARK SMILES IDX 23 76 11 77 22 78 21 79 12 80 13 81 20 82 14 83 19 84 15 85
REMARK SMILES IDX 18 86 16 87 17 88
REMARK H PARENT 80 22 48 33
REMARK Flexibility Score: inf
ROOT
ATOM      1  C   UNL A   1      45.507  20.366  24.565  1.00  0.00     0.275 C 
ENDROOT
BRANCH   1   2
ATOM      2  O   UNL A   1      44.900  21.500  25.227  1.00  0.00    -0.458 OA
BRANCH   2   3
ATOM      3  C   UNL A   1      44.801  22.743  24.696  1.00  0.00     0.338 C 
ATOM      4  O   UNL A   1      45.052  22.990  23.525  1.00  0.00    -0.246 OA
BRANCH   3   5
ATOM      5  C   UNL A   1      44.455  23.845  25.607  1.00  0.00     0.060 A 
ATOM      6  C   UNL A   1      43.158  23.967  26.116  1.00  0.00     0.016 A 
ATOM      7  C   UNL A   1      45.440  24.782  25.921  1.00  0.00     0.016 A 
ATOM      8  C   UNL A   1      42.864  24.993  27.019  1.00  0.00     0.010 A 
ATOM      9  C   UNL A   1      45.139  25.814  26.808  1.00  0.00     0.010 A 
ATOM     10  C   UNL A   1      43.856  25.915  27.375  1.00  0.00    -0.014 A 
BRANCH  10  11
ATOM     11  C   UNL A   1      43.596  26.983  28.363  1.00  0.00     0.031 A 
ATOM     12  C   UNL A   1      43.744  26.722  29.850  1.00  0.00     0.074 A 
ATOM     13  C   UNL A   1      43.004  28.117  27.946  1.00  0.00     0.049 A 
ATOM     14  N   UNL A   1      43.278  27.403  30.877  1.00  0.00    -0.248 NA
ATOM     15  C   UNL A   1      44.502  25.523  30.216  1.00  0.00     0.031 C 
ATOM     16  C   UNL A   1      42.627  28.492  26.618  1.00  0.00     0.029 A 
ATOM     17  N   UNL A   1      42.468  29.086  28.744  1.00  0.00    -0.354 N 
ATOM     18  C   UNL A   1      43.713  26.740  32.018  1.00  0.00     0.074 A 
ATOM     19  C   UNL A   1      44.449  25.573  31.542  1.00  0.00     0.031 C 
ATOM     20  C   UNL A   1      41.644  29.407  26.694  1.00  0.00     0.029 A 
ATOM     21  C   UNL A   1      41.105  29.668  28.265  1.00  0.00     0.049 A 
ATOM     22  H   UNL A   1      42.911  29.396  29.567  1.00  0.00     0.167 HD
ATOM     23  C   UNL A   1      43.576  27.047  33.336  1.00  0.00     0.037 A 
ATOM     24  C   UNL A   1      39.550  30.270  29.123  1.00  0.00     0.037 A 
ATOM     25  C   UNL A   1      42.822  28.117  33.960  1.00  0.00     0.049 A 
ATOM     26  C   UNL A   1      39.172  30.567  30.884  1.00  0.00     0.074 A 
ATOM     27  C   UNL A   1      42.998  28.623  35.243  1.00  0.00     0.029 A 
ATOM     28  N   UNL A   1      41.692  28.755  33.461  1.00  0.00    -0.354 N 
ATOM     29  N   UNL A   1      39.544  29.855  31.928  1.00  0.00    -0.248 NA
ATOM     30  C   UNL A   1      38.475  31.811  31.290  1.00  0.00     0.031 C 
ATOM     31  C   UNL A   1      41.952  29.508  35.538  1.00  0.00     0.029 A 
ATOM     32  C   UNL A   1      41.146  29.617  34.418  1.00  0.00     0.049 A 
ATOM     33  H   UNL A   1      41.325  28.618  32.558  1.00  0.00     0.167 HD
ATOM     34  C   UNL A   1      39.350  30.626  33.037  1.00  0.00     0.074 A 
ATOM     35  C   UNL A   1      38.527  31.741  32.623  1.00  0.00     0.031 C 
ATOM     36  C   UNL A   1      40.018  30.508  34.209  1.00  0.00     0.037 A 
BRANCH  23  37
ATOM     37  C   UNL A   1      44.422  26.218  34.263  1.00  0.00     0.064 A 
ATOM     38  C   UNL A   1      43.933  24.995  34.754  1.00  0.00     0.173 A 
ATOM     39  C   UNL A   1      45.712  26.612  34.631  1.00  0.00     0.173 A 
ATOM     40  F   UNL A   1      42.700  24.583  34.423  1.00  0.00    -0.203 F 
ATOM     41  C   UNL A   1      44.705  24.202  35.593  1.00  0.00     0.198 A 
ATOM     42  C   UNL A   1      46.485  25.812  35.470  1.00  0.00     0.198 A 
ATOM     43  F   UNL A   1      46.215  27.776  34.191  1.00  0.00    -0.203 F 
ATOM     44  F   UNL A   1      44.212  23.047  36.062  1.00  0.00    -0.200 F 
ATOM     45  C   UNL A   1      45.981  24.610  35.950  1.00  0.00     0.200 A 
ATOM     46  F   UNL A   1      47.717  26.205  35.822  1.00  0.00    -0.200 F 
ATOM     47  F   UNL A   1      46.724  23.847  36.763  1.00  0.00    -0.200 F 
ENDBRANCH  23  37
BRANCH  24  48
ATOM     48  C   UNL A   1      37.933  30.743  28.711  1.00  0.00     0.064 A 
ATOM     49  C   UNL A   1      37.497  32.082  28.571  1.00  0.00     0.173 A 
ATOM     50  C   UNL A   1      36.927  29.751  28.648  1.00  0.00     0.173 A 
ATOM     51  F   UNL A   1      38.320  33.111  28.827  1.00  0.00    -0.203 F 
ATOM     52  C   UNL A   1      36.173  32.392  28.259  1.00  0.00     0.198 A 
ATOM     53  C   UNL A   1      35.605  30.069  28.335  1.00  0.00     0.198 A 
ATOM     54  F   UNL A   1      37.209  28.470  28.925  1.00  0.00    -0.203 F 
ATOM     55  F   UNL A   1      35.804  33.674  28.131  1.00  0.00    -0.200 F 
ATOM     56  C   UNL A   1      35.233  31.385  28.122  1.00  0.00     0.200 A 
ATOM     57  F   UNL A   1      34.686  29.097  28.261  1.00  0.00    -0.200 F 
ATOM     58  F   UNL A   1      33.961  31.689  27.835  1.00  0.00    -0.200 F 
ENDBRANCH  24  48
BRANCH  36  59
ATOM     59  C   UNL A   1      39.664  31.483  35.281  1.00  0.00     0.064 A 
ATOM     60  C   UNL A   1      40.340  32.706  35.386  1.00  0.00     0.173 A 
ATOM     61  C   UNL A   1      38.628  31.215  36.186  1.00  0.00     0.173 A 
ATOM     62  F   UNL A   1      41.344  32.996  34.546  1.00  0.00    -0.203 F 
ATOM     63  C   UNL A   1      39.985  33.632  36.362  1.00  0.00     0.198 A 
ATOM     64  C   UNL A   1      38.273  32.145  37.158  1.00  0.00     0.198 A 
ATOM     65  F   UNL A   1      37.966  30.050  36.128  1.00  0.00    -0.203 F 
ATOM     66  F   UNL A   1      40.646  34.794  36.454  1.00  0.00    -0.200 F 
ATOM     67  C   UNL A   1      38.951  33.353  37.245  1.00  0.00     0.200 A 
ATOM     68  F   UNL A   1      37.278  31.872  38.013  1.00  0.00    -0.200 F 
ATOM     69  F   UNL A   1      38.610  34.246  38.184  1.00  0.00    -0.200 F 
ENDBRANCH  36  59
ENDBRANCH  10  11
ENDBRANCH   3   5
ENDBRANCH   2   3
ENDBRANCH   1   2
BRANCH   1  70
ATOM     70  C   UNL A   1      44.758  19.073  24.867  1.00  0.00     0.275 C 
BRANCH  70  71
ATOM     71  O   UNL A   1      43.337  19.256  24.709  1.00  0.00    -0.457 OA
BRANCH  71  72
ATOM     72  C   UNL A   1      42.563  18.798  25.733  1.00  0.00     0.357 C 
ATOM     73  O   UNL A   1      42.560  17.656  26.162  1.00  0.00    -0.244 OA
BRANCH  72  74
ATOM     74  C   UNL A   1      41.714  19.903  26.287  1.00  0.00     0.148 A 
ATOM     75  C   UNL A   1      40.452  20.185  25.780  1.00  0.00     0.045 A 
ATOM     76  N   UNL A   1      42.264  20.607  27.308  1.00  0.00    -0.249 NA
ATOM     77  C   UNL A   1      39.720  21.244  26.339  1.00  0.00    -0.004 A 
ATOM     78  C   UNL A   1      41.542  21.622  27.828  1.00  0.00     0.112 A 
ATOM     79  C   UNL A   1      40.284  21.980  27.379  1.00  0.00     0.030 A 
BRANCH  77  80
ATOM     80  C   UNL A   1      38.443  21.647  25.729  1.00  0.00     0.036 A 
ATOM     81  C   UNL A   1      37.585  20.782  25.059  1.00  0.00     0.029 A 
ATOM     82  S   UNL A   1      37.944  23.295  25.917  1.00  0.00    -0.135 S 
ATOM     83  C   UNL A   1      36.250  21.262  25.011  1.00  0.00    -0.007 A 
ATOM     84  C   UNL A   1      36.273  22.942  25.669  1.00  0.00     0.035 A 
ATOM     85  C   UNL A   1      34.628  20.422  24.708  1.00  0.00     0.009 A 
ATOM     86  C   UNL A   1      34.673  23.822  26.074  1.00  0.00     0.019 A 
ATOM     87  C   UNL A   1      32.994  21.284  25.136  1.00  0.00     0.001 A 
ATOM     88  C   UNL A   1      33.045  22.988  25.812  1.00  0.00     0.001 A 
ENDBRANCH  77  80
ENDBRANCH  72  74
ENDBRANCH  71  72
ENDBRANCH  70  71
ENDBRANCH   1  70
TORSDOF 12
ENDMDL
MODEL 3
REMARK VINA RESULT:     -12.7      5.639     11.358
REMARK SMILES O=C(OCCOC(=O)c1cc(-c2cc3ccccc3s2)ccn1)c1ccc(-c2c3nc(c(-c4c(F)c(F)c(F)c(F)c4F)c4ccc([nH]4)c(-c4c(F)c(F)c(F)c(F)c4F)c4nc(c(-c5c(F)c(F)c(F)c(F)c5F)c5ccc2[nH]5)C=C4)C=C3)cc1
REMARK SMILES IDX 4 1 3 2 2 3 1 4 24 5 25 6 86 7 26 8 85 9 27 10 28 11 29 12
REMARK SMILES IDX 79 13 30 14 84 15 78 16 80 17 31 18 83 19 77 20 76 21 32 23
REMARK SMILES IDX 64 24 44 25 63 26 45 27 48 28 62 29 81 30 46 31 47 32 61 34
REMARK SMILES IDX 82 35 49 36 33 37 34 38 42 39 35 40 36 41 40 42 43 43 37 44
REMARK SMILES IDX 38 45 41 46 39 47 65 48 66 49 74 50 67 51 68 52 72 53 75 54
REMARK SMILES IDX 69 55 70 56 73 57 71 58 50 59 51 60 59 61 52 62 53 63 57 64
REMARK SMILES IDX 60 65 54 66 55 67 58 68 56 69 5 70 6 71 7 72 8 73 9 74 10 75
REMARK SMILES IDX 23 76 11 77 22 78 21 79 12 80 13 81 20 82 14 83 19 84 15 85
REMARK SMILES IDX 18 86 16 87 17 88
REMARK H PARENT 80 22 48 33
REMARK Flexibility Score: inf
ROOT
ATOM      1  C   UNL A   1      33.275  36.591  29.404  1.00  0.00     0.275 C 
ENDROOT
BRANCH   1   2
ATOM      2  O   UNL A   1      32.495  36.319  30.592  1.00  0.00    -0.458 OA
BRANCH   2   3
ATOM      3  C   UNL A   1      32.932  36.500  31.861  1.00  0.00     0.338 C 
ATOM      4  O   UNL A   1      32.639  37.477  32.535  1.00  0.00    -0.246 OA
BRANCH   3   5
ATOM      5  C   UNL A   1      33.868  35.503  32.405  1.00  0.00     0.060 A 
ATOM      6  C   UNL A   1      33.396  34.414  33.147  1.00  0.00     0.016 A 
ATOM      7  C   UNL A   1      35.235  35.690  32.196  1.00  0.00     0.016 A 
ATOM      8  C   UNL A   1      34.299  33.453  33.612  1.00  0.00     0.010 A 
ATOM      9  C   UNL A   1      36.133  34.740  32.676  1.00  0.00     0.010 A 
ATOM     10  C   UNL A   1      35.670  33.608  33.370  1.00  0.00    -0.014 A 
BRANCH  10  11
ATOM     11  C   UNL A   1      36.648  32.588  33.804  1.00  0.00     0.031 A 
ATOM     12  C   UNL A   1      37.774  32.944  34.756  1.00  0.00     0.074 A 
ATOM     13  C   UNL A   1      36.669  31.403  33.168  1.00  0.00     0.049 A 
ATOM     14  N   UNL A   1      38.895  32.303  35.015  1.00  0.00    -0.248 NA
ATOM     15  C   UNL A   1      37.616  34.200  35.493  1.00  0.00     0.031 C 
ATOM     16  C   UNL A   1      35.806  30.931  32.128  1.00  0.00     0.029 A 
ATOM     17  N   UNL A   1      37.648  30.457  33.261  1.00  0.00    -0.354 N 
ATOM     18  C   UNL A   1      39.566  33.053  35.972  1.00  0.00     0.074 A 
ATOM     19  C   UNL A   1      38.731  34.226  36.212  1.00  0.00     0.031 C 
ATOM     20  C   UNL A   1      36.451  29.973  31.439  1.00  0.00     0.029 A 
ATOM     21  C   UNL A   1      38.051  29.778  31.918  1.00  0.00     0.049 A 
ATOM     22  H   UNL A   1      38.072  30.219  34.117  1.00  0.00     0.167 HD
ATOM     23  C   UNL A   1      40.729  32.818  36.637  1.00  0.00     0.037 A 
ATOM     24  C   UNL A   1      39.658  29.149  31.184  1.00  0.00     0.037 A 
ATOM     25  C   UNL A   1      41.693  31.749  36.459  1.00  0.00     0.049 A 
ATOM     26  C   UNL A   1      41.322  28.938  31.905  1.00  0.00     0.074 A 
ATOM     27  C   UNL A   1      42.651  31.330  37.376  1.00  0.00     0.029 A 
ATOM     28  N   UNL A   1      41.946  31.026  35.300  1.00  0.00    -0.354 N 
ATOM     29  N   UNL A   1      41.948  29.729  32.752  1.00  0.00    -0.248 NA
ATOM     30  C   UNL A   1      42.078  27.686  31.663  1.00  0.00     0.031 C 
ATOM     31  C   UNL A   1      43.510  30.411  36.758  1.00  0.00     0.029 A 
ATOM     32  C   UNL A   1      43.060  30.195  35.468  1.00  0.00     0.049 A 
ATOM     33  H   UNL A   1      41.416  31.091  34.473  1.00  0.00     0.167 HD
ATOM     34  C   UNL A   1      42.982  29.016  33.287  1.00  0.00     0.074 A 
ATOM     35  C   UNL A   1      43.137  27.837  32.463  1.00  0.00     0.031 C 
ATOM     36  C   UNL A   1      43.554  29.237  34.494  1.00  0.00     0.037 A 
BRANCH  23  37
ATOM     37  C   UNL A   1      40.985  33.742  37.795  1.00  0.00     0.064 A 
ATOM     38  C   UNL A   1      41.872  34.824  37.647  1.00  0.00     0.173 A 
ATOM     39  C   UNL A   1      40.335  33.581  39.024  1.00  0.00     0.173 A 
ATOM     40  F   UNL A   1      42.514  35.011  36.485  1.00  0.00    -0.203 F 
ATOM     41  C   UNL A   1      42.107  35.704  38.696  1.00  0.00     0.198 A 
ATOM     42  C   UNL A   1      40.571  34.469  40.071  1.00  0.00     0.198 A 
ATOM     43  F   UNL A   1      39.487  32.558  39.210  1.00  0.00    -0.203 F 
ATOM     44  F   UNL A   1      42.968  36.719  38.537  1.00  0.00    -0.200 F 
ATOM     45  C   UNL A   1      41.455  35.526  39.907  1.00  0.00     0.200 A 
ATOM     46  F   UNL A   1      39.948  34.298  41.245  1.00  0.00    -0.200 F 
ATOM     47  F   UNL A   1      41.686  36.373  40.920  1.00  0.00    -0.200 F 
ENDBRANCH  23  37
BRANCH  24  48
ATOM     48  C   UNL A   1      40.259  28.570  29.664  1.00  0.00     0.064 A 
ATOM     49  C   UNL A   1      41.072  29.320  28.781  1.00  0.00     0.173 A 
ATOM     50  C   UNL A   1      39.802  27.321  29.180  1.00  0.00     0.173 A 
ATOM     51  F   UNL A   1      41.383  30.599  29.042  1.00  0.00    -0.203 F 
ATOM     52  C   UNL A   1      41.503  28.798  27.561  1.00  0.00     0.198 A 
ATOM     53  C   UNL A   1      40.237  26.807  27.959  1.00  0.00     0.198 A 
ATOM     54  F   UNL A   1      38.902  26.607  29.870  1.00  0.00    -0.203 F 
ATOM     55  F   UNL A   1      42.276  29.541  26.758  1.00  0.00    -0.200 F 
ATOM     56  C   UNL A   1      41.101  27.536  27.160  1.00  0.00     0.200 A 
ATOM     57  F   UNL A   1      39.801  25.608  27.547  1.00  0.00    -0.200 F 
ATOM     58  F   UNL A   1      41.508  27.045  25.982  1.00  0.00    -0.200 F 
ENDBRANCH  24  48
BRANCH  36  59
ATOM     59  C   UNL A   1      44.653  28.310  34.892  1.00  0.00     0.064 A 
ATOM     60  C   UNL A   1      45.988  28.613  34.591  1.00  0.00     0.173 A 
ATOM     61  C   UNL A   1      44.382  27.134  35.602  1.00  0.00     0.173 A 
ATOM     62  F   UNL A   1      46.289  29.724  33.903  1.00  0.00    -0.203 F 
ATOM     63  C   UNL A   1      47.016  27.767  34.994  1.00  0.00     0.198 A 
ATOM     64  C   UNL A   1      45.413  26.292  36.008  1.00  0.00     0.198 A 
ATOM     65  F   UNL A   1      43.117  26.800  35.897  1.00  0.00    -0.203 F 
ATOM     66  F   UNL A   1      48.287  28.068  34.693  1.00  0.00    -0.200 F 
ATOM     67  C   UNL A   1      46.729  26.610  35.704  1.00  0.00     0.200 A 
ATOM     68  F   UNL A   1      45.134  25.172  36.688  1.00  0.00    -0.200 F 
ATOM     69  F   UNL A   1      47.721  25.797  36.093  1.00  0.00    -0.200 F 
ENDBRANCH  36  59
ENDBRANCH  10  11
ENDBRANCH   3   5
ENDBRANCH   2   3
ENDBRANCH   1   2
BRANCH   1  70
ATOM     70  C   UNL A   1      33.326  35.382  28.477  1.00  0.00     0.275 C 
BRANCH  70  71
ATOM     71  O   UNL A   1      33.881  34.239  29.158  1.00  0.00    -0.457 OA
BRANCH  71  72
ATOM     72  C   UNL A   1      34.062  33.125  28.394  1.00  0.00     0.357 C 
ATOM     73  O   UNL A   1      33.225  32.626  27.661  1.00  0.00    -0.244 OA
BRANCH  72  74
ATOM     74  C   UNL A   1      35.455  32.593  28.560  1.00  0.00     0.148 A 
ATOM     75  C   UNL A   1      36.417  33.268  29.301  1.00  0.00     0.045 A 
ATOM     76  N   UNL A   1      35.710  31.416  27.935  1.00  0.00    -0.249 NA
ATOM     77  C   UNL A   1      37.703  32.717  29.401  1.00  0.00    -0.004 A 
ATOM     78  C   UNL A   1      36.954  30.907  28.043  1.00  0.00     0.112 A 
ATOM     79  C   UNL A   1      37.975  31.515  28.751  1.00  0.00     0.030 A 
BRANCH  77  80
ATOM     80  C   UNL A   1      38.772  33.481  30.064  1.00  0.00     0.036 A 
ATOM     81  C   UNL A   1      39.187  33.275  31.374  1.00  0.00     0.029 A 
ATOM     82  S   UNL A   1      39.615  34.668  29.126  1.00  0.00    -0.135 S 
ATOM     83  C   UNL A   1      40.504  33.749  31.613  1.00  0.00    -0.007 A 
ATOM     84  C   UNL A   1      41.017  34.638  30.130  1.00  0.00     0.035 A 
ATOM     85  C   UNL A   1      41.749  33.373  32.930  1.00  0.00     0.009 A 
ATOM     86  C   UNL A   1      42.802  35.153  29.905  1.00  0.00     0.019 A 
ATOM     87  C   UNL A   1      43.569  33.859  32.712  1.00  0.00     0.001 A 
ATOM     88  C   UNL A   1      44.068  34.755  31.192  1.00  0.00     0.001 A 
ENDBRANCH  77  80
ENDBRANCH  72  74
ENDBRANCH  71  72
ENDBRANCH  70  71
ENDBRANCH   1  70
TORSDOF 12
ENDMDL
