MODEL 1
REMARK VINA RESULT:     -11.3      0.000      0.000
REMARK SMILES CCc1ccc2c(c1)C=C(C(=O)OCCOC(=O)c1ccc(-c3c4nc(c(-c5c(F)c(F)c(F)c(F)c5F)c5ccc([nH]5)c(-c5c(F)c(F)c(F)c(F)c5F)c5nc(c(-c6c(F)c(F)c(F)c(F)c6F)c6ccc3[nH]6)C=C5)C=C4)cc1)[C@H](C(F)(F)F)O2
REMARK SMILES IDX 15 1 14 2 13 3 11 4 12 5 10 6 3 7 4 8 8 9 5 10 7 11 6 12
REMARK SMILES IDX 9 13 87 14 82 15 2 16 1 17 83 18 84 19 85 20 86 21 16 22
REMARK SMILES IDX 17 23 18 24 19 25 20 26 81 27 21 28 80 29 22 30 23 31 24 32
REMARK SMILES IDX 74 33 25 34 79 35 73 36 75 37 26 38 78 39 72 40 71 41 27 43
REMARK SMILES IDX 59 44 39 45 58 46 40 47 43 48 57 49 76 50 41 51 42 52 56 54
REMARK SMILES IDX 77 55 44 56 28 57 29 58 37 59 30 60 31 61 35 62 38 63 32 64
REMARK SMILES IDX 33 65 36 66 34 67 60 68 61 69 69 70 62 71 63 72 67 73 70 74
REMARK SMILES IDX 64 75 65 76 68 77 66 78 45 79 46 80 54 81 47 82 48 83 52 84
REMARK SMILES IDX 55 85 49 86 50 87 53 88 51 89
REMARK H PARENT 75 42 43 53
REMARK Flexibility Score: inf
ROOT
ATOM      1  C   UNL A   1      34.990  32.989  28.015  1.00  0.00     0.275 C 
ENDROOT
BRANCH   1   2
ATOM      2  C   UNL A   1      34.218  34.302  28.160  1.00  0.00     0.275 C 
BRANCH   2   3
ATOM      3  O   UNL A   1      34.581  35.012  29.364  1.00  0.00    -0.459 OA
BRANCH   3   4
ATOM      4  C   UNL A   1      33.737  34.858  30.419  1.00  0.00     0.338 C 
ATOM      5  O   UNL A   1      32.531  34.983  30.374  1.00  0.00    -0.246 OA
BRANCH   4   6
ATOM      6  C   UNL A   1      34.462  34.471  31.657  1.00  0.00     0.087 C 
ATOM      7  C   UNL A   1      37.622  31.748  34.139  1.00  0.00    -0.047 A 
ATOM      8  C   UNL A   1      37.456  32.600  35.239  1.00  0.00     0.007 A 
ATOM      9  C   UNL A   1      36.909  32.018  32.956  1.00  0.00     0.015 A 
ATOM     10  C   UNL A   1      36.618  33.710  35.154  1.00  0.00     0.047 A 
ATOM     11  C   UNL A   1      36.059  33.131  32.867  1.00  0.00     0.018 A 
ATOM     12  C   UNL A   1      35.935  33.975  33.969  1.00  0.00     0.128 A 
ATOM     13  C   UNL A   1      35.359  33.470  31.629  1.00  0.00     0.027 C 
ATOM     14  O   UNL A   1      35.228  35.142  33.929  1.00  0.00    -0.475 OA
ATOM     15  C   UNL A   1      34.161  35.224  32.944  1.00  0.00     0.316 C 
BRANCH   7  16
ATOM     16  C   UNL A   1      38.634  30.625  34.183  1.00  0.00     0.032 C 
ATOM     17  C   UNL A   1      38.262  29.402  33.355  1.00  0.00     0.009 C 
ENDBRANCH   7  16
BRANCH  15  18
ATOM     18  C   UNL A   1      33.752  36.709  32.857  1.00  0.00     0.430 C 
ATOM     19  F   UNL A   1      32.433  36.861  32.603  1.00  0.00    -0.167 F 
ATOM     20  F   UNL A   1      33.956  37.326  34.054  1.00  0.00    -0.167 F 
ATOM     21  F   UNL A   1      34.461  37.396  31.938  1.00  0.00    -0.167 F 
ENDBRANCH  15  18
ENDBRANCH   4   6
ENDBRANCH   3   4
ENDBRANCH   2   3
ENDBRANCH   1   2
BRANCH   1  22
ATOM     22  O   UNL A   1      34.279  31.894  28.620  1.00  0.00    -0.458 OA
BRANCH  22  23
ATOM     23  C   UNL A   1      34.472  30.693  28.026  1.00  0.00     0.338 C 
ATOM     24  O   UNL A   1      33.712  30.118  27.263  1.00  0.00    -0.246 OA
BRANCH  23  25
ATOM     25  C   UNL A   1      35.852  30.227  28.271  1.00  0.00     0.060 A 
ATOM     26  C   UNL A   1      36.149  29.797  29.568  1.00  0.00     0.016 A 
ATOM     27  C   UNL A   1      36.838  30.212  27.282  1.00  0.00     0.016 A 
ATOM     28  C   UNL A   1      37.410  29.288  29.869  1.00  0.00     0.010 A 
ATOM     29  C   UNL A   1      38.122  29.749  27.597  1.00  0.00     0.010 A 
ATOM     30  C   UNL A   1      38.410  29.275  28.889  1.00  0.00    -0.014 A 
BRANCH  30  31
ATOM     31  C   UNL A   1      39.782  28.862  29.264  1.00  0.00     0.031 A 
ATOM     32  C   UNL A   1      40.592  29.749  30.163  1.00  0.00     0.074 A 
ATOM     33  C   UNL A   1      40.282  27.685  28.848  1.00  0.00     0.049 A 
ATOM     34  N   UNL A   1      41.806  29.582  30.620  1.00  0.00    -0.248 NA
ATOM     35  C   UNL A   1      39.939  30.986  30.618  1.00  0.00     0.031 C 
ATOM     36  C   UNL A   1      39.568  26.704  28.035  1.00  0.00     0.029 A 
ATOM     37  N   UNL A   1      41.516  27.120  29.056  1.00  0.00    -0.354 N 
ATOM     38  C   UNL A   1      42.057  30.680  31.431  1.00  0.00     0.074 A 
ATOM     39  C   UNL A   1      40.879  31.519  31.386  1.00  0.00     0.031 C 
ATOM     40  C   UNL A   1      40.385  25.663  27.794  1.00  0.00     0.029 A 
ATOM     41  C   UNL A   1      41.684  25.919  28.414  1.00  0.00     0.049 A 
ATOM     42  H   UNL A   1      42.213  27.537  29.612  1.00  0.00     0.167 HD
ATOM     43  C   UNL A   1      43.170  30.962  32.148  1.00  0.00     0.037 A 
ATOM     44  C   UNL A   1      42.773  25.130  28.320  1.00  0.00     0.037 A 
ATOM     45  C   UNL A   1      44.358  30.151  32.160  1.00  0.00     0.049 A 
ATOM     46  C   UNL A   1      44.044  25.532  29.028  1.00  0.00     0.074 A 
ATOM     47  C   UNL A   1      45.545  30.368  32.840  1.00  0.00     0.029 A 
ATOM     48  N   UNL A   1      44.517  28.974  31.445  1.00  0.00    -0.354 N 
ATOM     49  N   UNL A   1      44.269  26.562  29.808  1.00  0.00    -0.248 NA
ATOM     50  C   UNL A   1      45.213  24.661  28.839  1.00  0.00     0.031 C 
ATOM     51  C   UNL A   1      46.440  29.351  32.492  1.00  0.00     0.029 A 
ATOM     52  C   UNL A   1      45.793  28.470  31.640  1.00  0.00     0.049 A 
ATOM     53  H   UNL A   1      43.826  28.558  30.880  1.00  0.00     0.167 HD
ATOM     54  C   UNL A   1      45.589  26.444  30.227  1.00  0.00     0.074 A 
ATOM     55  C   UNL A   1      46.114  25.238  29.622  1.00  0.00     0.031 C 
ATOM     56  C   UNL A   1      46.301  27.262  31.042  1.00  0.00     0.037 A 
BRANCH  43  57
ATOM     57  C   UNL A   1      43.166  32.232  32.943  1.00  0.00     0.064 A 
ATOM     58  C   UNL A   1      42.721  32.264  34.273  1.00  0.00     0.173 A 
ATOM     59  C   UNL A   1      43.631  33.427  32.374  1.00  0.00     0.173 A 
ATOM     60  F   UNL A   1      42.250  31.151  34.855  1.00  0.00    -0.203 F 
ATOM     61  C   UNL A   1      42.720  33.453  34.997  1.00  0.00     0.198 A 
ATOM     62  C   UNL A   1      43.652  34.609  33.110  1.00  0.00     0.198 A 
ATOM     63  F   UNL A   1      44.068  33.448  31.106  1.00  0.00    -0.203 F 
ATOM     64  F   UNL A   1      42.249  33.471  36.252  1.00  0.00    -0.200 F 
ATOM     65  C   UNL A   1      43.190  34.622  34.417  1.00  0.00     0.200 A 
ATOM     66  F   UNL A   1      44.114  35.735  32.551  1.00  0.00    -0.200 F 
ATOM     67  F   UNL A   1      43.189  35.765  35.117  1.00  0.00    -0.200 F 
ENDBRANCH  43  57
BRANCH  44  68
ATOM     68  C   UNL A   1      42.730  23.891  27.501  1.00  0.00     0.064 A 
ATOM     69  C   UNL A   1      42.351  22.662  28.061  1.00  0.00     0.173 A 
ATOM     70  C   UNL A   1      43.114  23.901  26.153  1.00  0.00     0.173 A 
ATOM     71  F   UNL A   1      42.009  22.594  29.356  1.00  0.00    -0.203 F 
ATOM     72  C   UNL A   1      42.379  21.489  27.309  1.00  0.00     0.198 A 
ATOM     73  C   UNL A   1      43.115  22.733  25.394  1.00  0.00     0.198 A 
ATOM     74  F   UNL A   1      43.498  25.048  25.572  1.00  0.00    -0.203 F 
ATOM     75  F   UNL A   1      42.068  20.320  27.884  1.00  0.00    -0.200 F 
ATOM     76  C   UNL A   1      42.757  21.526  25.975  1.00  0.00     0.200 A 
ATOM     77  F   UNL A   1      43.478  22.774  24.104  1.00  0.00    -0.200 F 
ATOM     78  F   UNL A   1      42.791  20.397  25.255  1.00  0.00    -0.200 F 
ENDBRANCH  44  68
BRANCH  56  79
ATOM     79  C   UNL A   1      47.713  26.864  31.363  1.00  0.00     0.064 A 
ATOM     80  C   UNL A   1      48.012  25.976  32.405  1.00  0.00     0.173 A 
ATOM     81  C   UNL A   1      48.778  27.341  30.581  1.00  0.00     0.173 A 
ATOM     82  F   UNL A   1      47.033  25.502  33.190  1.00  0.00    -0.203 F 
ATOM     83  C   UNL A   1      49.325  25.594  32.667  1.00  0.00     0.198 A 
ATOM     84  C   UNL A   1      50.087  26.934  30.827  1.00  0.00     0.198 A 
ATOM     85  F   UNL A   1      48.546  28.187  29.567  1.00  0.00    -0.203 F 
ATOM     86  F   UNL A   1      49.593  24.776  33.695  1.00  0.00    -0.200 F 
ATOM     87  C   UNL A   1      50.361  26.067  31.873  1.00  0.00     0.200 A 
ATOM     88  F   UNL A   1      51.082  27.381  30.050  1.00  0.00    -0.200 F 
ATOM     89  F   UNL A   1      51.623  25.691  32.119  1.00  0.00    -0.200 F 
ENDBRANCH  56  79
ENDBRANCH  30  31
ENDBRANCH  23  25
ENDBRANCH  22  23
ENDBRANCH   1  22
TORSDOF 13
ENDMDL
MODEL 2
REMARK VINA RESULT:     -11.2      4.209      9.714
REMARK SMILES CCc1ccc2c(c1)C=C(C(=O)OCCOC(=O)c1ccc(-c3c4nc(c(-c5c(F)c(F)c(F)c(F)c5F)c5ccc([nH]5)c(-c5c(F)c(F)c(F)c(F)c5F)c5nc(c(-c6c(F)c(F)c(F)c(F)c6F)c6ccc3[nH]6)C=C5)C=C4)cc1)[C@H](C(F)(F)F)O2
REMARK SMILES IDX 15 1 14 2 13 3 11 4 12 5 10 6 3 7 4 8 8 9 5 10 7 11 6 12
REMARK SMILES IDX 9 13 87 14 82 15 2 16 1 17 83 18 84 19 85 20 86 21 16 22
REMARK SMILES IDX 17 23 18 24 19 25 20 26 81 27 21 28 80 29 22 30 23 31 24 32
REMARK SMILES IDX 74 33 25 34 79 35 73 36 75 37 26 38 78 39 72 40 71 41 27 43
REMARK SMILES IDX 59 44 39 45 58 46 40 47 43 48 57 49 76 50 41 51 42 52 56 54
REMARK SMILES IDX 77 55 44 56 28 57 29 58 37 59 30 60 31 61 35 62 38 63 32 64
REMARK SMILES IDX 33 65 36 66 34 67 60 68 61 69 69 70 62 71 63 72 67 73 70 74
REMARK SMILES IDX 64 75 65 76 68 77 66 78 45 79 46 80 54 81 47 82 48 83 52 84
REMARK SMILES IDX 55 85 49 86 50 87 53 88 51 89
REMARK H PARENT 75 42 43 53
REMARK Flexibility Score: inf
ROOT
ATOM      1  C   UNL A   1      31.561  30.051  25.652  1.00  0.00     0.275 C 
ENDROOT
BRANCH   1   2
ATOM      2  C   UNL A   1      31.428  29.390  24.278  1.00  0.00     0.275 C 
BRANCH   2   3
ATOM      3  O   UNL A   1      32.469  28.416  24.045  1.00  0.00    -0.459 OA
BRANCH   3   4
ATOM      4  C   UNL A   1      32.063  27.231  23.514  1.00  0.00     0.338 C 
ATOM      5  O   UNL A   1      31.379  27.108  22.520  1.00  0.00    -0.246 OA
BRANCH   4   6
ATOM      6  C   UNL A   1      32.592  26.072  24.277  1.00  0.00     0.087 C 
ATOM      7  C   UNL A   1      36.177  23.163  25.779  1.00  0.00    -0.047 A 
ATOM      8  C   UNL A   1      35.269  22.527  26.637  1.00  0.00     0.007 A 
ATOM      9  C   UNL A   1      35.722  24.225  24.975  1.00  0.00     0.015 A 
ATOM     10  C   UNL A   1      33.945  22.956  26.709  1.00  0.00     0.047 A 
ATOM     11  C   UNL A   1      34.389  24.657  25.040  1.00  0.00     0.018 A 
ATOM     12  C   UNL A   1      33.516  24.022  25.923  1.00  0.00     0.128 A 
ATOM     13  C   UNL A   1      33.909  25.799  24.265  1.00  0.00     0.027 C 
ATOM     14  O   UNL A   1      32.240  24.454  26.137  1.00  0.00    -0.475 OA
ATOM     15  C   UNL A   1      31.616  25.206  25.060  1.00  0.00     0.316 C 
BRANCH   7  16
ATOM     16  C   UNL A   1      37.642  22.791  25.800  1.00  0.00     0.032 C 
ATOM     17  C   UNL A   1      38.547  23.814  26.474  1.00  0.00     0.009 C 
ENDBRANCH   7  16
BRANCH  15  18
ATOM     18  C   UNL A   1      30.352  25.863  25.652  1.00  0.00     0.430 C 
ATOM     19  F   UNL A   1      29.478  26.243  24.692  1.00  0.00    -0.167 F 
ATOM     20  F   UNL A   1      29.670  24.967  26.418  1.00  0.00    -0.167 F 
ATOM     21  F   UNL A   1      30.630  26.921  26.441  1.00  0.00    -0.167 F 
ENDBRANCH  15  18
ENDBRANCH   4   6
ENDBRANCH   3   4
ENDBRANCH   2   3
ENDBRANCH   1   2
BRANCH   1  22
ATOM     22  O   UNL A   1      32.942  30.188  26.036  1.00  0.00    -0.458 OA
BRANCH  22  23
ATOM     23  C   UNL A   1      33.212  31.263  26.813  1.00  0.00     0.338 C 
ATOM     24  O   UNL A   1      32.489  32.226  27.013  1.00  0.00    -0.246 OA
BRANCH  23  25
ATOM     25  C   UNL A   1      34.458  31.034  27.572  1.00  0.00     0.060 A 
ATOM     26  C   UNL A   1      34.685  29.732  28.028  1.00  0.00     0.016 A 
ATOM     27  C   UNL A   1      35.381  32.046  27.844  1.00  0.00     0.016 A 
ATOM     28  C   UNL A   1      35.864  29.418  28.701  1.00  0.00     0.010 A 
ATOM     29  C   UNL A   1      36.542  31.742  28.567  1.00  0.00     0.010 A 
ATOM     30  C   UNL A   1      36.793  30.425  28.989  1.00  0.00    -0.014 A 
BRANCH  30  31
ATOM     31  C   UNL A   1      37.971  30.101  29.825  1.00  0.00     0.031 A 
ATOM     32  C   UNL A   1      39.012  29.163  29.289  1.00  0.00     0.074 A 
ATOM     33  C   UNL A   1      38.135  30.672  31.031  1.00  0.00     0.049 A 
ATOM     34  N   UNL A   1      40.120  28.746  29.845  1.00  0.00    -0.248 NA
ATOM     35  C   UNL A   1      38.778  28.635  27.936  1.00  0.00     0.031 C 
ATOM     36  C   UNL A   1      37.234  31.654  31.630  1.00  0.00     0.029 A 
ATOM     37  N   UNL A   1      39.125  30.505  31.968  1.00  0.00    -0.354 N 
ATOM     38  C   UNL A   1      40.726  27.922  28.905  1.00  0.00     0.074 A 
ATOM     39  C   UNL A   1      39.852  27.880  27.752  1.00  0.00     0.031 C 
ATOM     40  C   UNL A   1      37.702  31.987  32.846  1.00  0.00     0.029 A 
ATOM     41  C   UNL A   1      38.919  31.223  33.118  1.00  0.00     0.049 A 
ATOM     42  H   UNL A   1      39.907  29.924  31.827  1.00  0.00     0.167 HD
ATOM     43  C   UNL A   1      41.903  27.262  28.997  1.00  0.00     0.037 A 
ATOM     44  C   UNL A   1      39.622  31.240  34.268  1.00  0.00     0.037 A 
ATOM     45  C   UNL A   1      42.753  27.270  30.158  1.00  0.00     0.049 A 
ATOM     46  C   UNL A   1      40.866  30.395  34.390  1.00  0.00     0.074 A 
ATOM     47  C   UNL A   1      43.956  26.612  30.352  1.00  0.00     0.029 A 
ATOM     48  N   UNL A   1      42.479  27.956  31.332  1.00  0.00    -0.354 N 
ATOM     49  N   UNL A   1      41.443  29.634  33.493  1.00  0.00    -0.248 NA
ATOM     50  C   UNL A   1      41.555  30.413  35.689  1.00  0.00     0.031 C 
ATOM     51  C   UNL A   1      44.382  26.858  31.661  1.00  0.00     0.029 A 
ATOM     52  C   UNL A   1      43.473  27.712  32.265  1.00  0.00     0.049 A 
ATOM     53  H   UNL A   1      41.693  28.530  31.480  1.00  0.00     0.167 HD
ATOM     54  C   UNL A   1      42.575  29.110  34.105  1.00  0.00     0.074 A 
ATOM     55  C   UNL A   1      42.611  29.647  35.448  1.00  0.00     0.031 C 
ATOM     56  C   UNL A   1      43.504  28.262  33.597  1.00  0.00     0.037 A 
BRANCH  43  57
ATOM     57  C   UNL A   1      42.317  26.437  27.817  1.00  0.00     0.064 A 
ATOM     58  C   UNL A   1      41.847  25.127  27.636  1.00  0.00     0.173 A 
ATOM     59  C   UNL A   1      43.179  26.968  26.847  1.00  0.00     0.173 A 
ATOM     60  F   UNL A   1      41.035  24.569  28.546  1.00  0.00    -0.203 F 
ATOM     61  C   UNL A   1      42.245  24.372  26.536  1.00  0.00     0.198 A 
ATOM     62  C   UNL A   1      43.554  26.218  25.735  1.00  0.00     0.198 A 
ATOM     63  F   UNL A   1      43.656  28.215  26.975  1.00  0.00    -0.203 F 
ATOM     64  F   UNL A   1      41.819  23.108  26.405  1.00  0.00    -0.200 F 
ATOM     65  C   UNL A   1      43.093  24.919  25.584  1.00  0.00     0.200 A 
ATOM     66  F   UNL A   1      44.368  26.751  24.813  1.00  0.00    -0.200 F 
ATOM     67  F   UNL A   1      43.473  24.191  24.526  1.00  0.00    -0.200 F 
ENDBRANCH  43  57
BRANCH  44  68
ATOM     68  C   UNL A   1      39.157  32.062  35.416  1.00  0.00     0.064 A 
ATOM     69  C   UNL A   1      39.530  33.407  35.546  1.00  0.00     0.173 A 
ATOM     70  C   UNL A   1      38.369  31.503  36.433  1.00  0.00     0.173 A 
ATOM     71  F   UNL A   1      40.312  33.977  34.618  1.00  0.00    -0.203 F 
ATOM     72  C   UNL A   1      39.151  34.156  36.659  1.00  0.00     0.198 A 
ATOM     73  C   UNL A   1      37.966  32.260  37.532  1.00  0.00     0.198 A 
ATOM     74  F   UNL A   1      37.995  30.217  36.364  1.00  0.00    -0.203 F 
ATOM     75  F   UNL A   1      39.569  35.421  36.786  1.00  0.00    -0.200 F 
ATOM     76  C   UNL A   1      38.366  33.583  37.649  1.00  0.00     0.200 A 
ATOM     77  F   UNL A   1      37.206  31.703  38.485  1.00  0.00    -0.200 F 
ATOM     78  F   UNL A   1      38.008  34.300  38.722  1.00  0.00    -0.200 F 
ENDBRANCH  44  68
BRANCH  56  79
ATOM     79  C   UNL A   1      44.661  27.889  34.479  1.00  0.00     0.064 A 
ATOM     80  C   UNL A   1      45.827  28.665  34.536  1.00  0.00     0.173 A 
ATOM     81  C   UNL A   1      44.577  26.766  35.319  1.00  0.00     0.173 A 
ATOM     82  F   UNL A   1      45.962  29.740  33.745  1.00  0.00    -0.203 F 
ATOM     83  C   UNL A   1      46.876  28.320  35.385  1.00  0.00     0.198 A 
ATOM     84  C   UNL A   1      45.616  26.441  36.187  1.00  0.00     0.198 A 
ATOM     85  F   UNL A   1      43.481  25.994  35.309  1.00  0.00    -0.203 F 
ATOM     86  F   UNL A   1      47.999  29.052  35.392  1.00  0.00    -0.200 F 
ATOM     87  C   UNL A   1      46.767  27.214  36.215  1.00  0.00     0.200 A 
ATOM     88  F   UNL A   1      45.502  25.380  36.998  1.00  0.00    -0.200 F 
ATOM     89  F   UNL A   1      47.773  26.889  37.039  1.00  0.00    -0.200 F 
ENDBRANCH  56  79
ENDBRANCH  30  31
ENDBRANCH  23  25
ENDBRANCH  22  23
ENDBRANCH   1  22
TORSDOF 13
ENDMDL
MODEL 3
REMARK VINA RESULT:     -11.2      4.189      9.679
REMARK SMILES CCc1ccc2c(c1)C=C(C(=O)OCCOC(=O)c1ccc(-c3c4nc(c(-c5c(F)c(F)c(F)c(F)c5F)c5ccc([nH]5)c(-c5c(F)c(F)c(F)c(F)c5F)c5nc(c(-c6c(F)c(F)c(F)c(F)c6F)c6ccc3[nH]6)C=C5)C=C4)cc1)[C@H](C(F)(F)F)O2
REMARK SMILES IDX 15 1 14 2 13 3 11 4 12 5 10 6 3 7 4 8 8 9 5 10 7 11 6 12
REMARK SMILES IDX 9 13 87 14 82 15 2 16 1 17 83 18 84 19 85 20 86 21 16 22
REMARK SMILES IDX 17 23 18 24 19 25 20 26 81 27 21 28 80 29 22 30 23 31 24 32
REMARK SMILES IDX 74 33 25 34 79 35 73 36 75 37 26 38 78 39 72 40 71 41 27 43
REMARK SMILES IDX 59 44 39 45 58 46 40 47 43 48 57 49 76 50 41 51 42 52 56 54
REMARK SMILES IDX 77 55 44 56 28 57 29 58 37 59 30 60 31 61 35 62 38 63 32 64
REMARK SMILES IDX 33 65 36 66 34 67 60 68 61 69 69 70 62 71 63 72 67 73 70 74
REMARK SMILES IDX 64 75 65 76 68 77 66 78 45 79 46 80 54 81 47 82 48 83 52 84
REMARK SMILES IDX 55 85 49 86 50 87 53 88 51 89
REMARK H PARENT 75 42 43 53
REMARK Flexibility Score: inf
ROOT
ATOM      1  C   UNL A   1      31.652  30.302  25.910  1.00  0.00     0.275 C 
ENDROOT
BRANCH   1   2
ATOM      2  C   UNL A   1      31.434  29.529  24.608  1.00  0.00     0.275 C 
BRANCH   2   3
ATOM      3  O   UNL A   1      32.508  28.598  24.347  1.00  0.00    -0.459 OA
BRANCH   3   4
ATOM      4  C   UNL A   1      32.158  27.462  23.685  1.00  0.00     0.338 C 
ATOM      5  O   UNL A   1      31.557  27.424  22.631  1.00  0.00    -0.246 OA
BRANCH   4   6
ATOM      6  C   UNL A   1      32.639  26.243  24.384  1.00  0.00     0.087 C 
ATOM      7  C   UNL A   1      36.102  23.126  25.744  1.00  0.00    -0.047 A 
ATOM      8  C   UNL A   1      35.164  22.474  26.555  1.00  0.00     0.007 A 
ATOM      9  C   UNL A   1      35.694  24.248  24.999  1.00  0.00     0.015 A 
ATOM     10  C   UNL A   1      33.855  22.945  26.641  1.00  0.00     0.047 A 
ATOM     11  C   UNL A   1      34.376  24.723  25.078  1.00  0.00     0.018 A 
ATOM     12  C   UNL A   1      33.472  24.069  25.914  1.00  0.00     0.128 A 
ATOM     13  C   UNL A   1      33.945  25.925  24.367  1.00  0.00     0.027 C 
ATOM     14  O   UNL A   1      32.209  24.534  26.142  1.00  0.00    -0.475 OA
ATOM     15  C   UNL A   1      31.625  25.368  25.106  1.00  0.00     0.316 C 
BRANCH   7  16
ATOM     16  C   UNL A   1      37.553  22.701  25.756  1.00  0.00     0.032 C 
ATOM     17  C   UNL A   1      38.486  23.650  26.497  1.00  0.00     0.009 C 
ENDBRANCH   7  16
BRANCH  15  18
ATOM     18  C   UNL A   1      30.377  26.035  25.724  1.00  0.00     0.430 C 
ATOM     19  F   UNL A   1      29.656  25.170  26.473  1.00  0.00    -0.167 F 
ATOM     20  F   UNL A   1      30.748  27.023  26.584  1.00  0.00    -0.167 F 
ATOM     21  F   UNL A   1      29.572  26.600  24.802  1.00  0.00    -0.167 F 
ENDBRANCH  15  18
ENDBRANCH   4   6
ENDBRANCH   3   4
ENDBRANCH   2   3
ENDBRANCH   1   2
BRANCH   1  22
ATOM     22  O   UNL A   1      33.054  30.442  26.208  1.00  0.00    -0.458 OA
BRANCH  22  23
ATOM     23  C   UNL A   1      33.362  31.482  27.018  1.00  0.00     0.338 C 
ATOM     24  O   UNL A   1      32.673  32.463  27.250  1.00  0.00    -0.246 OA
BRANCH  23  25
ATOM     25  C   UNL A   1      34.600  31.186  27.767  1.00  0.00     0.060 A 
ATOM     26  C   UNL A   1      34.727  29.894  28.284  1.00  0.00     0.016 A 
ATOM     27  C   UNL A   1      35.609  32.129  27.973  1.00  0.00     0.016 A 
ATOM     28  C   UNL A   1      35.890  29.514  28.952  1.00  0.00     0.010 A 
ATOM     29  C   UNL A   1      36.756  31.764  28.690  1.00  0.00     0.010 A 
ATOM     30  C   UNL A   1      36.905  30.452  29.173  1.00  0.00    -0.014 A 
BRANCH  30  31
ATOM     31  C   UNL A   1      38.069  30.071  30.005  1.00  0.00     0.031 A 
ATOM     32  C   UNL A   1      39.083  29.115  29.449  1.00  0.00     0.074 A 
ATOM     33  C   UNL A   1      38.246  30.607  31.226  1.00  0.00     0.049 A 
ATOM     34  N   UNL A   1      40.176  28.650  29.998  1.00  0.00    -0.248 NA
ATOM     35  C   UNL A   1      38.838  28.628  28.083  1.00  0.00     0.031 C 
ATOM     36  C   UNL A   1      37.373  31.600  31.846  1.00  0.00     0.029 A 
ATOM     37  N   UNL A   1      39.226  30.385  32.162  1.00  0.00    -0.354 N 
ATOM     38  C   UNL A   1      40.759  27.832  29.041  1.00  0.00     0.074 A 
ATOM     39  C   UNL A   1      39.889  27.845  27.884  1.00  0.00     0.031 C 
ATOM     40  C   UNL A   1      37.846  31.888  33.072  1.00  0.00     0.029 A 
ATOM     41  C   UNL A   1      39.037  31.080  33.329  1.00  0.00     0.049 A 
ATOM     42  H   UNL A   1      39.991  29.784  32.009  1.00  0.00     0.167 HD
ATOM     43  C   UNL A   1      41.915  27.133  29.120  1.00  0.00     0.037 A 
ATOM     44  C   UNL A   1      39.735  31.047  34.481  1.00  0.00     0.037 A 
ATOM     45  C   UNL A   1      42.760  27.085  30.284  1.00  0.00     0.049 A 
ATOM     46  C   UNL A   1      40.953  30.161  34.586  1.00  0.00     0.074 A 
ATOM     47  C   UNL A   1      43.941  26.386  30.464  1.00  0.00     0.029 A 
ATOM     48  N   UNL A   1      42.502  27.751  31.473  1.00  0.00    -0.354 N 
ATOM     49  N   UNL A   1      41.509  29.405  33.672  1.00  0.00    -0.248 NA
ATOM     50  C   UNL A   1      41.637  30.125  35.888  1.00  0.00     0.031 C 
ATOM     51  C   UNL A   1      44.369  26.586  31.781  1.00  0.00     0.029 A 
ATOM     52  C   UNL A   1      43.485  27.453  32.404  1.00  0.00     0.049 A 
ATOM     53  H   UNL A   1      41.734  28.345  31.633  1.00  0.00     0.167 HD
ATOM     54  C   UNL A   1      42.623  28.831  34.274  1.00  0.00     0.074 A 
ATOM     55  C   UNL A   1      42.669  29.333  35.631  1.00  0.00     0.031 C 
ATOM     56  C   UNL A   1      43.527  27.968  33.748  1.00  0.00     0.037 A 
BRANCH  43  57
ATOM     57  C   UNL A   1      42.308  26.325  27.921  1.00  0.00     0.064 A 
ATOM     58  C   UNL A   1      43.191  26.828  26.953  1.00  0.00     0.173 A 
ATOM     59  C   UNL A   1      41.810  25.025  27.748  1.00  0.00     0.173 A 
ATOM     60  F   UNL A   1      43.679  28.072  27.066  1.00  0.00    -0.203 F 
ATOM     61  C   UNL A   1      43.542  26.065  25.843  1.00  0.00     0.198 A 
ATOM     62  C   UNL A   1      42.184  24.256  26.649  1.00  0.00     0.198 A 
ATOM     63  F   UNL A   1      40.964  24.500  28.646  1.00  0.00    -0.203 F 
ATOM     64  F   UNL A   1      44.352  26.580  24.908  1.00  0.00    -0.200 F 
ATOM     65  C   UNL A   1      43.044  24.779  25.694  1.00  0.00     0.200 A 
ATOM     66  F   UNL A   1      41.708  23.011  26.511  1.00  0.00    -0.200 F 
ATOM     67  F   UNL A   1      43.384  24.046  24.626  1.00  0.00    -0.200 F 
ENDBRANCH  43  57
BRANCH  44  68
ATOM     68  C   UNL A   1      39.291  31.853  35.648  1.00  0.00     0.064 A 
ATOM     69  C   UNL A   1      38.393  31.334  36.591  1.00  0.00     0.173 A 
ATOM     70  C   UNL A   1      39.719  33.178  35.816  1.00  0.00     0.173 A 
ATOM     71  F   UNL A   1      37.928  30.084  36.454  1.00  0.00    -0.203 F 
ATOM     72  C   UNL A   1      37.924  32.116  37.646  1.00  0.00     0.198 A 
ATOM     73  C   UNL A   1      39.271  33.950  36.886  1.00  0.00     0.198 A 
ATOM     74  F   UNL A   1      40.568  33.728  34.935  1.00  0.00    -0.203 F 
ATOM     75  F   UNL A   1      37.022  31.614  38.499  1.00  0.00    -0.200 F 
ATOM     76  C   UNL A   1      38.366  33.422  37.795  1.00  0.00     0.200 A 
ATOM     77  F   UNL A   1      39.704  35.211  37.028  1.00  0.00    -0.200 F 
ATOM     78  F   UNL A   1      37.909  34.176  38.803  1.00  0.00    -0.200 F 
ENDBRANCH  44  68
BRANCH  56  79
ATOM     79  C   UNL A   1      44.668  27.537  34.625  1.00  0.00     0.064 A 
ATOM     80  C   UNL A   1      45.856  28.277  34.709  1.00  0.00     0.173 A 
ATOM     81  C   UNL A   1      44.548  26.394  35.432  1.00  0.00     0.173 A 
ATOM     82  F   UNL A   1      46.025  29.370  33.949  1.00  0.00    -0.203 F 
ATOM     83  C   UNL A   1      46.890  27.879  35.552  1.00  0.00     0.198 A 
ATOM     84  C   UNL A   1      45.573  26.015  36.296  1.00  0.00     0.198 A 
ATOM     85  F   UNL A   1      43.431  25.655  35.395  1.00  0.00    -0.203 F 
ATOM     86  F   UNL A   1      48.033  28.578  35.585  1.00  0.00    -0.200 F 
ATOM     87  C   UNL A   1      46.745  26.753  36.351  1.00  0.00     0.200 A 
ATOM     88  F   UNL A   1      45.424  24.936  37.076  1.00  0.00    -0.200 F 
ATOM     89  F   UNL A   1      47.737  26.377  37.169  1.00  0.00    -0.200 F 
ENDBRANCH  56  79
ENDBRANCH  30  31
ENDBRANCH  23  25
ENDBRANCH  22  23
ENDBRANCH   1  22
TORSDOF 13
ENDMDL
