MODEL 1
REMARK VINA RESULT:     -12.0      0.000      0.000
REMARK SMILES C[C@@H](C(=O)OCCOC(=O)c1ccc(-c2c3nc(c(-c4c(F)c(F)c(F)c(F)c4F)c4ccc([nH]4)c(-c4c(F)c(F)c(F)c(F)c4F)c4nc(c(-c5c(F)c(F)c(F)c(F)c5F)c5ccc2[nH]5)C=C4)C=C3)cc1)c1ccc(-c2ccn(C(F)F)c(=O)c2)cc1
REMARK SMILES IDX 6 1 5 2 3 3 4 4 2 5 1 6 74 7 75 8 89 9 76 10 88 11 77 12
REMARK SMILES IDX 78 13 79 14 87 15 80 16 85 17 81 18 86 19 82 20 83 21 84 22
REMARK SMILES IDX 7 23 8 24 9 25 10 26 11 27 12 28 73 29 13 30 72 31 14 32
REMARK SMILES IDX 15 33 16 34 66 35 17 36 71 37 65 38 67 39 18 40 70 41 64 42
REMARK SMILES IDX 63 43 19 45 51 46 31 47 50 48 32 49 35 50 49 51 68 52 33 53
REMARK SMILES IDX 34 54 48 56 69 57 36 58 20 59 21 60 29 61 22 62 23 63 27 64
REMARK SMILES IDX 30 65 24 66 25 67 28 68 26 69 52 70 53 71 61 72 54 73 55 74
REMARK SMILES IDX 59 75 62 76 56 77 57 78 60 79 58 80 37 81 38 82 46 83 39 84
REMARK SMILES IDX 40 85 44 86 47 87 41 88 42 89 45 90 43 91
REMARK H PARENT 67 44 35 55
REMARK Flexibility Score: inf
ROOT
ATOM      1  C   UNL A   1      31.694  28.944  24.750  1.00  0.00     0.274 C 
ENDROOT
BRANCH   1   2
ATOM      2  O   UNL A   1      31.101  27.724  25.243  1.00  0.00    -0.462 OA
BRANCH   2   3
ATOM      3  C   UNL A   1      30.996  26.685  24.361  1.00  0.00     0.313 C 
ATOM      4  O   UNL A   1      30.059  25.894  24.384  1.00  0.00    -0.252 OA
BRANCH   3   5
ATOM      5  C   UNL A   1      32.232  26.578  23.428  1.00  0.00     0.126 C 
ATOM      6  C   UNL A   1      31.781  26.336  21.976  1.00  0.00     0.025 C 
BRANCH   5   7
ATOM      7  C   UNL A   1      33.290  25.561  23.913  1.00  0.00    -0.034 A 
ATOM      8  C   UNL A   1      33.810  25.562  25.221  1.00  0.00     0.005 A 
ATOM      9  C   UNL A   1      33.789  24.580  23.038  1.00  0.00     0.005 A 
ATOM     10  C   UNL A   1      34.860  24.709  25.598  1.00  0.00     0.009 A 
ATOM     11  C   UNL A   1      34.855  23.746  23.403  1.00  0.00     0.009 A 
ATOM     12  C   UNL A   1      35.424  23.822  24.678  1.00  0.00    -0.018 A 
BRANCH  12  13
ATOM     13  C   UNL A   1      36.673  23.091  24.993  1.00  0.00    -0.011 A 
ATOM     14  C   UNL A   1      36.927  21.744  24.505  1.00  0.00     0.027 A 
ATOM     15  C   UNL A   1      37.572  23.650  25.822  1.00  0.00     0.080 A 
ATOM     16  C   UNL A   1      37.968  21.036  24.954  1.00  0.00     0.095 A 
ATOM     17  C   UNL A   1      38.777  22.895  26.277  1.00  0.00     0.255 A 
ATOM     18  N   UNL A   1      38.864  21.580  25.852  1.00  0.00    -0.258 N 
ATOM     19  O   UNL A   1      39.579  23.470  27.006  1.00  0.00    -0.269 OA
BRANCH  18  20
ATOM     20  C   UNL A   1      39.990  20.801  26.306  1.00  0.00     0.451 C 
ATOM     21  F   UNL A   1      39.915  19.537  25.816  1.00  0.00    -0.185 F 
ATOM     22  F   UNL A   1      41.165  21.332  25.889  1.00  0.00    -0.185 F 
ENDBRANCH  18  20
ENDBRANCH  12  13
ENDBRANCH   5   7
ENDBRANCH   3   5
ENDBRANCH   2   3
ENDBRANCH   1   2
BRANCH   1  23
ATOM     23  C   UNL A   1      31.871  29.993  25.852  1.00  0.00     0.275 C 
BRANCH  23  24
ATOM     24  O   UNL A   1      33.261  30.195  26.165  1.00  0.00    -0.458 OA
BRANCH  24  25
ATOM     25  C   UNL A   1      33.521  31.244  26.975  1.00  0.00     0.338 C 
ATOM     26  O   UNL A   1      32.783  32.187  27.225  1.00  0.00    -0.246 OA
BRANCH  25  27
ATOM     27  C   UNL A   1      34.766  30.997  27.717  1.00  0.00     0.060 A 
ATOM     28  C   UNL A   1      34.917  29.721  28.249  1.00  0.00     0.016 A 
ATOM     29  C   UNL A   1      35.749  31.967  27.930  1.00  0.00     0.016 A 
ATOM     30  C   UNL A   1      36.059  29.393  28.965  1.00  0.00     0.010 A 
ATOM     31  C   UNL A   1      36.890  31.641  28.685  1.00  0.00     0.010 A 
ATOM     32  C   UNL A   1      37.050  30.347  29.207  1.00  0.00    -0.014 A 
BRANCH  32  33
ATOM     33  C   UNL A   1      38.182  29.962  30.084  1.00  0.00     0.031 A 
ATOM     34  C   UNL A   1      39.292  29.119  29.528  1.00  0.00     0.074 A 
ATOM     35  C   UNL A   1      38.315  30.503  31.310  1.00  0.00     0.049 A 
ATOM     36  N   UNL A   1      40.411  28.739  30.094  1.00  0.00    -0.248 NA
ATOM     37  C   UNL A   1      39.147  28.689  28.129  1.00  0.00     0.031 C 
ATOM     38  C   UNL A   1      37.403  31.479  31.902  1.00  0.00     0.029 A 
ATOM     39  N   UNL A   1      39.294  30.335  32.260  1.00  0.00    -0.354 N 
ATOM     40  C   UNL A   1      41.099  28.024  29.124  1.00  0.00     0.074 A 
ATOM     41  C   UNL A   1      40.277  28.025  27.933  1.00  0.00     0.031 C 
ATOM     42  C   UNL A   1      37.875  31.839  33.108  1.00  0.00     0.029 A 
ATOM     43  C   UNL A   1      39.093  31.083  33.395  1.00  0.00     0.049 A 
ATOM     44  H   UNL A   1      40.066  29.737  32.138  1.00  0.00     0.167 HD
ATOM     45  C   UNL A   1      42.311  27.428  29.218  1.00  0.00     0.037 A 
ATOM     46  C   UNL A   1      39.799  31.132  34.542  1.00  0.00     0.037 A 
ATOM     47  C   UNL A   1      43.129  27.411  30.400  1.00  0.00     0.049 A 
ATOM     48  C   UNL A   1      41.038  30.284  34.683  1.00  0.00     0.074 A 
ATOM     49  C   UNL A   1      44.375  26.836  30.576  1.00  0.00     0.029 A 
ATOM     50  N   UNL A   1      42.773  27.976  31.615  1.00  0.00    -0.354 N 
ATOM     51  N   UNL A   1      41.659  29.563  33.778  1.00  0.00    -0.248 NA
ATOM     52  C   UNL A   1      41.667  30.249  36.011  1.00  0.00     0.031 C 
ATOM     53  C   UNL A   1      44.761  27.025  31.908  1.00  0.00     0.029 A 
ATOM     54  C   UNL A   1      43.776  27.763  32.546  1.00  0.00     0.049 A 
ATOM     55  H   UNL A   1      41.932  28.456  31.789  1.00  0.00     0.167 HD
ATOM     56  C   UNL A   1      42.769  29.025  34.419  1.00  0.00     0.074 A 
ATOM     57  C   UNL A   1      42.737  29.499  35.786  1.00  0.00     0.031 C 
ATOM     58  C   UNL A   1      43.737  28.224  33.911  1.00  0.00     0.037 A 
BRANCH  45  59
ATOM     59  C   UNL A   1      42.814  26.708  28.005  1.00  0.00     0.064 A 
ATOM     60  C   UNL A   1      42.595  25.336  27.822  1.00  0.00     0.173 A 
ATOM     61  C   UNL A   1      43.495  27.409  26.999  1.00  0.00     0.173 A 
ATOM     62  F   UNL A   1      41.960  24.624  28.766  1.00  0.00    -0.203 F 
ATOM     63  C   UNL A   1      43.057  24.686  26.681  1.00  0.00     0.198 A 
ATOM     64  C   UNL A   1      43.939  26.761  25.852  1.00  0.00     0.198 A 
ATOM     65  F   UNL A   1      43.725  28.725  27.130  1.00  0.00    -0.203 F 
ATOM     66  F   UNL A   1      42.869  23.367  26.541  1.00  0.00    -0.200 F 
ATOM     67  C   UNL A   1      43.725  25.399  25.696  1.00  0.00     0.200 A 
ATOM     68  F   UNL A   1      44.578  27.453  24.898  1.00  0.00    -0.200 F 
ATOM     69  F   UNL A   1      44.169  24.772  24.597  1.00  0.00    -0.200 F 
ENDBRANCH  45  59
BRANCH  46  70
ATOM     70  C   UNL A   1      39.344  31.987  35.671  1.00  0.00     0.064 A 
ATOM     71  C   UNL A   1      39.876  33.268  35.876  1.00  0.00     0.173 A 
ATOM     72  C   UNL A   1      38.406  31.517  36.603  1.00  0.00     0.173 A 
ATOM     73  F   UNL A   1      40.811  33.745  35.044  1.00  0.00    -0.203 F 
ATOM     74  C   UNL A   1      39.495  34.041  36.972  1.00  0.00     0.198 A 
ATOM     75  C   UNL A   1      38.006  32.302  37.682  1.00  0.00     0.198 A 
ATOM     76  F   UNL A   1      37.881  30.290  36.469  1.00  0.00    -0.203 F 
ATOM     77  F   UNL A   1      40.060  35.240  37.174  1.00  0.00    -0.200 F 
ATOM     78  C   UNL A   1      38.556  33.560  37.870  1.00  0.00     0.200 A 
ATOM     79  F   UNL A   1      37.098  31.832  38.548  1.00  0.00    -0.200 F 
ATOM     80  F   UNL A   1      38.194  34.300  38.927  1.00  0.00    -0.200 F 
ENDBRANCH  46  70
BRANCH  58  81
ATOM     81  C   UNL A   1      44.867  27.833  34.820  1.00  0.00     0.064 A 
ATOM     82  C   UNL A   1      46.003  28.640  34.974  1.00  0.00     0.173 A 
ATOM     83  C   UNL A   1      44.791  26.657  35.582  1.00  0.00     0.173 A 
ATOM     84  F   UNL A   1      46.131  29.768  34.257  1.00  0.00    -0.203 F 
ATOM     85  C   UNL A   1      47.029  28.275  35.843  1.00  0.00     0.198 A 
ATOM     86  C   UNL A   1      45.804  26.310  36.471  1.00  0.00     0.198 A 
ATOM     87  F   UNL A   1      43.721  25.854  35.479  1.00  0.00    -0.203 F 
ATOM     88  F   UNL A   1      48.123  29.043  35.945  1.00  0.00    -0.200 F 
ATOM     89  C   UNL A   1      46.925  27.115  36.597  1.00  0.00     0.200 A 
ATOM     90  F   UNL A   1      45.692  25.199  37.212  1.00  0.00    -0.200 F 
ATOM     91  F   UNL A   1      47.906  26.774  37.443  1.00  0.00    -0.200 F 
ENDBRANCH  58  81
ENDBRANCH  32  33
ENDBRANCH  25  27
ENDBRANCH  24  25
ENDBRANCH  23  24
ENDBRANCH   1  23
TORSDOF 14
ENDMDL
MODEL 2
REMARK VINA RESULT:     -11.9      1.999      2.677
REMARK SMILES C[C@@H](C(=O)OCCOC(=O)c1ccc(-c2c3nc(c(-c4c(F)c(F)c(F)c(F)c4F)c4ccc([nH]4)c(-c4c(F)c(F)c(F)c(F)c4F)c4nc(c(-c5c(F)c(F)c(F)c(F)c5F)c5ccc2[nH]5)C=C4)C=C3)cc1)c1ccc(-c2ccn(C(F)F)c(=O)c2)cc1
REMARK SMILES IDX 6 1 5 2 3 3 4 4 2 5 1 6 74 7 75 8 89 9 76 10 88 11 77 12
REMARK SMILES IDX 78 13 79 14 87 15 80 16 85 17 81 18 86 19 82 20 83 21 84 22
REMARK SMILES IDX 7 23 8 24 9 25 10 26 11 27 12 28 73 29 13 30 72 31 14 32
REMARK SMILES IDX 15 33 16 34 66 35 17 36 71 37 65 38 67 39 18 40 70 41 64 42
REMARK SMILES IDX 63 43 19 45 51 46 31 47 50 48 32 49 35 50 49 51 68 52 33 53
REMARK SMILES IDX 34 54 48 56 69 57 36 58 20 59 21 60 29 61 22 62 23 63 27 64
REMARK SMILES IDX 30 65 24 66 25 67 28 68 26 69 52 70 53 71 61 72 54 73 55 74
REMARK SMILES IDX 59 75 62 76 56 77 57 78 60 79 58 80 37 81 38 82 46 83 39 84
REMARK SMILES IDX 40 85 44 86 47 87 41 88 42 89 45 90 43 91
REMARK H PARENT 67 44 35 55
REMARK Flexibility Score: inf
ROOT
ATOM      1  C   UNL A   1      31.427  29.108  24.579  1.00  0.00     0.274 C 
ENDROOT
BRANCH   1   2
ATOM      2  O   UNL A   1      31.177  27.749  24.996  1.00  0.00    -0.462 OA
BRANCH   2   3
ATOM      3  C   UNL A   1      32.079  26.803  24.597  1.00  0.00     0.313 C 
ATOM      4  O   UNL A   1      32.044  26.287  23.485  1.00  0.00    -0.252 OA
BRANCH   3   5
ATOM      5  C   UNL A   1      33.055  26.402  25.736  1.00  0.00     0.126 C 
ATOM      6  C   UNL A   1      34.291  27.319  25.724  1.00  0.00     0.025 C 
BRANCH   5   7
ATOM      7  C   UNL A   1      33.413  24.898  25.747  1.00  0.00    -0.034 A 
ATOM      8  C   UNL A   1      34.498  24.364  25.025  1.00  0.00     0.005 A 
ATOM      9  C   UNL A   1      32.642  23.987  26.489  1.00  0.00     0.005 A 
ATOM     10  C   UNL A   1      34.724  22.980  24.952  1.00  0.00     0.009 A 
ATOM     11  C   UNL A   1      32.849  22.604  26.397  1.00  0.00     0.009 A 
ATOM     12  C   UNL A   1      33.875  22.082  25.602  1.00  0.00    -0.018 A 
BRANCH  12  13
ATOM     13  C   UNL A   1      33.964  20.627  25.344  1.00  0.00    -0.011 A 
ATOM     14  C   UNL A   1      35.219  19.975  25.004  1.00  0.00     0.027 A 
ATOM     15  C   UNL A   1      32.840  19.888  25.341  1.00  0.00     0.080 A 
ATOM     16  C   UNL A   1      35.244  18.703  24.592  1.00  0.00     0.095 A 
ATOM     17  C   UNL A   1      32.863  18.448  24.949  1.00  0.00     0.255 A 
ATOM     18  N   UNL A   1      34.086  17.954  24.528  1.00  0.00    -0.258 N 
ATOM     19  O   UNL A   1      31.811  17.819  25.000  1.00  0.00    -0.269 OA
BRANCH  18  20
ATOM     20  C   UNL A   1      34.142  16.579  24.098  1.00  0.00     0.451 C 
ATOM     21  F   UNL A   1      34.403  16.512  22.769  1.00  0.00    -0.185 F 
ATOM     22  F   UNL A   1      35.119  15.895  24.742  1.00  0.00    -0.185 F 
ENDBRANCH  18  20
ENDBRANCH  12  13
ENDBRANCH   5   7
ENDBRANCH   3   5
ENDBRANCH   2   3
ENDBRANCH   1   2
BRANCH   1  23
ATOM     23  C   UNL A   1      31.590  30.061  25.768  1.00  0.00     0.275 C 
BRANCH  23  24
ATOM     24  O   UNL A   1      32.972  30.404  25.979  1.00  0.00    -0.458 OA
BRANCH  24  25
ATOM     25  C   UNL A   1      33.188  31.393  26.874  1.00  0.00     0.338 C 
ATOM     26  O   UNL A   1      32.424  32.300  27.173  1.00  0.00    -0.246 OA
BRANCH  25  27
ATOM     27  C   UNL A   1      34.417  31.112  27.630  1.00  0.00     0.060 A 
ATOM     28  C   UNL A   1      34.572  29.806  28.081  1.00  0.00     0.016 A 
ATOM     29  C   UNL A   1      35.381  32.078  27.932  1.00  0.00     0.016 A 
ATOM     30  C   UNL A   1      35.700  29.445  28.803  1.00  0.00     0.010 A 
ATOM     31  C   UNL A   1      36.507  31.716  28.693  1.00  0.00     0.010 A 
ATOM     32  C   UNL A   1      36.671  30.393  29.133  1.00  0.00    -0.014 A 
BRANCH  32  33
ATOM     33  C   UNL A   1      37.786  29.964  30.012  1.00  0.00     0.031 A 
ATOM     34  C   UNL A   1      38.876  29.098  29.452  1.00  0.00     0.074 A 
ATOM     35  C   UNL A   1      37.926  30.485  31.246  1.00  0.00     0.049 A 
ATOM     36  N   UNL A   1      39.979  28.678  30.020  1.00  0.00    -0.248 NA
ATOM     37  C   UNL A   1      38.728  28.690  28.046  1.00  0.00     0.031 C 
ATOM     38  C   UNL A   1      37.038  31.479  31.845  1.00  0.00     0.029 A 
ATOM     39  N   UNL A   1      38.893  30.277  32.200  1.00  0.00    -0.354 N 
ATOM     40  C   UNL A   1      40.653  27.957  29.045  1.00  0.00     0.074 A 
ATOM     41  C   UNL A   1      39.840  27.998  27.848  1.00  0.00     0.031 C 
ATOM     42  C   UNL A   1      37.512  31.809  33.059  1.00  0.00     0.029 A 
ATOM     43  C   UNL A   1      38.706  31.015  33.343  1.00  0.00     0.049 A 
ATOM     44  H   UNL A   1      39.649  29.659  32.075  1.00  0.00     0.167 HD
ATOM     45  C   UNL A   1      41.848  27.325  29.138  1.00  0.00     0.037 A 
ATOM     46  C   UNL A   1      39.406  31.029  34.495  1.00  0.00     0.037 A 
ATOM     47  C   UNL A   1      42.657  27.270  30.325  1.00  0.00     0.049 A 
ATOM     48  C   UNL A   1      40.619  30.144  34.632  1.00  0.00     0.074 A 
ATOM     49  C   UNL A   1      43.885  26.658  30.502  1.00  0.00     0.029 A 
ATOM     50  N   UNL A   1      42.308  27.829  31.545  1.00  0.00    -0.354 N 
ATOM     51  N   UNL A   1      41.225  29.418  33.722  1.00  0.00    -0.248 NA
ATOM     52  C   UNL A   1      41.238  30.073  35.965  1.00  0.00     0.031 C 
ATOM     53  C   UNL A   1      44.267  26.818  31.838  1.00  0.00     0.029 A 
ATOM     54  C   UNL A   1      43.299  27.575  32.480  1.00  0.00     0.049 A 
ATOM     55  H   UNL A   1      41.480  28.330  31.721  1.00  0.00     0.167 HD
ATOM     56  C   UNL A   1      42.315  28.840  34.363  1.00  0.00     0.074 A 
ATOM     57  C   UNL A   1      42.287  29.296  35.736  1.00  0.00     0.031 C 
ATOM     58  C   UNL A   1      43.264  28.019  33.850  1.00  0.00     0.037 A 
BRANCH  45  59
ATOM     59  C   UNL A   1      42.338  26.608  27.919  1.00  0.00     0.064 A 
ATOM     60  C   UNL A   1      43.205  27.223  27.005  1.00  0.00     0.173 A 
ATOM     61  C   UNL A   1      41.960  25.279  27.681  1.00  0.00     0.173 A 
ATOM     62  F   UNL A   1      43.581  28.498  27.186  1.00  0.00    -0.203 F 
ATOM     63  C   UNL A   1      43.663  26.536  25.884  1.00  0.00     0.198 A 
ATOM     64  C   UNL A   1      42.434  24.589  26.570  1.00  0.00     0.198 A 
ATOM     65  F   UNL A   1      41.134  24.650  28.531  1.00  0.00    -0.203 F 
ATOM     66  F   UNL A   1      44.463  27.152  25.003  1.00  0.00    -0.200 F 
ATOM     67  C   UNL A   1      43.281  25.219  25.669  1.00  0.00     0.200 A 
ATOM     68  F   UNL A   1      42.070  23.315  26.368  1.00  0.00    -0.200 F 
ATOM     69  F   UNL A   1      43.723  24.559  24.590  1.00  0.00    -0.200 F 
ENDBRANCH  45  59
BRANCH  46  70
ATOM     70  C   UNL A   1      38.967  31.881  35.633  1.00  0.00     0.064 A 
ATOM     71  C   UNL A   1      39.374  33.219  35.740  1.00  0.00     0.173 A 
ATOM     72  C   UNL A   1      38.176  31.358  36.667  1.00  0.00     0.173 A 
ATOM     73  F   UNL A   1      40.170  33.753  34.806  1.00  0.00    -0.203 F 
ATOM     74  C   UNL A   1      39.015  33.996  36.840  1.00  0.00     0.198 A 
ATOM     75  C   UNL A   1      37.794  32.144  37.751  1.00  0.00     0.198 A 
ATOM     76  F   UNL A   1      37.777  30.078  36.627  1.00  0.00    -0.203 F 
ATOM     77  F   UNL A   1      39.462  35.256  36.945  1.00  0.00    -0.200 F 
ATOM     78  C   UNL A   1      38.220  33.460  37.841  1.00  0.00     0.200 A 
ATOM     79  F   UNL A   1      37.027  31.622  38.718  1.00  0.00    -0.200 F 
ATOM     80  F   UNL A   1      37.880  34.205  38.903  1.00  0.00    -0.200 F 
ENDBRANCH  46  70
BRANCH  58  81
ATOM     81  C   UNL A   1      44.376  27.584  34.762  1.00  0.00     0.064 A 
ATOM     82  C   UNL A   1      45.517  28.374  34.962  1.00  0.00     0.173 A 
ATOM     83  C   UNL A   1      44.278  26.382  35.478  1.00  0.00     0.173 A 
ATOM     84  F   UNL A   1      45.667  29.525  34.289  1.00  0.00    -0.203 F 
ATOM     85  C   UNL A   1      46.526  27.968  35.832  1.00  0.00     0.198 A 
ATOM     86  C   UNL A   1      45.273  25.993  36.370  1.00  0.00     0.198 A 
ATOM     87  F   UNL A   1      43.202  25.593  35.330  1.00  0.00    -0.203 F 
ATOM     88  F   UNL A   1      47.625  28.720  35.978  1.00  0.00    -0.200 F 
ATOM     89  C   UNL A   1      46.400  26.782  36.541  1.00  0.00     0.200 A 
ATOM     90  F   UNL A   1      45.140  24.856  37.068  1.00  0.00    -0.200 F 
ATOM     91  F   UNL A   1      47.365  26.400  37.389  1.00  0.00    -0.200 F 
ENDBRANCH  58  81
ENDBRANCH  32  33
ENDBRANCH  25  27
ENDBRANCH  24  25
ENDBRANCH  23  24
ENDBRANCH   1  23
TORSDOF 14
ENDMDL
MODEL 3
REMARK VINA RESULT:     -11.8      3.027      8.634
REMARK SMILES C[C@@H](C(=O)OCCOC(=O)c1ccc(-c2c3nc(c(-c4c(F)c(F)c(F)c(F)c4F)c4ccc([nH]4)c(-c4c(F)c(F)c(F)c(F)c4F)c4nc(c(-c5c(F)c(F)c(F)c(F)c5F)c5ccc2[nH]5)C=C4)C=C3)cc1)c1ccc(-c2ccn(C(F)F)c(=O)c2)cc1
REMARK SMILES IDX 6 1 5 2 3 3 4 4 2 5 1 6 74 7 75 8 89 9 76 10 88 11 77 12
REMARK SMILES IDX 78 13 79 14 87 15 80 16 85 17 81 18 86 19 82 20 83 21 84 22
REMARK SMILES IDX 7 23 8 24 9 25 10 26 11 27 12 28 73 29 13 30 72 31 14 32
REMARK SMILES IDX 15 33 16 34 66 35 17 36 71 37 65 38 67 39 18 40 70 41 64 42
REMARK SMILES IDX 63 43 19 45 51 46 31 47 50 48 32 49 35 50 49 51 68 52 33 53
REMARK SMILES IDX 34 54 48 56 69 57 36 58 20 59 21 60 29 61 22 62 23 63 27 64
REMARK SMILES IDX 30 65 24 66 25 67 28 68 26 69 52 70 53 71 61 72 54 73 55 74
REMARK SMILES IDX 59 75 62 76 56 77 57 78 60 79 58 80 37 81 38 82 46 83 39 84
REMARK SMILES IDX 40 85 44 86 47 87 41 88 42 89 45 90 43 91
REMARK H PARENT 67 44 35 55
REMARK Flexibility Score: inf
ROOT
ATOM      1  C   UNL A   1      44.415  21.947  24.779  1.00  0.00     0.274 C 
ENDROOT
BRANCH   1   2
ATOM      2  O   UNL A   1      42.982  21.967  24.951  1.00  0.00    -0.462 OA
BRANCH   2   3
ATOM      3  C   UNL A   1      42.484  21.368  26.074  1.00  0.00     0.313 C 
ATOM      4  O   UNL A   1      42.549  20.158  26.259  1.00  0.00    -0.252 OA
BRANCH   3   5
ATOM      5  C   UNL A   1      41.751  22.374  27.002  1.00  0.00     0.126 C 
ATOM      6  C   UNL A   1      41.960  21.985  28.477  1.00  0.00     0.025 C 
BRANCH   5   7
ATOM      7  C   UNL A   1      40.265  22.591  26.635  1.00  0.00    -0.034 A 
ATOM      8  C   UNL A   1      39.450  21.570  26.110  1.00  0.00     0.005 A 
ATOM      9  C   UNL A   1      39.665  23.850  26.808  1.00  0.00     0.005 A 
ATOM     10  C   UNL A   1      38.142  21.826  25.668  1.00  0.00     0.009 A 
ATOM     11  C   UNL A   1      38.369  24.115  26.344  1.00  0.00     0.009 A 
ATOM     12  C   UNL A   1      37.603  23.112  25.740  1.00  0.00    -0.018 A 
BRANCH  12  13
ATOM     13  C   UNL A   1      36.324  23.441  25.070  1.00  0.00    -0.011 A 
ATOM     14  C   UNL A   1      35.974  22.908  23.762  1.00  0.00     0.027 A 
ATOM     15  C   UNL A   1      35.487  24.324  25.643  1.00  0.00     0.080 A 
ATOM     16  C   UNL A   1      34.908  23.364  23.097  1.00  0.00     0.095 A 
ATOM     17  C   UNL A   1      34.256  24.791  24.941  1.00  0.00     0.255 A 
ATOM     18  N   UNL A   1      34.076  24.315  23.653  1.00  0.00    -0.258 N 
ATOM     19  O   UNL A   1      33.514  25.570  25.530  1.00  0.00    -0.269 OA
BRANCH  18  20
ATOM     20  C   UNL A   1      32.922  24.776  22.922  1.00  0.00     0.451 C 
ATOM     21  F   UNL A   1      33.156  26.007  22.400  1.00  0.00    -0.185 F 
ATOM     22  F   UNL A   1      32.618  23.947  21.894  1.00  0.00    -0.185 F 
ENDBRANCH  18  20
ENDBRANCH  12  13
ENDBRANCH   5   7
ENDBRANCH   3   5
ENDBRANCH   2   3
ENDBRANCH   1   2
BRANCH   1  23
ATOM     23  C   UNL A   1      44.949  23.254  24.187  1.00  0.00     0.275 C 
BRANCH  23  24
ATOM     24  O   UNL A   1      44.174  24.385  24.627  1.00  0.00    -0.458 OA
BRANCH  24  25
ATOM     25  C   UNL A   1      44.893  25.418  25.117  1.00  0.00     0.338 C 
ATOM     26  O   UNL A   1      45.888  25.929  24.622  1.00  0.00    -0.246 OA
BRANCH  25  27
ATOM     27  C   UNL A   1      44.181  26.016  26.257  1.00  0.00     0.060 A 
ATOM     28  C   UNL A   1      44.477  27.346  26.532  1.00  0.00     0.016 A 
ATOM     29  C   UNL A   1      43.280  25.316  27.064  1.00  0.00     0.016 A 
ATOM     30  C   UNL A   1      43.856  27.997  27.587  1.00  0.00     0.010 A 
ATOM     31  C   UNL A   1      42.676  25.969  28.153  1.00  0.00     0.010 A 
ATOM     32  C   UNL A   1      42.963  27.318  28.420  1.00  0.00    -0.014 A 
BRANCH  32  33
ATOM     33  C   UNL A   1      42.433  28.040  29.601  1.00  0.00     0.031 A 
ATOM     34  C   UNL A   1      41.126  28.770  29.494  1.00  0.00     0.074 A 
ATOM     35  C   UNL A   1      43.013  27.901  30.808  1.00  0.00     0.049 A 
ATOM     36  N   UNL A   1      40.443  29.395  30.421  1.00  0.00    -0.248 NA
ATOM     37  C   UNL A   1      40.474  28.751  28.175  1.00  0.00     0.031 C 
ATOM     38  C   UNL A   1      44.183  27.072  31.088  1.00  0.00     0.029 A 
ATOM     39  N   UNL A   1      42.670  28.426  32.031  1.00  0.00    -0.354 N 
ATOM     40  C   UNL A   1      39.288  29.844  29.800  1.00  0.00     0.074 A 
ATOM     41  C   UNL A   1      39.356  29.420  28.417  1.00  0.00     0.031 C 
ATOM     42  C   UNL A   1      44.450  27.128  32.404  1.00  0.00     0.029 A 
ATOM     43  C   UNL A   1      43.503  28.034  33.051  1.00  0.00     0.049 A 
ATOM     44  H   UNL A   1      41.899  29.023  32.164  1.00  0.00     0.167 HD
ATOM     45  C   UNL A   1      38.258  30.542  30.336  1.00  0.00     0.037 A 
ATOM     46  C   UNL A   1      43.513  28.388  34.351  1.00  0.00     0.037 A 
ATOM     47  C   UNL A   1      38.186  30.978  31.704  1.00  0.00     0.049 A 
ATOM     48  C   UNL A   1      42.464  29.341  34.865  1.00  0.00     0.074 A 
ATOM     49  C   UNL A   1      37.174  31.682  32.331  1.00  0.00     0.029 A 
ATOM     50  N   UNL A   1      39.177  30.772  32.651  1.00  0.00    -0.354 N 
ATOM     51  N   UNL A   1      41.399  29.810  34.258  1.00  0.00    -0.248 NA
ATOM     52  C   UNL A   1      42.627  29.823  36.245  1.00  0.00     0.031 C 
ATOM     53  C   UNL A   1      37.565  31.931  33.651  1.00  0.00     0.029 A 
ATOM     54  C   UNL A   1      38.799  31.335  33.860  1.00  0.00     0.049 A 
ATOM     55  H   UNL A   1      40.023  30.296  32.490  1.00  0.00     0.167 HD
ATOM     56  C   UNL A   1      40.749  30.607  35.195  1.00  0.00     0.074 A 
ATOM     57  C   UNL A   1      41.537  30.560  36.407  1.00  0.00     0.031 C 
ATOM     58  C   UNL A   1      39.591  31.299  35.063  1.00  0.00     0.037 A 
BRANCH  45  59
ATOM     59  C   UNL A   1      37.131  30.908  29.421  1.00  0.00     0.064 A 
ATOM     60  C   UNL A   1      37.045  32.178  28.834  1.00  0.00     0.173 A 
ATOM     61  C   UNL A   1      36.143  29.965  29.105  1.00  0.00     0.173 A 
ATOM     62  F   UNL A   1      37.962  33.115  29.120  1.00  0.00    -0.203 F 
ATOM     63  C   UNL A   1      35.998  32.497  27.974  1.00  0.00     0.198 A 
ATOM     64  C   UNL A   1      35.107  30.281  28.232  1.00  0.00     0.198 A 
ATOM     65  F   UNL A   1      36.185  28.736  29.643  1.00  0.00    -0.203 F 
ATOM     66  F   UNL A   1      35.914  33.727  27.450  1.00  0.00    -0.200 F 
ATOM     67  C   UNL A   1      35.032  31.547  27.671  1.00  0.00     0.200 A 
ATOM     68  F   UNL A   1      34.180  29.360  27.934  1.00  0.00    -0.200 F 
ATOM     69  F   UNL A   1      34.024  31.855  26.842  1.00  0.00    -0.200 F 
ENDBRANCH  45  59
BRANCH  46  70
ATOM     70  C   UNL A   1      44.569  27.873  35.264  1.00  0.00     0.064 A 
ATOM     71  C   UNL A   1      44.365  26.718  36.035  1.00  0.00     0.173 A 
ATOM     72  C   UNL A   1      45.783  28.556  35.427  1.00  0.00     0.173 A 
ATOM     73  F   UNL A   1      43.205  26.056  35.954  1.00  0.00    -0.203 F 
ATOM     74  C   UNL A   1      45.330  26.274  36.937  1.00  0.00     0.198 A 
ATOM     75  C   UNL A   1      46.758  28.095  36.309  1.00  0.00     0.198 A 
ATOM     76  F   UNL A   1      46.021  29.679  34.733  1.00  0.00    -0.203 F 
ATOM     77  F   UNL A   1      45.088  25.199  37.701  1.00  0.00    -0.200 F 
ATOM     78  C   UNL A   1      46.528  26.959  37.069  1.00  0.00     0.200 A 
ATOM     79  F   UNL A   1      47.914  28.761  36.434  1.00  0.00    -0.200 F 
ATOM     80  F   UNL A   1      47.453  26.536  37.941  1.00  0.00    -0.200 F 
ENDBRANCH  46  70
BRANCH  58  81
ATOM     81  C   UNL A   1      39.079  32.036  36.267  1.00  0.00     0.064 A 
ATOM     82  C   UNL A   1      39.432  33.369  36.522  1.00  0.00     0.173 A 
ATOM     83  C   UNL A   1      38.189  31.413  37.155  1.00  0.00     0.173 A 
ATOM     84  F   UNL A   1      40.292  34.006  35.711  1.00  0.00    -0.203 F 
ATOM     85  C   UNL A   1      38.926  34.046  37.629  1.00  0.00     0.198 A 
ATOM     86  C   UNL A   1      37.662  32.101  38.245  1.00  0.00     0.198 A 
ATOM     87  F   UNL A   1      37.813  30.141  36.953  1.00  0.00    -0.203 F 
ATOM     88  F   UNL A   1      39.306  35.307  37.873  1.00  0.00    -0.200 F 
ATOM     89  C   UNL A   1      38.035  33.414  38.485  1.00  0.00     0.200 A 
ATOM     90  F   UNL A   1      36.787  31.494  39.059  1.00  0.00    -0.200 F 
ATOM     91  F   UNL A   1      37.537  34.072  39.542  1.00  0.00    -0.200 F 
ENDBRANCH  58  81
ENDBRANCH  32  33
ENDBRANCH  25  27
ENDBRANCH  24  25
ENDBRANCH  23  24
ENDBRANCH   1  23
TORSDOF 14
ENDMDL
