MODEL 1
REMARK VINA RESULT:     -11.1      0.000      0.000
REMARK SMILES CC[NH2+][C@@]1(C(=O)OCCOC(=O)c2ccc(-c3c4nc(c(-c5c(F)c(F)c(F)c(F)c5F)c5ccc([nH]5)c(-c5c(F)c(F)c(F)c(F)c5F)c5nc(c(-c6c(F)c(F)c(F)c(F)c6F)c6ccc3[nH]6)C=C5)C=C4)cc2)CCC[C@H]1CCSc1cnn(C)c1
REMARK SMILES IDX 8 1 7 2 5 3 6 4 4 5 76 6 79 7 77 8 78 9 3 10 2 13 1 14 80 15
REMARK SMILES IDX 81 16 82 17 83 18 84 19 88 20 85 21 86 22 87 23 9 24 10 25
REMARK SMILES IDX 11 26 12 27 13 28 14 29 75 30 15 31 74 32 16 33 17 34 18 35
REMARK SMILES IDX 68 36 19 37 73 38 67 39 69 40 20 41 72 42 66 43 65 44 21 46
REMARK SMILES IDX 53 47 33 48 52 49 34 50 37 51 51 52 70 53 35 54 36 55 50 57
REMARK SMILES IDX 71 58 38 59 22 60 23 61 31 62 24 63 25 64 29 65 32 66 26 67
REMARK SMILES IDX 27 68 30 69 28 70 54 71 55 72 63 73 56 74 57 75 61 76 64 77
REMARK SMILES IDX 58 78 59 79 62 80 60 81 39 82 40 83 48 84 41 85 42 86 46 87
REMARK SMILES IDX 49 88 43 89 44 90 47 91 45 92
REMARK H PARENT 3 11 3 12 69 45 37 56
REMARK Flexibility Score: inf
ROOT
ATOM      1  C   UNL A   1      36.028  20.073  25.001  1.00  0.00     0.274 C 
ENDROOT
BRANCH   1   2
ATOM      2  O   UNL A   1      35.330  21.243  25.515  1.00  0.00    -0.457 OA
BRANCH   2   3
ATOM      3  C   UNL A   1      34.793  22.068  24.561  1.00  0.00     0.368 C 
ATOM      4  O   UNL A   1      35.417  22.399  23.555  1.00  0.00    -0.245 OA
BRANCH   3   5
ATOM      5  C   UNL A   1      33.248  22.423  24.775  1.00  0.00     0.197 C 
ATOM      6  C   UNL A   1      32.509  21.118  25.165  1.00  0.00     0.081 C 
ATOM      7  C   UNL A   1      32.444  22.821  23.466  1.00  0.00     0.063 C 
ATOM      8  C   UNL A   1      32.305  20.379  23.853  1.00  0.00     0.008 C 
ATOM      9  C   UNL A   1      32.206  21.452  22.778  1.00  0.00     0.011 C 
BRANCH   5  10
ATOM     10  N   UNL A   1      33.135  23.447  25.862  1.00  0.00    -0.332 N 
ATOM     11  H   UNL A   1      32.162  23.749  25.922  1.00  0.00     0.347 HD
ATOM     12  H   UNL A   1      33.455  23.007  26.725  1.00  0.00     0.347 HD
BRANCH  10  13
ATOM     13  C   UNL A   1      33.982  24.635  25.639  1.00  0.00     0.257 C 
ATOM     14  C   UNL A   1      33.253  25.905  26.059  1.00  0.00     0.071 C 
ENDBRANCH  10  13
ENDBRANCH   5  10
BRANCH   7  15
ATOM     15  C   UNL A   1      31.045  23.516  23.664  1.00  0.00     0.022 C 
BRANCH  15  16
ATOM     16  C   UNL A   1      30.863  24.989  23.238  1.00  0.00     0.075 C 
BRANCH  16  17
ATOM     17  S   UNL A   1      29.849  26.018  24.392  1.00  0.00    -0.123 SA
BRANCH  17  18
ATOM     18  C   UNL A   1      30.236  27.621  23.866  1.00  0.00     0.045 A 
ATOM     19  C   UNL A   1      29.960  28.209  22.611  1.00  0.00     0.150 A 
ATOM     20  C   UNL A   1      31.079  28.519  24.491  1.00  0.00     0.123 A 
ATOM     21  N   UNL A   1      30.810  29.223  22.378  1.00  0.00    -0.181 NA
ATOM     22  N   UNL A   1      31.716  29.014  23.363  1.00  0.00    -0.275 N 
ATOM     23  C   UNL A   1      32.938  28.346  22.979  1.00  0.00     0.173 C 
ENDBRANCH  17  18
ENDBRANCH  16  17
ENDBRANCH  15  16
ENDBRANCH   7  15
ENDBRANCH   3   5
ENDBRANCH   2   3
ENDBRANCH   1   2
BRANCH   1  24
ATOM     24  C   UNL A   1      37.575  20.217  24.983  1.00  0.00     0.275 C 
BRANCH  24  25
ATOM     25  O   UNL A   1      38.124  21.428  25.570  1.00  0.00    -0.458 OA
BRANCH  25  26
ATOM     26  C   UNL A   1      39.366  21.409  26.103  1.00  0.00     0.338 C 
ATOM     27  O   UNL A   1      40.060  20.419  26.267  1.00  0.00    -0.246 OA
BRANCH  26  28
ATOM     28  C   UNL A   1      39.654  22.726  26.752  1.00  0.00     0.060 A 
ATOM     29  C   UNL A   1      40.742  22.767  27.628  1.00  0.00     0.016 A 
ATOM     30  C   UNL A   1      38.927  23.898  26.534  1.00  0.00     0.016 A 
ATOM     31  C   UNL A   1      41.129  23.960  28.248  1.00  0.00     0.010 A 
ATOM     32  C   UNL A   1      39.387  25.123  27.078  1.00  0.00     0.010 A 
ATOM     33  C   UNL A   1      40.535  25.176  27.893  1.00  0.00    -0.014 A 
BRANCH  33  34
ATOM     34  C   UNL A   1      41.246  26.459  28.226  1.00  0.00     0.031 A 
ATOM     35  C   UNL A   1      40.602  27.572  29.006  1.00  0.00     0.074 A 
ATOM     36  C   UNL A   1      42.529  26.622  27.827  1.00  0.00     0.049 A 
ATOM     37  N   UNL A   1      41.034  28.795  29.214  1.00  0.00    -0.248 NA
ATOM     38  C   UNL A   1      39.322  27.269  29.656  1.00  0.00     0.031 C 
ATOM     39  C   UNL A   1      43.333  25.612  27.136  1.00  0.00     0.029 A 
ATOM     40  N   UNL A   1      43.389  27.693  27.945  1.00  0.00    -0.354 N 
ATOM     41  C   UNL A   1      40.065  29.422  29.988  1.00  0.00     0.074 A 
ATOM     42  C   UNL A   1      39.029  28.433  30.226  1.00  0.00     0.031 C 
ATOM     43  C   UNL A   1      44.564  26.095  26.914  1.00  0.00     0.029 A 
ATOM     44  C   UNL A   1      44.611  27.486  27.347  1.00  0.00     0.049 A 
ATOM     45  H   UNL A   1      43.151  28.526  28.412  1.00  0.00     0.167 HD
ATOM     46  C   UNL A   1      40.035  30.702  30.441  1.00  0.00     0.037 A 
ATOM     47  C   UNL A   1      45.639  28.325  27.104  1.00  0.00     0.037 A 
ATOM     48  C   UNL A   1      41.066  31.689  30.213  1.00  0.00     0.049 A 
ATOM     49  C   UNL A   1      45.539  29.765  27.525  1.00  0.00     0.074 A 
ATOM     50  C   UNL A   1      41.087  33.023  30.592  1.00  0.00     0.029 A 
ATOM     51  N   UNL A   1      42.261  31.452  29.551  1.00  0.00    -0.354 N 
ATOM     52  N   UNL A   1      44.577  30.370  28.178  1.00  0.00    -0.248 NA
ATOM     53  C   UNL A   1      46.658  30.644  27.156  1.00  0.00     0.031 C 
ATOM     54  C   UNL A   1      42.272  33.601  30.120  1.00  0.00     0.029 A 
ATOM     55  C   UNL A   1      43.018  32.616  29.497  1.00  0.00     0.049 A 
ATOM     56  H   UNL A   1      42.535  30.584  29.176  1.00  0.00     0.167 HD
ATOM     57  C   UNL A   1      44.982  31.691  28.313  1.00  0.00     0.074 A 
ATOM     58  C   UNL A   1      46.286  31.797  27.695  1.00  0.00     0.031 C 
ATOM     59  C   UNL A   1      44.322  32.723  28.893  1.00  0.00     0.037 A 
BRANCH  46  60
ATOM     60  C   UNL A   1      38.801  31.142  31.182  1.00  0.00     0.064 A 
ATOM     61  C   UNL A   1      38.707  31.082  32.579  1.00  0.00     0.173 A 
ATOM     62  C   UNL A   1      37.701  31.656  30.474  1.00  0.00     0.173 A 
ATOM     63  F   UNL A   1      39.728  30.600  33.303  1.00  0.00    -0.203 F 
ATOM     64  C   UNL A   1      37.546  31.482  33.238  1.00  0.00     0.198 A 
ATOM     65  C   UNL A   1      36.553  32.084  31.137  1.00  0.00     0.198 A 
ATOM     66  F   UNL A   1      37.744  31.755  29.137  1.00  0.00    -0.203 F 
ATOM     67  F   UNL A   1      37.460  31.368  34.570  1.00  0.00    -0.200 F 
ATOM     68  C   UNL A   1      36.471  31.985  32.517  1.00  0.00     0.200 A 
ATOM     69  F   UNL A   1      35.526  32.586  30.439  1.00  0.00    -0.200 F 
ATOM     70  F   UNL A   1      35.355  32.367  33.152  1.00  0.00    -0.200 F 
ENDBRANCH  46  60
BRANCH  47  71
ATOM     71  C   UNL A   1      46.833  27.844  26.352  1.00  0.00     0.064 A 
ATOM     72  C   UNL A   1      46.844  27.806  24.951  1.00  0.00     0.173 A 
ATOM     73  C   UNL A   1      47.977  27.381  27.023  1.00  0.00     0.173 A 
ATOM     74  F   UNL A   1      45.765  28.205  24.262  1.00  0.00    -0.203 F 
ATOM     75  C   UNL A   1      47.944  27.311  24.252  1.00  0.00     0.198 A 
ATOM     76  C   UNL A   1      49.089  26.922  26.323  1.00  0.00     0.198 A 
ATOM     77  F   UNL A   1      48.018  27.387  28.364  1.00  0.00    -0.203 F 
ATOM     78  F   UNL A   1      47.905  27.233  22.915  1.00  0.00    -0.200 F 
ATOM     79  C   UNL A   1      49.068  26.877  24.938  1.00  0.00     0.200 A 
ATOM     80  F   UNL A   1      50.179  26.519  26.991  1.00  0.00    -0.200 F 
ATOM     81  F   UNL A   1      50.126  26.405  24.266  1.00  0.00    -0.200 F 
ENDBRANCH  47  71
BRANCH  59  82
ATOM     82  C   UNL A   1      45.021  34.053  28.933  1.00  0.00     0.064 A 
ATOM     83  C   UNL A   1      45.883  34.407  29.982  1.00  0.00     0.173 A 
ATOM     84  C   UNL A   1      44.840  34.982  27.896  1.00  0.00     0.173 A 
ATOM     85  F   UNL A   1      46.075  33.567  31.011  1.00  0.00    -0.203 F 
ATOM     86  C   UNL A   1      46.516  35.649  30.004  1.00  0.00     0.198 A 
ATOM     87  C   UNL A   1      45.497  36.209  27.906  1.00  0.00     0.198 A 
ATOM     88  F   UNL A   1      44.026  34.695  26.868  1.00  0.00    -0.203 F 
ATOM     89  F   UNL A   1      47.293  35.985  31.043  1.00  0.00    -0.200 F 
ATOM     90  C   UNL A   1      46.328  36.545  28.964  1.00  0.00     0.200 A 
ATOM     91  F   UNL A   1      45.320  37.071  26.894  1.00  0.00    -0.200 F 
ATOM     92  F   UNL A   1      46.941  37.737  28.984  1.00  0.00    -0.200 F 
ENDBRANCH  59  82
ENDBRANCH  33  34
ENDBRANCH  26  28
ENDBRANCH  25  26
ENDBRANCH  24  25
ENDBRANCH   1  24
TORSDOF 17
ENDMDL
MODEL 2
REMARK VINA RESULT:     -11.1      0.758      2.186
REMARK SMILES CC[NH2+][C@@]1(C(=O)OCCOC(=O)c2ccc(-c3c4nc(c(-c5c(F)c(F)c(F)c(F)c5F)c5ccc([nH]5)c(-c5c(F)c(F)c(F)c(F)c5F)c5nc(c(-c6c(F)c(F)c(F)c(F)c6F)c6ccc3[nH]6)C=C5)C=C4)cc2)CCC[C@H]1CCSc1cnn(C)c1
REMARK SMILES IDX 8 1 7 2 5 3 6 4 4 5 76 6 79 7 77 8 78 9 3 10 2 13 1 14 80 15
REMARK SMILES IDX 81 16 82 17 83 18 84 19 88 20 85 21 86 22 87 23 9 24 10 25
REMARK SMILES IDX 11 26 12 27 13 28 14 29 75 30 15 31 74 32 16 33 17 34 18 35
REMARK SMILES IDX 68 36 19 37 73 38 67 39 69 40 20 41 72 42 66 43 65 44 21 46
REMARK SMILES IDX 53 47 33 48 52 49 34 50 37 51 51 52 70 53 35 54 36 55 50 57
REMARK SMILES IDX 71 58 38 59 22 60 23 61 31 62 24 63 25 64 29 65 32 66 26 67
REMARK SMILES IDX 27 68 30 69 28 70 54 71 55 72 63 73 56 74 57 75 61 76 64 77
REMARK SMILES IDX 58 78 59 79 62 80 60 81 39 82 40 83 48 84 41 85 42 86 46 87
REMARK SMILES IDX 49 88 43 89 44 90 47 91 45 92
REMARK H PARENT 3 11 3 12 69 45 37 56
REMARK Flexibility Score: inf
ROOT
ATOM      1  C   UNL A   1      36.106  19.746  25.002  1.00  0.00     0.274 C 
ENDROOT
BRANCH   1   2
ATOM      2  O   UNL A   1      34.936  20.521  24.610  1.00  0.00    -0.457 OA
BRANCH   2   3
ATOM      3  C   UNL A   1      34.453  21.372  25.570  1.00  0.00     0.368 C 
ATOM      4  O   UNL A   1      34.668  21.198  26.768  1.00  0.00    -0.245 OA
BRANCH   3   5
ATOM      5  C   UNL A   1      33.741  22.687  25.002  1.00  0.00     0.197 C 
ATOM      6  C   UNL A   1      34.405  23.041  23.648  1.00  0.00     0.081 C 
ATOM      7  C   UNL A   1      34.017  24.024  25.809  1.00  0.00     0.063 C 
ATOM      8  C   UNL A   1      35.705  23.733  24.021  1.00  0.00     0.008 C 
ATOM      9  C   UNL A   1      35.452  24.407  25.362  1.00  0.00     0.011 C 
BRANCH   5  10
ATOM     10  N   UNL A   1      32.280  22.405  24.824  1.00  0.00    -0.332 N 
ATOM     11  H   UNL A   1      32.103  21.437  25.092  1.00  0.00     0.347 HD
ATOM     12  H   UNL A   1      31.772  23.066  25.411  1.00  0.00     0.347 HD
BRANCH  10  13
ATOM     13  C   UNL A   1      31.811  22.601  23.438  1.00  0.00     0.257 C 
ATOM     14  C   UNL A   1      30.700  23.643  23.388  1.00  0.00     0.071 C 
ENDBRANCH  10  13
ENDBRANCH   5  10
BRANCH   7  15
ATOM     15  C   UNL A   1      33.074  25.251  25.516  1.00  0.00     0.022 C 
BRANCH  15  16
ATOM     16  C   UNL A   1      33.654  26.505  24.828  1.00  0.00     0.075 C 
BRANCH  16  17
ATOM     17  S   UNL A   1      33.310  26.634  23.016  1.00  0.00    -0.123 SA
BRANCH  17  18
ATOM     18  C   UNL A   1      31.989  27.753  22.989  1.00  0.00     0.045 A 
ATOM     19  C   UNL A   1      31.715  28.791  23.908  1.00  0.00     0.150 A 
ATOM     20  C   UNL A   1      30.857  27.682  22.201  1.00  0.00     0.123 A 
ATOM     21  N   UNL A   1      30.410  29.104  23.876  1.00  0.00    -0.181 NA
ATOM     22  N   UNL A   1      29.926  28.066  23.154  1.00  0.00    -0.275 N 
ATOM     23  C   UNL A   1      29.304  26.999  23.903  1.00  0.00     0.173 C 
ENDBRANCH  17  18
ENDBRANCH  16  17
ENDBRANCH  15  16
ENDBRANCH   7  15
ENDBRANCH   3   5
ENDBRANCH   2   3
ENDBRANCH   1   2
BRANCH   1  24
ATOM     24  C   UNL A   1      37.459  20.442  24.685  1.00  0.00     0.275 C 
BRANCH  24  25
ATOM     25  O   UNL A   1      37.909  21.452  25.626  1.00  0.00    -0.458 OA
BRANCH  25  26
ATOM     26  C   UNL A   1      39.194  21.450  26.048  1.00  0.00     0.338 C 
ATOM     27  O   UNL A   1      39.921  20.472  26.120  1.00  0.00    -0.246 OA
BRANCH  26  28
ATOM     28  C   UNL A   1      39.508  22.754  26.709  1.00  0.00     0.060 A 
ATOM     29  C   UNL A   1      40.616  22.773  27.561  1.00  0.00     0.016 A 
ATOM     30  C   UNL A   1      38.787  23.935  26.526  1.00  0.00     0.016 A 
ATOM     31  C   UNL A   1      41.028  23.952  28.190  1.00  0.00     0.010 A 
ATOM     32  C   UNL A   1      39.271  25.148  27.077  1.00  0.00     0.010 A 
ATOM     33  C   UNL A   1      40.437  25.179  27.866  1.00  0.00    -0.014 A 
BRANCH  33  34
ATOM     34  C   UNL A   1      41.167  26.450  28.203  1.00  0.00     0.031 A 
ATOM     35  C   UNL A   1      40.538  27.573  28.981  1.00  0.00     0.074 A 
ATOM     36  C   UNL A   1      42.453  26.594  27.807  1.00  0.00     0.049 A 
ATOM     37  N   UNL A   1      40.989  28.789  29.191  1.00  0.00    -0.248 NA
ATOM     38  C   UNL A   1      39.252  27.289  29.628  1.00  0.00     0.031 C 
ATOM     39  C   UNL A   1      43.244  25.572  27.117  1.00  0.00     0.029 A 
ATOM     40  N   UNL A   1      43.329  27.651  27.927  1.00  0.00    -0.354 N 
ATOM     41  C   UNL A   1      40.028  29.430  29.963  1.00  0.00     0.074 A 
ATOM     42  C   UNL A   1      38.976  28.457  30.198  1.00  0.00     0.031 C 
ATOM     43  C   UNL A   1      44.482  26.036  26.899  1.00  0.00     0.029 A 
ATOM     44  C   UNL A   1      44.550  27.426  27.332  1.00  0.00     0.049 A 
ATOM     45  H   UNL A   1      43.104  28.487  28.395  1.00  0.00     0.167 HD
ATOM     46  C   UNL A   1      40.017  30.710  30.417  1.00  0.00     0.037 A 
ATOM     47  C   UNL A   1      45.592  28.249  27.093  1.00  0.00     0.037 A 
ATOM     48  C   UNL A   1      41.063  31.682  30.193  1.00  0.00     0.049 A 
ATOM     49  C   UNL A   1      45.513  29.689  27.514  1.00  0.00     0.074 A 
ATOM     50  C   UNL A   1      41.105  33.014  30.572  1.00  0.00     0.029 A 
ATOM     51  N   UNL A   1      42.257  31.426  29.534  1.00  0.00    -0.354 N 
ATOM     52  N   UNL A   1      44.559  30.309  28.165  1.00  0.00    -0.248 NA
ATOM     53  C   UNL A   1      46.646  30.551  27.149  1.00  0.00     0.031 C 
ATOM     54  C   UNL A   1      42.300  33.574  30.104  1.00  0.00     0.029 A 
ATOM     55  C   UNL A   1      43.031  32.578  29.482  1.00  0.00     0.049 A 
ATOM     56  H   UNL A   1      42.518  30.554  29.158  1.00  0.00     0.167 HD
ATOM     57  C   UNL A   1      44.984  31.623  28.303  1.00  0.00     0.074 A 
ATOM     58  C   UNL A   1      46.291  31.709  27.688  1.00  0.00     0.031 C 
ATOM     59  C   UNL A   1      44.339  32.665  28.882  1.00  0.00     0.037 A 
BRANCH  46  60
ATOM     60  C   UNL A   1      38.788  31.169  31.155  1.00  0.00     0.064 A 
ATOM     61  C   UNL A   1      37.680  31.716  30.493  1.00  0.00     0.173 A 
ATOM     62  C   UNL A   1      38.713  31.033  32.551  1.00  0.00     0.173 A 
ATOM     63  F   UNL A   1      37.699  31.869  29.160  1.00  0.00    -0.203 F 
ATOM     64  C   UNL A   1      36.561  32.147  31.203  1.00  0.00     0.198 A 
ATOM     65  C   UNL A   1      37.581  31.435  33.255  1.00  0.00     0.198 A 
ATOM     66  F   UNL A   1      39.736  30.495  33.234  1.00  0.00    -0.203 F 
ATOM     67  F   UNL A   1      35.534  32.714  30.554  1.00  0.00    -0.200 F 
ATOM     68  C   UNL A   1      36.511  32.004  32.583  1.00  0.00     0.200 A 
ATOM     69  F   UNL A   1      37.529  31.277  34.585  1.00  0.00    -0.200 F 
ATOM     70  F   UNL A   1      35.434  32.421  33.264  1.00  0.00    -0.200 F 
ENDBRANCH  46  60
BRANCH  47  71
ATOM     71  C   UNL A   1      46.780  27.749  26.344  1.00  0.00     0.064 A 
ATOM     72  C   UNL A   1      46.810  27.749  24.943  1.00  0.00     0.173 A 
ATOM     73  C   UNL A   1      47.898  27.231  27.017  1.00  0.00     0.173 A 
ATOM     74  F   UNL A   1      45.753  28.202  24.251  1.00  0.00    -0.203 F 
ATOM     75  C   UNL A   1      47.903  27.238  24.245  1.00  0.00     0.198 A 
ATOM     76  C   UNL A   1      49.006  26.755  26.318  1.00  0.00     0.198 A 
ATOM     77  F   UNL A   1      47.921  27.199  28.357  1.00  0.00    -0.203 F 
ATOM     78  F   UNL A   1      47.880  27.198  22.905  1.00  0.00    -0.200 F 
ATOM     79  C   UNL A   1      49.003  26.749  24.933  1.00  0.00     0.200 A 
ATOM     80  F   UNL A   1      50.072  26.299  26.990  1.00  0.00    -0.200 F 
ATOM     81  F   UNL A   1      50.054  26.261  24.262  1.00  0.00    -0.200 F 
ENDBRANCH  47  71
BRANCH  59  82
ATOM     82  C   UNL A   1      45.058  33.984  28.924  1.00  0.00     0.064 A 
ATOM     83  C   UNL A   1      44.906  34.945  27.913  1.00  0.00     0.173 A 
ATOM     84  C   UNL A   1      45.901  34.299  30.002  1.00  0.00     0.173 A 
ATOM     85  F   UNL A   1      44.130  34.687  26.848  1.00  0.00    -0.203 F 
ATOM     86  C   UNL A   1      45.587  36.159  27.966  1.00  0.00     0.198 A 
ATOM     87  C   UNL A   1      46.557  35.525  30.067  1.00  0.00     0.198 A 
ATOM     88  F   UNL A   1      46.084  33.417  30.995  1.00  0.00    -0.203 F 
ATOM     89  F   UNL A   1      45.466  37.040  26.963  1.00  0.00    -0.200 F 
ATOM     90  C   UNL A   1      46.407  36.451  29.046  1.00  0.00     0.200 A 
ATOM     91  F   UNL A   1      47.342  35.809  31.117  1.00  0.00    -0.200 F 
ATOM     92  F   UNL A   1      47.058  37.621  29.099  1.00  0.00    -0.200 F 
ENDBRANCH  59  82
ENDBRANCH  33  34
ENDBRANCH  26  28
ENDBRANCH  25  26
ENDBRANCH  24  25
ENDBRANCH   1  24
TORSDOF 17
ENDMDL
MODEL 3
REMARK VINA RESULT:     -11.0      4.500      9.910
REMARK SMILES CC[NH2+][C@@]1(C(=O)OCCOC(=O)c2ccc(-c3c4nc(c(-c5c(F)c(F)c(F)c(F)c5F)c5ccc([nH]5)c(-c5c(F)c(F)c(F)c(F)c5F)c5nc(c(-c6c(F)c(F)c(F)c(F)c6F)c6ccc3[nH]6)C=C5)C=C4)cc2)CCC[C@H]1CCSc1cnn(C)c1
REMARK SMILES IDX 8 1 7 2 5 3 6 4 4 5 76 6 79 7 77 8 78 9 3 10 2 13 1 14 80 15
REMARK SMILES IDX 81 16 82 17 83 18 84 19 88 20 85 21 86 22 87 23 9 24 10 25
REMARK SMILES IDX 11 26 12 27 13 28 14 29 75 30 15 31 74 32 16 33 17 34 18 35
REMARK SMILES IDX 68 36 19 37 73 38 67 39 69 40 20 41 72 42 66 43 65 44 21 46
REMARK SMILES IDX 53 47 33 48 52 49 34 50 37 51 51 52 70 53 35 54 36 55 50 57
REMARK SMILES IDX 71 58 38 59 22 60 23 61 31 62 24 63 25 64 29 65 32 66 26 67
REMARK SMILES IDX 27 68 30 69 28 70 54 71 55 72 63 73 56 74 57 75 61 76 64 77
REMARK SMILES IDX 58 78 59 79 62 80 60 81 39 82 40 83 48 84 41 85 42 86 46 87
REMARK SMILES IDX 49 88 43 89 44 90 47 91 45 92
REMARK H PARENT 3 11 3 12 69 45 37 56
REMARK Flexibility Score: inf
ROOT
ATOM      1  C   UNL A   1      31.382  28.084  26.332  1.00  0.00     0.274 C 
ENDROOT
BRANCH   1   2
ATOM      2  O   UNL A   1      32.351  26.997  26.355  1.00  0.00    -0.457 OA
BRANCH   2   3
ATOM      3  C   UNL A   1      31.827  25.745  26.161  1.00  0.00     0.368 C 
ATOM      4  O   UNL A   1      30.685  25.451  26.511  1.00  0.00    -0.245 OA
BRANCH   3   5
ATOM      5  C   UNL A   1      32.746  24.761  25.298  1.00  0.00     0.197 C 
ATOM      6  C   UNL A   1      33.118  25.489  23.982  1.00  0.00     0.081 C 
ATOM      7  C   UNL A   1      32.022  23.476  24.713  1.00  0.00     0.063 C 
ATOM      8  C   UNL A   1      31.891  25.349  23.098  1.00  0.00     0.008 C 
ATOM      9  C   UNL A   1      31.220  24.047  23.515  1.00  0.00     0.011 C 
BRANCH   5  10
ATOM     10  N   UNL A   1      33.972  24.428  26.091  1.00  0.00    -0.332 N 
ATOM     11  H   UNL A   1      33.956  24.971  26.955  1.00  0.00     0.347 HD
ATOM     12  H   UNL A   1      33.954  23.424  26.267  1.00  0.00     0.347 HD
BRANCH  10  13
ATOM     13  C   UNL A   1      35.230  24.723  25.376  1.00  0.00     0.257 C 
ATOM     14  C   UNL A   1      36.304  23.703  25.732  1.00  0.00     0.071 C 
ENDBRANCH  10  13
ENDBRANCH   5  10
BRANCH   7  15
ATOM     15  C   UNL A   1      32.938  22.315  24.175  1.00  0.00     0.022 C 
BRANCH  15  16
ATOM     16  C   UNL A   1      32.301  20.960  23.797  1.00  0.00     0.075 C 
BRANCH  16  17
ATOM     17  S   UNL A   1      32.527  19.613  25.045  1.00  0.00    -0.123 SA
BRANCH  17  18
ATOM     18  C   UNL A   1      33.477  18.470  24.159  1.00  0.00     0.045 A 
ATOM     19  C   UNL A   1      33.057  17.626  23.106  1.00  0.00     0.150 A 
ATOM     20  C   UNL A   1      34.744  18.020  24.476  1.00  0.00     0.123 A 
ATOM     21  N   UNL A   1      33.873  16.564  23.010  1.00  0.00    -0.181 NA
ATOM     22  N   UNL A   1      34.564  16.680  24.169  1.00  0.00    -0.275 N 
ATOM     23  C   UNL A   1      34.139  15.829  25.256  1.00  0.00     0.173 C 
ENDBRANCH  17  18
ENDBRANCH  16  17
ENDBRANCH  15  16
ENDBRANCH   7  15
ENDBRANCH   3   5
ENDBRANCH   2   3
ENDBRANCH   1   2
BRANCH   1  24
ATOM     24  C   UNL A   1      31.790  29.313  27.192  1.00  0.00     0.275 C 
BRANCH  24  25
ATOM     25  O   UNL A   1      32.547  30.356  26.522  1.00  0.00    -0.458 OA
BRANCH  25  26
ATOM     26  C   UNL A   1      33.141  31.327  27.252  1.00  0.00     0.338 C 
ATOM     27  O   UNL A   1      32.718  32.460  27.413  1.00  0.00    -0.246 OA
BRANCH  26  28
ATOM     28  C   UNL A   1      34.542  30.921  27.582  1.00  0.00     0.060 A 
ATOM     29  C   UNL A   1      35.394  31.930  28.042  1.00  0.00     0.016 A 
ATOM     30  C   UNL A   1      35.042  29.622  27.475  1.00  0.00     0.016 A 
ATOM     31  C   UNL A   1      36.709  31.649  28.427  1.00  0.00     0.010 A 
ATOM     32  C   UNL A   1      36.338  29.324  27.968  1.00  0.00     0.010 A 
ATOM     33  C   UNL A   1      37.163  30.328  28.510  1.00  0.00    -0.014 A 
BRANCH  33  34
ATOM     34  C   UNL A   1      38.390  30.030  29.327  1.00  0.00     0.031 A 
ATOM     35  C   UNL A   1      39.503  29.145  28.839  1.00  0.00     0.074 A 
ATOM     36  C   UNL A   1      38.516  30.592  30.552  1.00  0.00     0.049 A 
ATOM     37  N   UNL A   1      40.530  28.663  29.502  1.00  0.00    -0.248 NA
ATOM     38  C   UNL A   1      39.475  28.771  27.420  1.00  0.00     0.031 C 
ATOM     39  C   UNL A   1      37.572  31.541  31.147  1.00  0.00     0.029 A 
ATOM     40  N   UNL A   1      39.487  30.454  31.520  1.00  0.00    -0.354 N 
ATOM     41  C   UNL A   1      41.254  27.901  28.594  1.00  0.00     0.074 A 
ATOM     42  C   UNL A   1      40.553  27.999  27.326  1.00  0.00     0.031 C 
ATOM     43  C   UNL A   1      38.016  31.916  32.354  1.00  0.00     0.029 A 
ATOM     44  C   UNL A   1      39.219  31.157  32.674  1.00  0.00     0.049 A 
ATOM     45  H   UNL A   1      40.295  29.906  31.399  1.00  0.00     0.167 HD
ATOM     46  C   UNL A   1      42.383  27.175  28.802  1.00  0.00     0.037 A 
ATOM     47  C   UNL A   1      39.821  31.154  33.881  1.00  0.00     0.037 A 
ATOM     48  C   UNL A   1      43.090  27.078  30.060  1.00  0.00     0.049 A 
ATOM     49  C   UNL A   1      41.008  30.263  34.117  1.00  0.00     0.074 A 
ATOM     50  C   UNL A   1      44.210  26.322  30.369  1.00  0.00     0.029 A 
ATOM     51  N   UNL A   1      42.748  27.762  31.217  1.00  0.00    -0.354 N 
ATOM     52  N   UNL A   1      41.631  29.476  33.275  1.00  0.00    -0.248 NA
ATOM     53  C   UNL A   1      41.565  30.245  35.478  1.00  0.00     0.031 C 
ATOM     54  C   UNL A   1      44.517  26.513  31.721  1.00  0.00     0.029 A 
ATOM     55  C   UNL A   1      43.626  27.432  32.244  1.00  0.00     0.049 A 
ATOM     56  H   UNL A   1      41.995  28.390  31.300  1.00  0.00     0.167 HD
ATOM     57  C   UNL A   1      42.659  28.885  33.997  1.00  0.00     0.074 A 
ATOM     58  C   UNL A   1      42.592  29.420  35.339  1.00  0.00     0.031 C 
ATOM     59  C   UNL A   1      43.570  27.972  33.579  1.00  0.00     0.037 A 
BRANCH  46  60
ATOM     60  C   UNL A   1      42.900  26.357  27.649  1.00  0.00     0.064 A 
ATOM     61  C   UNL A   1      43.876  26.842  26.768  1.00  0.00     0.173 A 
ATOM     62  C   UNL A   1      42.421  25.053  27.440  1.00  0.00     0.173 A 
ATOM     63  F   UNL A   1      44.367  28.082  26.921  1.00  0.00    -0.203 F 
ATOM     64  C   UNL A   1      44.325  26.069  25.699  1.00  0.00     0.198 A 
ATOM     65  C   UNL A   1      42.894  24.271  26.389  1.00  0.00     0.198 A 
ATOM     66  F   UNL A   1      41.501  24.531  28.266  1.00  0.00    -0.203 F 
ATOM     67  F   UNL A   1      45.221  26.572  24.839  1.00  0.00    -0.200 F 
ATOM     68  C   UNL A   1      43.836  24.784  25.512  1.00  0.00     0.200 A 
ATOM     69  F   UNL A   1      42.433  23.023  26.225  1.00  0.00    -0.200 F 
ATOM     70  F   UNL A   1      44.267  24.043  24.482  1.00  0.00    -0.200 F 
ENDBRANCH  46  60
BRANCH  47  71
ATOM     71  C   UNL A   1      39.260  31.970  34.995  1.00  0.00     0.064 A 
ATOM     72  C   UNL A   1      39.532  33.341  35.102  1.00  0.00     0.173 A 
ATOM     73  C   UNL A   1      38.466  31.386  35.995  1.00  0.00     0.173 A 
ATOM     74  F   UNL A   1      40.313  33.941  34.192  1.00  0.00    -0.203 F 
ATOM     75  C   UNL A   1      39.046  34.091  36.172  1.00  0.00     0.198 A 
ATOM     76  C   UNL A   1      37.949  32.145  37.043  1.00  0.00     0.198 A 
ATOM     77  F   UNL A   1      38.180  30.077  35.948  1.00  0.00    -0.203 F 
ATOM     78  F   UNL A   1      39.369  35.387  36.279  1.00  0.00    -0.200 F 
ATOM     79  C   UNL A   1      38.248  33.494  37.136  1.00  0.00     0.200 A 
ATOM     80  F   UNL A   1      37.166  31.566  37.963  1.00  0.00    -0.200 F 
ATOM     81  F   UNL A   1      37.778  34.217  38.161  1.00  0.00    -0.200 F 
ENDBRANCH  47  71
BRANCH  59  82
ATOM     82  C   UNL A   1      44.606  27.528  34.573  1.00  0.00     0.064 A 
ATOM     83  C   UNL A   1      45.820  28.213  34.737  1.00  0.00     0.173 A 
ATOM     84  C   UNL A   1      44.374  26.407  35.387  1.00  0.00     0.173 A 
ATOM     85  F   UNL A   1      46.103  29.276  33.969  1.00  0.00    -0.203 F 
ATOM     86  C   UNL A   1      46.771  27.780  35.659  1.00  0.00     0.198 A 
ATOM     87  C   UNL A   1      45.314  25.996  36.329  1.00  0.00     0.198 A 
ATOM     88  F   UNL A   1      43.231  25.714  35.272  1.00  0.00    -0.203 F 
ATOM     89  F   UNL A   1      47.944  28.421  35.761  1.00  0.00    -0.200 F 
ATOM     90  C   UNL A   1      46.515  26.677  36.459  1.00  0.00     0.200 A 
ATOM     91  F   UNL A   1      45.060  24.933  37.106  1.00  0.00    -0.200 F 
ATOM     92  F   UNL A   1      47.428  26.264  37.348  1.00  0.00    -0.200 F 
ENDBRANCH  59  82
ENDBRANCH  33  34
ENDBRANCH  26  28
ENDBRANCH  25  26
ENDBRANCH  24  25
ENDBRANCH   1  24
TORSDOF 17
ENDMDL
