MODEL 1
REMARK VINA RESULT:     -11.8      0.000      0.000
REMARK SMILES O=C(OCCOC(=O)[C@H]1CS[C@H](c2cc(F)ccc2F)[NH2+]1)c1ccc(-c2c3nc(c(-c4c(F)c(F)c(F)c(F)c4F)c4ccc([nH]4)c(-c4c(F)c(F)c(F)c(F)c4F)c4nc(c(-c5c(F)c(F)c(F)c(F)c5F)c5ccc2[nH]5)C=C4)C=C3)cc1
REMARK SMILES IDX 4 1 3 2 2 3 1 4 22 5 23 6 84 7 24 8 83 9 25 10 26 11 27 12
REMARK SMILES IDX 77 13 28 14 82 15 76 16 78 17 29 18 81 19 75 20 74 21 30 23
REMARK SMILES IDX 62 24 42 25 61 26 43 27 46 28 60 29 79 30 44 31 45 32 59 34
REMARK SMILES IDX 80 35 47 36 31 37 32 38 40 39 33 40 34 41 38 42 41 43 35 44
REMARK SMILES IDX 36 45 39 46 37 47 63 48 64 49 72 50 65 51 66 52 70 53 73 54
REMARK SMILES IDX 67 55 68 56 71 57 69 58 48 59 49 60 57 61 50 62 51 63 55 64
REMARK SMILES IDX 58 65 52 66 53 67 56 68 54 69 5 70 6 71 7 72 8 73 9 74 10 75
REMARK SMILES IDX 21 76 11 77 12 78 13 81 14 82 19 83 15 84 18 85 20 86 16 87
REMARK SMILES IDX 17 88
REMARK H PARENT 78 22 46 33 21 79 21 80
REMARK Flexibility Score: inf
ROOT
ATOM      1  C   UNL A   1      34.196  33.446  33.339  1.00  0.00     0.275 C 
ENDROOT
BRANCH   1   2
ATOM      2  O   UNL A   1      35.061  32.449  32.784  1.00  0.00    -0.458 OA
BRANCH   2   3
ATOM      3  C   UNL A   1      36.304  32.089  33.190  1.00  0.00     0.338 C 
ATOM      4  O   UNL A   1      36.640  32.328  34.340  1.00  0.00    -0.246 OA
BRANCH   3   5
ATOM      5  C   UNL A   1      37.354  31.567  32.252  1.00  0.00     0.060 A 
ATOM      6  C   UNL A   1      37.388  31.703  30.860  1.00  0.00     0.016 A 
ATOM      7  C   UNL A   1      38.424  30.892  32.863  1.00  0.00     0.016 A 
ATOM      8  C   UNL A   1      38.497  31.288  30.111  1.00  0.00     0.010 A 
ATOM      9  C   UNL A   1      39.527  30.460  32.117  1.00  0.00     0.010 A 
ATOM     10  C   UNL A   1      39.584  30.683  30.737  1.00  0.00    -0.014 A 
BRANCH  10  11
ATOM     11  C   UNL A   1      40.705  30.130  29.943  1.00  0.00     0.031 A 
ATOM     12  C   UNL A   1      41.852  31.046  29.635  1.00  0.00     0.074 A 
ATOM     13  C   UNL A   1      40.703  28.857  29.502  1.00  0.00     0.049 A 
ATOM     14  N   UNL A   1      42.902  30.846  28.883  1.00  0.00    -0.248 NA
ATOM     15  C   UNL A   1      41.790  32.388  30.241  1.00  0.00     0.031 C 
ATOM     16  C   UNL A   1      39.649  27.872  29.742  1.00  0.00     0.029 A 
ATOM     17  N   UNL A   1      41.624  28.173  28.745  1.00  0.00    -0.354 N 
ATOM     18  C   UNL A   1      43.611  32.038  28.919  1.00  0.00     0.074 A 
ATOM     19  C   UNL A   1      42.836  32.981  29.692  1.00  0.00     0.031 C 
ATOM     20  C   UNL A   1      39.980  26.714  29.144  1.00  0.00     0.029 A 
ATOM     21  C   UNL A   1      41.260  26.877  28.462  1.00  0.00     0.049 A 
ATOM     22  H   UNL A   1      42.468  28.575  28.434  1.00  0.00     0.167 HD
ATOM     23  C   UNL A   1      44.828  32.309  28.400  1.00  0.00     0.037 A 
ATOM     24  C   UNL A   1      41.895  25.940  27.730  1.00  0.00     0.037 A 
ATOM     25  C   UNL A   1      45.613  31.356  27.671  1.00  0.00     0.049 A 
ATOM     26  C   UNL A   1      43.231  26.282  27.116  1.00  0.00     0.074 A 
ATOM     27  C   UNL A   1      46.868  31.515  27.116  1.00  0.00     0.029 A 
ATOM     28  N   UNL A   1      45.213  30.053  27.411  1.00  0.00    -0.354 N 
ATOM     29  N   UNL A   1      43.914  27.401  27.188  1.00  0.00    -0.248 NA
ATOM     30  C   UNL A   1      43.892  25.230  26.329  1.00  0.00     0.031 C 
ATOM     31  C   UNL A   1      47.221  30.310  26.501  1.00  0.00     0.029 A 
ATOM     32  C   UNL A   1      46.201  29.393  26.702  1.00  0.00     0.049 A 
ATOM     33  H   UNL A   1      44.356  29.657  27.688  1.00  0.00     0.167 HD
ATOM     34  C   UNL A   1      45.094  27.176  26.493  1.00  0.00     0.074 A 
ATOM     35  C   UNL A   1      45.042  25.811  26.012  1.00  0.00     0.031 C 
ATOM     36  C   UNL A   1      46.131  28.020  26.270  1.00  0.00     0.037 A 
BRANCH  23  37
ATOM     37  C   UNL A   1      45.375  33.682  28.641  1.00  0.00     0.064 A 
ATOM     38  C   UNL A   1      45.128  34.724  27.738  1.00  0.00     0.173 A 
ATOM     39  C   UNL A   1      46.120  33.973  29.795  1.00  0.00     0.173 A 
ATOM     40  F   UNL A   1      44.418  34.498  26.622  1.00  0.00    -0.203 F 
ATOM     41  C   UNL A   1      45.598  36.010  27.986  1.00  0.00     0.198 A 
ATOM     42  C   UNL A   1      46.561  35.266  30.055  1.00  0.00     0.198 A 
ATOM     43  F   UNL A   1      46.359  33.014  30.703  1.00  0.00    -0.203 F 
ATOM     44  F   UNL A   1      45.353  36.993  27.109  1.00  0.00    -0.200 F 
ATOM     45  C   UNL A   1      46.304  36.283  29.149  1.00  0.00     0.200 A 
ATOM     46  F   UNL A   1      47.208  35.533  31.199  1.00  0.00    -0.200 F 
ATOM     47  F   UNL A   1      46.723  37.530  29.405  1.00  0.00    -0.200 F 
ENDBRANCH  23  37
BRANCH  24  48
ATOM     48  C   UNL A   1      41.307  24.584  27.548  1.00  0.00     0.064 A 
ATOM     49  C   UNL A   1      40.185  24.373  26.733  1.00  0.00     0.173 A 
ATOM     50  C   UNL A   1      41.891  23.458  28.150  1.00  0.00     0.173 A 
ATOM     51  F   UNL A   1      39.590  25.409  26.126  1.00  0.00    -0.203 F 
ATOM     52  C   UNL A   1      39.675  23.092  26.523  1.00  0.00     0.198 A 
ATOM     53  C   UNL A   1      41.396  22.175  27.919  1.00  0.00     0.198 A 
ATOM     54  F   UNL A   1      42.981  23.600  28.919  1.00  0.00    -0.203 F 
ATOM     55  F   UNL A   1      38.599  22.922  25.743  1.00  0.00    -0.200 F 
ATOM     56  C   UNL A   1      40.287  21.993  27.108  1.00  0.00     0.200 A 
ATOM     57  F   UNL A   1      42.010  21.114  28.459  1.00  0.00    -0.200 F 
ATOM     58  F   UNL A   1      39.817  20.758  26.876  1.00  0.00    -0.200 F 
ENDBRANCH  24  48
BRANCH  36  59
ATOM     59  C   UNL A   1      47.314  27.490  25.518  1.00  0.00     0.064 A 
ATOM     60  C   UNL A   1      48.388  26.910  26.211  1.00  0.00     0.173 A 
ATOM     61  C   UNL A   1      47.434  27.655  24.132  1.00  0.00     0.173 A 
ATOM     62  F   UNL A   1      48.321  26.739  27.540  1.00  0.00    -0.203 F 
ATOM     63  C   UNL A   1      49.550  26.538  25.545  1.00  0.00     0.198 A 
ATOM     64  C   UNL A   1      48.588  27.255  23.464  1.00  0.00     0.198 A 
ATOM     65  F   UNL A   1      46.428  28.193  23.426  1.00  0.00    -0.203 F 
ATOM     66  F   UNL A   1      50.582  26.029  26.233  1.00  0.00    -0.200 F 
ATOM     67  C   UNL A   1      49.650  26.709  24.173  1.00  0.00     0.200 A 
ATOM     68  F   UNL A   1      48.675  27.400  22.135  1.00  0.00    -0.200 F 
ATOM     69  F   UNL A   1      50.771  26.352  23.531  1.00  0.00    -0.200 F 
ENDBRANCH  36  59
ENDBRANCH  10  11
ENDBRANCH   3   5
ENDBRANCH   2   3
ENDBRANCH   1   2
BRANCH   1  70
ATOM     70  C   UNL A   1      34.345  34.828  32.698  1.00  0.00     0.274 C 
BRANCH  70  71
ATOM     71  O   UNL A   1      34.753  34.790  31.315  1.00  0.00    -0.458 OA
BRANCH  71  72
ATOM     72  C   UNL A   1      33.755  35.002  30.404  1.00  0.00     0.365 C 
ATOM     73  O   UNL A   1      32.972  35.940  30.461  1.00  0.00    -0.245 OA
BRANCH  72  74
ATOM     74  C   UNL A   1      33.654  33.898  29.331  1.00  0.00     0.304 C 
ATOM     75  C   UNL A   1      34.436  34.331  28.089  1.00  0.00     0.153 C 
ATOM     76  N   UNL A   1      34.061  32.544  29.810  1.00  0.00    -0.319 N 
ATOM     77  S   UNL A   1      35.835  33.212  28.001  1.00  0.00    -0.087 SA
ATOM     78  C   UNL A   1      34.921  31.893  28.820  1.00  0.00     0.277 C 
ATOM     79  H   UNL A   1      33.228  31.976  29.959  1.00  0.00     0.348 HD
ATOM     80  H   UNL A   1      34.577  32.644  30.684  1.00  0.00     0.348 HD
BRANCH  78  81
ATOM     81  C   UNL A   1      34.273  30.909  27.866  1.00  0.00     0.059 A 
ATOM     82  C   UNL A   1      33.052  31.269  27.252  1.00  0.00     0.053 A 
ATOM     83  C   UNL A   1      34.862  29.707  27.453  1.00  0.00     0.133 A 
ATOM     84  C   UNL A   1      32.450  30.447  26.303  1.00  0.00     0.123 A 
ATOM     85  C   UNL A   1      34.259  28.889  26.491  1.00  0.00     0.043 A 
ATOM     86  F   UNL A   1      36.036  29.297  27.953  1.00  0.00    -0.206 F 
ATOM     87  F   UNL A   1      31.290  30.819  25.750  1.00  0.00    -0.207 F 
ATOM     88  C   UNL A   1      33.045  29.257  25.916  1.00  0.00     0.042 A 
ENDBRANCH  78  81
ENDBRANCH  72  74
ENDBRANCH  71  72
ENDBRANCH  70  71
ENDBRANCH   1  70
TORSDOF 12
ENDMDL
MODEL 2
REMARK VINA RESULT:     -11.8      5.969     11.839
REMARK SMILES O=C(OCCOC(=O)[C@H]1CS[C@H](c2cc(F)ccc2F)[NH2+]1)c1ccc(-c2c3nc(c(-c4c(F)c(F)c(F)c(F)c4F)c4ccc([nH]4)c(-c4c(F)c(F)c(F)c(F)c4F)c4nc(c(-c5c(F)c(F)c(F)c(F)c5F)c5ccc2[nH]5)C=C4)C=C3)cc1
REMARK SMILES IDX 4 1 3 2 2 3 1 4 22 5 23 6 84 7 24 8 83 9 25 10 26 11 27 12
REMARK SMILES IDX 77 13 28 14 82 15 76 16 78 17 29 18 81 19 75 20 74 21 30 23
REMARK SMILES IDX 62 24 42 25 61 26 43 27 46 28 60 29 79 30 44 31 45 32 59 34
REMARK SMILES IDX 80 35 47 36 31 37 32 38 40 39 33 40 34 41 38 42 41 43 35 44
REMARK SMILES IDX 36 45 39 46 37 47 63 48 64 49 72 50 65 51 66 52 70 53 73 54
REMARK SMILES IDX 67 55 68 56 71 57 69 58 48 59 49 60 57 61 50 62 51 63 55 64
REMARK SMILES IDX 58 65 52 66 53 67 56 68 54 69 5 70 6 71 7 72 8 73 9 74 10 75
REMARK SMILES IDX 21 76 11 77 12 78 13 81 14 82 19 83 15 84 18 85 20 86 16 87
REMARK SMILES IDX 17 88
REMARK H PARENT 78 22 46 33 21 79 21 80
REMARK Flexibility Score: inf
ROOT
ATOM      1  C   UNL A   1      44.912  22.448  23.965  1.00  0.00     0.275 C 
ENDROOT
BRANCH   1   2
ATOM      2  O   UNL A   1      44.131  23.335  24.776  1.00  0.00    -0.458 OA
BRANCH   2   3
ATOM      3  C   UNL A   1      44.400  24.617  25.123  1.00  0.00     0.338 C 
ATOM      4  O   UNL A   1      45.359  25.177  24.613  1.00  0.00    -0.246 OA
BRANCH   3   5
ATOM      5  C   UNL A   1      43.685  25.333  26.233  1.00  0.00     0.060 A 
ATOM      6  C   UNL A   1      42.699  24.814  27.078  1.00  0.00     0.016 A 
ATOM      7  C   UNL A   1      44.084  26.664  26.446  1.00  0.00     0.016 A 
ATOM      8  C   UNL A   1      42.208  25.546  28.167  1.00  0.00     0.010 A 
ATOM      9  C   UNL A   1      43.584  27.406  27.521  1.00  0.00     0.010 A 
ATOM     10  C   UNL A   1      42.663  26.839  28.409  1.00  0.00    -0.014 A 
BRANCH  10  11
ATOM     11  C   UNL A   1      42.062  27.666  29.481  1.00  0.00     0.031 A 
ATOM     12  C   UNL A   1      42.725  27.643  30.826  1.00  0.00     0.074 A 
ATOM     13  C   UNL A   1      40.959  28.410  29.270  1.00  0.00     0.049 A 
ATOM     14  N   UNL A   1      42.350  28.191  31.951  1.00  0.00    -0.248 NA
ATOM     15  C   UNL A   1      43.973  26.866  30.919  1.00  0.00     0.031 C 
ATOM     16  C   UNL A   1      40.231  28.517  28.007  1.00  0.00     0.029 A 
ATOM     17  N   UNL A   1      40.247  29.214  30.128  1.00  0.00    -0.354 N 
ATOM     18  C   UNL A   1      43.309  27.813  32.880  1.00  0.00     0.074 A 
ATOM     19  C   UNL A   1      44.232  26.924  32.214  1.00  0.00     0.031 C 
ATOM     20  C   UNL A   1      39.177  29.337  28.171  1.00  0.00     0.029 A 
ATOM     21  C   UNL A   1      39.142  29.799  29.555  1.00  0.00     0.049 A 
ATOM     22  H   UNL A   1      40.506  29.360  31.067  1.00  0.00     0.167 HD
ATOM     23  C   UNL A   1      43.442  28.216  34.163  1.00  0.00     0.037 A 
ATOM     24  C   UNL A   1      38.212  30.611  30.097  1.00  0.00     0.037 A 
ATOM     25  C   UNL A   1      42.548  29.133  34.807  1.00  0.00     0.049 A 
ATOM     26  C   UNL A   1      38.353  31.006  31.548  1.00  0.00     0.074 A 
ATOM     27  C   UNL A   1      42.598  29.625  36.096  1.00  0.00     0.029 A 
ATOM     28  N   UNL A   1      41.445  29.708  34.192  1.00  0.00    -0.354 N 
ATOM     29  N   UNL A   1      39.286  30.675  32.410  1.00  0.00    -0.248 NA
ATOM     30  C   UNL A   1      37.320  31.895  32.101  1.00  0.00     0.031 C 
ATOM     31  C   UNL A   1      41.509  30.486  36.269  1.00  0.00     0.029 A 
ATOM     32  C   UNL A   1      40.803  30.554  35.078  1.00  0.00     0.049 A 
ATOM     33  H   UNL A   1      41.161  29.539  33.265  1.00  0.00     0.167 HD
ATOM     34  C   UNL A   1      38.976  31.342  33.587  1.00  0.00     0.074 A 
ATOM     35  C   UNL A   1      37.772  32.105  33.329  1.00  0.00     0.031 C 
ATOM     36  C   UNL A   1      39.627  31.328  34.776  1.00  0.00     0.037 A 
BRANCH  23  37
ATOM     37  C   UNL A   1      44.617  27.677  34.921  1.00  0.00     0.064 A 
ATOM     38  C   UNL A   1      45.837  28.365  34.940  1.00  0.00     0.173 A 
ATOM     39  C   UNL A   1      44.517  26.488  35.661  1.00  0.00     0.173 A 
ATOM     40  F   UNL A   1      45.981  29.507  34.252  1.00  0.00    -0.203 F 
ATOM     41  C   UNL A   1      46.914  27.887  35.681  1.00  0.00     0.198 A 
ATOM     42  C   UNL A   1      45.585  26.031  36.426  1.00  0.00     0.198 A 
ATOM     43  F   UNL A   1      43.360  25.809  35.696  1.00  0.00    -0.203 F 
ATOM     44  F   UNL A   1      48.074  28.557  35.685  1.00  0.00    -0.200 F 
ATOM     45  C   UNL A   1      46.784  26.727  36.433  1.00  0.00     0.200 A 
ATOM     46  F   UNL A   1      45.443  24.932  37.182  1.00  0.00    -0.200 F 
ATOM     47  F   UNL A   1      47.809  26.289  37.176  1.00  0.00    -0.200 F 
ENDBRANCH  23  37
BRANCH  24  48
ATOM     48  C   UNL A   1      37.080  31.130  29.282  1.00  0.00     0.064 A 
ATOM     49  C   UNL A   1      35.985  30.321  28.945  1.00  0.00     0.173 A 
ATOM     50  C   UNL A   1      37.048  32.470  28.863  1.00  0.00     0.173 A 
ATOM     51  F   UNL A   1      35.956  29.036  29.325  1.00  0.00    -0.203 F 
ATOM     52  C   UNL A   1      34.903  30.831  28.228  1.00  0.00     0.198 A 
ATOM     53  C   UNL A   1      35.954  32.986  28.169  1.00  0.00     0.198 A 
ATOM     54  F   UNL A   1      38.058  33.294  29.180  1.00  0.00    -0.203 F 
ATOM     55  F   UNL A   1      33.872  30.033  27.918  1.00  0.00    -0.200 F 
ATOM     56  C   UNL A   1      34.883  32.166  27.850  1.00  0.00     0.200 A 
ATOM     57  F   UNL A   1      35.926  34.283  27.835  1.00  0.00    -0.200 F 
ATOM     58  F   UNL A   1      33.826  32.664  27.193  1.00  0.00    -0.200 F 
ENDBRANCH  24  48
BRANCH  36  59
ATOM     59  C   UNL A   1      39.088  32.192  35.877  1.00  0.00     0.064 A 
ATOM     60  C   UNL A   1      39.514  33.523  36.000  1.00  0.00     0.173 A 
ATOM     61  C   UNL A   1      38.243  31.674  36.867  1.00  0.00     0.173 A 
ATOM     62  F   UNL A   1      40.330  34.060  35.080  1.00  0.00    -0.203 F 
ATOM     63  C   UNL A   1      39.133  34.297  37.091  1.00  0.00     0.198 A 
ATOM     64  C   UNL A   1      37.841  32.461  37.942  1.00  0.00     0.198 A 
ATOM     65  F   UNL A   1      37.799  30.411  36.784  1.00  0.00    -0.203 F 
ATOM     66  F   UNL A   1      39.590  35.552  37.214  1.00  0.00    -0.200 F 
ATOM     67  C   UNL A   1      38.296  33.767  38.060  1.00  0.00     0.200 A 
ATOM     68  F   UNL A   1      37.013  31.955  38.867  1.00  0.00    -0.200 F 
ATOM     69  F   UNL A   1      37.930  34.512  39.112  1.00  0.00    -0.200 F 
ENDBRANCH  36  59
ENDBRANCH  10  11
ENDBRANCH   3   5
ENDBRANCH   2   3
ENDBRANCH   1   2
BRANCH   1  70
ATOM     70  C   UNL A   1      44.896  20.993  24.439  1.00  0.00     0.274 C 
BRANCH  70  71
ATOM     71  O   UNL A   1      44.185  20.789  25.677  1.00  0.00    -0.458 OA
BRANCH  71  72
ATOM     72  C   UNL A   1      43.255  19.786  25.660  1.00  0.00     0.365 C 
ATOM     73  O   UNL A   1      43.532  18.607  25.483  1.00  0.00    -0.245 OA
BRANCH  72  74
ATOM     74  C   UNL A   1      41.803  20.287  25.804  1.00  0.00     0.304 C 
ATOM     75  C   UNL A   1      41.308  19.987  27.221  1.00  0.00     0.153 C 
ATOM     76  N   UNL A   1      41.614  21.719  25.432  1.00  0.00    -0.319 N 
ATOM     77  S   UNL A   1      41.121  21.591  28.002  1.00  0.00    -0.087 SA
ATOM     78  C   UNL A   1      40.780  22.397  26.427  1.00  0.00     0.277 C 
ATOM     79  H   UNL A   1      41.161  21.772  24.520  1.00  0.00     0.348 HD
ATOM     80  H   UNL A   1      42.525  22.176  25.397  1.00  0.00     0.348 HD
BRANCH  78  81
ATOM     81  C   UNL A   1      39.303  22.548  26.121  1.00  0.00     0.059 A 
ATOM     82  C   UNL A   1      38.591  21.417  25.661  1.00  0.00     0.053 A 
ATOM     83  C   UNL A   1      38.560  23.707  26.376  1.00  0.00     0.133 A 
ATOM     84  C   UNL A   1      37.217  21.469  25.442  1.00  0.00     0.123 A 
ATOM     85  C   UNL A   1      37.177  23.751  26.165  1.00  0.00     0.043 A 
ATOM     86  F   UNL A   1      39.141  24.820  26.845  1.00  0.00    -0.206 F 
ATOM     87  F   UNL A   1      36.579  20.378  25.000  1.00  0.00    -0.207 F 
ATOM     88  C   UNL A   1      36.502  22.629  25.692  1.00  0.00     0.042 A 
ENDBRANCH  78  81
ENDBRANCH  72  74
ENDBRANCH  71  72
ENDBRANCH  70  71
ENDBRANCH   1  70
TORSDOF 12
ENDMDL
MODEL 3
REMARK VINA RESULT:     -11.8      4.629     11.091
REMARK SMILES O=C(OCCOC(=O)[C@H]1CS[C@H](c2cc(F)ccc2F)[NH2+]1)c1ccc(-c2c3nc(c(-c4c(F)c(F)c(F)c(F)c4F)c4ccc([nH]4)c(-c4c(F)c(F)c(F)c(F)c4F)c4nc(c(-c5c(F)c(F)c(F)c(F)c5F)c5ccc2[nH]5)C=C4)C=C3)cc1
REMARK SMILES IDX 4 1 3 2 2 3 1 4 22 5 23 6 84 7 24 8 83 9 25 10 26 11 27 12
REMARK SMILES IDX 77 13 28 14 82 15 76 16 78 17 29 18 81 19 75 20 74 21 30 23
REMARK SMILES IDX 62 24 42 25 61 26 43 27 46 28 60 29 79 30 44 31 45 32 59 34
REMARK SMILES IDX 80 35 47 36 31 37 32 38 40 39 33 40 34 41 38 42 41 43 35 44
REMARK SMILES IDX 36 45 39 46 37 47 63 48 64 49 72 50 65 51 66 52 70 53 73 54
REMARK SMILES IDX 67 55 68 56 71 57 69 58 48 59 49 60 57 61 50 62 51 63 55 64
REMARK SMILES IDX 58 65 52 66 53 67 56 68 54 69 5 70 6 71 7 72 8 73 9 74 10 75
REMARK SMILES IDX 21 76 11 77 12 78 13 81 14 82 19 83 15 84 18 85 20 86 16 87
REMARK SMILES IDX 17 88
REMARK H PARENT 78 22 46 33 21 79 21 80
REMARK Flexibility Score: inf
ROOT
ATOM      1  C   UNL A   1      41.054  19.896  26.917  1.00  0.00     0.275 C 
ENDROOT
BRANCH   1   2
ATOM      2  O   UNL A   1      41.144  21.267  26.510  1.00  0.00    -0.458 OA
BRANCH   2   3
ATOM      3  C   UNL A   1      40.187  22.225  26.557  1.00  0.00     0.338 C 
ATOM      4  O   UNL A   1      39.056  21.947  26.185  1.00  0.00    -0.246 OA
BRANCH   3   5
ATOM      5  C   UNL A   1      40.481  23.662  26.878  1.00  0.00     0.060 A 
ATOM      6  C   UNL A   1      40.176  24.783  26.099  1.00  0.00     0.016 A 
ATOM      7  C   UNL A   1      41.108  23.886  28.116  1.00  0.00     0.016 A 
ATOM      8  C   UNL A   1      40.381  26.085  26.576  1.00  0.00     0.010 A 
ATOM      9  C   UNL A   1      41.330  25.183  28.590  1.00  0.00     0.010 A 
ATOM     10  C   UNL A   1      40.939  26.294  27.834  1.00  0.00    -0.014 A 
BRANCH  10  11
ATOM     11  C   UNL A   1      41.273  27.661  28.297  1.00  0.00     0.031 A 
ATOM     12  C   UNL A   1      42.723  28.041  28.339  1.00  0.00     0.074 A 
ATOM     13  C   UNL A   1      40.321  28.535  28.676  1.00  0.00     0.049 A 
ATOM     14  N   UNL A   1      43.288  29.128  28.793  1.00  0.00    -0.248 NA
ATOM     15  C   UNL A   1      43.671  27.039  27.820  1.00  0.00     0.031 C 
ATOM     16  C   UNL A   1      38.881  28.282  28.674  1.00  0.00     0.029 A 
ATOM     17  N   UNL A   1      40.428  29.821  29.150  1.00  0.00    -0.354 N 
ATOM     18  C   UNL A   1      44.651  28.930  28.624  1.00  0.00     0.074 A 
ATOM     19  C   UNL A   1      44.836  27.594  28.108  1.00  0.00     0.031 C 
ATOM     20  C   UNL A   1      38.238  29.374  29.125  1.00  0.00     0.029 A 
ATOM     21  C   UNL A   1      39.220  30.399  29.466  1.00  0.00     0.049 A 
ATOM     22  H   UNL A   1      41.289  30.286  29.252  1.00  0.00     0.167 HD
ATOM     23  C   UNL A   1      45.660  29.805  28.828  1.00  0.00     0.037 A 
ATOM     24  C   UNL A   1      38.951  31.617  29.978  1.00  0.00     0.037 A 
ATOM     25  C   UNL A   1      45.469  31.146  29.298  1.00  0.00     0.049 A 
ATOM     26  C   UNL A   1      40.100  32.560  30.247  1.00  0.00     0.074 A 
ATOM     27  C   UNL A   1      46.416  32.125  29.523  1.00  0.00     0.029 A 
ATOM     28  N   UNL A   1      44.232  31.696  29.602  1.00  0.00    -0.354 N 
ATOM     29  N   UNL A   1      41.384  32.379  30.047  1.00  0.00    -0.248 NA
ATOM     30  C   UNL A   1      39.764  33.880  30.801  1.00  0.00     0.031 C 
ATOM     31  C   UNL A   1      45.752  33.267  29.983  1.00  0.00     0.029 A 
ATOM     32  C   UNL A   1      44.391  33.008  30.012  1.00  0.00     0.049 A 
ATOM     33  H   UNL A   1      43.370  31.225  29.535  1.00  0.00     0.167 HD
ATOM     34  C   UNL A   1      42.001  33.568  30.411  1.00  0.00     0.074 A 
ATOM     35  C   UNL A   1      40.951  34.469  30.838  1.00  0.00     0.031 C 
ATOM     36  C   UNL A   1      43.318  33.889  30.396  1.00  0.00     0.037 A 
BRANCH  23  37
ATOM     37  C   UNL A   1      47.044  29.328  28.508  1.00  0.00     0.064 A 
ATOM     38  C   UNL A   1      47.868  28.793  29.505  1.00  0.00     0.173 A 
ATOM     39  C   UNL A   1      47.539  29.370  27.194  1.00  0.00     0.173 A 
ATOM     40  F   UNL A   1      47.440  28.727  30.775  1.00  0.00    -0.203 F 
ATOM     41  C   UNL A   1      49.137  28.307  29.198  1.00  0.00     0.198 A 
ATOM     42  C   UNL A   1      48.793  28.856  26.886  1.00  0.00     0.198 A 
ATOM     43  F   UNL A   1      46.774  29.849  26.201  1.00  0.00    -0.203 F 
ATOM     44  F   UNL A   1      49.912  27.801  30.167  1.00  0.00    -0.200 F 
ATOM     45  C   UNL A   1      49.593  28.328  27.888  1.00  0.00     0.200 A 
ATOM     46  F   UNL A   1      49.215  28.842  25.613  1.00  0.00    -0.200 F 
ATOM     47  F   UNL A   1      50.799  27.827  27.588  1.00  0.00    -0.200 F 
ENDBRANCH  23  37
BRANCH  24  48
ATOM     48  C   UNL A   1      37.550  32.039  30.252  1.00  0.00     0.064 A 
ATOM     49  C   UNL A   1      36.971  31.885  31.520  1.00  0.00     0.173 A 
ATOM     50  C   UNL A   1      36.775  32.656  29.257  1.00  0.00     0.173 A 
ATOM     51  F   UNL A   1      37.666  31.311  32.512  1.00  0.00    -0.203 F 
ATOM     52  C   UNL A   1      35.677  32.335  31.783  1.00  0.00     0.198 A 
ATOM     53  C   UNL A   1      35.491  33.128  29.528  1.00  0.00     0.198 A 
ATOM     54  F   UNL A   1      37.289  32.851  28.034  1.00  0.00    -0.203 F 
ATOM     55  F   UNL A   1      35.148  32.170  33.004  1.00  0.00    -0.200 F 
ATOM     56  C   UNL A   1      34.942  32.965  30.790  1.00  0.00     0.200 A 
ATOM     57  F   UNL A   1      34.798  33.766  28.574  1.00  0.00    -0.200 F 
ATOM     58  F   UNL A   1      33.712  33.429  31.054  1.00  0.00    -0.200 F 
ENDBRANCH  24  48
BRANCH  36  59
ATOM     59  C   UNL A   1      43.702  35.279  30.804  1.00  0.00     0.064 A 
ATOM     60  C   UNL A   1      43.933  35.579  32.156  1.00  0.00     0.173 A 
ATOM     61  C   UNL A   1      43.733  36.332  29.879  1.00  0.00     0.173 A 
ATOM     62  F   UNL A   1      43.906  34.605  33.078  1.00  0.00    -0.203 F 
ATOM     63  C   UNL A   1      44.154  36.888  32.570  1.00  0.00     0.198 A 
ATOM     64  C   UNL A   1      43.983  37.637  30.294  1.00  0.00     0.198 A 
ATOM     65  F   UNL A   1      43.531  36.091  28.575  1.00  0.00    -0.203 F 
ATOM     66  F   UNL A   1      44.326  37.158  33.871  1.00  0.00    -0.200 F 
ATOM     67  C   UNL A   1      44.181  37.915  31.639  1.00  0.00     0.200 A 
ATOM     68  F   UNL A   1      44.031  38.626  29.391  1.00  0.00    -0.200 F 
ATOM     69  F   UNL A   1      44.394  39.177  32.038  1.00  0.00    -0.200 F 
ENDBRANCH  36  59
ENDBRANCH  10  11
ENDBRANCH   3   5
ENDBRANCH   2   3
ENDBRANCH   1   2
BRANCH   1  70
ATOM     70  C   UNL A   1      41.936  18.944  26.105  1.00  0.00     0.274 C 
BRANCH  70  71
ATOM     71  O   UNL A   1      42.660  19.588  25.036  1.00  0.00    -0.458 OA
BRANCH  71  72
ATOM     72  C   UNL A   1      44.009  19.364  25.024  1.00  0.00     0.365 C 
ATOM     73  O   UNL A   1      44.513  18.265  24.829  1.00  0.00    -0.245 OA
BRANCH  72  74
ATOM     74  C   UNL A   1      44.846  20.615  25.360  1.00  0.00     0.304 C 
ATOM     75  C   UNL A   1      45.086  21.418  24.079  1.00  0.00     0.153 C 
ATOM     76  N   UNL A   1      44.272  21.455  26.453  1.00  0.00    -0.319 N 
ATOM     77  S   UNL A   1      44.152  22.934  24.293  1.00  0.00    -0.087 SA
ATOM     78  C   UNL A   1      44.325  22.871  26.085  1.00  0.00     0.277 C 
ATOM     79  H   UNL A   1      44.809  21.308  27.307  1.00  0.00     0.348 HD
ATOM     80  H   UNL A   1      43.299  21.187  26.600  1.00  0.00     0.348 HD
BRANCH  78  81
ATOM     81  C   UNL A   1      45.482  23.693  26.620  1.00  0.00     0.059 A 
ATOM     82  C   UNL A   1      46.321  24.357  25.697  1.00  0.00     0.053 A 
ATOM     83  C   UNL A   1      45.710  23.942  27.980  1.00  0.00     0.133 A 
ATOM     84  C   UNL A   1      47.348  25.194  26.126  1.00  0.00     0.123 A 
ATOM     85  C   UNL A   1      46.736  24.792  28.406  1.00  0.00     0.043 A 
ATOM     86  F   UNL A   1      44.946  23.384  28.929  1.00  0.00    -0.206 F 
ATOM     87  F   UNL A   1      48.125  25.800  25.221  1.00  0.00    -0.207 F 
ATOM     88  C   UNL A   1      47.563  25.418  27.476  1.00  0.00     0.042 A 
ENDBRANCH  78  81
ENDBRANCH  72  74
ENDBRANCH  71  72
ENDBRANCH  70  71
ENDBRANCH   1  70
TORSDOF 12
ENDMDL
