MODEL 1
REMARK VINA RESULT:     -12.2      0.000      0.000
REMARK SMILES O=C(OCCOC(=O)[C@H]1CC=CC[C@@H]1C(=O)NC1CCCCC1)c1ccc(-c2c3nc(c(-c4c(F)c(F)c(F)c(F)c4F)c4ccc([nH]4)c(-c4c(F)c(F)c(F)c(F)c4F)c4nc(c(-c5c(F)c(F)c(F)c(F)c5F)c5ccc2[nH]5)C=C4)C=C3)cc1
REMARK SMILES IDX 4 1 3 2 2 3 1 4 24 5 25 6 86 7 26 8 85 9 27 10 28 11 29 12
REMARK SMILES IDX 79 13 30 14 84 15 78 16 80 17 31 18 83 19 77 20 76 21 32 23
REMARK SMILES IDX 64 24 44 25 63 26 45 27 48 28 62 29 81 30 46 31 47 32 61 34
REMARK SMILES IDX 82 35 49 36 33 37 34 38 42 39 35 40 36 41 40 42 43 43 37 44
REMARK SMILES IDX 38 45 41 46 39 47 65 48 66 49 74 50 67 51 68 52 72 53 75 54
REMARK SMILES IDX 69 55 70 56 73 57 71 58 50 59 51 60 59 61 52 62 53 63 57 64
REMARK SMILES IDX 60 65 54 66 55 67 58 68 56 69 5 70 6 71 7 72 8 73 9 74 10 75
REMARK SMILES IDX 14 76 11 77 13 78 12 79 15 80 16 81 17 82 18 84 19 85 23 86
REMARK SMILES IDX 20 87 22 88 21 89
REMARK H PARENT 80 22 48 33 17 83
REMARK Flexibility Score: inf
ROOT
ATOM      1  C   UNL A   1      31.335  31.960  26.843  1.00  0.00     0.275 C 
ENDROOT
BRANCH   1   2
ATOM      2  O   UNL A   1      32.365  32.981  26.836  1.00  0.00    -0.458 OA
BRANCH   2   3
ATOM      3  C   UNL A   1      33.127  33.534  27.812  1.00  0.00     0.338 C 
ATOM      4  O   UNL A   1      32.839  34.667  28.198  1.00  0.00    -0.246 OA
BRANCH   3   5
ATOM      5  C   UNL A   1      34.415  32.959  28.325  1.00  0.00     0.060 A 
ATOM      6  C   UNL A   1      35.650  33.606  28.387  1.00  0.00     0.016 A 
ATOM      7  C   UNL A   1      34.355  31.630  28.808  1.00  0.00     0.016 A 
ATOM      8  C   UNL A   1      36.732  33.013  29.078  1.00  0.00     0.010 A 
ATOM      9  C   UNL A   1      35.444  31.020  29.457  1.00  0.00     0.010 A 
ATOM     10  C   UNL A   1      36.628  31.731  29.660  1.00  0.00    -0.014 A 
BRANCH  10  11
ATOM     11  C   UNL A   1      37.826  31.091  30.282  1.00  0.00     0.031 A 
ATOM     12  C   UNL A   1      38.072  31.407  31.720  1.00  0.00     0.074 A 
ATOM     13  C   UNL A   1      38.675  30.253  29.646  1.00  0.00     0.049 A 
ATOM     14  N   UNL A   1      38.995  30.956  32.524  1.00  0.00    -0.248 NA
ATOM     15  C   UNL A   1      37.168  32.401  32.318  1.00  0.00     0.031 C 
ATOM     16  C   UNL A   1      38.638  29.938  28.236  1.00  0.00     0.029 A 
ATOM     17  N   UNL A   1      39.733  29.489  30.093  1.00  0.00    -0.354 N 
ATOM     18  C   UNL A   1      38.786  31.614  33.721  1.00  0.00     0.074 A 
ATOM     19  C   UNL A   1      37.654  32.496  33.541  1.00  0.00     0.031 C 
ATOM     20  C   UNL A   1      39.487  28.947  27.944  1.00  0.00     0.029 A 
ATOM     21  C   UNL A   1      40.285  28.675  29.120  1.00  0.00     0.049 A 
ATOM     22  H   UNL A   1      40.065  29.520  31.019  1.00  0.00     0.167 HD
ATOM     23  C   UNL A   1      39.505  31.523  34.861  1.00  0.00     0.037 A 
ATOM     24  C   UNL A   1      41.357  27.859  29.130  1.00  0.00     0.037 A 
ATOM     25  C   UNL A   1      40.707  30.749  34.985  1.00  0.00     0.049 A 
ATOM     26  C   UNL A   1      42.177  27.819  30.382  1.00  0.00     0.074 A 
ATOM     27  C   UNL A   1      41.567  30.658  36.060  1.00  0.00     0.029 A 
ATOM     28  N   UNL A   1      41.243  29.963  33.969  1.00  0.00    -0.354 N 
ATOM     29  N   UNL A   1      41.961  28.437  31.517  1.00  0.00    -0.248 NA
ATOM     30  C   UNL A   1      43.408  27.018  30.353  1.00  0.00     0.031 C 
ATOM     31  C   UNL A   1      42.655  29.865  35.676  1.00  0.00     0.029 A 
ATOM     32  C   UNL A   1      42.435  29.399  34.388  1.00  0.00     0.049 A 
ATOM     33  H   UNL A   1      40.835  29.829  33.083  1.00  0.00     0.167 HD
ATOM     34  C   UNL A   1      43.017  28.099  32.342  1.00  0.00     0.074 A 
ATOM     35  C   UNL A   1      43.872  27.207  31.583  1.00  0.00     0.031 C 
ATOM     36  C   UNL A   1      43.255  28.498  33.614  1.00  0.00     0.037 A 
BRANCH  23  37
ATOM     37  C   UNL A   1      39.036  32.399  35.981  1.00  0.00     0.064 A 
ATOM     38  C   UNL A   1      39.549  33.695  36.157  1.00  0.00     0.173 A 
ATOM     39  C   UNL A   1      38.210  31.873  36.983  1.00  0.00     0.173 A 
ATOM     40  F   UNL A   1      40.385  34.220  35.249  1.00  0.00    -0.203 F 
ATOM     41  C   UNL A   1      39.308  34.402  37.331  1.00  0.00     0.198 A 
ATOM     42  C   UNL A   1      37.944  32.597  38.140  1.00  0.00     0.198 A 
ATOM     43  F   UNL A   1      37.713  30.632  36.869  1.00  0.00    -0.203 F 
ATOM     44  F   UNL A   1      39.904  35.585  37.533  1.00  0.00    -0.200 F 
ATOM     45  C   UNL A   1      38.510  33.851  38.323  1.00  0.00     0.200 A 
ATOM     46  F   UNL A   1      37.179  32.061  39.101  1.00  0.00    -0.200 F 
ATOM     47  F   UNL A   1      38.317  34.511  39.473  1.00  0.00    -0.200 F 
ENDBRANCH  23  37
BRANCH  24  48
ATOM     48  C   UNL A   1      41.753  27.092  27.909  1.00  0.00     0.064 A 
ATOM     49  C   UNL A   1      42.610  27.648  26.946  1.00  0.00     0.173 A 
ATOM     50  C   UNL A   1      41.297  25.782  27.678  1.00  0.00     0.173 A 
ATOM     51  F   UNL A   1      43.047  28.908  27.087  1.00  0.00    -0.203 F 
ATOM     52  C   UNL A   1      42.994  26.929  25.812  1.00  0.00     0.198 A 
ATOM     53  C   UNL A   1      41.711  25.051  26.564  1.00  0.00     0.198 A 
ATOM     54  F   UNL A   1      40.455  25.203  28.545  1.00  0.00    -0.203 F 
ATOM     55  F   UNL A   1      43.778  27.503  24.889  1.00  0.00    -0.200 F 
ATOM     56  C   UNL A   1      42.555  25.626  25.629  1.00  0.00     0.200 A 
ATOM     57  F   UNL A   1      41.285  23.791  26.395  1.00  0.00    -0.200 F 
ATOM     58  F   UNL A   1      42.932  24.934  24.545  1.00  0.00    -0.200 F 
ENDBRANCH  24  48
BRANCH  36  59
ATOM     59  C   UNL A   1      44.453  27.920  34.297  1.00  0.00     0.064 A 
ATOM     60  C   UNL A   1      45.691  28.575  34.308  1.00  0.00     0.173 A 
ATOM     61  C   UNL A   1      44.321  26.731  35.029  1.00  0.00     0.173 A 
ATOM     62  F   UNL A   1      45.866  29.703  33.603  1.00  0.00    -0.203 F 
ATOM     63  C   UNL A   1      46.758  28.060  35.036  1.00  0.00     0.198 A 
ATOM     64  C   UNL A   1      45.381  26.235  35.779  1.00  0.00     0.198 A 
ATOM     65  F   UNL A   1      43.153  26.072  35.042  1.00  0.00    -0.203 F 
ATOM     66  F   UNL A   1      47.943  28.686  35.019  1.00  0.00    -0.200 F 
ATOM     67  C   UNL A   1      46.598  26.900  35.781  1.00  0.00     0.200 A 
ATOM     68  F   UNL A   1      45.219  25.123  36.508  1.00  0.00    -0.200 F 
ATOM     69  F   UNL A   1      47.619  26.421  36.504  1.00  0.00    -0.200 F 
ENDBRANCH  36  59
ENDBRANCH  10  11
ENDBRANCH   3   5
ENDBRANCH   2   3
ENDBRANCH   1   2
BRANCH   1  70
ATOM     70  C   UNL A   1      31.759  30.700  26.084  1.00  0.00     0.274 C 
BRANCH  70  71
ATOM     71  O   UNL A   1      32.209  29.731  27.028  1.00  0.00    -0.462 OA
BRANCH  71  72
ATOM     72  C   UNL A   1      31.708  28.470  27.007  1.00  0.00     0.310 C 
ATOM     73  O   UNL A   1      31.128  27.923  27.943  1.00  0.00    -0.252 OA
BRANCH  72  74
ATOM     74  C   UNL A   1      31.839  27.868  25.618  1.00  0.00     0.115 C 
ATOM     75  C   UNL A   1      33.258  27.429  25.338  1.00  0.00     0.043 C 
ATOM     76  C   UNL A   1      30.845  26.736  25.312  1.00  0.00     0.096 C 
ATOM     77  C   UNL A   1      33.635  26.081  25.835  1.00  0.00    -0.030 C 
ATOM     78  C   UNL A   1      31.238  25.446  26.082  1.00  0.00     0.041 C 
ATOM     79  C   UNL A   1      32.715  25.188  26.204  1.00  0.00    -0.030 C 
BRANCH  76  80
ATOM     80  C   UNL A   1      30.803  26.464  23.802  1.00  0.00     0.224 C 
ATOM     81  O   UNL A   1      31.065  25.357  23.325  1.00  0.00    -0.275 OA
ATOM     82  N   UNL A   1      30.518  27.447  22.904  1.00  0.00    -0.353 N 
ATOM     83  H   UNL A   1      30.877  27.290  22.002  1.00  0.00     0.163 HD
BRANCH  82  84
ATOM     84  C   UNL A   1      29.770  28.699  23.049  1.00  0.00     0.082 C 
ATOM     85  C   UNL A   1      30.125  29.747  21.993  1.00  0.00     0.025 C 
ATOM     86  C   UNL A   1      28.264  28.384  22.993  1.00  0.00     0.025 C 
ATOM     87  C   UNL A   1      29.240  30.985  22.037  1.00  0.00     0.002 C 
ATOM     88  C   UNL A   1      27.411  29.642  23.100  1.00  0.00     0.002 C 
ATOM     89  C   UNL A   1      27.762  30.639  22.004  1.00  0.00     0.000 C 
ENDBRANCH  82  84
ENDBRANCH  76  80
ENDBRANCH  72  74
ENDBRANCH  71  72
ENDBRANCH  70  71
ENDBRANCH   1  70
TORSDOF 13
ENDMDL
MODEL 2
REMARK VINA RESULT:     -11.9      0.879      7.493
REMARK SMILES O=C(OCCOC(=O)[C@H]1CC=CC[C@@H]1C(=O)NC1CCCCC1)c1ccc(-c2c3nc(c(-c4c(F)c(F)c(F)c(F)c4F)c4ccc([nH]4)c(-c4c(F)c(F)c(F)c(F)c4F)c4nc(c(-c5c(F)c(F)c(F)c(F)c5F)c5ccc2[nH]5)C=C4)C=C3)cc1
REMARK SMILES IDX 4 1 3 2 2 3 1 4 24 5 25 6 86 7 26 8 85 9 27 10 28 11 29 12
REMARK SMILES IDX 79 13 30 14 84 15 78 16 80 17 31 18 83 19 77 20 76 21 32 23
REMARK SMILES IDX 64 24 44 25 63 26 45 27 48 28 62 29 81 30 46 31 47 32 61 34
REMARK SMILES IDX 82 35 49 36 33 37 34 38 42 39 35 40 36 41 40 42 43 43 37 44
REMARK SMILES IDX 38 45 41 46 39 47 65 48 66 49 74 50 67 51 68 52 72 53 75 54
REMARK SMILES IDX 69 55 70 56 73 57 71 58 50 59 51 60 59 61 52 62 53 63 57 64
REMARK SMILES IDX 60 65 54 66 55 67 58 68 56 69 5 70 6 71 7 72 8 73 9 74 10 75
REMARK SMILES IDX 14 76 11 77 13 78 12 79 15 80 16 81 17 82 18 84 19 85 23 86
REMARK SMILES IDX 20 87 22 88 21 89
REMARK H PARENT 80 22 48 33 17 83
REMARK Flexibility Score: inf
ROOT
ATOM      1  C   UNL A   1      31.322  32.027  26.883  1.00  0.00     0.275 C 
ENDROOT
BRANCH   1   2
ATOM      2  O   UNL A   1      32.208  33.174  26.861  1.00  0.00    -0.458 OA
BRANCH   2   3
ATOM      3  C   UNL A   1      32.868  33.852  27.832  1.00  0.00     0.338 C 
ATOM      4  O   UNL A   1      32.478  34.985  28.115  1.00  0.00    -0.246 OA
BRANCH   3   5
ATOM      5  C   UNL A   1      34.160  33.413  28.458  1.00  0.00     0.060 A 
ATOM      6  C   UNL A   1      35.359  34.128  28.484  1.00  0.00     0.016 A 
ATOM      7  C   UNL A   1      34.145  32.152  29.099  1.00  0.00     0.016 A 
ATOM      8  C   UNL A   1      36.438  33.683  29.281  1.00  0.00     0.010 A 
ATOM      9  C   UNL A   1      35.235  31.684  29.856  1.00  0.00     0.010 A 
ATOM     10  C   UNL A   1      36.373  32.477  30.012  1.00  0.00    -0.014 A 
BRANCH  10  11
ATOM     11  C   UNL A   1      37.574  31.983  30.751  1.00  0.00     0.031 A 
ATOM     12  C   UNL A   1      38.437  31.003  30.029  1.00  0.00     0.074 A 
ATOM     13  C   UNL A   1      37.929  32.368  31.997  1.00  0.00     0.049 A 
ATOM     14  N   UNL A   1      39.560  30.453  30.401  1.00  0.00    -0.248 NA
ATOM     15  C   UNL A   1      37.937  30.555  28.720  1.00  0.00     0.031 C 
ATOM     16  C   UNL A   1      37.146  33.219  32.865  1.00  0.00     0.029 A 
ATOM     17  N   UNL A   1      39.049  32.116  32.763  1.00  0.00    -0.354 N 
ATOM     18  C   UNL A   1      39.899  29.592  29.375  1.00  0.00     0.074 A 
ATOM     19  C   UNL A   1      38.866  29.687  28.367  1.00  0.00     0.031 C 
ATOM     20  C   UNL A   1      37.841  33.563  33.953  1.00  0.00     0.029 A 
ATOM     21  C   UNL A   1      39.068  32.797  33.966  1.00  0.00     0.049 A 
ATOM     22  H   UNL A   1      39.769  31.508  32.478  1.00  0.00     0.167 HD
ATOM     23  C   UNL A   1      40.960  28.759  29.299  1.00  0.00     0.037 A 
ATOM     24  C   UNL A   1      39.922  32.762  35.008  1.00  0.00     0.037 A 
ATOM     25  C   UNL A   1      41.903  28.572  30.363  1.00  0.00     0.049 A 
ATOM     26  C   UNL A   1      41.057  31.789  34.932  1.00  0.00     0.074 A 
ATOM     27  C   UNL A   1      42.960  27.687  30.434  1.00  0.00     0.029 A 
ATOM     28  N   UNL A   1      41.869  29.260  31.572  1.00  0.00    -0.354 N 
ATOM     29  N   UNL A   1      41.377  30.986  33.946  1.00  0.00    -0.248 NA
ATOM     30  C   UNL A   1      41.921  31.670  36.114  1.00  0.00     0.031 C 
ATOM     31  C   UNL A   1      43.530  27.797  31.708  1.00  0.00     0.029 A 
ATOM     32  C   UNL A   1      42.878  28.804  32.403  1.00  0.00     0.049 A 
ATOM     33  H   UNL A   1      41.223  29.966  31.803  1.00  0.00     0.167 HD
ATOM     34  C   UNL A   1      42.479  30.272  34.378  1.00  0.00     0.074 A 
ATOM     35  C   UNL A   1      42.786  30.745  35.715  1.00  0.00     0.031 C 
ATOM     36  C   UNL A   1      43.170  29.309  33.723  1.00  0.00     0.037 A 
BRANCH  23  37
ATOM     37  C   UNL A   1      41.026  27.925  28.057  1.00  0.00     0.064 A 
ATOM     38  C   UNL A   1      40.498  26.623  28.024  1.00  0.00     0.173 A 
ATOM     39  C   UNL A   1      41.781  28.360  26.960  1.00  0.00     0.173 A 
ATOM     40  F   UNL A   1      39.812  26.145  29.074  1.00  0.00    -0.203 F 
ATOM     41  C   UNL A   1      40.786  25.765  26.967  1.00  0.00     0.198 A 
ATOM     42  C   UNL A   1      42.037  27.510  25.889  1.00  0.00     0.198 A 
ATOM     43  F   UNL A   1      42.322  29.587  26.955  1.00  0.00    -0.203 F 
ATOM     44  F   UNL A   1      40.375  24.490  27.011  1.00  0.00    -0.200 F 
ATOM     45  C   UNL A   1      41.559  26.208  25.904  1.00  0.00     0.200 A 
ATOM     46  F   UNL A   1      42.791  27.935  24.866  1.00  0.00    -0.200 F 
ATOM     47  F   UNL A   1      41.876  25.367  24.910  1.00  0.00    -0.200 F 
ENDBRANCH  23  37
BRANCH  24  48
ATOM     48  C   UNL A   1      39.693  33.605  36.222  1.00  0.00     0.064 A 
ATOM     49  C   UNL A   1      40.241  34.894  36.327  1.00  0.00     0.173 A 
ATOM     50  C   UNL A   1      38.912  33.153  37.300  1.00  0.00     0.173 A 
ATOM     51  F   UNL A   1      41.029  35.367  35.350  1.00  0.00    -0.203 F 
ATOM     52  C   UNL A   1      40.016  35.690  37.453  1.00  0.00     0.198 A 
ATOM     53  C   UNL A   1      38.658  33.963  38.407  1.00  0.00     0.198 A 
ATOM     54  F   UNL A   1      38.381  31.922  37.273  1.00  0.00    -0.203 F 
ATOM     55  F   UNL A   1      40.590  36.898  37.543  1.00  0.00    -0.200 F 
ATOM     56  C   UNL A   1      39.213  35.229  38.485  1.00  0.00     0.200 A 
ATOM     57  F   UNL A   1      37.878  33.513  39.400  1.00  0.00    -0.200 F 
ATOM     58  F   UNL A   1      38.991  35.998  39.560  1.00  0.00    -0.200 F 
ENDBRANCH  24  48
BRANCH  36  59
ATOM     59  C   UNL A   1      44.372  28.746  34.412  1.00  0.00     0.064 A 
ATOM     60  C   UNL A   1      45.629  29.358  34.333  1.00  0.00     0.173 A 
ATOM     61  C   UNL A   1      44.227  27.622  35.238  1.00  0.00     0.173 A 
ATOM     62  F   UNL A   1      45.816  30.421  33.537  1.00  0.00    -0.203 F 
ATOM     63  C   UNL A   1      46.704  28.864  35.065  1.00  0.00     0.198 A 
ATOM     64  C   UNL A   1      45.296  27.149  35.991  1.00  0.00     0.198 A 
ATOM     65  F   UNL A   1      43.040  27.005  35.339  1.00  0.00    -0.203 F 
ATOM     66  F   UNL A   1      47.906  29.447  34.963  1.00  0.00    -0.200 F 
ATOM     67  C   UNL A   1      46.532  27.771  35.903  1.00  0.00     0.200 A 
ATOM     68  F   UNL A   1      45.124  26.103  36.809  1.00  0.00    -0.200 F 
ATOM     69  F   UNL A   1      47.562  27.315  36.629  1.00  0.00    -0.200 F 
ENDBRANCH  36  59
ENDBRANCH  10  11
ENDBRANCH   3   5
ENDBRANCH   2   3
ENDBRANCH   1   2
BRANCH   1  70
ATOM     70  C   UNL A   1      31.906  30.826  26.133  1.00  0.00     0.274 C 
BRANCH  70  71
ATOM     71  O   UNL A   1      32.314  29.850  27.088  1.00  0.00    -0.462 OA
BRANCH  71  72
ATOM     72  C   UNL A   1      31.818  28.588  27.034  1.00  0.00     0.310 C 
ATOM     73  O   UNL A   1      31.219  28.023  27.948  1.00  0.00    -0.252 OA
BRANCH  72  74
ATOM     74  C   UNL A   1      31.980  28.012  25.638  1.00  0.00     0.115 C 
ATOM     75  C   UNL A   1      33.403  27.571  25.384  1.00  0.00     0.043 C 
ATOM     76  C   UNL A   1      30.988  26.891  25.286  1.00  0.00     0.096 C 
ATOM     77  C   UNL A   1      33.761  26.211  25.865  1.00  0.00    -0.030 C 
ATOM     78  C   UNL A   1      31.355  25.584  26.041  1.00  0.00     0.041 C 
ATOM     79  C   UNL A   1      32.828  25.316  26.194  1.00  0.00    -0.030 C 
BRANCH  76  80
ATOM     80  C   UNL A   1      30.981  26.647  23.771  1.00  0.00     0.224 C 
ATOM     81  O   UNL A   1      31.317  25.568  23.276  1.00  0.00    -0.275 OA
ATOM     82  N   UNL A   1      30.647  27.629  22.889  1.00  0.00    -0.353 N 
ATOM     83  H   UNL A   1      31.027  27.513  21.988  1.00  0.00     0.163 HD
BRANCH  82  84
ATOM     84  C   UNL A   1      29.822  28.829  23.048  1.00  0.00     0.082 C 
ATOM     85  C   UNL A   1      30.102  29.906  21.997  1.00  0.00     0.025 C 
ATOM     86  C   UNL A   1      28.339  28.419  22.998  1.00  0.00     0.025 C 
ATOM     87  C   UNL A   1      29.140  31.084  22.056  1.00  0.00     0.002 C 
ATOM     88  C   UNL A   1      27.407  29.619  23.120  1.00  0.00     0.002 C 
ATOM     89  C   UNL A   1      27.687  30.645  22.029  1.00  0.00     0.000 C 
ENDBRANCH  82  84
ENDBRANCH  76  80
ENDBRANCH  72  74
ENDBRANCH  71  72
ENDBRANCH  70  71
ENDBRANCH   1  70
TORSDOF 13
ENDMDL
MODEL 3
REMARK VINA RESULT:     -11.7      5.448     10.926
REMARK SMILES O=C(OCCOC(=O)[C@H]1CC=CC[C@@H]1C(=O)NC1CCCCC1)c1ccc(-c2c3nc(c(-c4c(F)c(F)c(F)c(F)c4F)c4ccc([nH]4)c(-c4c(F)c(F)c(F)c(F)c4F)c4nc(c(-c5c(F)c(F)c(F)c(F)c5F)c5ccc2[nH]5)C=C4)C=C3)cc1
REMARK SMILES IDX 4 1 3 2 2 3 1 4 24 5 25 6 86 7 26 8 85 9 27 10 28 11 29 12
REMARK SMILES IDX 79 13 30 14 84 15 78 16 80 17 31 18 83 19 77 20 76 21 32 23
REMARK SMILES IDX 64 24 44 25 63 26 45 27 48 28 62 29 81 30 46 31 47 32 61 34
REMARK SMILES IDX 82 35 49 36 33 37 34 38 42 39 35 40 36 41 40 42 43 43 37 44
REMARK SMILES IDX 38 45 41 46 39 47 65 48 66 49 74 50 67 51 68 52 72 53 75 54
REMARK SMILES IDX 69 55 70 56 73 57 71 58 50 59 51 60 59 61 52 62 53 63 57 64
REMARK SMILES IDX 60 65 54 66 55 67 58 68 56 69 5 70 6 71 7 72 8 73 9 74 10 75
REMARK SMILES IDX 14 76 11 77 13 78 12 79 15 80 16 81 17 82 18 84 19 85 23 86
REMARK SMILES IDX 20 87 22 88 21 89
REMARK H PARENT 80 22 48 33 17 83
REMARK Flexibility Score: inf
ROOT
ATOM      1  C   UNL A   1      38.701  19.756  25.431  1.00  0.00     0.275 C 
ENDROOT
BRANCH   1   2
ATOM      2  O   UNL A   1      40.076  20.051  25.780  1.00  0.00    -0.458 OA
BRANCH   2   3
ATOM      3  C   UNL A   1      40.680  20.412  26.939  1.00  0.00     0.338 C 
ATOM      4  O   UNL A   1      40.776  19.566  27.830  1.00  0.00    -0.246 OA
BRANCH   3   5
ATOM      5  C   UNL A   1      41.069  21.815  27.305  1.00  0.00     0.060 A 
ATOM      6  C   UNL A   1      41.898  22.203  28.359  1.00  0.00     0.016 A 
ATOM      7  C   UNL A   1      40.550  22.840  26.479  1.00  0.00     0.016 A 
ATOM      8  C   UNL A   1      42.338  23.542  28.464  1.00  0.00     0.010 A 
ATOM      9  C   UNL A   1      40.952  24.182  26.609  1.00  0.00     0.010 A 
ATOM     10  C   UNL A   1      41.906  24.539  27.563  1.00  0.00    -0.014 A 
BRANCH  10  11
ATOM     11  C   UNL A   1      42.304  25.964  27.775  1.00  0.00     0.031 A 
ATOM     12  C   UNL A   1      43.579  26.396  27.131  1.00  0.00     0.074 A 
ATOM     13  C   UNL A   1      41.594  26.869  28.484  1.00  0.00     0.049 A 
ATOM     14  N   UNL A   1      44.136  27.575  27.101  1.00  0.00    -0.248 NA
ATOM     15  C   UNL A   1      44.347  25.335  26.461  1.00  0.00     0.031 C 
ATOM     16  C   UNL A   1      40.405  26.582  29.255  1.00  0.00     0.029 A 
ATOM     17  N   UNL A   1      41.745  28.228  28.669  1.00  0.00    -0.354 N 
ATOM     18  C   UNL A   1      45.322  27.399  26.413  1.00  0.00     0.074 A 
ATOM     19  C   UNL A   1      45.408  26.002  26.046  1.00  0.00     0.031 C 
ATOM     20  C   UNL A   1      39.833  27.708  29.691  1.00  0.00     0.029 A 
ATOM     21  C   UNL A   1      40.723  28.810  29.397  1.00  0.00     0.049 A 
ATOM     22  H   UNL A   1      42.510  28.737  28.316  1.00  0.00     0.167 HD
ATOM     23  C   UNL A   1      46.279  28.314  26.148  1.00  0.00     0.037 A 
ATOM     24  C   UNL A   1      40.543  30.065  29.854  1.00  0.00     0.037 A 
ATOM     25  C   UNL A   1      46.247  29.662  26.636  1.00  0.00     0.049 A 
ATOM     26  C   UNL A   1      41.643  31.049  29.605  1.00  0.00     0.074 A 
ATOM     27  C   UNL A   1      47.205  30.648  26.511  1.00  0.00     0.029 A 
ATOM     28  N   UNL A   1      45.209  30.201  27.390  1.00  0.00    -0.354 N 
ATOM     29  N   UNL A   1      42.758  30.873  28.938  1.00  0.00    -0.248 NA
ATOM     30  C   UNL A   1      41.498  32.383  30.201  1.00  0.00     0.031 C 
ATOM     31  C   UNL A   1      46.775  31.763  27.238  1.00  0.00     0.029 A 
ATOM     32  C   UNL A   1      45.514  31.501  27.753  1.00  0.00     0.049 A 
ATOM     33  H   UNL A   1      44.380  29.726  27.631  1.00  0.00     0.167 HD
ATOM     34  C   UNL A   1      43.446  32.069  29.024  1.00  0.00     0.074 A 
ATOM     35  C   UNL A   1      42.617  32.974  29.799  1.00  0.00     0.031 C 
ATOM     36  C   UNL A   1      44.658  32.383  28.509  1.00  0.00     0.037 A 
BRANCH  23  37
ATOM     37  C   UNL A   1      47.469  27.793  25.404  1.00  0.00     0.064 A 
ATOM     38  C   UNL A   1      48.646  27.423  26.078  1.00  0.00     0.173 A 
ATOM     39  C   UNL A   1      47.495  27.838  24.004  1.00  0.00     0.173 A 
ATOM     40  F   UNL A   1      48.683  27.416  27.419  1.00  0.00    -0.203 F 
ATOM     41  C   UNL A   1      49.824  27.189  25.375  1.00  0.00     0.198 A 
ATOM     42  C   UNL A   1      48.667  27.569  23.304  1.00  0.00     0.198 A 
ATOM     43  F   UNL A   1      46.402  28.204  23.318  1.00  0.00    -0.203 F 
ATOM     44  F   UNL A   1      50.964  26.957  26.040  1.00  0.00    -0.200 F 
ATOM     45  C   UNL A   1      49.834  27.266  23.990  1.00  0.00     0.200 A 
ATOM     46  F   UNL A   1      48.678  27.652  21.967  1.00  0.00    -0.200 F 
ATOM     47  F   UNL A   1      50.978  27.087  23.317  1.00  0.00    -0.200 F 
ENDBRANCH  23  37
BRANCH  24  48
ATOM     48  C   UNL A   1      39.330  30.429  30.649  1.00  0.00     0.064 A 
ATOM     49  C   UNL A   1      38.181  30.943  30.028  1.00  0.00     0.173 A 
ATOM     50  C   UNL A   1      39.283  30.264  32.044  1.00  0.00     0.173 A 
ATOM     51  F   UNL A   1      38.177  31.163  28.705  1.00  0.00    -0.203 F 
ATOM     52  C   UNL A   1      37.040  31.270  30.765  1.00  0.00     0.198 A 
ATOM     53  C   UNL A   1      38.130  30.556  32.775  1.00  0.00     0.198 A 
ATOM     54  F   UNL A   1      40.356  29.802  32.702  1.00  0.00    -0.203 F 
ATOM     55  F   UNL A   1      35.975  31.800  30.149  1.00  0.00    -0.200 F 
ATOM     56  C   UNL A   1      37.012  31.063  32.136  1.00  0.00     0.200 A 
ATOM     57  F   UNL A   1      38.108  30.351  34.100  1.00  0.00    -0.200 F 
ATOM     58  F   UNL A   1      35.913  31.370  32.841  1.00  0.00    -0.200 F 
ENDBRANCH  24  48
BRANCH  36  59
ATOM     59  C   UNL A   1      45.138  33.787  28.703  1.00  0.00     0.064 A 
ATOM     60  C   UNL A   1      45.983  34.144  29.761  1.00  0.00     0.173 A 
ATOM     61  C   UNL A   1      44.812  34.763  27.750  1.00  0.00     0.173 A 
ATOM     62  F   UNL A   1      46.301  33.247  30.707  1.00  0.00    -0.203 F 
ATOM     63  C   UNL A   1      46.491  35.435  29.857  1.00  0.00     0.198 A 
ATOM     64  C   UNL A   1      45.345  36.044  27.832  1.00  0.00     0.198 A 
ATOM     65  F   UNL A   1      44.004  34.461  26.723  1.00  0.00    -0.203 F 
ATOM     66  F   UNL A   1      47.280  35.769  30.886  1.00  0.00    -0.200 F 
ATOM     67  C   UNL A   1      46.184  36.378  28.885  1.00  0.00     0.200 A 
ATOM     68  F   UNL A   1      45.058  36.947  26.886  1.00  0.00    -0.200 F 
ATOM     69  F   UNL A   1      46.697  37.613  28.963  1.00  0.00    -0.200 F 
ENDBRANCH  36  59
ENDBRANCH  10  11
ENDBRANCH   3   5
ENDBRANCH   2   3
ENDBRANCH   1   2
BRANCH   1  70
ATOM     70  C   UNL A   1      37.937  21.001  24.970  1.00  0.00     0.274 C 
BRANCH  70  71
ATOM     71  O   UNL A   1      36.753  21.123  25.755  1.00  0.00    -0.462 OA
BRANCH  71  72
ATOM     72  C   UNL A   1      36.160  22.333  25.917  1.00  0.00     0.310 C 
ATOM     73  O   UNL A   1      36.754  23.391  26.116  1.00  0.00    -0.252 OA
BRANCH  72  74
ATOM     74  C   UNL A   1      34.663  22.228  25.681  1.00  0.00     0.115 C 
ATOM     75  C   UNL A   1      33.942  23.473  26.146  1.00  0.00     0.043 C 
ATOM     76  C   UNL A   1      34.263  21.869  24.241  1.00  0.00     0.096 C 
ATOM     77  C   UNL A   1      33.902  24.602  25.181  1.00  0.00    -0.030 C 
ATOM     78  C   UNL A   1      34.488  23.081  23.297  1.00  0.00     0.041 C 
ATOM     79  C   UNL A   1      34.181  24.430  23.888  1.00  0.00    -0.030 C 
BRANCH  76  80
ATOM     80  C   UNL A   1      32.794  21.424  24.196  1.00  0.00     0.224 C 
ATOM     81  O   UNL A   1      31.892  22.170  23.808  1.00  0.00    -0.275 OA
ATOM     82  N   UNL A   1      32.406  20.193  24.629  1.00  0.00    -0.353 N 
ATOM     83  H   UNL A   1      31.466  20.141  24.916  1.00  0.00     0.163 HD
BRANCH  82  84
ATOM     84  C   UNL A   1      33.144  18.932  24.744  1.00  0.00     0.082 C 
ATOM     85  C   UNL A   1      32.530  17.955  25.748  1.00  0.00     0.025 C 
ATOM     86  C   UNL A   1      33.223  18.278  23.353  1.00  0.00     0.025 C 
ATOM     87  C   UNL A   1      33.194  16.585  25.754  1.00  0.00     0.002 C 
ATOM     88  C   UNL A   1      33.947  16.937  23.390  1.00  0.00     0.002 C 
ATOM     89  C   UNL A   1      33.278  15.978  24.365  1.00  0.00     0.000 C 
ENDBRANCH  82  84
ENDBRANCH  76  80
ENDBRANCH  72  74
ENDBRANCH  71  72
ENDBRANCH  70  71
ENDBRANCH   1  70
TORSDOF 13
ENDMDL
