MODEL 1
REMARK VINA RESULT:     -12.5      0.000      0.000
REMARK SMILES Cc1coc2c(C)c3oc(=O)c(CCC(=O)N[C@H](CC(C)C)C(=O)OCCOC(=O)c4ccc(-c5c6nc(c(-c7c(F)c(F)c(F)c(F)c7F)c7ccc([nH]7)c(-c7c(F)c(F)c(F)c(F)c7F)c7nc(c(-c8c(F)c(F)c(F)c(F)c8F)c8ccc5[nH]8)C=C7)C=C6)cc4)c(C)c3cc12
REMARK SMILES IDX 26 1 25 2 23 3 24 4 18 5 17 6 15 7 16 8 14 10 13 11 12 12
REMARK SMILES IDX 1 13 2 14 3 15 98 16 4 17 5 18 97 19 6 20 96 21 7 22 8 23
REMARK SMILES IDX 94 24 9 25 95 26 10 27 11 28 19 29 20 30 21 31 22 32 27 33
REMARK SMILES IDX 28 34 29 35 30 36 31 37 32 38 93 39 33 40 92 41 34 42 35 43
REMARK SMILES IDX 36 44 86 45 37 46 91 47 85 48 87 49 38 50 90 51 84 52 83 53
REMARK SMILES IDX 39 55 71 56 51 57 70 58 52 59 55 60 69 61 88 62 53 63 54 64
REMARK SMILES IDX 68 66 89 67 56 68 40 69 41 70 49 71 42 72 43 73 47 74 50 75
REMARK SMILES IDX 44 76 45 77 48 78 46 79 72 80 73 81 81 82 74 83 75 84 79 85
REMARK SMILES IDX 82 86 76 87 77 88 80 89 78 90 57 91 58 92 66 93 59 94 60 95
REMARK SMILES IDX 64 96 67 97 61 98 62 99 65 100 63 101
REMARK H PARENT 17 9 87 54 55 65
REMARK Flexibility Score: inf
ROOT
ATOM      1  C   UNL A   1      36.500  30.534  32.040  1.00  0.00     0.274 C 
ENDROOT
BRANCH   1   2
ATOM      2  O   UNL A   1      37.857  30.996  32.207  1.00  0.00    -0.461 OA
BRANCH   2   3
ATOM      3  C   UNL A   1      38.738  30.074  32.639  1.00  0.00     0.328 C 
ATOM      4  O   UNL A   1      38.378  29.152  33.383  1.00  0.00    -0.250 OA
BRANCH   3   5
ATOM      5  C   UNL A   1      40.396  30.197  32.131  1.00  0.00     0.192 C 
BRANCH   5   6
ATOM      6  N   UNL A   1      40.671  30.759  33.681  1.00  0.00    -0.343 N 
ATOM      7  C   UNL A   1      41.218  31.910  34.192  1.00  0.00     0.221 C 
ATOM      8  O   UNL A   1      41.173  32.127  35.402  1.00  0.00    -0.275 OA
ATOM      9  H   UNL A   1      40.379  30.127  34.377  1.00  0.00     0.164 HD
BRANCH   7  10
ATOM     10  C   UNL A   1      41.891  32.874  33.235  1.00  0.00     0.105 C 
BRANCH  10  11
ATOM     11  C   UNL A   1      41.624  34.315  33.648  1.00  0.00     0.053 C 
BRANCH  11  12
ATOM     12  C   UNL A   1      40.232  34.602  33.204  1.00  0.00     0.042 A 
ATOM     13  C   UNL A   1      35.173  33.323  27.818  1.00  0.00     0.048 C 
ATOM     14  C   UNL A   1      34.832  33.834  29.169  1.00  0.00    -0.005 A 
ATOM     15  C   UNL A   1      33.608  34.289  29.602  1.00  0.00     0.199 A 
ATOM     16  C   UNL A   1      35.741  34.010  30.269  1.00  0.00     0.024 A 
ATOM     17  O   UNL A   1      33.664  34.683  30.894  1.00  0.00    -0.464 OA
ATOM     18  C   UNL A   1      34.944  34.496  31.346  1.00  0.00     0.140 A 
ATOM     19  C   UNL A   1      37.176  33.875  30.315  1.00  0.00     0.024 A 
ATOM     20  C   UNL A   1      35.318  34.816  32.675  1.00  0.00     0.036 A 
ATOM     21  C   UNL A   1      37.765  34.209  31.506  1.00  0.00     0.022 A 
ATOM     22  C   UNL A   1      34.575  35.633  33.671  1.00  0.00     0.052 C 
ATOM     23  C   UNL A   1      36.647  34.513  32.783  1.00  0.00     0.145 A 
ATOM     24  C   UNL A   1      39.621  34.361  31.782  1.00  0.00    -0.030 A 
ATOM     25  O   UNL A   1      37.412  34.714  34.424  1.00  0.00    -0.422 OA
ATOM     26  C   UNL A   1      40.420  33.992  30.563  1.00  0.00     0.046 C 
ATOM     27  C   UNL A   1      39.158  34.850  34.803  1.00  0.00     0.339 A 
ATOM     28  O   UNL A   1      39.569  35.143  35.912  1.00  0.00    -0.246 OA
ENDBRANCH  11  12
ENDBRANCH  10  11
ENDBRANCH   7  10
ENDBRANCH   5   6
BRANCH   5  29
ATOM     29  C   UNL A   1      41.485  30.650  30.279  1.00  0.00     0.040 C 
BRANCH  29  30
ATOM     30  C   UNL A   1      42.947  31.552  29.801  1.00  0.00    -0.015 C 
ATOM     31  C   UNL A   1      44.205  31.402  30.685  1.00  0.00     0.007 C 
ATOM     32  C   UNL A   1      43.401  30.992  28.428  1.00  0.00     0.007 C 
ENDBRANCH  29  30
ENDBRANCH   5  29
ENDBRANCH   3   5
ENDBRANCH   2   3
ENDBRANCH   1   2
BRANCH   1  33
ATOM     33  C   UNL A   1      36.344  30.071  30.601  1.00  0.00     0.275 C 
BRANCH  33  34
ATOM     34  O   UNL A   1      37.521  30.255  29.789  1.00  0.00    -0.458 OA
BRANCH  34  35
ATOM     35  C   UNL A   1      37.377  29.972  28.477  1.00  0.00     0.338 C 
ATOM     36  O   UNL A   1      36.408  30.181  27.772  1.00  0.00    -0.246 OA
BRANCH  35  37
ATOM     37  C   UNL A   1      38.447  29.103  27.990  1.00  0.00     0.060 A 
ATOM     38  C   UNL A   1      38.618  27.904  28.686  1.00  0.00     0.016 A 
ATOM     39  C   UNL A   1      39.423  29.585  27.116  1.00  0.00     0.016 A 
ATOM     40  C   UNL A   1      39.860  27.314  28.685  1.00  0.00     0.010 A 
ATOM     41  C   UNL A   1      40.642  28.938  27.056  1.00  0.00     0.010 A 
ATOM     42  C   UNL A   1      40.893  27.867  27.915  1.00  0.00    -0.014 A 
BRANCH  42  43
ATOM     43  C   UNL A   1      42.171  27.150  27.898  1.00  0.00     0.031 A 
ATOM     44  C   UNL A   1      42.951  27.359  29.160  1.00  0.00     0.074 A 
ATOM     45  C   UNL A   1      42.497  26.282  26.915  1.00  0.00     0.049 A 
ATOM     46  N   UNL A   1      44.199  27.671  29.303  1.00  0.00    -0.248 NA
ATOM     47  C   UNL A   1      42.178  27.404  30.425  1.00  0.00     0.031 C 
ATOM     48  C   UNL A   1      41.685  25.906  25.752  1.00  0.00     0.029 A 
ATOM     49  N   UNL A   1      43.553  25.426  26.818  1.00  0.00    -0.354 N 
ATOM     50  C   UNL A   1      44.393  27.786  30.679  1.00  0.00     0.074 A 
ATOM     51  C   UNL A   1      43.097  27.809  31.296  1.00  0.00     0.031 C 
ATOM     52  C   UNL A   1      42.118  24.722  25.267  1.00  0.00     0.029 A 
ATOM     53  C   UNL A   1      43.301  24.324  26.004  1.00  0.00     0.049 A 
ATOM     54  H   UNL A   1      44.411  25.572  27.278  1.00  0.00     0.167 HD
ATOM     55  C   UNL A   1      45.601  27.558  31.254  1.00  0.00     0.037 A 
ATOM     56  C   UNL A   1      43.945  23.129  26.045  1.00  0.00     0.037 A 
ATOM     57  C   UNL A   1      46.677  27.729  30.325  1.00  0.00     0.049 A 
ATOM     58  C   UNL A   1      45.220  23.349  26.771  1.00  0.00     0.074 A 
ATOM     59  C   UNL A   1      47.211  28.799  29.640  1.00  0.00     0.029 A 
ATOM     60  N   UNL A   1      47.148  26.600  29.711  1.00  0.00    -0.354 N 
ATOM     61  N   UNL A   1      46.208  24.067  26.319  1.00  0.00    -0.248 NA
ATOM     62  C   UNL A   1      45.240  23.087  28.202  1.00  0.00     0.031 C 
ATOM     63  C   UNL A   1      47.658  28.266  28.396  1.00  0.00     0.029 A 
ATOM     64  C   UNL A   1      47.416  26.892  28.402  1.00  0.00     0.049 A 
ATOM     65  H   UNL A   1      47.271  25.723  30.141  1.00  0.00     0.167 HD
ATOM     66  C   UNL A   1      46.722  24.698  27.441  1.00  0.00     0.074 A 
ATOM     67  C   UNL A   1      46.170  23.967  28.576  1.00  0.00     0.031 C 
ATOM     68  C   UNL A   1      47.311  25.924  27.333  1.00  0.00     0.037 A 
BRANCH  55  69
ATOM     69  C   UNL A   1      45.729  26.767  32.531  1.00  0.00     0.064 A 
ATOM     70  C   UNL A   1      45.340  25.418  32.565  1.00  0.00     0.173 A 
ATOM     71  C   UNL A   1      45.961  27.370  33.790  1.00  0.00     0.173 A 
ATOM     72  F   UNL A   1      45.033  24.770  31.432  1.00  0.00    -0.203 F 
ATOM     73  C   UNL A   1      45.178  24.734  33.775  1.00  0.00     0.198 A 
ATOM     74  C   UNL A   1      45.862  26.670  34.987  1.00  0.00     0.198 A 
ATOM     75  F   UNL A   1      46.177  28.685  33.920  1.00  0.00    -0.203 F 
ATOM     76  F   UNL A   1      44.704  23.481  33.771  1.00  0.00    -0.200 F 
ATOM     77  C   UNL A   1      45.447  25.357  34.982  1.00  0.00     0.200 A 
ATOM     78  F   UNL A   1      46.095  27.306  36.144  1.00  0.00    -0.200 F 
ATOM     79  F   UNL A   1      45.253  24.715  36.141  1.00  0.00    -0.200 F 
ENDBRANCH  55  69
BRANCH  56  80
ATOM     80  C   UNL A   1      43.368  21.766  25.882  1.00  0.00     0.064 A 
ATOM     81  C   UNL A   1      44.069  20.780  25.162  1.00  0.00     0.173 A 
ATOM     82  C   UNL A   1      42.288  21.309  26.664  1.00  0.00     0.173 A 
ATOM     83  F   UNL A   1      45.135  21.116  24.420  1.00  0.00    -0.203 F 
ATOM     84  C   UNL A   1      43.741  19.422  25.258  1.00  0.00     0.198 A 
ATOM     85  C   UNL A   1      41.954  19.956  26.748  1.00  0.00     0.198 A 
ATOM     86  F   UNL A   1      41.594  22.147  27.444  1.00  0.00    -0.203 F 
ATOM     87  F   UNL A   1      44.485  18.507  24.620  1.00  0.00    -0.200 F 
ATOM     88  C   UNL A   1      42.691  19.011  26.062  1.00  0.00     0.200 A 
ATOM     89  F   UNL A   1      40.956  19.569  27.555  1.00  0.00    -0.200 F 
ATOM     90  F   UNL A   1      42.421  17.707  26.211  1.00  0.00    -0.200 F 
ENDBRANCH  56  80
BRANCH  68  91
ATOM     91  C   UNL A   1      47.687  26.391  25.955  1.00  0.00     0.064 A 
ATOM     92  C   UNL A   1      46.852  27.150  25.118  1.00  0.00     0.173 A 
ATOM     93  C   UNL A   1      49.001  26.166  25.523  1.00  0.00     0.173 A 
ATOM     94  F   UNL A   1      45.612  27.485  25.499  1.00  0.00    -0.203 F 
ATOM     95  C   UNL A   1      47.303  27.627  23.888  1.00  0.00     0.198 A 
ATOM     96  C   UNL A   1      49.462  26.677  24.314  1.00  0.00     0.198 A 
ATOM     97  F   UNL A   1      49.858  25.490  26.304  1.00  0.00    -0.203 F 
ATOM     98  F   UNL A   1      46.484  28.336  23.098  1.00  0.00    -0.200 F 
ATOM     99  C   UNL A   1      48.612  27.398  23.492  1.00  0.00     0.200 A 
ATOM    100  F   UNL A   1      50.741  26.494  23.960  1.00  0.00    -0.200 F 
ATOM    101  F   UNL A   1      49.061  27.895  22.331  1.00  0.00    -0.200 F 
ENDBRANCH  68  91
ENDBRANCH  42  43
ENDBRANCH  35  37
ENDBRANCH  34  35
ENDBRANCH  33  34
ENDBRANCH   1  33
TORSDOF 17
ENDMDL
MODEL 2
REMARK VINA RESULT:     -12.3      5.495     11.186
REMARK SMILES Cc1coc2c(C)c3oc(=O)c(CCC(=O)N[C@H](CC(C)C)C(=O)OCCOC(=O)c4ccc(-c5c6nc(c(-c7c(F)c(F)c(F)c(F)c7F)c7ccc([nH]7)c(-c7c(F)c(F)c(F)c(F)c7F)c7nc(c(-c8c(F)c(F)c(F)c(F)c8F)c8ccc5[nH]8)C=C7)C=C6)cc4)c(C)c3cc12
REMARK SMILES IDX 26 1 25 2 23 3 24 4 18 5 17 6 15 7 16 8 14 10 13 11 12 12
REMARK SMILES IDX 1 13 2 14 3 15 98 16 4 17 5 18 97 19 6 20 96 21 7 22 8 23
REMARK SMILES IDX 94 24 9 25 95 26 10 27 11 28 19 29 20 30 21 31 22 32 27 33
REMARK SMILES IDX 28 34 29 35 30 36 31 37 32 38 93 39 33 40 92 41 34 42 35 43
REMARK SMILES IDX 36 44 86 45 37 46 91 47 85 48 87 49 38 50 90 51 84 52 83 53
REMARK SMILES IDX 39 55 71 56 51 57 70 58 52 59 55 60 69 61 88 62 53 63 54 64
REMARK SMILES IDX 68 66 89 67 56 68 40 69 41 70 49 71 42 72 43 73 47 74 50 75
REMARK SMILES IDX 44 76 45 77 48 78 46 79 72 80 73 81 81 82 74 83 75 84 79 85
REMARK SMILES IDX 82 86 76 87 77 88 80 89 78 90 57 91 58 92 66 93 59 94 60 95
REMARK SMILES IDX 64 96 67 97 61 98 62 99 65 100 63 101
REMARK H PARENT 17 9 87 54 55 65
REMARK Flexibility Score: inf
ROOT
ATOM      1  C   UNL A   1      36.871  20.838  25.067  1.00  0.00     0.274 C 
ENDROOT
BRANCH   1   2
ATOM      2  O   UNL A   1      35.630  21.126  25.744  1.00  0.00    -0.461 OA
BRANCH   2   3
ATOM      3  C   UNL A   1      34.563  21.328  24.947  1.00  0.00     0.328 C 
ATOM      4  O   UNL A   1      34.606  22.155  24.027  1.00  0.00    -0.250 OA
BRANCH   3   5
ATOM      5  C   UNL A   1      33.121  20.399  25.228  1.00  0.00     0.192 C 
BRANCH   5   6
ATOM      6  N   UNL A   1      32.799  21.540  26.407  1.00  0.00    -0.343 N 
ATOM      7  C   UNL A   1      31.887  22.562  26.517  1.00  0.00     0.221 C 
ATOM      8  O   UNL A   1      31.779  23.176  27.577  1.00  0.00    -0.275 OA
ATOM      9  H   UNL A   1      33.390  21.463  27.189  1.00  0.00     0.164 HD
BRANCH   7  10
ATOM     10  C   UNL A   1      31.056  22.919  25.301  1.00  0.00     0.105 C 
BRANCH  10  11
ATOM     11  C   UNL A   1      31.861  23.773  24.332  1.00  0.00     0.053 C 
BRANCH  11  12
ATOM     12  C   UNL A   1      32.050  25.080  25.019  1.00  0.00     0.042 A 
ATOM     13  C   UNL A   1      37.139  29.716  27.995  1.00  0.00     0.048 C 
ATOM     14  C   UNL A   1      35.764  30.128  27.620  1.00  0.00    -0.005 A 
ATOM     15  C   UNL A   1      35.156  31.335  27.881  1.00  0.00     0.199 A 
ATOM     16  C   UNL A   1      34.779  29.313  26.962  1.00  0.00     0.024 A 
ATOM     17  O   UNL A   1      33.895  31.359  27.396  1.00  0.00    -0.464 OA
ATOM     18  C   UNL A   1      33.639  30.154  26.797  1.00  0.00     0.140 A 
ATOM     19  C   UNL A   1      34.809  27.910  26.630  1.00  0.00     0.024 A 
ATOM     20  C   UNL A   1      32.391  29.875  26.187  1.00  0.00     0.036 A 
ATOM     21  C   UNL A   1      33.658  27.404  26.086  1.00  0.00     0.022 A 
ATOM     22  C   UNL A   1      31.111  30.621  26.322  1.00  0.00     0.052 C 
ATOM     23  C   UNL A   1      32.477  28.600  25.701  1.00  0.00     0.145 A 
ATOM     24  C   UNL A   1      33.326  25.577  25.780  1.00  0.00    -0.030 A 
ATOM     25  O   UNL A   1      31.052  27.976  24.754  1.00  0.00    -0.422 OA
ATOM     26  C   UNL A   1      34.505  24.708  26.123  1.00  0.00     0.046 C 
ATOM     27  C   UNL A   1      30.650  26.269  24.388  1.00  0.00     0.339 A 
ATOM     28  O   UNL A   1      29.591  25.936  23.886  1.00  0.00    -0.246 OA
ENDBRANCH  11  12
ENDBRANCH  10  11
ENDBRANCH   7  10
ENDBRANCH   5   6
BRANCH   5  29
ATOM     29  C   UNL A   1      32.518  18.290  25.140  1.00  0.00     0.040 C 
BRANCH  29  30
ATOM     30  C   UNL A   1      32.857  16.867  24.121  1.00  0.00    -0.015 C 
ATOM     31  C   UNL A   1      34.037  16.960  23.127  1.00  0.00     0.007 C 
ATOM     32  C   UNL A   1      33.274  15.714  25.070  1.00  0.00     0.007 C 
ENDBRANCH  29  30
ENDBRANCH   5  29
ENDBRANCH   3   5
ENDBRANCH   2   3
ENDBRANCH   1   2
BRANCH   1  33
ATOM     33  C   UNL A   1      37.611  22.152  24.881  1.00  0.00     0.275 C 
BRANCH  33  34
ATOM     34  O   UNL A   1      37.944  22.824  26.112  1.00  0.00    -0.458 OA
BRANCH  34  35
ATOM     35  C   UNL A   1      39.231  22.723  26.504  1.00  0.00     0.338 C 
ATOM     36  O   UNL A   1      39.846  21.713  26.793  1.00  0.00    -0.246 OA
BRANCH  35  37
ATOM     37  C   UNL A   1      39.803  24.030  26.826  1.00  0.00     0.060 A 
ATOM     38  C   UNL A   1      41.051  24.008  27.453  1.00  0.00     0.016 A 
ATOM     39  C   UNL A   1      39.017  25.184  26.806  1.00  0.00     0.016 A 
ATOM     40  C   UNL A   1      41.403  25.066  28.257  1.00  0.00     0.010 A 
ATOM     41  C   UNL A   1      39.418  26.276  27.550  1.00  0.00     0.010 A 
ATOM     42  C   UNL A   1      40.555  26.178  28.354  1.00  0.00    -0.014 A 
BRANCH  42  43
ATOM     43  C   UNL A   1      41.021  27.304  29.168  1.00  0.00     0.031 A 
ATOM     44  C   UNL A   1      42.241  27.953  28.588  1.00  0.00     0.074 A 
ATOM     45  C   UNL A   1      40.314  27.774  30.218  1.00  0.00     0.049 A 
ATOM     46  N   UNL A   1      43.344  28.285  29.178  1.00  0.00    -0.248 NA
ATOM     47  C   UNL A   1      42.297  28.073  27.110  1.00  0.00     0.031 C 
ATOM     48  C   UNL A   1      39.021  27.287  30.713  1.00  0.00     0.029 A 
ATOM     49  N   UNL A   1      40.512  28.888  30.978  1.00  0.00    -0.354 N 
ATOM     50  C   UNL A   1      44.156  28.805  28.171  1.00  0.00     0.074 A 
ATOM     51  C   UNL A   1      43.550  28.470  26.913  1.00  0.00     0.031 C 
ATOM     52  C   UNL A   1      38.428  28.253  31.447  1.00  0.00     0.029 A 
ATOM     53  C   UNL A   1      39.346  29.368  31.572  1.00  0.00     0.049 A 
ATOM     54  H   UNL A   1      41.391  29.312  31.097  1.00  0.00     0.167 HD
ATOM     55  C   UNL A   1      45.116  29.728  28.429  1.00  0.00     0.037 A 
ATOM     56  C   UNL A   1      39.128  30.637  32.006  1.00  0.00     0.037 A 
ATOM     57  C   UNL A   1      45.543  29.690  29.796  1.00  0.00     0.049 A 
ATOM     58  C   UNL A   1      40.456  31.280  32.148  1.00  0.00     0.074 A 
ATOM     59  C   UNL A   1      46.216  28.779  30.580  1.00  0.00     0.029 A 
ATOM     60  N   UNL A   1      44.950  30.577  30.652  1.00  0.00    -0.354 N 
ATOM     61  N   UNL A   1      41.347  30.942  33.036  1.00  0.00    -0.248 NA
ATOM     62  C   UNL A   1      40.958  32.056  31.023  1.00  0.00     0.031 C 
ATOM     63  C   UNL A   1      45.666  28.926  31.886  1.00  0.00     0.029 A 
ATOM     64  C   UNL A   1      44.719  29.949  31.845  1.00  0.00     0.049 A 
ATOM     65  H   UNL A   1      44.727  31.513  30.443  1.00  0.00     0.167 HD
ATOM     66  C   UNL A   1      42.561  31.077  32.382  1.00  0.00     0.074 A 
ATOM     67  C   UNL A   1      42.268  31.876  31.197  1.00  0.00     0.031 C 
ATOM     68  C   UNL A   1      43.618  30.284  32.720  1.00  0.00     0.037 A 
BRANCH  55  69
ATOM     69  C   UNL A   1      45.322  30.922  27.532  1.00  0.00     0.064 A 
ATOM     70  C   UNL A   1      46.613  31.258  27.093  1.00  0.00     0.173 A 
ATOM     71  C   UNL A   1      44.327  31.905  27.319  1.00  0.00     0.173 A 
ATOM     72  F   UNL A   1      47.641  30.424  27.304  1.00  0.00    -0.203 F 
ATOM     73  C   UNL A   1      46.886  32.497  26.502  1.00  0.00     0.198 A 
ATOM     74  C   UNL A   1      44.588  33.109  26.673  1.00  0.00     0.198 A 
ATOM     75  F   UNL A   1      43.094  31.792  27.829  1.00  0.00    -0.203 F 
ATOM     76  F   UNL A   1      48.148  32.822  26.193  1.00  0.00    -0.200 F 
ATOM     77  C   UNL A   1      45.873  33.416  26.285  1.00  0.00     0.200 A 
ATOM     78  F   UNL A   1      43.596  33.995  26.506  1.00  0.00    -0.200 F 
ATOM     79  F   UNL A   1      46.140  34.617  25.757  1.00  0.00    -0.200 F 
ENDBRANCH  55  69
BRANCH  56  80
ATOM     80  C   UNL A   1      37.879  31.443  31.904  1.00  0.00     0.064 A 
ATOM     81  C   UNL A   1      37.136  31.749  33.059  1.00  0.00     0.173 A 
ATOM     82  C   UNL A   1      37.552  32.176  30.746  1.00  0.00     0.173 A 
ATOM     83  F   UNL A   1      37.403  31.128  34.218  1.00  0.00    -0.203 F 
ATOM     84  C   UNL A   1      36.164  32.757  33.066  1.00  0.00     0.198 A 
ATOM     85  C   UNL A   1      36.573  33.171  30.752  1.00  0.00     0.198 A 
ATOM     86  F   UNL A   1      38.239  32.018  29.608  1.00  0.00    -0.203 F 
ATOM     87  F   UNL A   1      35.536  33.073  34.208  1.00  0.00    -0.200 F 
ATOM     88  C   UNL A   1      35.893  33.476  31.914  1.00  0.00     0.200 A 
ATOM     89  F   UNL A   1      36.344  33.881  29.637  1.00  0.00    -0.200 F 
ATOM     90  F   UNL A   1      35.015  34.488  31.936  1.00  0.00    -0.200 F 
ENDBRANCH  56  80
BRANCH  68  91
ATOM     91  C   UNL A   1      43.530  29.532  34.018  1.00  0.00     0.064 A 
ATOM     92  C   UNL A   1      43.865  30.070  35.273  1.00  0.00     0.173 A 
ATOM     93  C   UNL A   1      42.958  28.252  33.997  1.00  0.00     0.173 A 
ATOM     94  F   UNL A   1      44.332  31.320  35.385  1.00  0.00    -0.203 F 
ATOM     95  C   UNL A   1      43.671  29.342  36.446  1.00  0.00     0.198 A 
ATOM     96  C   UNL A   1      42.727  27.545  35.172  1.00  0.00     0.198 A 
ATOM     97  F   UNL A   1      42.573  27.709  32.832  1.00  0.00    -0.203 F 
ATOM     98  F   UNL A   1      44.012  29.869  37.631  1.00  0.00    -0.200 F 
ATOM     99  C   UNL A   1      43.092  28.083  36.394  1.00  0.00     0.200 A 
ATOM    100  F   UNL A   1      42.123  26.349  35.119  1.00  0.00    -0.200 F 
ATOM    101  F   UNL A   1      42.862  27.401  37.524  1.00  0.00    -0.200 F 
ENDBRANCH  68  91
ENDBRANCH  42  43
ENDBRANCH  35  37
ENDBRANCH  34  35
ENDBRANCH  33  34
ENDBRANCH   1  33
TORSDOF 17
ENDMDL
MODEL 3
REMARK VINA RESULT:     -11.9      3.725      7.249
REMARK SMILES Cc1coc2c(C)c3oc(=O)c(CCC(=O)N[C@H](CC(C)C)C(=O)OCCOC(=O)c4ccc(-c5c6nc(c(-c7c(F)c(F)c(F)c(F)c7F)c7ccc([nH]7)c(-c7c(F)c(F)c(F)c(F)c7F)c7nc(c(-c8c(F)c(F)c(F)c(F)c8F)c8ccc5[nH]8)C=C7)C=C6)cc4)c(C)c3cc12
REMARK SMILES IDX 26 1 25 2 23 3 24 4 18 5 17 6 15 7 16 8 14 10 13 11 12 12
REMARK SMILES IDX 1 13 2 14 3 15 98 16 4 17 5 18 97 19 6 20 96 21 7 22 8 23
REMARK SMILES IDX 94 24 9 25 95 26 10 27 11 28 19 29 20 30 21 31 22 32 27 33
REMARK SMILES IDX 28 34 29 35 30 36 31 37 32 38 93 39 33 40 92 41 34 42 35 43
REMARK SMILES IDX 36 44 86 45 37 46 91 47 85 48 87 49 38 50 90 51 84 52 83 53
REMARK SMILES IDX 39 55 71 56 51 57 70 58 52 59 55 60 69 61 88 62 53 63 54 64
REMARK SMILES IDX 68 66 89 67 56 68 40 69 41 70 49 71 42 72 43 73 47 74 50 75
REMARK SMILES IDX 44 76 45 77 48 78 46 79 72 80 73 81 81 82 74 83 75 84 79 85
REMARK SMILES IDX 82 86 76 87 77 88 80 89 78 90 57 91 58 92 66 93 59 94 60 95
REMARK SMILES IDX 64 96 67 97 61 98 62 99 65 100 63 101
REMARK H PARENT 17 9 87 54 55 65
REMARK Flexibility Score: inf
ROOT
ATOM      1  C   UNL A   1      35.094  32.292  31.625  1.00  0.00     0.274 C 
ENDROOT
BRANCH   1   2
ATOM      2  O   UNL A   1      34.058  33.189  31.175  1.00  0.00    -0.461 OA
BRANCH   2   3
ATOM      3  C   UNL A   1      34.350  33.913  30.077  1.00  0.00     0.328 C 
ATOM      4  O   UNL A   1      34.199  35.141  30.068  1.00  0.00    -0.250 OA
BRANCH   3   5
ATOM      5  C   UNL A   1      34.949  33.091  28.667  1.00  0.00     0.192 C 
BRANCH   5   6
ATOM      6  N   UNL A   1      33.454  33.447  28.010  1.00  0.00    -0.343 N 
ATOM      7  C   UNL A   1      32.517  32.713  27.325  1.00  0.00     0.221 C 
ATOM      8  O   UNL A   1      31.419  33.204  27.070  1.00  0.00    -0.275 OA
ATOM      9  H   UNL A   1      33.189  34.386  28.142  1.00  0.00     0.164 HD
BRANCH   7  10
ATOM     10  C   UNL A   1      32.886  31.312  26.878  1.00  0.00     0.105 C 
BRANCH  10  11
ATOM     11  C   UNL A   1      31.679  30.604  26.279  1.00  0.00     0.053 C 
BRANCH  11  12
ATOM     12  C   UNL A   1      32.238  29.501  25.450  1.00  0.00     0.042 A 
ATOM     13  C   UNL A   1      36.305  23.203  25.636  1.00  0.00     0.048 C 
ATOM     14  C   UNL A   1      35.417  23.582  24.508  1.00  0.00    -0.005 A 
ATOM     15  C   UNL A   1      35.307  22.954  23.289  1.00  0.00     0.199 A 
ATOM     16  C   UNL A   1      34.546  24.724  24.456  1.00  0.00     0.024 A 
ATOM     17  O   UNL A   1      34.402  23.576  22.502  1.00  0.00    -0.464 OA
ATOM     18  C   UNL A   1      33.890  24.643  23.192  1.00  0.00     0.140 A 
ATOM     19  C   UNL A   1      34.405  25.825  25.376  1.00  0.00     0.024 A 
ATOM     20  C   UNL A   1      32.908  25.494  22.628  1.00  0.00     0.036 A 
ATOM     21  C   UNL A   1      33.544  26.818  24.987  1.00  0.00     0.022 A 
ATOM     22  C   UNL A   1      32.491  25.603  21.204  1.00  0.00     0.052 C 
ATOM     23  C   UNL A   1      32.630  26.441  23.574  1.00  0.00     0.145 A 
ATOM     24  C   UNL A   1      33.345  28.473  25.860  1.00  0.00    -0.030 A 
ATOM     25  O   UNL A   1      31.311  27.636  23.188  1.00  0.00    -0.422 OA
ATOM     26  C   UNL A   1      34.183  28.575  27.105  1.00  0.00     0.046 C 
ATOM     27  C   UNL A   1      31.018  29.224  23.964  1.00  0.00     0.339 A 
ATOM     28  O   UNL A   1      30.209  30.028  23.533  1.00  0.00    -0.246 OA
ENDBRANCH  11  12
ENDBRANCH  10  11
ENDBRANCH   7  10
ENDBRANCH   5   6
BRANCH   5  29
ATOM     29  C   UNL A   1      36.289  31.408  28.230  1.00  0.00     0.040 C 
BRANCH  29  30
ATOM     30  C   UNL A   1      37.314  30.270  29.144  1.00  0.00    -0.015 C 
ATOM     31  C   UNL A   1      37.783  28.987  28.422  1.00  0.00     0.007 C 
ATOM     32  C   UNL A   1      38.638  31.007  29.470  1.00  0.00     0.007 C 
ENDBRANCH  29  30
ENDBRANCH   5  29
ENDBRANCH   3   5
ENDBRANCH   2   3
ENDBRANCH   1   2
BRANCH   1  33
ATOM     33  C   UNL A   1      36.287  33.137  32.040  1.00  0.00     0.275 C 
BRANCH  33  34
ATOM     34  O   UNL A   1      37.488  32.382  32.296  1.00  0.00    -0.458 OA
BRANCH  34  35
ATOM     35  C   UNL A   1      37.506  31.683  33.450  1.00  0.00     0.338 C 
ATOM     36  O   UNL A   1      36.943  31.955  34.494  1.00  0.00    -0.246 OA
BRANCH  35  37
ATOM     37  C   UNL A   1      38.527  30.637  33.433  1.00  0.00     0.060 A 
ATOM     38  C   UNL A   1      39.828  31.055  33.716  1.00  0.00     0.016 A 
ATOM     39  C   UNL A   1      38.269  29.390  32.859  1.00  0.00     0.016 A 
ATOM     40  C   UNL A   1      40.879  30.327  33.210  1.00  0.00     0.010 A 
ATOM     41  C   UNL A   1      39.333  28.623  32.427  1.00  0.00     0.010 A 
ATOM     42  C   UNL A   1      40.628  29.138  32.510  1.00  0.00    -0.014 A 
BRANCH  42  43
ATOM     43  C   UNL A   1      41.792  28.371  32.059  1.00  0.00     0.031 A 
ATOM     44  C   UNL A   1      42.529  27.742  33.202  1.00  0.00     0.074 A 
ATOM     45  C   UNL A   1      42.043  28.143  30.752  1.00  0.00     0.049 A 
ATOM     46  N   UNL A   1      43.801  27.741  33.449  1.00  0.00    -0.248 NA
ATOM     47  C   UNL A   1      41.708  27.201  34.313  1.00  0.00     0.031 C 
ATOM     48  C   UNL A   1      41.245  28.584  29.601  1.00  0.00     0.029 A 
ATOM     49  N   UNL A   1      42.972  27.336  30.166  1.00  0.00    -0.354 N 
ATOM     50  C   UNL A   1      43.939  27.057  34.656  1.00  0.00     0.074 A 
ATOM     51  C   UNL A   1      42.630  26.928  35.231  1.00  0.00     0.031 C 
ATOM     52  C   UNL A   1      41.531  27.808  28.533  1.00  0.00     0.029 A 
ATOM     53  C   UNL A   1      42.608  26.906  28.891  1.00  0.00     0.049 A 
ATOM     54  H   UNL A   1      43.817  27.081  30.600  1.00  0.00     0.167 HD
ATOM     55  C   UNL A   1      45.073  26.381  34.971  1.00  0.00     0.037 A 
ATOM     56  C   UNL A   1      43.076  25.804  28.250  1.00  0.00     0.037 A 
ATOM     57  C   UNL A   1      46.208  26.873  34.249  1.00  0.00     0.049 A 
ATOM     58  C   UNL A   1      44.331  25.406  28.933  1.00  0.00     0.074 A 
ATOM     59  C   UNL A   1      46.920  28.052  34.241  1.00  0.00     0.029 A 
ATOM     60  N   UNL A   1      46.545  26.208  33.102  1.00  0.00    -0.354 N 
ATOM     61  N   UNL A   1      45.431  26.101  28.913  1.00  0.00    -0.248 NA
ATOM     62  C   UNL A   1      44.242  24.405  29.986  1.00  0.00     0.031 C 
ATOM     63  C   UNL A   1      47.350  28.226  32.894  1.00  0.00     0.029 A 
ATOM     64  C   UNL A   1      46.918  27.123  32.156  1.00  0.00     0.049 A 
ATOM     65  H   UNL A   1      46.523  25.231  32.978  1.00  0.00     0.167 HD
ATOM     66  C   UNL A   1      45.972  25.936  30.178  1.00  0.00     0.074 A 
ATOM     67  C   UNL A   1      45.266  24.794  30.748  1.00  0.00     0.031 C 
ATOM     68  C   UNL A   1      46.731  26.922  30.737  1.00  0.00     0.037 A 
BRANCH  55  69
ATOM     69  C   UNL A   1      45.024  25.013  35.602  1.00  0.00     0.064 A 
ATOM     70  C   UNL A   1      45.720  24.764  36.796  1.00  0.00     0.173 A 
ATOM     71  C   UNL A   1      44.544  23.868  34.923  1.00  0.00     0.173 A 
ATOM     72  F   UNL A   1      46.272  25.774  37.484  1.00  0.00    -0.203 F 
ATOM     73  C   UNL A   1      45.932  23.462  37.262  1.00  0.00     0.198 A 
ATOM     74  C   UNL A   1      44.700  22.580  35.421  1.00  0.00     0.198 A 
ATOM     75  F   UNL A   1      44.009  23.941  33.697  1.00  0.00    -0.203 F 
ATOM     76  F   UNL A   1      46.691  23.260  38.347  1.00  0.00    -0.200 F 
ATOM     77  C   UNL A   1      45.416  22.373  36.579  1.00  0.00     0.200 A 
ATOM     78  F   UNL A   1      44.220  21.541  34.723  1.00  0.00    -0.200 F 
ATOM     79  F   UNL A   1      45.653  21.125  37.002  1.00  0.00    -0.200 F 
ENDBRANCH  55  69
BRANCH  56  80
ATOM     80  C   UNL A   1      42.322  24.850  27.389  1.00  0.00     0.064 A 
ATOM     81  C   UNL A   1      42.979  24.154  26.357  1.00  0.00     0.173 A 
ATOM     82  C   UNL A   1      41.042  24.375  27.736  1.00  0.00     0.173 A 
ATOM     83  F   UNL A   1      44.217  24.512  25.983  1.00  0.00    -0.203 F 
ATOM     84  C   UNL A   1      42.412  23.028  25.749  1.00  0.00     0.198 A 
ATOM     85  C   UNL A   1      40.473  23.260  27.120  1.00  0.00     0.198 A 
ATOM     86  F   UNL A   1      40.353  24.916  28.750  1.00  0.00    -0.203 F 
ATOM     87  F   UNL A   1      43.106  22.345  24.826  1.00  0.00    -0.200 F 
ATOM     88  C   UNL A   1      41.165  22.574  26.141  1.00  0.00     0.200 A 
ATOM     89  F   UNL A   1      39.278  22.813  27.532  1.00  0.00    -0.200 F 
ATOM     90  F   UNL A   1      40.651  21.455  25.611  1.00  0.00    -0.200 F 
ENDBRANCH  56  80
BRANCH  68  91
ATOM     91  C   UNL A   1      47.238  28.004  29.826  1.00  0.00     0.064 A 
ATOM     92  C   UNL A   1      48.406  27.907  29.050  1.00  0.00     0.173 A 
ATOM     93  C   UNL A   1      46.431  29.135  29.638  1.00  0.00     0.173 A 
ATOM     94  F   UNL A   1      49.183  26.818  29.104  1.00  0.00    -0.203 F 
ATOM     95  C   UNL A   1      48.765  28.916  28.156  1.00  0.00     0.198 A 
ATOM     96  C   UNL A   1      46.770  30.120  28.717  1.00  0.00     0.198 A 
ATOM     97  F   UNL A   1      45.279  29.256  30.316  1.00  0.00    -0.203 F 
ATOM     98  F   UNL A   1      49.892  28.809  27.437  1.00  0.00    -0.200 F 
ATOM     99  C   UNL A   1      47.941  30.017  27.984  1.00  0.00     0.200 A 
ATOM    100  F   UNL A   1      45.945  31.157  28.520  1.00  0.00    -0.200 F 
ATOM    101  F   UNL A   1      48.261  30.965  27.093  1.00  0.00    -0.200 F 
ENDBRANCH  68  91
ENDBRANCH  42  43
ENDBRANCH  35  37
ENDBRANCH  34  35
ENDBRANCH  33  34
ENDBRANCH   1  33
TORSDOF 17
ENDMDL
