MODEL 1
REMARK VINA RESULT:     -14.3      0.000      0.000
REMARK SMILES CC1(C)O[C@@H]2CC3[C@H]4CCC5=CC(=O)C=C[C@@]5(C)[C@]4(F)[C@H](O)C[C@]3(C)[C@]2(C(=O)OCCOC(=O)c2ccc(-c3c4nc(c(-c5c(F)c(F)c(F)c(F)c5F)c5ccc([nH]5)c(-c5c(F)c(F)c(F)c(F)c5F)c5nc(c(-c6c(F)c(F)c(F)c(F)c6F)c6ccc3[nH]6)C=C5)C=C4)cc2)O1
REMARK SMILES IDX 31 1 30 2 29 3 27 4 28 5 26 6 1 7 2 8 4 9 98 10 3 11 5 12
REMARK SMILES IDX 6 13 24 14 7 15 23 16 25 17 8 18 21 19 9 20 19 21 10 22
REMARK SMILES IDX 17 23 20 24 11 25 16 26 18 27 12 28 15 29 13 30 14 31 22 32
REMARK SMILES IDX 32 34 33 35 34 36 35 37 36 38 97 39 37 40 96 41 38 42 39 43
REMARK SMILES IDX 40 44 90 45 41 46 95 47 89 48 91 49 42 50 94 51 88 52 87 53
REMARK SMILES IDX 43 55 75 56 55 57 74 58 56 59 59 60 73 61 92 62 57 63 58 64
REMARK SMILES IDX 72 66 93 67 60 68 44 69 45 70 53 71 46 72 47 73 51 74 54 75
REMARK SMILES IDX 48 76 49 77 52 78 50 79 76 80 77 81 85 82 78 83 79 84 83 85
REMARK SMILES IDX 86 86 80 87 81 88 84 89 82 90 61 91 62 92 70 93 63 94 64 95
REMARK SMILES IDX 68 96 71 97 65 98 66 99 69 100 67 101
REMARK H PARENT 22 33 91 54 59 65
REMARK Flexibility Score: inf
ROOT
ATOM      1  C   UNL A   1      31.417  29.742  25.262  1.00  0.00     0.275 C 
ENDROOT
BRANCH   1   2
ATOM      2  C   UNL A   1      31.281  28.466  24.441  1.00  0.00     0.274 C 
BRANCH   2   3
ATOM      3  O   UNL A   1      31.380  27.323  25.311  1.00  0.00    -0.460 OA
BRANCH   3   4
ATOM      4  C   UNL A   1      31.052  26.102  24.791  1.00  0.00     0.342 C 
ATOM      5  O   UNL A   1      29.929  25.745  24.493  1.00  0.00    -0.249 OA
BRANCH   4   6
ATOM      6  C   UNL A   1      32.271  25.192  24.821  1.00  0.00     0.200 C 
ATOM      7  C   UNL A   1      32.429  26.031  21.588  1.00  0.00     0.075 C 
ATOM      8  C   UNL A   1      33.166  25.241  22.658  1.00  0.00     0.165 C 
ATOM      9  O   UNL A   1      33.967  26.129  23.442  1.00  0.00    -0.344 OA
ATOM     10  O   UNL A   1      32.191  24.572  23.489  1.00  0.00    -0.329 OA
ATOM     11  C   UNL A   1      34.078  24.203  21.988  1.00  0.00     0.075 C 
ATOM     12  C   UNL A   1      33.661  25.887  24.816  1.00  0.00     0.166 C 
ATOM     13  C   UNL A   1      34.691  24.837  25.422  1.00  0.00     0.040 C 
ATOM     14  C   UNL A   1      32.436  24.103  25.961  1.00  0.00     0.016 C 
ATOM     15  C   UNL A   1      33.817  23.576  25.472  1.00  0.00     0.008 C 
ATOM     16  C   UNL A   1      31.388  22.993  26.162  1.00  0.00     0.046 C 
ATOM     17  C   UNL A   1      32.528  24.787  27.353  1.00  0.00     0.015 C 
ATOM     18  C   UNL A   1      34.115  22.100  25.166  1.00  0.00     0.035 C 
ATOM     19  C   UNL A   1      31.606  21.718  25.370  1.00  0.00     0.154 C 
ATOM     20  C   UNL A   1      35.532  21.618  25.416  1.00  0.00     0.012 C 
ATOM     21  C   UNL A   1      33.030  21.108  25.608  1.00  0.00     0.152 C 
ATOM     22  C   UNL A   1      35.761  20.404  24.506  1.00  0.00     0.032 C 
ATOM     23  C   UNL A   1      33.243  19.700  24.898  1.00  0.00     0.044 C 
ATOM     24  F   UNL A   1      33.188  20.945  26.963  1.00  0.00    -0.239 F 
ATOM     25  C   UNL A   1      34.733  19.317  24.713  1.00  0.00    -0.053 C 
ATOM     26  C   UNL A   1      32.528  18.585  25.663  1.00  0.00    -0.009 C 
ATOM     27  C   UNL A   1      32.618  19.674  23.473  1.00  0.00     0.024 C 
ATOM     28  C   UNL A   1      35.109  18.026  24.626  1.00  0.00     0.052 C 
ATOM     29  C   UNL A   1      32.899  17.297  25.575  1.00  0.00     0.048 C 
ATOM     30  C   UNL A   1      34.123  16.939  24.825  1.00  0.00     0.178 C 
ATOM     31  O   UNL A   1      34.338  15.798  24.441  1.00  0.00    -0.290 OA
BRANCH  19  32
ATOM     32  O   UNL A   1      31.294  21.996  24.007  1.00  0.00    -0.390 OA
ATOM     33  H   UNL A   1      31.482  21.213  23.466  1.00  0.00     0.211 HD
ENDBRANCH  19  32
ENDBRANCH   4   6
ENDBRANCH   3   4
ENDBRANCH   2   3
ENDBRANCH   1   2
BRANCH   1  34
ATOM     34  O   UNL A   1      32.750  29.782  25.804  1.00  0.00    -0.458 OA
BRANCH  34  35
ATOM     35  C   UNL A   1      33.012  30.772  26.682  1.00  0.00     0.338 C 
ATOM     36  O   UNL A   1      32.243  31.656  27.042  1.00  0.00    -0.246 OA
BRANCH  35  37
ATOM     37  C   UNL A   1      34.362  30.597  27.264  1.00  0.00     0.060 A 
ATOM     38  C   UNL A   1      34.828  29.328  27.601  1.00  0.00     0.016 A 
ATOM     39  C   UNL A   1      35.114  31.712  27.626  1.00  0.00     0.016 A 
ATOM     40  C   UNL A   1      35.953  29.174  28.405  1.00  0.00     0.010 A 
ATOM     41  C   UNL A   1      36.328  31.545  28.305  1.00  0.00     0.010 A 
ATOM     42  C   UNL A   1      36.753  30.273  28.729  1.00  0.00    -0.014 A 
BRANCH  42  43
ATOM     43  C   UNL A   1      38.033  30.096  29.477  1.00  0.00     0.031 A 
ATOM     44  C   UNL A   1      39.140  29.246  28.912  1.00  0.00     0.074 A 
ATOM     45  C   UNL A   1      38.198  30.668  30.689  1.00  0.00     0.049 A 
ATOM     46  N   UNL A   1      40.175  28.720  29.520  1.00  0.00    -0.248 NA
ATOM     47  C   UNL A   1      39.066  28.926  27.478  1.00  0.00     0.031 C 
ATOM     48  C   UNL A   1      37.245  31.562  31.351  1.00  0.00     0.029 A 
ATOM     49  N   UNL A   1      39.230  30.570  31.593  1.00  0.00    -0.354 N 
ATOM     50  C   UNL A   1      40.826  27.946  28.568  1.00  0.00     0.074 A 
ATOM     51  C   UNL A   1      40.081  28.084  27.334  1.00  0.00     0.031 C 
ATOM     52  C   UNL A   1      37.746  31.960  32.525  1.00  0.00     0.029 A 
ATOM     53  C   UNL A   1      38.989  31.242  32.768  1.00  0.00     0.049 A 
ATOM     54  H   UNL A   1      40.059  30.069  31.416  1.00  0.00     0.167 HD
ATOM     55  C   UNL A   1      41.935  27.182  28.722  1.00  0.00     0.037 A 
ATOM     56  C   UNL A   1      39.635  31.223  33.948  1.00  0.00     0.037 A 
ATOM     57  C   UNL A   1      42.704  27.106  29.940  1.00  0.00     0.049 A 
ATOM     58  C   UNL A   1      40.834  30.340  34.109  1.00  0.00     0.074 A 
ATOM     59  C   UNL A   1      43.862  26.388  30.187  1.00  0.00     0.029 A 
ATOM     60  N   UNL A   1      42.401  27.785  31.111  1.00  0.00    -0.354 N 
ATOM     61  N   UNL A   1      41.397  29.546  33.231  1.00  0.00    -0.248 NA
ATOM     62  C   UNL A   1      41.470  30.328  35.431  1.00  0.00     0.031 C 
ATOM     63  C   UNL A   1      44.234  26.597  31.520  1.00  0.00     0.029 A 
ATOM     64  C   UNL A   1      43.340  27.488  32.088  1.00  0.00     0.049 A 
ATOM     65  H   UNL A   1      41.633  28.388  31.231  1.00  0.00     0.167 HD
ATOM     66  C   UNL A   1      42.459  28.946  33.890  1.00  0.00     0.074 A 
ATOM     67  C   UNL A   1      42.474  29.485  35.236  1.00  0.00     0.031 C 
ATOM     68  C   UNL A   1      43.339  28.028  33.423  1.00  0.00     0.037 A 
BRANCH  55  69
ATOM     69  C   UNL A   1      42.372  26.325  27.566  1.00  0.00     0.064 A 
ATOM     70  C   UNL A   1      43.373  26.727  26.671  1.00  0.00     0.173 A 
ATOM     71  C   UNL A   1      41.818  25.045  27.395  1.00  0.00     0.173 A 
ATOM     72  F   UNL A   1      43.929  27.943  26.780  1.00  0.00    -0.203 F 
ATOM     73  C   UNL A   1      43.790  25.888  25.639  1.00  0.00     0.198 A 
ATOM     74  C   UNL A   1      42.259  24.199  26.382  1.00  0.00     0.198 A 
ATOM     75  F   UNL A   1      40.862  24.606  28.228  1.00  0.00    -0.203 F 
ATOM     76  F   UNL A   1      44.723  26.308  24.772  1.00  0.00    -0.200 F 
ATOM     77  C   UNL A   1      43.240  24.622  25.500  1.00  0.00     0.200 A 
ATOM     78  F   UNL A   1      41.736  22.969  26.262  1.00  0.00    -0.200 F 
ATOM     79  F   UNL A   1      43.654  23.812  24.517  1.00  0.00    -0.200 F 
ENDBRANCH  55  69
BRANCH  56  80
ATOM     80  C   UNL A   1      39.100  32.018  35.085  1.00  0.00     0.064 A 
ATOM     81  C   UNL A   1      38.353  31.410  36.101  1.00  0.00     0.173 A 
ATOM     82  C   UNL A   1      39.365  33.393  35.201  1.00  0.00     0.173 A 
ATOM     83  F   UNL A   1      38.052  30.105  36.021  1.00  0.00    -0.203 F 
ATOM     84  C   UNL A   1      37.894  32.145  37.192  1.00  0.00     0.198 A 
ATOM     85  C   UNL A   1      38.938  34.118  36.309  1.00  0.00     0.198 A 
ATOM     86  F   UNL A   1      40.078  34.022  34.255  1.00  0.00    -0.203 F 
ATOM     87  F   UNL A   1      37.158  31.546  38.137  1.00  0.00    -0.200 F 
ATOM     88  C   UNL A   1      38.198  33.494  37.302  1.00  0.00     0.200 A 
ATOM     89  F   UNL A   1      39.254  35.414  36.421  1.00  0.00    -0.200 F 
ATOM     90  F   UNL A   1      37.778  34.193  38.365  1.00  0.00    -0.200 F 
ENDBRANCH  56  80
BRANCH  68  91
ATOM     91  C   UNL A   1      44.411  27.578  34.370  1.00  0.00     0.064 A 
ATOM     92  C   UNL A   1      45.620  28.278  34.498  1.00  0.00     0.173 A 
ATOM     93  C   UNL A   1      44.224  26.435  35.160  1.00  0.00     0.173 A 
ATOM     94  F   UNL A   1      45.854  29.365  33.747  1.00  0.00    -0.203 F 
ATOM     95  C   UNL A   1      46.616  27.830  35.361  1.00  0.00     0.198 A 
ATOM     96  C   UNL A   1      45.210  26.007  36.044  1.00  0.00     0.198 A 
ATOM     97  F   UNL A   1      43.084  25.733  35.076  1.00  0.00    -0.203 F 
ATOM     98  F   UNL A   1      47.786  28.481  35.428  1.00  0.00    -0.200 F 
ATOM     99  C   UNL A   1      46.408  26.699  36.138  1.00  0.00     0.200 A 
ATOM    100  F   UNL A   1      45.005  24.920  36.799  1.00  0.00    -0.200 F 
ATOM    101  F   UNL A   1      47.369  26.269  36.966  1.00  0.00    -0.200 F 
ENDBRANCH  68  91
ENDBRANCH  42  43
ENDBRANCH  35  37
ENDBRANCH  34  35
ENDBRANCH   1  34
TORSDOF 12
ENDMDL
MODEL 2
REMARK VINA RESULT:     -14.1      1.330      2.326
REMARK SMILES CC1(C)O[C@@H]2CC3[C@H]4CCC5=CC(=O)C=C[C@@]5(C)[C@]4(F)[C@H](O)C[C@]3(C)[C@]2(C(=O)OCCOC(=O)c2ccc(-c3c4nc(c(-c5c(F)c(F)c(F)c(F)c5F)c5ccc([nH]5)c(-c5c(F)c(F)c(F)c(F)c5F)c5nc(c(-c6c(F)c(F)c(F)c(F)c6F)c6ccc3[nH]6)C=C5)C=C4)cc2)O1
REMARK SMILES IDX 31 1 30 2 29 3 27 4 28 5 26 6 1 7 2 8 4 9 98 10 3 11 5 12
REMARK SMILES IDX 6 13 24 14 7 15 23 16 25 17 8 18 21 19 9 20 19 21 10 22
REMARK SMILES IDX 17 23 20 24 11 25 16 26 18 27 12 28 15 29 13 30 14 31 22 32
REMARK SMILES IDX 32 34 33 35 34 36 35 37 36 38 97 39 37 40 96 41 38 42 39 43
REMARK SMILES IDX 40 44 90 45 41 46 95 47 89 48 91 49 42 50 94 51 88 52 87 53
REMARK SMILES IDX 43 55 75 56 55 57 74 58 56 59 59 60 73 61 92 62 57 63 58 64
REMARK SMILES IDX 72 66 93 67 60 68 44 69 45 70 53 71 46 72 47 73 51 74 54 75
REMARK SMILES IDX 48 76 49 77 52 78 50 79 76 80 77 81 85 82 78 83 79 84 83 85
REMARK SMILES IDX 86 86 80 87 81 88 84 89 82 90 61 91 62 92 70 93 63 94 64 95
REMARK SMILES IDX 68 96 71 97 65 98 66 99 69 100 67 101
REMARK H PARENT 22 33 91 54 59 65
REMARK Flexibility Score: inf
ROOT
ATOM      1  C   UNL A   1      31.761  30.286  25.750  1.00  0.00     0.275 C 
ENDROOT
BRANCH   1   2
ATOM      2  C   UNL A   1      32.679  29.677  24.698  1.00  0.00     0.274 C 
BRANCH   2   3
ATOM      3  O   UNL A   1      32.500  28.248  24.675  1.00  0.00    -0.460 OA
BRANCH   3   4
ATOM      4  C   UNL A   1      31.556  27.743  23.826  1.00  0.00     0.342 C 
ATOM      5  O   UNL A   1      30.719  28.398  23.236  1.00  0.00    -0.249 OA
BRANCH   4   6
ATOM      6  C   UNL A   1      31.587  26.222  23.877  1.00  0.00     0.200 C 
ATOM      7  C   UNL A   1      30.388  26.740  26.954  1.00  0.00     0.075 C 
ATOM      8  C   UNL A   1      30.740  25.629  25.977  1.00  0.00     0.165 C 
ATOM      9  O   UNL A   1      29.667  25.450  25.049  1.00  0.00    -0.344 OA
ATOM     10  O   UNL A   1      31.954  25.996  25.283  1.00  0.00    -0.329 OA
ATOM     11  C   UNL A   1      30.959  24.320  26.750  1.00  0.00     0.075 C 
ATOM     12  C   UNL A   1      30.223  25.491  23.734  1.00  0.00     0.166 C 
ATOM     13  C   UNL A   1      30.554  24.015  23.241  1.00  0.00     0.040 C 
ATOM     14  C   UNL A   1      32.520  25.402  22.892  1.00  0.00     0.016 C 
ATOM     15  C   UNL A   1      32.080  23.997  23.398  1.00  0.00     0.008 C 
ATOM     16  C   UNL A   1      34.046  25.605  22.886  1.00  0.00     0.046 C 
ATOM     17  C   UNL A   1      32.103  25.652  21.417  1.00  0.00     0.015 C 
ATOM     18  C   UNL A   1      33.054  22.917  23.893  1.00  0.00     0.035 C 
ATOM     19  C   UNL A   1      34.840  24.731  23.837  1.00  0.00     0.154 C 
ATOM     20  C   UNL A   1      32.657  21.471  23.660  1.00  0.00     0.012 C 
ATOM     21  C   UNL A   1      34.540  23.206  23.633  1.00  0.00     0.152 C 
ATOM     22  C   UNL A   1      33.379  20.630  24.720  1.00  0.00     0.032 C 
ATOM     23  C   UNL A   1      35.454  22.255  24.522  1.00  0.00     0.044 C 
ATOM     24  F   UNL A   1      34.761  22.915  22.308  1.00  0.00    -0.239 F 
ATOM     25  C   UNL A   1      34.877  20.829  24.703  1.00  0.00    -0.053 C 
ATOM     26  C   UNL A   1      36.868  22.156  23.945  1.00  0.00    -0.009 C 
ATOM     27  C   UNL A   1      35.646  22.820  25.959  1.00  0.00     0.024 C 
ATOM     28  C   UNL A   1      35.686  19.782  24.953  1.00  0.00     0.052 C 
ATOM     29  C   UNL A   1      37.678  21.115  24.197  1.00  0.00     0.048 C 
ATOM     30  C   UNL A   1      37.157  19.947  24.943  1.00  0.00     0.178 C 
ATOM     31  O   UNL A   1      37.901  19.133  25.472  1.00  0.00    -0.290 OA
BRANCH  19  32
ATOM     32  O   UNL A   1      34.615  25.214  25.160  1.00  0.00    -0.390 OA
ATOM     33  H   UNL A   1      35.315  25.842  25.397  1.00  0.00     0.211 HD
ENDBRANCH  19  32
ENDBRANCH   4   6
ENDBRANCH   3   4
ENDBRANCH   2   3
ENDBRANCH   1   2
BRANCH   1  34
ATOM     34  O   UNL A   1      32.487  30.353  26.990  1.00  0.00    -0.458 OA
BRANCH  34  35
ATOM     35  C   UNL A   1      33.146  31.503  27.240  1.00  0.00     0.338 C 
ATOM     36  O   UNL A   1      32.702  32.641  27.138  1.00  0.00    -0.246 OA
BRANCH  35  37
ATOM     37  C   UNL A   1      34.496  31.213  27.774  1.00  0.00     0.060 A 
ATOM     38  C   UNL A   1      34.832  29.927  28.193  1.00  0.00     0.016 A 
ATOM     39  C   UNL A   1      35.389  32.256  28.012  1.00  0.00     0.016 A 
ATOM     40  C   UNL A   1      35.972  29.703  28.956  1.00  0.00     0.010 A 
ATOM     41  C   UNL A   1      36.611  31.999  28.648  1.00  0.00     0.010 A 
ATOM     42  C   UNL A   1      36.909  30.721  29.155  1.00  0.00    -0.014 A 
BRANCH  42  43
ATOM     43  C   UNL A   1      38.198  30.451  29.858  1.00  0.00     0.031 A 
ATOM     44  C   UNL A   1      39.240  29.559  29.234  1.00  0.00     0.074 A 
ATOM     45  C   UNL A   1      38.429  30.974  31.081  1.00  0.00     0.049 A 
ATOM     46  N   UNL A   1      40.261  28.959  29.795  1.00  0.00    -0.248 NA
ATOM     47  C   UNL A   1      39.107  29.290  27.794  1.00  0.00     0.031 C 
ATOM     48  C   UNL A   1      37.547  31.897  31.798  1.00  0.00     0.029 A 
ATOM     49  N   UNL A   1      39.480  30.791  31.950  1.00  0.00    -0.354 N 
ATOM     50  C   UNL A   1      40.840  28.181  28.801  1.00  0.00     0.074 A 
ATOM     51  C   UNL A   1      40.069  28.399  27.594  1.00  0.00     0.031 C 
ATOM     52  C   UNL A   1      38.103  32.230  32.968  1.00  0.00     0.029 A 
ATOM     53  C   UNL A   1      39.310  31.437  33.151  1.00  0.00     0.049 A 
ATOM     54  H   UNL A   1      40.274  30.252  31.733  1.00  0.00     0.167 HD
ATOM     55  C   UNL A   1      41.909  27.353  28.898  1.00  0.00     0.037 A 
ATOM     56  C   UNL A   1      39.987  31.345  34.310  1.00  0.00     0.037 A 
ATOM     57  C   UNL A   1      42.707  27.196  30.089  1.00  0.00     0.049 A 
ATOM     58  C   UNL A   1      41.140  30.394  34.408  1.00  0.00     0.074 A 
ATOM     59  C   UNL A   1      43.831  26.409  30.279  1.00  0.00     0.029 A 
ATOM     60  N   UNL A   1      42.476  27.853  31.289  1.00  0.00    -0.354 N 
ATOM     61  N   UNL A   1      41.633  29.599  33.490  1.00  0.00    -0.248 NA
ATOM     62  C   UNL A   1      41.812  30.305  35.709  1.00  0.00     0.031 C 
ATOM     63  C   UNL A   1      44.252  26.555  31.605  1.00  0.00     0.029 A 
ATOM     64  C   UNL A   1      43.425  27.475  32.228  1.00  0.00     0.049 A 
ATOM     65  H   UNL A   1      41.746  28.494  31.450  1.00  0.00     0.167 HD
ATOM     66  C   UNL A   1      42.678  28.921  34.098  1.00  0.00     0.074 A 
ATOM     67  C   UNL A   1      42.762  29.415  35.458  1.00  0.00     0.031 C 
ATOM     68  C   UNL A   1      43.492  27.972  33.578  1.00  0.00     0.037 A 
BRANCH  55  69
ATOM     69  C   UNL A   1      42.264  26.511  27.703  1.00  0.00     0.064 A 
ATOM     70  C   UNL A   1      43.274  26.875  26.802  1.00  0.00     0.173 A 
ATOM     71  C   UNL A   1      41.620  25.278  27.500  1.00  0.00     0.173 A 
ATOM     72  F   UNL A   1      43.915  28.045  26.943  1.00  0.00    -0.203 F 
ATOM     73  C   UNL A   1      43.613  26.047  25.734  1.00  0.00     0.198 A 
ATOM     74  C   UNL A   1      41.983  24.441  26.449  1.00  0.00     0.198 A 
ATOM     75  F   UNL A   1      40.651  24.876  28.337  1.00  0.00    -0.203 F 
ATOM     76  F   UNL A   1      44.557  26.433  24.863  1.00  0.00    -0.200 F 
ATOM     77  C   UNL A   1      42.975  24.828  25.562  1.00  0.00     0.200 A 
ATOM     78  F   UNL A   1      41.374  23.256  26.297  1.00  0.00    -0.200 F 
ATOM     79  F   UNL A   1      43.314  24.027  24.543  1.00  0.00    -0.200 F 
ENDBRANCH  55  69
BRANCH  56  80
ATOM     80  C   UNL A   1      39.531  32.133  35.486  1.00  0.00     0.064 A 
ATOM     81  C   UNL A   1      38.614  31.597  36.399  1.00  0.00     0.173 A 
ATOM     82  C   UNL A   1      40.037  33.417  35.744  1.00  0.00     0.173 A 
ATOM     83  F   UNL A   1      38.083  30.385  36.181  1.00  0.00    -0.203 F 
ATOM     84  C   UNL A   1      38.224  32.314  37.528  1.00  0.00     0.198 A 
ATOM     85  C   UNL A   1      39.674  34.118  36.891  1.00  0.00     0.198 A 
ATOM     86  F   UNL A   1      40.919  33.974  34.901  1.00  0.00    -0.203 F 
ATOM     87  F   UNL A   1      37.324  31.792  38.372  1.00  0.00    -0.200 F 
ATOM     88  C   UNL A   1      38.764  33.567  37.780  1.00  0.00     0.200 A 
ATOM     89  F   UNL A   1      40.216  35.316  37.141  1.00  0.00    -0.200 F 
ATOM     90  F   UNL A   1      38.407  34.244  38.879  1.00  0.00    -0.200 F 
ENDBRANCH  56  80
BRANCH  68  91
ATOM     91  C   UNL A   1      44.564  27.434  34.477  1.00  0.00     0.064 A 
ATOM     92  C   UNL A   1      45.807  28.072  34.603  1.00  0.00     0.173 A 
ATOM     93  C   UNL A   1      44.343  26.268  35.224  1.00  0.00     0.173 A 
ATOM     94  F   UNL A   1      46.073  29.179  33.893  1.00  0.00    -0.203 F 
ATOM     95  C   UNL A   1      46.801  27.544  35.422  1.00  0.00     0.198 A 
ATOM     96  C   UNL A   1      45.329  25.759  36.064  1.00  0.00     0.198 A 
ATOM     97  F   UNL A   1      43.171  25.622  35.140  1.00  0.00    -0.203 F 
ATOM     98  F   UNL A   1      48.001  28.138  35.486  1.00  0.00    -0.200 F 
ATOM     99  C   UNL A   1      46.559  26.391  36.156  1.00  0.00     0.200 A 
ATOM    100  F   UNL A   1      45.092  24.650  36.778  1.00  0.00    -0.200 F 
ATOM    101  F   UNL A   1      47.519  25.883  36.941  1.00  0.00    -0.200 F 
ENDBRANCH  68  91
ENDBRANCH  42  43
ENDBRANCH  35  37
ENDBRANCH  34  35
ENDBRANCH   1  34
TORSDOF 12
ENDMDL
MODEL 3
REMARK VINA RESULT:     -14.1      4.024      9.830
REMARK SMILES CC1(C)O[C@@H]2CC3[C@H]4CCC5=CC(=O)C=C[C@@]5(C)[C@]4(F)[C@H](O)C[C@]3(C)[C@]2(C(=O)OCCOC(=O)c2ccc(-c3c4nc(c(-c5c(F)c(F)c(F)c(F)c5F)c5ccc([nH]5)c(-c5c(F)c(F)c(F)c(F)c5F)c5nc(c(-c6c(F)c(F)c(F)c(F)c6F)c6ccc3[nH]6)C=C5)C=C4)cc2)O1
REMARK SMILES IDX 31 1 30 2 29 3 27 4 28 5 26 6 1 7 2 8 4 9 98 10 3 11 5 12
REMARK SMILES IDX 6 13 24 14 7 15 23 16 25 17 8 18 21 19 9 20 19 21 10 22
REMARK SMILES IDX 17 23 20 24 11 25 16 26 18 27 12 28 15 29 13 30 14 31 22 32
REMARK SMILES IDX 32 34 33 35 34 36 35 37 36 38 97 39 37 40 96 41 38 42 39 43
REMARK SMILES IDX 40 44 90 45 41 46 95 47 89 48 91 49 42 50 94 51 88 52 87 53
REMARK SMILES IDX 43 55 75 56 55 57 74 58 56 59 59 60 73 61 92 62 57 63 58 64
REMARK SMILES IDX 72 66 93 67 60 68 44 69 45 70 53 71 46 72 47 73 51 74 54 75
REMARK SMILES IDX 48 76 49 77 52 78 50 79 76 80 77 81 85 82 78 83 79 84 83 85
REMARK SMILES IDX 86 86 80 87 81 88 84 89 82 90 61 91 62 92 70 93 63 94 64 95
REMARK SMILES IDX 68 96 71 97 65 98 66 99 69 100 67 101
REMARK H PARENT 22 33 91 54 59 65
REMARK Flexibility Score: inf
ROOT
ATOM      1  C   UNL A   1      35.845  20.824  24.998  1.00  0.00     0.275 C 
ENDROOT
BRANCH   1   2
ATOM      2  C   UNL A   1      34.432  21.387  24.906  1.00  0.00     0.274 C 
BRANCH   2   3
ATOM      3  O   UNL A   1      34.429  22.532  24.034  1.00  0.00    -0.460 OA
BRANCH   3   4
ATOM      4  C   UNL A   1      33.216  23.043  23.665  1.00  0.00     0.342 C 
ATOM      5  O   UNL A   1      32.439  22.517  22.892  1.00  0.00    -0.249 OA
BRANCH   4   6
ATOM      6  C   UNL A   1      33.067  24.453  24.217  1.00  0.00     0.200 C 
ATOM      7  C   UNL A   1      31.265  22.877  26.551  1.00  0.00     0.075 C 
ATOM      8  C   UNL A   1      31.798  24.250  26.174  1.00  0.00     0.165 C 
ATOM      9  O   UNL A   1      33.161  24.365  26.593  1.00  0.00    -0.344 OA
ATOM     10  O   UNL A   1      31.694  24.407  24.741  1.00  0.00    -0.329 OA
ATOM     11  C   UNL A   1      30.965  25.332  26.877  1.00  0.00     0.075 C 
ATOM     12  C   UNL A   1      33.922  24.807  25.467  1.00  0.00     0.166 C 
ATOM     13  C   UNL A   1      34.051  26.392  25.490  1.00  0.00     0.040 C 
ATOM     14  C   UNL A   1      33.292  25.713  23.282  1.00  0.00     0.016 C 
ATOM     15  C   UNL A   1      33.048  26.776  24.393  1.00  0.00     0.008 C 
ATOM     16  C   UNL A   1      32.436  25.931  22.021  1.00  0.00     0.046 C 
ATOM     17  C   UNL A   1      34.752  25.741  22.753  1.00  0.00     0.015 C 
ATOM     18  C   UNL A   1      32.023  27.914  24.283  1.00  0.00     0.035 C 
ATOM     19  C   UNL A   1      31.153  26.716  22.212  1.00  0.00     0.154 C 
ATOM     20  C   UNL A   1      32.357  29.213  24.995  1.00  0.00     0.012 C 
ATOM     21  C   UNL A   1      31.404  28.107  22.892  1.00  0.00     0.152 C 
ATOM     22  C   UNL A   1      31.028  29.921  25.286  1.00  0.00     0.032 C 
ATOM     23  C   UNL A   1      30.098  29.010  22.985  1.00  0.00     0.044 C 
ATOM     24  F   UNL A   1      32.344  28.770  22.141  1.00  0.00    -0.239 F 
ATOM     25  C   UNL A   1      30.197  30.138  24.043  1.00  0.00    -0.053 C 
ATOM     26  C   UNL A   1      29.756  29.625  21.626  1.00  0.00    -0.009 C 
ATOM     27  C   UNL A   1      28.844  28.174  23.374  1.00  0.00     0.024 C 
ATOM     28  C   UNL A   1      29.469  31.265  23.923  1.00  0.00     0.052 C 
ATOM     29  C   UNL A   1      29.026  30.745  21.504  1.00  0.00     0.048 C 
ATOM     30  C   UNL A   1      28.646  31.505  22.716  1.00  0.00     0.178 C 
ATOM     31  O   UNL A   1      27.740  32.327  22.707  1.00  0.00    -0.290 OA
BRANCH  19  32
ATOM     32  O   UNL A   1      30.228  25.873  22.895  1.00  0.00    -0.390 OA
ATOM     33  H   UNL A   1      30.702  25.119  23.281  1.00  0.00     0.211 HD
ENDBRANCH  19  32
ENDBRANCH   4   6
ENDBRANCH   3   4
ENDBRANCH   2   3
ENDBRANCH   1   2
BRANCH   1  34
ATOM     34  O   UNL A   1      36.678  21.812  25.632  1.00  0.00    -0.458 OA
BRANCH  34  35
ATOM     35  C   UNL A   1      37.986  21.508  25.752  1.00  0.00     0.338 C 
ATOM     36  O   UNL A   1      38.547  20.501  25.337  1.00  0.00    -0.246 OA
BRANCH  35  37
ATOM     37  C   UNL A   1      38.717  22.631  26.382  1.00  0.00     0.060 A 
ATOM     38  C   UNL A   1      38.333  23.949  26.143  1.00  0.00     0.016 A 
ATOM     39  C   UNL A   1      39.892  22.387  27.090  1.00  0.00     0.016 A 
ATOM     40  C   UNL A   1      39.170  25.007  26.481  1.00  0.00     0.010 A 
ATOM     41  C   UNL A   1      40.658  23.461  27.564  1.00  0.00     0.010 A 
ATOM     42  C   UNL A   1      40.322  24.789  27.242  1.00  0.00    -0.014 A 
BRANCH  42  43
ATOM     43  C   UNL A   1      41.152  25.933  27.723  1.00  0.00     0.031 A 
ATOM     44  C   UNL A   1      40.553  27.001  28.600  1.00  0.00     0.074 A 
ATOM     45  C   UNL A   1      42.444  26.043  27.345  1.00  0.00     0.049 A 
ATOM     46  N   UNL A   1      40.997  28.205  28.860  1.00  0.00    -0.248 NA
ATOM     47  C   UNL A   1      39.275  26.681  29.256  1.00  0.00     0.031 C 
ATOM     48  C   UNL A   1      43.187  25.068  26.543  1.00  0.00     0.029 A 
ATOM     49  N   UNL A   1      43.363  27.039  27.575  1.00  0.00    -0.354 N 
ATOM     50  C   UNL A   1      40.020  28.813  29.639  1.00  0.00     0.074 A 
ATOM     51  C   UNL A   1      38.965  27.838  29.826  1.00  0.00     0.031 C 
ATOM     52  C   UNL A   1      44.447  25.489  26.383  1.00  0.00     0.029 A 
ATOM     53  C   UNL A   1      44.566  26.826  26.945  1.00  0.00     0.049 A 
ATOM     54  H   UNL A   1      43.178  27.827  28.136  1.00  0.00     0.167 HD
ATOM     55  C   UNL A   1      40.005  30.074  30.136  1.00  0.00     0.037 A 
ATOM     56  C   UNL A   1      45.622  27.637  26.754  1.00  0.00     0.037 A 
ATOM     57  C   UNL A   1      41.092  31.012  29.997  1.00  0.00     0.049 A 
ATOM     58  C   UNL A   1      45.569  29.040  27.276  1.00  0.00     0.074 A 
ATOM     59  C   UNL A   1      41.189  32.301  30.493  1.00  0.00     0.029 A 
ATOM     60  N   UNL A   1      42.278  30.756  29.324  1.00  0.00    -0.354 N 
ATOM     61  N   UNL A   1      44.609  29.636  27.939  1.00  0.00    -0.248 NA
ATOM     62  C   UNL A   1      46.731  29.891  26.998  1.00  0.00     0.031 C 
ATOM     63  C   UNL A   1      42.414  32.840  30.083  1.00  0.00     0.029 A 
ATOM     64  C   UNL A   1      43.105  31.869  29.378  1.00  0.00     0.049 A 
ATOM     65  H   UNL A   1      42.500  29.908  28.875  1.00  0.00     0.167 HD
ATOM     66  C   UNL A   1      45.054  30.929  28.167  1.00  0.00     0.074 A 
ATOM     67  C   UNL A   1      46.380  31.024  27.589  1.00  0.00     0.031 C 
ATOM     68  C   UNL A   1      44.419  31.948  28.794  1.00  0.00     0.037 A 
BRANCH  55  69
ATOM     69  C   UNL A   1      38.763  30.544  30.842  1.00  0.00     0.064 A 
ATOM     70  C   UNL A   1      38.636  30.512  32.238  1.00  0.00     0.173 A 
ATOM     71  C   UNL A   1      37.705  31.100  30.102  1.00  0.00     0.173 A 
ATOM     72  F   UNL A   1      39.611  29.982  32.993  1.00  0.00    -0.203 F 
ATOM     73  C   UNL A   1      37.492  31.001  32.865  1.00  0.00     0.198 A 
ATOM     74  C   UNL A   1      36.578  31.616  30.734  1.00  0.00     0.198 A 
ATOM     75  F   UNL A   1      37.778  31.163  28.764  1.00  0.00    -0.203 F 
ATOM     76  F   UNL A   1      37.377  30.926  34.198  1.00  0.00    -0.200 F 
ATOM     77  C   UNL A   1      36.468  31.561  32.114  1.00  0.00     0.200 A 
ATOM     78  F   UNL A   1      35.598  32.171  30.006  1.00  0.00    -0.200 F 
ATOM     79  F   UNL A   1      35.376  32.045  32.721  1.00  0.00    -0.200 F 
ENDBRANCH  55  69
BRANCH  56  80
ATOM     80  C   UNL A   1      46.784  27.148  25.965  1.00  0.00     0.064 A 
ATOM     81  C   UNL A   1      46.931  27.486  24.614  1.00  0.00     0.173 A 
ATOM     82  C   UNL A   1      47.792  26.371  26.558  1.00  0.00     0.173 A 
ATOM     83  F   UNL A   1      45.980  28.204  23.997  1.00  0.00    -0.203 F 
ATOM     84  C   UNL A   1      48.044  27.070  23.887  1.00  0.00     0.198 A 
ATOM     85  C   UNL A   1      48.921  25.986  25.841  1.00  0.00     0.198 A 
ATOM     86  F   UNL A   1      47.699  26.021  27.850  1.00  0.00    -0.203 F 
ATOM     87  F   UNL A   1      48.148  27.383  22.589  1.00  0.00    -0.200 F 
ATOM     88  C   UNL A   1      49.044  26.333  24.504  1.00  0.00     0.200 A 
ATOM     89  F   UNL A   1      49.894  25.295  26.447  1.00  0.00    -0.200 F 
ATOM     90  F   UNL A   1      50.126  25.955  23.810  1.00  0.00    -0.200 F 
ENDBRANCH  56  80
BRANCH  68  91
ATOM     91  C   UNL A   1      45.170  33.240  28.916  1.00  0.00     0.064 A 
ATOM     92  C   UNL A   1      46.037  33.489  29.989  1.00  0.00     0.173 A 
ATOM     93  C   UNL A   1      45.022  34.239  27.943  1.00  0.00     0.173 A 
ATOM     94  F   UNL A   1      46.195  32.572  30.957  1.00  0.00    -0.203 F 
ATOM     95  C   UNL A   1      46.705  34.705  30.101  1.00  0.00     0.198 A 
ATOM     96  C   UNL A   1      45.714  35.442  28.042  1.00  0.00     0.198 A 
ATOM     97  F   UNL A   1      44.206  34.049  26.895  1.00  0.00    -0.203 F 
ATOM     98  F   UNL A   1      47.486  34.944  31.163  1.00  0.00    -0.200 F 
ATOM     99  C   UNL A   1      46.548  35.678  29.124  1.00  0.00     0.200 A 
ATOM    100  F   UNL A   1      45.568  36.378  27.094  1.00  0.00    -0.200 F 
ATOM    101  F   UNL A   1      47.191  36.849  29.235  1.00  0.00    -0.200 F 
ENDBRANCH  68  91
ENDBRANCH  42  43
ENDBRANCH  35  37
ENDBRANCH  34  35
ENDBRANCH   1  34
TORSDOF 12
ENDMDL
