MODEL 1
REMARK VINA RESULT:     -11.0      0.000      0.000
REMARK SMILES C[NH2+][C@]1(C(=O)OCCOC(=O)c2ccc(-c3c4nc(c(-c5c(F)c(F)c(F)c(F)c5F)c5ccc([nH]5)c(-c5c(F)c(F)c(F)c(F)c5F)c5nc(c(-c6c(F)c(F)c(F)c(F)c6F)c6ccc3[nH]6)C=C5)C=C4)cc2)CCC[C@@H]([N@@H+](C)CC(C)C)C1
REMARK SMILES IDX 7 1 6 2 4 3 5 4 3 5 75 6 85 7 76 8 78 9 77 10 2 11 1 12
REMARK SMILES IDX 79 15 80 16 81 18 82 19 83 20 84 21 8 22 9 23 10 24 11 25
REMARK SMILES IDX 12 26 13 27 74 28 14 29 73 30 15 31 16 32 17 33 67 34 18 35
REMARK SMILES IDX 72 36 66 37 68 38 19 39 71 40 65 41 64 42 20 44 52 45 32 46
REMARK SMILES IDX 51 47 33 48 36 49 50 50 69 51 34 52 35 53 49 55 70 56 37 57
REMARK SMILES IDX 21 58 22 59 30 60 23 61 24 62 28 63 31 64 25 65 26 66 29 67
REMARK SMILES IDX 27 68 53 69 54 70 62 71 55 72 56 73 60 74 63 75 57 76 58 77
REMARK SMILES IDX 61 78 59 79 38 80 39 81 47 82 40 83 41 84 45 85 48 86 42 87
REMARK SMILES IDX 43 88 46 89 44 90
REMARK H PARENT 2 13 2 14 79 17 68 43 36 54
REMARK Flexibility Score: inf
ROOT
ATOM      1  C   UNL A   1      32.700  29.159  24.745  1.00  0.00     0.274 C 
ENDROOT
BRANCH   1   2
ATOM      2  O   UNL A   1      32.101  27.847  24.682  1.00  0.00    -0.457 OA
BRANCH   2   3
ATOM      3  C   UNL A   1      32.776  26.887  25.368  1.00  0.00     0.368 C 
ATOM      4  O   UNL A   1      33.689  27.127  26.158  1.00  0.00    -0.245 OA
BRANCH   3   5
ATOM      5  C   UNL A   1      32.343  25.434  25.031  1.00  0.00     0.199 C 
ATOM      6  C   UNL A   1      32.283  25.101  23.532  1.00  0.00     0.081 C 
ATOM      7  C   UNL A   1      33.486  24.597  25.645  1.00  0.00     0.146 C 
ATOM      8  C   UNL A   1      32.003  23.616  23.281  1.00  0.00     0.013 C 
ATOM      9  C   UNL A   1      33.363  23.086  25.436  1.00  0.00     0.190 C 
ATOM     10  C   UNL A   1      32.935  22.653  24.020  1.00  0.00     0.065 C 
BRANCH   5  11
ATOM     11  N   UNL A   1      31.078  25.102  25.747  1.00  0.00    -0.334 N 
ATOM     12  C   UNL A   1      29.897  25.804  25.263  1.00  0.00     0.331 C 
ATOM     13  H   UNL A   1      30.913  24.100  25.651  1.00  0.00     0.347 HD
ATOM     14  H   UNL A   1      31.210  25.399  26.714  1.00  0.00     0.347 HD
ENDBRANCH   5  11
BRANCH   9  15
ATOM     15  N   UNL A   1      34.545  22.385  25.973  1.00  0.00    -0.335 N 
ATOM     16  C   UNL A   1      34.307  21.720  27.248  1.00  0.00     0.332 C 
ATOM     17  H   UNL A   1      35.132  23.203  26.130  1.00  0.00     0.348 HD
BRANCH  15  18
ATOM     18  C   UNL A   1      35.444  21.636  25.083  1.00  0.00     0.265 C 
BRANCH  18  19
ATOM     19  C   UNL A   1      36.729  22.305  24.530  1.00  0.00     0.038 C 
ATOM     20  C   UNL A   1      36.569  22.917  23.134  1.00  0.00     0.013 C 
ATOM     21  C   UNL A   1      37.156  23.445  25.466  1.00  0.00     0.013 C 
ENDBRANCH  18  19
ENDBRANCH  15  18
ENDBRANCH   9  15
ENDBRANCH   3   5
ENDBRANCH   2   3
ENDBRANCH   1   2
BRANCH   1  22
ATOM     22  C   UNL A   1      31.863  30.136  25.570  1.00  0.00     0.275 C 
BRANCH  22  23
ATOM     23  O   UNL A   1      32.381  30.242  26.908  1.00  0.00    -0.458 OA
BRANCH  23  24
ATOM     24  C   UNL A   1      33.062  31.373  27.190  1.00  0.00     0.338 C 
ATOM     25  O   UNL A   1      32.646  32.521  27.113  1.00  0.00    -0.246 OA
BRANCH  24  26
ATOM     26  C   UNL A   1      34.429  31.065  27.660  1.00  0.00     0.060 A 
ATOM     27  C   UNL A   1      34.808  29.758  27.956  1.00  0.00     0.016 A 
ATOM     28  C   UNL A   1      35.293  32.116  27.963  1.00  0.00     0.016 A 
ATOM     29  C   UNL A   1      35.980  29.506  28.667  1.00  0.00     0.010 A 
ATOM     30  C   UNL A   1      36.526  31.852  28.570  1.00  0.00     0.010 A 
ATOM     31  C   UNL A   1      36.864  30.548  28.973  1.00  0.00    -0.014 A 
BRANCH  31  32
ATOM     32  C   UNL A   1      38.109  30.295  29.752  1.00  0.00     0.031 A 
ATOM     33  C   UNL A   1      39.216  29.469  29.152  1.00  0.00     0.074 A 
ATOM     34  C   UNL A   1      38.266  30.798  30.992  1.00  0.00     0.049 A 
ATOM     35  N   UNL A   1      40.241  28.902  29.737  1.00  0.00    -0.248 NA
ATOM     36  C   UNL A   1      39.150  29.230  27.701  1.00  0.00     0.031 C 
ATOM     37  C   UNL A   1      37.314  31.668  31.686  1.00  0.00     0.029 A 
ATOM     38  N   UNL A   1      39.293  30.650  31.894  1.00  0.00    -0.354 N 
ATOM     39  C   UNL A   1      40.888  28.174  28.747  1.00  0.00     0.074 A 
ATOM     40  C   UNL A   1      40.157  28.388  27.517  1.00  0.00     0.031 C 
ATOM     41  C   UNL A   1      37.820  32.013  32.879  1.00  0.00     0.029 A 
ATOM     42  C   UNL A   1      39.079  31.305  33.081  1.00  0.00     0.049 A 
ATOM     43  H   UNL A   1      40.104  30.124  31.705  1.00  0.00     0.167 HD
ATOM     44  C   UNL A   1      41.985  27.388  28.864  1.00  0.00     0.037 A 
ATOM     45  C   UNL A   1      39.785  31.297  34.226  1.00  0.00     0.037 A 
ATOM     46  C   UNL A   1      42.756  27.246  30.072  1.00  0.00     0.049 A 
ATOM     47  C   UNL A   1      41.007  30.432  34.331  1.00  0.00     0.074 A 
ATOM     48  C   UNL A   1      43.884  26.473  30.294  1.00  0.00     0.029 A 
ATOM     49  N   UNL A   1      42.497  27.923  31.254  1.00  0.00    -0.354 N 
ATOM     50  N   UNL A   1      41.543  29.649  33.428  1.00  0.00    -0.248 NA
ATOM     51  C   UNL A   1      41.703  30.422  35.625  1.00  0.00     0.031 C 
ATOM     52  C   UNL A   1      44.296  26.670  31.617  1.00  0.00     0.029 A 
ATOM     53  C   UNL A   1      43.444  27.589  32.208  1.00  0.00     0.049 A 
ATOM     54  H   UNL A   1      41.749  28.548  31.394  1.00  0.00     0.167 HD
ATOM     55  C   UNL A   1      42.631  29.047  34.042  1.00  0.00     0.074 A 
ATOM     56  C   UNL A   1      42.697  29.579  35.388  1.00  0.00     0.031 C 
ATOM     57  C   UNL A   1      43.489  28.126  33.542  1.00  0.00     0.037 A 
BRANCH  44  58
ATOM     58  C   UNL A   1      42.397  26.586  27.666  1.00  0.00     0.064 A 
ATOM     59  C   UNL A   1      43.408  27.012  26.794  1.00  0.00     0.173 A 
ATOM     60  C   UNL A   1      41.787  25.347  27.411  1.00  0.00     0.173 A 
ATOM     61  F   UNL A   1      44.009  28.195  26.986  1.00  0.00    -0.203 F 
ATOM     62  C   UNL A   1      43.783  26.235  25.700  1.00  0.00     0.198 A 
ATOM     63  C   UNL A   1      42.180  24.563  26.331  1.00  0.00     0.198 A 
ATOM     64  F   UNL A   1      40.815  24.894  28.217  1.00  0.00    -0.203 F 
ATOM     65  F   UNL A   1      44.726  26.678  24.858  1.00  0.00    -0.200 F 
ATOM     66  C   UNL A   1      43.173  25.009  25.473  1.00  0.00     0.200 A 
ATOM     67  F   UNL A   1      41.595  23.375  26.118  1.00  0.00    -0.200 F 
ATOM     68  F   UNL A   1      43.540  24.261  24.423  1.00  0.00    -0.200 F 
ENDBRANCH  44  58
BRANCH  45  69
ATOM     69  C   UNL A   1      39.313  32.100  35.383  1.00  0.00     0.064 A 
ATOM     70  C   UNL A   1      38.476  31.538  36.355  1.00  0.00     0.173 A 
ATOM     71  C   UNL A   1      39.714  33.434  35.557  1.00  0.00     0.173 A 
ATOM     72  F   UNL A   1      38.043  30.275  36.217  1.00  0.00    -0.203 F 
ATOM     73  C   UNL A   1      38.058  32.278  37.459  1.00  0.00     0.198 A 
ATOM     74  C   UNL A   1      39.319  34.164  36.674  1.00  0.00     0.198 A 
ATOM     75  F   UNL A   1      40.514  34.017  34.653  1.00  0.00    -0.203 F 
ATOM     76  F   UNL A   1      37.233  31.727  38.360  1.00  0.00    -0.200 F 
ATOM     77  C   UNL A   1      38.488  33.587  37.622  1.00  0.00     0.200 A 
ATOM     78  F   UNL A   1      39.749  35.422  36.836  1.00  0.00    -0.200 F 
ATOM     79  F   UNL A   1      38.100  34.293  38.692  1.00  0.00    -0.200 F 
ENDBRANCH  45  69
BRANCH  57  80
ATOM     80  C   UNL A   1      44.574  27.646  34.454  1.00  0.00     0.064 A 
ATOM     81  C   UNL A   1      45.802  28.317  34.539  1.00  0.00     0.173 A 
ATOM     82  C   UNL A   1      44.376  26.521  35.267  1.00  0.00     0.173 A 
ATOM     83  F   UNL A   1      46.041  29.387  33.766  1.00  0.00    -0.203 F 
ATOM     84  C   UNL A   1      46.803  27.866  35.393  1.00  0.00     0.198 A 
ATOM     85  C   UNL A   1      45.372  26.085  36.135  1.00  0.00     0.198 A 
ATOM     86  F   UNL A   1      43.215  25.850  35.221  1.00  0.00    -0.203 F 
ATOM     87  F   UNL A   1      47.984  28.499  35.433  1.00  0.00    -0.200 F 
ATOM     88  C   UNL A   1      46.586  26.753  36.194  1.00  0.00     0.200 A 
ATOM     89  F   UNL A   1      45.161  25.013  36.912  1.00  0.00    -0.200 F 
ATOM     90  F   UNL A   1      47.551  26.320  37.016  1.00  0.00    -0.200 F 
ENDBRANCH  57  80
ENDBRANCH  31  32
ENDBRANCH  24  26
ENDBRANCH  23  24
ENDBRANCH  22  23
ENDBRANCH   1  22
TORSDOF 15
ENDMDL
MODEL 2
REMARK VINA RESULT:     -11.0      0.339      1.662
REMARK SMILES C[NH2+][C@]1(C(=O)OCCOC(=O)c2ccc(-c3c4nc(c(-c5c(F)c(F)c(F)c(F)c5F)c5ccc([nH]5)c(-c5c(F)c(F)c(F)c(F)c5F)c5nc(c(-c6c(F)c(F)c(F)c(F)c6F)c6ccc3[nH]6)C=C5)C=C4)cc2)CCC[C@@H]([N@@H+](C)CC(C)C)C1
REMARK SMILES IDX 7 1 6 2 4 3 5 4 3 5 75 6 85 7 76 8 78 9 77 10 2 11 1 12
REMARK SMILES IDX 79 15 80 16 81 18 82 19 83 20 84 21 8 22 9 23 10 24 11 25
REMARK SMILES IDX 12 26 13 27 74 28 14 29 73 30 15 31 16 32 17 33 67 34 18 35
REMARK SMILES IDX 72 36 66 37 68 38 19 39 71 40 65 41 64 42 20 44 52 45 32 46
REMARK SMILES IDX 51 47 33 48 36 49 50 50 69 51 34 52 35 53 49 55 70 56 37 57
REMARK SMILES IDX 21 58 22 59 30 60 23 61 24 62 28 63 31 64 25 65 26 66 29 67
REMARK SMILES IDX 27 68 53 69 54 70 62 71 55 72 56 73 60 74 63 75 57 76 58 77
REMARK SMILES IDX 61 78 59 79 38 80 39 81 47 82 40 83 41 84 45 85 48 86 42 87
REMARK SMILES IDX 43 88 46 89 44 90
REMARK H PARENT 2 13 2 14 79 17 68 43 36 54
REMARK Flexibility Score: inf
ROOT
ATOM      1  C   UNL A   1      32.781  29.148  24.488  1.00  0.00     0.274 C 
ENDROOT
BRANCH   1   2
ATOM      2  O   UNL A   1      32.284  27.817  24.237  1.00  0.00    -0.457 OA
BRANCH   2   3
ATOM      3  C   UNL A   1      33.015  26.826  24.812  1.00  0.00     0.368 C 
ATOM      4  O   UNL A   1      34.015  27.027  25.501  1.00  0.00    -0.245 OA
BRANCH   3   5
ATOM      5  C   UNL A   1      32.524  25.390  24.479  1.00  0.00     0.199 C 
ATOM      6  C   UNL A   1      32.585  25.007  22.992  1.00  0.00     0.081 C 
ATOM      7  C   UNL A   1      33.548  24.508  25.225  1.00  0.00     0.146 C 
ATOM      8  C   UNL A   1      32.236  23.534  22.760  1.00  0.00     0.013 C 
ATOM      9  C   UNL A   1      33.349  23.001  25.051  1.00  0.00     0.190 C 
ATOM     10  C   UNL A   1      33.030  22.543  23.615  1.00  0.00     0.065 C 
BRANCH   5  11
ATOM     11  N   UNL A   1      31.179  25.162  25.080  1.00  0.00    -0.334 N 
ATOM     12  C   UNL A   1      31.023  25.657  26.440  1.00  0.00     0.331 C 
ATOM     13  H   UNL A   1      30.487  25.627  24.492  1.00  0.00     0.347 HD
ATOM     14  H   UNL A   1      31.055  24.151  25.127  1.00  0.00     0.347 HD
ENDBRANCH   5  11
BRANCH   9  15
ATOM     15  N   UNL A   1      34.428  22.249  25.721  1.00  0.00    -0.335 N 
ATOM     16  C   UNL A   1      33.988  21.509  26.897  1.00  0.00     0.332 C 
ATOM     17  H   UNL A   1      34.987  23.047  26.021  1.00  0.00     0.348 HD
BRANCH  15  18
ATOM     18  C   UNL A   1      35.452  21.544  24.937  1.00  0.00     0.265 C 
BRANCH  18  19
ATOM     19  C   UNL A   1      36.745  22.282  24.500  1.00  0.00     0.038 C 
ATOM     20  C   UNL A   1      36.653  22.952  23.126  1.00  0.00     0.013 C 
ATOM     21  C   UNL A   1      37.068  23.390  25.513  1.00  0.00     0.013 C 
ENDBRANCH  18  19
ENDBRANCH  15  18
ENDBRANCH   9  15
ENDBRANCH   3   5
ENDBRANCH   2   3
ENDBRANCH   1   2
BRANCH   1  22
ATOM     22  C   UNL A   1      31.840  29.958  25.379  1.00  0.00     0.275 C 
BRANCH  22  23
ATOM     23  O   UNL A   1      32.333  29.999  26.730  1.00  0.00    -0.458 OA
BRANCH  23  24
ATOM     24  C   UNL A   1      32.949  31.142  27.099  1.00  0.00     0.338 C 
ATOM     25  O   UNL A   1      32.474  32.270  27.092  1.00  0.00    -0.246 OA
BRANCH  24  26
ATOM     26  C   UNL A   1      34.325  30.875  27.570  1.00  0.00     0.060 A 
ATOM     27  C   UNL A   1      34.776  29.571  27.762  1.00  0.00     0.016 A 
ATOM     28  C   UNL A   1      35.120  31.944  27.980  1.00  0.00     0.016 A 
ATOM     29  C   UNL A   1      35.949  29.328  28.475  1.00  0.00     0.010 A 
ATOM     30  C   UNL A   1      36.355  31.701  28.589  1.00  0.00     0.010 A 
ATOM     31  C   UNL A   1      36.764  30.389  28.887  1.00  0.00    -0.014 A 
BRANCH  31  32
ATOM     32  C   UNL A   1      38.009  30.143  29.669  1.00  0.00     0.031 A 
ATOM     33  C   UNL A   1      39.116  29.310  29.077  1.00  0.00     0.074 A 
ATOM     34  C   UNL A   1      38.165  30.656  30.905  1.00  0.00     0.049 A 
ATOM     35  N   UNL A   1      40.140  28.749  29.667  1.00  0.00    -0.248 NA
ATOM     36  C   UNL A   1      39.049  29.059  27.628  1.00  0.00     0.031 C 
ATOM     37  C   UNL A   1      37.214  31.533  31.590  1.00  0.00     0.029 A 
ATOM     38  N   UNL A   1      39.192  30.516  31.807  1.00  0.00    -0.354 N 
ATOM     39  C   UNL A   1      40.787  28.011  28.684  1.00  0.00     0.074 A 
ATOM     40  C   UNL A   1      40.056  28.214  27.452  1.00  0.00     0.031 C 
ATOM     41  C   UNL A   1      37.719  31.888  32.780  1.00  0.00     0.029 A 
ATOM     42  C   UNL A   1      38.978  31.182  32.989  1.00  0.00     0.049 A 
ATOM     43  H   UNL A   1      40.003  29.988  31.624  1.00  0.00     0.167 HD
ATOM     44  C   UNL A   1      41.884  27.226  28.808  1.00  0.00     0.037 A 
ATOM     45  C   UNL A   1      39.684  31.184  34.134  1.00  0.00     0.037 A 
ATOM     46  C   UNL A   1      42.655  27.095  30.017  1.00  0.00     0.049 A 
ATOM     47  C   UNL A   1      40.906  30.319  34.247  1.00  0.00     0.074 A 
ATOM     48  C   UNL A   1      43.782  26.323  30.246  1.00  0.00     0.029 A 
ATOM     49  N   UNL A   1      42.395  27.782  31.193  1.00  0.00    -0.354 N 
ATOM     50  N   UNL A   1      41.441  29.527  33.351  1.00  0.00    -0.248 NA
ATOM     51  C   UNL A   1      41.601  30.320  35.542  1.00  0.00     0.031 C 
ATOM     52  C   UNL A   1      44.194  26.532  31.568  1.00  0.00     0.029 A 
ATOM     53  C   UNL A   1      43.342  27.456  32.150  1.00  0.00     0.049 A 
ATOM     54  H   UNL A   1      41.647  28.408  31.327  1.00  0.00     0.167 HD
ATOM     55  C   UNL A   1      42.529  28.930  33.971  1.00  0.00     0.074 A 
ATOM     56  C   UNL A   1      42.596  29.474  35.312  1.00  0.00     0.031 C 
ATOM     57  C   UNL A   1      43.387  28.005  33.479  1.00  0.00     0.037 A 
BRANCH  44  58
ATOM     58  C   UNL A   1      42.296  26.413  27.616  1.00  0.00     0.064 A 
ATOM     59  C   UNL A   1      43.290  26.842  26.728  1.00  0.00     0.173 A 
ATOM     60  C   UNL A   1      41.703  25.161  27.386  1.00  0.00     0.173 A 
ATOM     61  F   UNL A   1      43.874  28.038  26.896  1.00  0.00    -0.203 F 
ATOM     62  C   UNL A   1      43.666  26.055  25.641  1.00  0.00     0.198 A 
ATOM     63  C   UNL A   1      42.097  24.368  26.313  1.00  0.00     0.198 A 
ATOM     64  F   UNL A   1      40.747  24.704  28.210  1.00  0.00    -0.203 F 
ATOM     65  F   UNL A   1      44.593  26.501  24.782  1.00  0.00    -0.200 F 
ATOM     66  C   UNL A   1      43.073  24.816  25.439  1.00  0.00     0.200 A 
ATOM     67  F   UNL A   1      41.529  23.168  26.125  1.00  0.00    -0.200 F 
ATOM     68  F   UNL A   1      43.441  24.059  24.396  1.00  0.00    -0.200 F 
ENDBRANCH  44  58
BRANCH  45  69
ATOM     69  C   UNL A   1      39.212  31.997  35.284  1.00  0.00     0.064 A 
ATOM     70  C   UNL A   1      39.519  33.361  35.375  1.00  0.00     0.173 A 
ATOM     71  C   UNL A   1      38.420  31.435  36.297  1.00  0.00     0.173 A 
ATOM     72  F   UNL A   1      40.298  33.935  34.446  1.00  0.00    -0.203 F 
ATOM     73  C   UNL A   1      39.050  34.133  36.435  1.00  0.00     0.198 A 
ATOM     74  C   UNL A   1      37.928  32.214  37.341  1.00  0.00     0.198 A 
ATOM     75  F   UNL A   1      38.100  30.134  36.255  1.00  0.00    -0.203 F 
ATOM     76  F   UNL A   1      39.382  35.429  36.515  1.00  0.00    -0.200 F 
ATOM     77  C   UNL A   1      38.247  33.562  37.411  1.00  0.00     0.200 A 
ATOM     78  F   UNL A   1      37.140  31.662  38.272  1.00  0.00    -0.200 F 
ATOM     79  F   UNL A   1      37.782  34.308  38.421  1.00  0.00    -0.200 F 
ENDBRANCH  45  69
BRANCH  57  80
ATOM     80  C   UNL A   1      44.471  27.532  34.395  1.00  0.00     0.064 A 
ATOM     81  C   UNL A   1      44.271  26.446  35.260  1.00  0.00     0.173 A 
ATOM     82  C   UNL A   1      45.728  28.154  34.392  1.00  0.00     0.173 A 
ATOM     83  F   UNL A   1      43.079  25.833  35.308  1.00  0.00    -0.203 F 
ATOM     84  C   UNL A   1      45.288  26.011  36.104  1.00  0.00     0.198 A 
ATOM     85  C   UNL A   1      46.748  27.703  35.224  1.00  0.00     0.198 A 
ATOM     86  F   UNL A   1      45.965  29.194  33.580  1.00  0.00    -0.203 F 
ATOM     87  F   UNL A   1      45.066  24.994  36.950  1.00  0.00    -0.200 F 
ATOM     88  C   UNL A   1      46.527  26.636  36.082  1.00  0.00     0.200 A 
ATOM     89  F   UNL A   1      47.946  28.304  35.200  1.00  0.00    -0.200 F 
ATOM     90  F   UNL A   1      47.504  26.216  36.896  1.00  0.00    -0.200 F 
ENDBRANCH  57  80
ENDBRANCH  31  32
ENDBRANCH  24  26
ENDBRANCH  23  24
ENDBRANCH  22  23
ENDBRANCH   1  22
TORSDOF 15
ENDMDL
MODEL 3
REMARK VINA RESULT:     -10.5      4.380      9.785
REMARK SMILES C[NH2+][C@]1(C(=O)OCCOC(=O)c2ccc(-c3c4nc(c(-c5c(F)c(F)c(F)c(F)c5F)c5ccc([nH]5)c(-c5c(F)c(F)c(F)c(F)c5F)c5nc(c(-c6c(F)c(F)c(F)c(F)c6F)c6ccc3[nH]6)C=C5)C=C4)cc2)CCC[C@@H]([N@@H+](C)CC(C)C)C1
REMARK SMILES IDX 7 1 6 2 4 3 5 4 3 5 75 6 85 7 76 8 78 9 77 10 2 11 1 12
REMARK SMILES IDX 79 15 80 16 81 18 82 19 83 20 84 21 8 22 9 23 10 24 11 25
REMARK SMILES IDX 12 26 13 27 74 28 14 29 73 30 15 31 16 32 17 33 67 34 18 35
REMARK SMILES IDX 72 36 66 37 68 38 19 39 71 40 65 41 64 42 20 44 52 45 32 46
REMARK SMILES IDX 51 47 33 48 36 49 50 50 69 51 34 52 35 53 49 55 70 56 37 57
REMARK SMILES IDX 21 58 22 59 30 60 23 61 24 62 28 63 31 64 25 65 26 66 29 67
REMARK SMILES IDX 27 68 53 69 54 70 62 71 55 72 56 73 60 74 63 75 57 76 58 77
REMARK SMILES IDX 61 78 59 79 38 80 39 81 47 82 40 83 41 84 45 85 48 86 42 87
REMARK SMILES IDX 43 88 46 89 44 90
REMARK H PARENT 2 13 2 14 79 17 68 43 36 54
REMARK Flexibility Score: inf
ROOT
ATOM      1  C   UNL A   1      35.754  21.198  25.410  1.00  0.00     0.274 C 
ENDROOT
BRANCH   1   2
ATOM      2  O   UNL A   1      34.866  21.390  24.288  1.00  0.00    -0.457 OA
BRANCH   2   3
ATOM      3  C   UNL A   1      34.655  22.691  23.954  1.00  0.00     0.368 C 
ATOM      4  O   UNL A   1      35.427  23.351  23.260  1.00  0.00    -0.245 OA
BRANCH   3   5
ATOM      5  C   UNL A   1      33.373  23.313  24.575  1.00  0.00     0.199 C 
ATOM      6  C   UNL A   1      33.433  23.554  26.092  1.00  0.00     0.081 C 
ATOM      7  C   UNL A   1      33.311  24.694  23.891  1.00  0.00     0.146 C 
ATOM      8  C   UNL A   1      32.204  24.308  26.606  1.00  0.00     0.013 C 
ATOM      9  C   UNL A   1      32.149  25.584  24.338  1.00  0.00     0.190 C 
ATOM     10  C   UNL A   1      31.886  25.604  25.856  1.00  0.00     0.065 C 
BRANCH   5  11
ATOM     11  N   UNL A   1      32.176  22.526  24.162  1.00  0.00    -0.334 N 
ATOM     12  C   UNL A   1      32.088  22.248  22.736  1.00  0.00     0.331 C 
ATOM     13  H   UNL A   1      32.197  21.635  24.658  1.00  0.00     0.347 HD
ATOM     14  H   UNL A   1      31.365  23.098  24.393  1.00  0.00     0.347 HD
ENDBRANCH   5  11
BRANCH   9  15
ATOM     15  N   UNL A   1      32.229  26.912  23.700  1.00  0.00    -0.335 N 
ATOM     16  C   UNL A   1      33.585  27.436  23.598  1.00  0.00     0.332 C 
ATOM     17  H   UNL A   1      31.723  27.438  24.412  1.00  0.00     0.348 HD
BRANCH  15  18
ATOM     18  C   UNL A   1      31.387  27.242  22.541  1.00  0.00     0.265 C 
BRANCH  18  19
ATOM     19  C   UNL A   1      30.035  27.974  22.743  1.00  0.00     0.038 C 
ATOM     20  C   UNL A   1      29.001  27.176  23.545  1.00  0.00     0.013 C 
ATOM     21  C   UNL A   1      30.271  29.284  23.508  1.00  0.00     0.013 C 
ENDBRANCH  18  19
ENDBRANCH  15  18
ENDBRANCH   9  15
ENDBRANCH   3   5
ENDBRANCH   2   3
ENDBRANCH   1   2
BRANCH   1  22
ATOM     22  C   UNL A   1      37.062  20.522  25.002  1.00  0.00     0.275 C 
BRANCH  22  23
ATOM     23  O   UNL A   1      38.155  21.454  25.068  1.00  0.00    -0.458 OA
BRANCH  23  24
ATOM     24  C   UNL A   1      39.091  21.202  26.008  1.00  0.00     0.338 C 
ATOM     25  O   UNL A   1      39.525  20.106  26.338  1.00  0.00    -0.246 OA
BRANCH  24  26
ATOM     26  C   UNL A   1      39.590  22.456  26.610  1.00  0.00     0.060 A 
ATOM     27  C   UNL A   1      39.095  23.693  26.205  1.00  0.00     0.016 A 
ATOM     28  C   UNL A   1      40.682  22.404  27.475  1.00  0.00     0.016 A 
ATOM     29  C   UNL A   1      39.760  24.868  26.550  1.00  0.00     0.010 A 
ATOM     30  C   UNL A   1      41.277  23.590  27.919  1.00  0.00     0.010 A 
ATOM     31  C   UNL A   1      40.853  24.836  27.424  1.00  0.00    -0.014 A 
BRANCH  31  32
ATOM     32  C   UNL A   1      41.586  26.082  27.783  1.00  0.00     0.031 A 
ATOM     33  C   UNL A   1      40.916  27.130  28.633  1.00  0.00     0.074 A 
ATOM     34  C   UNL A   1      42.849  26.291  27.361  1.00  0.00     0.049 A 
ATOM     35  N   UNL A   1      41.251  28.380  28.830  1.00  0.00    -0.248 NA
ATOM     36  C   UNL A   1      39.691  26.722  29.340  1.00  0.00     0.031 C 
ATOM     37  C   UNL A   1      43.656  25.347  26.586  1.00  0.00     0.029 A 
ATOM     38  N   UNL A   1      43.680  27.373  27.529  1.00  0.00    -0.354 N 
ATOM     39  C   UNL A   1      40.239  28.926  29.608  1.00  0.00     0.074 A 
ATOM     40  C   UNL A   1      39.287  27.868  29.869  1.00  0.00     0.031 C 
ATOM     41  C   UNL A   1      44.875  25.868  26.387  1.00  0.00     0.029 A 
ATOM     42  C   UNL A   1      44.903  27.223  26.925  1.00  0.00     0.049 A 
ATOM     43  H   UNL A   1      43.422  28.177  28.035  1.00  0.00     0.167 HD
ATOM     44  C   UNL A   1      40.113  30.201  30.049  1.00  0.00     0.037 A 
ATOM     45  C   UNL A   1      45.917  28.095  26.770  1.00  0.00     0.037 A 
ATOM     46  C   UNL A   1      41.104  31.227  29.856  1.00  0.00     0.049 A 
ATOM     47  C   UNL A   1      45.765  29.498  27.279  1.00  0.00     0.074 A 
ATOM     48  C   UNL A   1      41.071  32.551  30.262  1.00  0.00     0.029 A 
ATOM     49  N   UNL A   1      42.325  31.032  29.228  1.00  0.00    -0.354 N 
ATOM     50  N   UNL A   1      44.751  30.043  27.906  1.00  0.00    -0.248 NA
ATOM     51  C   UNL A   1      46.883  30.418  27.029  1.00  0.00     0.031 C 
ATOM     52  C   UNL A   1      42.267  33.161  29.865  1.00  0.00     0.029 A 
ATOM     53  C   UNL A   1      43.057  32.208  29.240  1.00  0.00     0.049 A 
ATOM     54  H   UNL A   1      42.628  30.182  28.833  1.00  0.00     0.167 HD
ATOM     55  C   UNL A   1      45.102  31.368  28.118  1.00  0.00     0.074 A 
ATOM     56  C   UNL A   1      46.437  31.538  27.580  1.00  0.00     0.031 C 
ATOM     57  C   UNL A   1      44.379  32.358  28.694  1.00  0.00     0.037 A 
BRANCH  44  58
ATOM     58  C   UNL A   1      38.840  30.572  30.750  1.00  0.00     0.064 A 
ATOM     59  C   UNL A   1      38.711  30.513  32.143  1.00  0.00     0.173 A 
ATOM     60  C   UNL A   1      37.741  31.031  30.006  1.00  0.00     0.173 A 
ATOM     61  F   UNL A   1      39.727  30.065  32.896  1.00  0.00    -0.203 F 
ATOM     62  C   UNL A   1      37.522  30.884  32.768  1.00  0.00     0.198 A 
ATOM     63  C   UNL A   1      36.563  31.423  30.635  1.00  0.00     0.198 A 
ATOM     64  F   UNL A   1      37.815  31.109  28.669  1.00  0.00    -0.203 F 
ATOM     65  F   UNL A   1      37.407  30.784  34.099  1.00  0.00    -0.200 F 
ATOM     66  C   UNL A   1      36.452  31.344  32.014  1.00  0.00     0.200 A 
ATOM     67  F   UNL A   1      35.534  31.875  29.905  1.00  0.00    -0.200 F 
ATOM     68  F   UNL A   1      35.311  31.706  32.617  1.00  0.00    -0.200 F 
ENDBRANCH  44  58
BRANCH  45  69
ATOM     69  C   UNL A   1      47.144  27.670  26.049  1.00  0.00     0.064 A 
ATOM     70  C   UNL A   1      48.256  27.180  26.748  1.00  0.00     0.173 A 
ATOM     71  C   UNL A   1      47.219  27.714  24.648  1.00  0.00     0.173 A 
ATOM     72  F   UNL A   1      48.241  27.146  28.089  1.00  0.00    -0.203 F 
ATOM     73  C   UNL A   1      49.396  26.750  26.073  1.00  0.00     0.198 A 
ATOM     74  C   UNL A   1      48.348  27.257  23.973  1.00  0.00     0.198 A 
ATOM     75  F   UNL A   1      46.181  28.175  23.936  1.00  0.00    -0.203 F 
ATOM     76  F   UNL A   1      50.457  26.313  26.764  1.00  0.00    -0.200 F 
ATOM     77  C   UNL A   1      49.437  26.779  24.686  1.00  0.00     0.200 A 
ATOM     78  F   UNL A   1      48.377  27.273  22.634  1.00  0.00    -0.200 F 
ATOM     79  F   UNL A   1      50.526  26.350  24.036  1.00  0.00    -0.200 F 
ENDBRANCH  45  69
BRANCH  57  80
ATOM     80  C   UNL A   1      45.023  33.706  28.777  1.00  0.00     0.064 A 
ATOM     81  C   UNL A   1      44.836  34.664  27.770  1.00  0.00     0.173 A 
ATOM     82  C   UNL A   1      45.812  34.052  29.883  1.00  0.00     0.173 A 
ATOM     83  F   UNL A   1      44.102  34.369  26.687  1.00  0.00    -0.203 F 
ATOM     84  C   UNL A   1      45.434  35.917  27.859  1.00  0.00     0.198 A 
ATOM     85  C   UNL A   1      46.393  35.313  29.977  1.00  0.00     0.198 A 
ATOM     86  F   UNL A   1      46.016  33.169  30.871  1.00  0.00    -0.203 F 
ATOM     87  F   UNL A   1      45.274  36.807  26.869  1.00  0.00    -0.200 F 
ATOM     88  C   UNL A   1      46.208  36.242  28.964  1.00  0.00     0.200 A 
ATOM     89  F   UNL A   1      47.137  35.630  31.046  1.00  0.00    -0.200 F 
ATOM     90  F   UNL A   1      46.784  37.449  29.047  1.00  0.00    -0.200 F 
ENDBRANCH  57  80
ENDBRANCH  31  32
ENDBRANCH  24  26
ENDBRANCH  23  24
ENDBRANCH  22  23
ENDBRANCH   1  22
TORSDOF 15
ENDMDL
