MODEL 1
REMARK VINA RESULT:     -10.1      0.000      0.000
REMARK SMILES O=C(OCCOC(=O)c1cc(-c2cccc(Cl)c2)ccc1Cl)c1ccc(-c2c3nc(c(-c4c(F)c(F)c(F)c(F)c4F)c4ccc([nH]4)c(-c4c(F)c(F)c(F)c(F)c4F)c4nc(c(-c5c(F)c(F)c(F)c(F)c5F)c5ccc2[nH]5)C=C4)C=C3)cc1
REMARK SMILES IDX 4 1 3 2 2 3 1 4 23 5 24 6 85 7 25 8 84 9 26 10 27 11 28 12
REMARK SMILES IDX 78 13 29 14 83 15 77 16 79 17 30 18 82 19 76 20 75 21 31 23
REMARK SMILES IDX 63 24 43 25 62 26 44 27 47 28 61 29 80 30 45 31 46 32 60 34
REMARK SMILES IDX 81 35 48 36 32 37 33 38 41 39 34 40 35 41 39 42 42 43 36 44
REMARK SMILES IDX 37 45 40 46 38 47 64 48 65 49 73 50 66 51 67 52 71 53 74 54
REMARK SMILES IDX 68 55 69 56 72 57 70 58 49 59 50 60 58 61 51 62 52 63 56 64
REMARK SMILES IDX 59 65 53 66 54 67 57 68 55 69 5 70 6 71 7 72 8 73 9 74 10 75
REMARK SMILES IDX 21 76 11 77 20 78 22 79 19 80 12 81 13 82 18 83 14 84 16 85
REMARK SMILES IDX 15 86 17 87
REMARK H PARENT 79 22 47 33
REMARK Flexibility Score: inf
ROOT
ATOM      1  C   UNL A   1      41.087  21.206  26.718  1.00  0.00     0.275 C 
ENDROOT
BRANCH   1   2
ATOM      2  O   UNL A   1      40.030  21.719  25.891  1.00  0.00    -0.458 OA
BRANCH   2   3
ATOM      3  C   UNL A   1      39.136  22.698  26.148  1.00  0.00     0.338 C 
ATOM      4  O   UNL A   1      37.968  22.537  25.796  1.00  0.00    -0.246 OA
BRANCH   3   5
ATOM      5  C   UNL A   1      39.499  24.035  26.715  1.00  0.00     0.060 A 
ATOM      6  C   UNL A   1      40.209  25.059  26.082  1.00  0.00     0.016 A 
ATOM      7  C   UNL A   1      39.110  24.242  28.047  1.00  0.00     0.016 A 
ATOM      8  C   UNL A   1      40.477  26.269  26.742  1.00  0.00     0.010 A 
ATOM      9  C   UNL A   1      39.349  25.452  28.703  1.00  0.00     0.010 A 
ATOM     10  C   UNL A   1      40.058  26.470  28.059  1.00  0.00    -0.014 A 
BRANCH  10  11
ATOM     11  C   UNL A   1      40.511  27.643  28.842  1.00  0.00     0.031 A 
ATOM     12  C   UNL A   1      41.873  27.589  29.475  1.00  0.00     0.074 A 
ATOM     13  C   UNL A   1      39.721  28.717  29.021  1.00  0.00     0.049 A 
ATOM     14  N   UNL A   1      42.464  28.458  30.252  1.00  0.00    -0.248 NA
ATOM     15  C   UNL A   1      42.674  26.387  29.195  1.00  0.00     0.031 C 
ATOM     16  C   UNL A   1      38.400  28.898  28.431  1.00  0.00     0.029 A 
ATOM     17  N   UNL A   1      39.905  29.847  29.777  1.00  0.00    -0.354 N 
ATOM     18  C   UNL A   1      43.711  27.916  30.533  1.00  0.00     0.074 A 
ATOM     19  C   UNL A   1      43.756  26.607  29.922  1.00  0.00     0.031 C 
ATOM     20  C   UNL A   1      37.859  30.036  28.897  1.00  0.00     0.029 A 
ATOM     21  C   UNL A   1      38.806  30.669  29.811  1.00  0.00     0.049 A 
ATOM     22  H   UNL A   1      40.745  30.048  30.250  1.00  0.00     0.167 HD
ATOM     23  C   UNL A   1      44.745  28.477  31.201  1.00  0.00     0.037 A 
ATOM     24  C   UNL A   1      38.591  31.801  30.509  1.00  0.00     0.037 A 
ATOM     25  C   UNL A   1      44.689  29.776  31.811  1.00  0.00     0.049 A 
ATOM     26  C   UNL A   1      39.717  32.371  31.331  1.00  0.00     0.074 A 
ATOM     27  C   UNL A   1      45.681  30.460  32.489  1.00  0.00     0.029 A 
ATOM     28  N   UNL A   1      43.561  30.585  31.822  1.00  0.00    -0.354 N 
ATOM     29  N   UNL A   1      40.921  31.888  31.526  1.00  0.00    -0.248 NA
ATOM     30  C   UNL A   1      39.473  33.659  31.994  1.00  0.00     0.031 C 
ATOM     31  C   UNL A   1      45.140  31.668  32.943  1.00  0.00     0.029 A 
ATOM     32  C   UNL A   1      43.825  31.756  32.510  1.00  0.00     0.049 A 
ATOM     33  H   UNL A   1      42.700  30.359  31.402  1.00  0.00     0.167 HD
ATOM     34  C   UNL A   1      41.596  32.837  32.281  1.00  0.00     0.074 A 
ATOM     35  C   UNL A   1      40.660  33.916  32.527  1.00  0.00     0.031 C 
ATOM     36  C   UNL A   1      42.881  32.827  32.714  1.00  0.00     0.037 A 
BRANCH  23  37
ATOM     37  C   UNL A   1      46.007  27.671  31.283  1.00  0.00     0.064 A 
ATOM     38  C   UNL A   1      47.041  27.840  30.346  1.00  0.00     0.173 A 
ATOM     39  C   UNL A   1      46.166  26.685  32.265  1.00  0.00     0.173 A 
ATOM     40  F   UNL A   1      46.927  28.758  29.374  1.00  0.00    -0.203 F 
ATOM     41  C   UNL A   1      48.160  27.014  30.357  1.00  0.00     0.198 A 
ATOM     42  C   UNL A   1      47.302  25.880  32.292  1.00  0.00     0.198 A 
ATOM     43  F   UNL A   1      45.211  26.485  33.185  1.00  0.00    -0.203 F 
ATOM     44  F   UNL A   1      49.094  27.141  29.405  1.00  0.00    -0.200 F 
ATOM     45  C   UNL A   1      48.291  26.035  31.331  1.00  0.00     0.200 A 
ATOM     46  F   UNL A   1      47.432  24.938  33.236  1.00  0.00    -0.200 F 
ATOM     47  F   UNL A   1      49.361  25.229  31.330  1.00  0.00    -0.200 F 
ENDBRANCH  23  37
BRANCH  24  48
ATOM     48  C   UNL A   1      37.272  32.481  30.431  1.00  0.00     0.064 A 
ATOM     49  C   UNL A   1      36.268  32.234  31.376  1.00  0.00     0.173 A 
ATOM     50  C   UNL A   1      36.992  33.398  29.407  1.00  0.00     0.173 A 
ATOM     51  F   UNL A   1      36.482  31.353  32.363  1.00  0.00    -0.203 F 
ATOM     52  C   UNL A   1      35.027  32.865  31.292  1.00  0.00     0.198 A 
ATOM     53  C   UNL A   1      35.759  34.043  29.334  1.00  0.00     0.198 A 
ATOM     54  F   UNL A   1      37.922  33.677  28.482  1.00  0.00    -0.203 F 
ATOM     55  F   UNL A   1      34.074  32.584  32.190  1.00  0.00    -0.200 F 
ATOM     56  C   UNL A   1      34.774  33.771  30.273  1.00  0.00     0.200 A 
ATOM     57  F   UNL A   1      35.523  34.926  28.354  1.00  0.00    -0.200 F 
ATOM     58  F   UNL A   1      33.583  34.379  30.193  1.00  0.00    -0.200 F 
ENDBRANCH  24  48
BRANCH  36  59
ATOM     59  C   UNL A   1      43.377  34.044  33.433  1.00  0.00     0.064 A 
ATOM     60  C   UNL A   1      43.312  34.158  34.827  1.00  0.00     0.173 A 
ATOM     61  C   UNL A   1      43.990  35.081  32.712  1.00  0.00     0.173 A 
ATOM     62  F   UNL A   1      42.720  33.199  35.556  1.00  0.00    -0.203 F 
ATOM     63  C   UNL A   1      43.836  35.273  35.476  1.00  0.00     0.198 A 
ATOM     64  C   UNL A   1      44.536  36.181  33.366  1.00  0.00     0.198 A 
ATOM     65  F   UNL A   1      44.080  35.014  31.375  1.00  0.00    -0.203 F 
ATOM     66  F   UNL A   1      43.735  35.378  36.809  1.00  0.00    -0.200 F 
ATOM     67  C   UNL A   1      44.455  36.277  34.747  1.00  0.00     0.200 A 
ATOM     68  F   UNL A   1      45.145  37.143  32.661  1.00  0.00    -0.200 F 
ATOM     69  F   UNL A   1      44.973  37.341  35.376  1.00  0.00    -0.200 F 
ENDBRANCH  36  59
ENDBRANCH  10  11
ENDBRANCH   3   5
ENDBRANCH   2   3
ENDBRANCH   1   2
BRANCH   1  70
ATOM     70  C   UNL A   1      42.481  21.355  26.113  1.00  0.00     0.275 C 
BRANCH  70  71
ATOM     71  O   UNL A   1      42.892  22.724  25.987  1.00  0.00    -0.458 OA
BRANCH  71  72
ATOM     72  C   UNL A   1      43.562  23.041  24.850  1.00  0.00     0.339 C 
ATOM     73  O   UNL A   1      43.409  22.542  23.747  1.00  0.00    -0.246 OA
BRANCH  72  74
ATOM     74  C   UNL A   1      44.459  24.187  25.093  1.00  0.00     0.079 A 
ATOM     75  C   UNL A   1      43.873  25.397  25.521  1.00  0.00     0.026 A 
ATOM     76  C   UNL A   1      45.838  24.111  24.890  1.00  0.00     0.055 A 
ATOM     77  C   UNL A   1      44.666  26.523  25.808  1.00  0.00    -0.017 A 
ATOM     78  C   UNL A   1      46.631  25.227  25.161  1.00  0.00     0.022 A 
ATOM     79  Cl  UNL A   1      46.630  22.706  24.270  1.00  0.00    -0.083 Cl
ATOM     80  C   UNL A   1      46.055  26.408  25.633  1.00  0.00     0.010 A 
BRANCH  77  81
ATOM     81  C   UNL A   1      44.094  27.798  26.276  1.00  0.00    -0.017 A 
ATOM     82  C   UNL A   1      42.809  28.193  25.866  1.00  0.00     0.009 A 
ATOM     83  C   UNL A   1      44.821  28.686  27.082  1.00  0.00     0.029 A 
ATOM     84  C   UNL A   1      42.281  29.436  26.233  1.00  0.00     0.002 A 
ATOM     85  C   UNL A   1      44.299  29.931  27.438  1.00  0.00     0.041 A 
ATOM     86  C   UNL A   1      43.030  30.310  27.016  1.00  0.00     0.020 A 
ATOM     87  Cl  UNL A   1      45.246  31.011  28.385  1.00  0.00    -0.084 Cl
ENDBRANCH  77  81
ENDBRANCH  72  74
ENDBRANCH  71  72
ENDBRANCH  70  71
ENDBRANCH   1  70
TORSDOF 12
ENDMDL
MODEL 2
REMARK VINA RESULT:     -10.0      5.445     10.549
REMARK SMILES O=C(OCCOC(=O)c1cc(-c2cccc(Cl)c2)ccc1Cl)c1ccc(-c2c3nc(c(-c4c(F)c(F)c(F)c(F)c4F)c4ccc([nH]4)c(-c4c(F)c(F)c(F)c(F)c4F)c4nc(c(-c5c(F)c(F)c(F)c(F)c5F)c5ccc2[nH]5)C=C4)C=C3)cc1
REMARK SMILES IDX 4 1 3 2 2 3 1 4 23 5 24 6 85 7 25 8 84 9 26 10 27 11 28 12
REMARK SMILES IDX 78 13 29 14 83 15 77 16 79 17 30 18 82 19 76 20 75 21 31 23
REMARK SMILES IDX 63 24 43 25 62 26 44 27 47 28 61 29 80 30 45 31 46 32 60 34
REMARK SMILES IDX 81 35 48 36 32 37 33 38 41 39 34 40 35 41 39 42 42 43 36 44
REMARK SMILES IDX 37 45 40 46 38 47 64 48 65 49 73 50 66 51 67 52 71 53 74 54
REMARK SMILES IDX 68 55 69 56 72 57 70 58 49 59 50 60 58 61 51 62 52 63 56 64
REMARK SMILES IDX 59 65 53 66 54 67 57 68 55 69 5 70 6 71 7 72 8 73 9 74 10 75
REMARK SMILES IDX 21 76 11 77 20 78 22 79 19 80 12 81 13 82 18 83 14 84 16 85
REMARK SMILES IDX 15 86 17 87
REMARK H PARENT 79 22 47 33
REMARK Flexibility Score: inf
ROOT
ATOM      1  C   UNL A   1      32.952  36.281  29.749  1.00  0.00     0.275 C 
ENDROOT
BRANCH   1   2
ATOM      2  O   UNL A   1      32.352  36.376  31.050  1.00  0.00    -0.458 OA
BRANCH   2   3
ATOM      3  C   UNL A   1      32.500  35.572  32.125  1.00  0.00     0.338 C 
ATOM      4  O   UNL A   1      31.527  35.372  32.851  1.00  0.00    -0.246 OA
BRANCH   3   5
ATOM      5  C   UNL A   1      33.813  35.011  32.577  1.00  0.00     0.060 A 
ATOM      6  C   UNL A   1      35.070  35.612  32.476  1.00  0.00     0.016 A 
ATOM      7  C   UNL A   1      33.753  33.718  33.119  1.00  0.00     0.016 A 
ATOM      8  C   UNL A   1      36.223  34.964  32.946  1.00  0.00     0.010 A 
ATOM      9  C   UNL A   1      34.890  33.076  33.613  1.00  0.00     0.010 A 
ATOM     10  C   UNL A   1      36.142  33.688  33.509  1.00  0.00    -0.014 A 
BRANCH  10  11
ATOM     11  C   UNL A   1      37.360  32.901  33.814  1.00  0.00     0.031 A 
ATOM     12  C   UNL A   1      38.149  33.263  35.041  1.00  0.00     0.074 A 
ATOM     13  C   UNL A   1      37.779  31.912  33.005  1.00  0.00     0.049 A 
ATOM     14  N   UNL A   1      39.274  32.766  35.484  1.00  0.00    -0.248 NA
ATOM     15  C   UNL A   1      37.592  34.336  35.880  1.00  0.00     0.031 C 
ATOM     16  C   UNL A   1      37.082  31.449  31.811  1.00  0.00     0.029 A 
ATOM     17  N   UNL A   1      38.911  31.138  33.050  1.00  0.00    -0.354 N 
ATOM     18  C   UNL A   1      39.545  33.451  36.660  1.00  0.00     0.074 A 
ATOM     19  C   UNL A   1      38.520  34.458  36.814  1.00  0.00     0.031 C 
ATOM     20  C   UNL A   1      37.830  30.518  31.195  1.00  0.00     0.029 A 
ATOM     21  C   UNL A   1      39.055  30.312  31.962  1.00  0.00     0.049 A 
ATOM     22  H   UNL A   1      39.558  31.172  33.792  1.00  0.00     0.167 HD
ATOM     23  C   UNL A   1      40.533  33.230  37.557  1.00  0.00     0.037 A 
ATOM     24  C   UNL A   1      40.068  29.491  31.625  1.00  0.00     0.037 A 
ATOM     25  C   UNL A   1      41.552  32.232  37.393  1.00  0.00     0.049 A 
ATOM     26  C   UNL A   1      41.216  29.322  32.586  1.00  0.00     0.074 A 
ATOM     27  C   UNL A   1      42.586  31.899  38.247  1.00  0.00     0.029 A 
ATOM     28  N   UNL A   1      41.665  31.409  36.281  1.00  0.00    -0.354 N 
ATOM     29  N   UNL A   1      41.422  29.919  33.736  1.00  0.00    -0.248 NA
ATOM     30  C   UNL A   1      42.248  28.340  32.226  1.00  0.00     0.031 C 
ATOM     31  C   UNL A   1      43.347  30.897  37.633  1.00  0.00     0.029 A 
ATOM     32  C   UNL A   1      42.762  30.578  36.417  1.00  0.00     0.049 A 
ATOM     33  H   UNL A   1      41.054  31.416  35.509  1.00  0.00     0.167 HD
ATOM     34  C   UNL A   1      42.570  29.346  34.264  1.00  0.00     0.074 A 
ATOM     35  C   UNL A   1      43.028  28.366  33.299  1.00  0.00     0.031 C 
ATOM     36  C   UNL A   1      43.177  29.591  35.451  1.00  0.00     0.037 A 
BRANCH  23  37
ATOM     37  C   UNL A   1      40.528  34.093  38.785  1.00  0.00     0.064 A 
ATOM     38  C   UNL A   1      41.256  35.294  38.833  1.00  0.00     0.173 A 
ATOM     39  C   UNL A   1      39.844  33.694  39.940  1.00  0.00     0.173 A 
ATOM     40  F   UNL A   1      41.945  35.709  37.759  1.00  0.00    -0.203 F 
ATOM     41  C   UNL A   1      41.342  36.033  40.008  1.00  0.00     0.198 A 
ATOM     42  C   UNL A   1      39.906  34.453  41.106  1.00  0.00     0.198 A 
ATOM     43  F   UNL A   1      39.132  32.557  39.947  1.00  0.00    -0.203 F 
ATOM     44  F   UNL A   1      42.107  37.133  40.052  1.00  0.00    -0.200 F 
ATOM     45  C   UNL A   1      40.667  35.613  41.144  1.00  0.00     0.200 A 
ATOM     46  F   UNL A   1      39.249  34.050  42.202  1.00  0.00    -0.200 F 
ATOM     47  F   UNL A   1      40.764  36.316  42.280  1.00  0.00    -0.200 F 
ENDBRANCH  23  37
BRANCH  24  48
ATOM     48  C   UNL A   1      40.021  28.744  30.341  1.00  0.00     0.064 A 
ATOM     49  C   UNL A   1      39.444  27.470  30.261  1.00  0.00     0.173 A 
ATOM     50  C   UNL A   1      40.550  29.295  29.165  1.00  0.00     0.173 A 
ATOM     51  F   UNL A   1      38.940  26.894  31.362  1.00  0.00    -0.203 F 
ATOM     52  C   UNL A   1      39.413  26.767  29.057  1.00  0.00     0.198 A 
ATOM     53  C   UNL A   1      40.502  28.601  27.958  1.00  0.00     0.198 A 
ATOM     54  F   UNL A   1      41.107  30.516  29.186  1.00  0.00    -0.203 F 
ATOM     55  F   UNL A   1      38.886  25.537  29.016  1.00  0.00    -0.200 F 
ATOM     56  C   UNL A   1      39.939  27.334  27.905  1.00  0.00     0.200 A 
ATOM     57  F   UNL A   1      41.002  29.157  26.845  1.00  0.00    -0.200 F 
ATOM     58  F   UNL A   1      39.907  26.660  26.748  1.00  0.00    -0.200 F 
ENDBRANCH  24  48
BRANCH  36  59
ATOM     59  C   UNL A   1      44.359  28.742  35.810  1.00  0.00     0.064 A 
ATOM     60  C   UNL A   1      45.668  29.121  35.486  1.00  0.00     0.173 A 
ATOM     61  C   UNL A   1      44.176  27.566  36.553  1.00  0.00     0.173 A 
ATOM     62  F   UNL A   1      45.890  30.228  34.762  1.00  0.00    -0.203 F 
ATOM     63  C   UNL A   1      46.753  28.345  35.884  1.00  0.00     0.198 A 
ATOM     64  C   UNL A   1      45.264  26.807  36.973  1.00  0.00     0.198 A 
ATOM     65  F   UNL A   1      42.940  27.165  36.892  1.00  0.00    -0.203 F 
ATOM     66  F   UNL A   1      47.996  28.707  35.536  1.00  0.00    -0.200 F 
ATOM     67  C   UNL A   1      46.551  27.196  36.635  1.00  0.00     0.200 A 
ATOM     68  F   UNL A   1      45.067  25.705  37.708  1.00  0.00    -0.200 F 
ATOM     69  F   UNL A   1      47.599  26.460  37.031  1.00  0.00    -0.200 F 
ENDBRANCH  36  59
ENDBRANCH  10  11
ENDBRANCH   3   5
ENDBRANCH   2   3
ENDBRANCH   1   2
BRANCH   1  70
ATOM     70  C   UNL A   1      32.755  34.928  29.067  1.00  0.00     0.275 C 
BRANCH  70  71
ATOM     71  O   UNL A   1      33.911  34.083  29.160  1.00  0.00    -0.458 OA
BRANCH  71  72
ATOM     72  C   UNL A   1      34.609  33.902  28.009  1.00  0.00     0.339 C 
ATOM     73  O   UNL A   1      34.882  34.753  27.179  1.00  0.00    -0.246 OA
BRANCH  72  74
ATOM     74  C   UNL A   1      35.113  32.518  27.935  1.00  0.00     0.079 A 
ATOM     75  C   UNL A   1      34.194  31.503  27.595  1.00  0.00     0.026 A 
ATOM     76  C   UNL A   1      36.442  32.192  28.214  1.00  0.00     0.055 A 
ATOM     77  C   UNL A   1      34.607  30.165  27.470  1.00  0.00    -0.017 A 
ATOM     78  C   UNL A   1      36.859  30.865  28.103  1.00  0.00     0.022 A 
ATOM     79  Cl  UNL A   1      37.613  33.351  28.737  1.00  0.00    -0.083 Cl
ATOM     80  C   UNL A   1      35.958  29.870  27.717  1.00  0.00     0.010 A 
BRANCH  77  81
ATOM     81  C   UNL A   1      33.681  29.080  27.098  1.00  0.00    -0.017 A 
ATOM     82  C   UNL A   1      32.335  29.127  27.495  1.00  0.00     0.009 A 
ATOM     83  C   UNL A   1      34.114  27.942  26.401  1.00  0.00     0.029 A 
ATOM     84  C   UNL A   1      31.460  28.070  27.222  1.00  0.00     0.002 A 
ATOM     85  C   UNL A   1      33.244  26.882  26.139  1.00  0.00     0.041 A 
ATOM     86  C   UNL A   1      31.917  26.941  26.547  1.00  0.00     0.020 A 
ATOM     87  Cl  UNL A   1      33.829  25.482  25.326  1.00  0.00    -0.084 Cl
ENDBRANCH  77  81
ENDBRANCH  72  74
ENDBRANCH  71  72
ENDBRANCH  70  71
ENDBRANCH   1  70
TORSDOF 12
ENDMDL
MODEL 3
REMARK VINA RESULT:     -10.0      4.056      6.903
REMARK SMILES O=C(OCCOC(=O)c1cc(-c2cccc(Cl)c2)ccc1Cl)c1ccc(-c2c3nc(c(-c4c(F)c(F)c(F)c(F)c4F)c4ccc([nH]4)c(-c4c(F)c(F)c(F)c(F)c4F)c4nc(c(-c5c(F)c(F)c(F)c(F)c5F)c5ccc2[nH]5)C=C4)C=C3)cc1
REMARK SMILES IDX 4 1 3 2 2 3 1 4 23 5 24 6 85 7 25 8 84 9 26 10 27 11 28 12
REMARK SMILES IDX 78 13 29 14 83 15 77 16 79 17 30 18 82 19 76 20 75 21 31 23
REMARK SMILES IDX 63 24 43 25 62 26 44 27 47 28 61 29 80 30 45 31 46 32 60 34
REMARK SMILES IDX 81 35 48 36 32 37 33 38 41 39 34 40 35 41 39 42 42 43 36 44
REMARK SMILES IDX 37 45 40 46 38 47 64 48 65 49 73 50 66 51 67 52 71 53 74 54
REMARK SMILES IDX 68 55 69 56 72 57 70 58 49 59 50 60 58 61 51 62 52 63 56 64
REMARK SMILES IDX 59 65 53 66 54 67 57 68 55 69 5 70 6 71 7 72 8 73 9 74 10 75
REMARK SMILES IDX 21 76 11 77 20 78 22 79 19 80 12 81 13 82 18 83 14 84 16 85
REMARK SMILES IDX 15 86 17 87
REMARK H PARENT 79 22 47 33
REMARK Flexibility Score: inf
ROOT
ATOM      1  C   UNL A   1      43.460  18.545  25.842  1.00  0.00     0.275 C 
ENDROOT
BRANCH   1   2
ATOM      2  O   UNL A   1      44.259  18.624  24.651  1.00  0.00    -0.458 OA
BRANCH   2   3
ATOM      3  C   UNL A   1      45.212  19.520  24.313  1.00  0.00     0.338 C 
ATOM      4  O   UNL A   1      46.259  19.107  23.815  1.00  0.00    -0.246 OA
BRANCH   3   5
ATOM      5  C   UNL A   1      45.138  20.981  24.632  1.00  0.00     0.060 A 
ATOM      6  C   UNL A   1      44.842  22.025  23.753  1.00  0.00     0.016 A 
ATOM      7  C   UNL A   1      45.449  21.316  25.959  1.00  0.00     0.016 A 
ATOM      8  C   UNL A   1      44.807  23.357  24.197  1.00  0.00     0.010 A 
ATOM      9  C   UNL A   1      45.392  22.635  26.416  1.00  0.00     0.010 A 
ATOM     10  C   UNL A   1      45.091  23.671  25.528  1.00  0.00    -0.014 A 
BRANCH  10  11
ATOM     11  C   UNL A   1      45.270  25.075  25.968  1.00  0.00     0.031 A 
ATOM     12  C   UNL A   1      46.661  25.644  25.974  1.00  0.00     0.074 A 
ATOM     13  C   UNL A   1      44.231  25.818  26.387  1.00  0.00     0.049 A 
ATOM     14  N   UNL A   1      47.079  26.817  26.371  1.00  0.00    -0.248 NA
ATOM     15  C   UNL A   1      47.726  24.764  25.466  1.00  0.00     0.031 C 
ATOM     16  C   UNL A   1      42.837  25.390  26.394  1.00  0.00     0.029 A 
ATOM     17  N   UNL A   1      44.192  27.083  26.918  1.00  0.00    -0.354 N 
ATOM     18  C   UNL A   1      48.447  26.820  26.140  1.00  0.00     0.074 A 
ATOM     19  C   UNL A   1      48.804  25.506  25.657  1.00  0.00     0.031 C 
ATOM     20  C   UNL A   1      42.083  26.344  26.966  1.00  0.00     0.029 A 
ATOM     21  C   UNL A   1      42.945  27.458  27.353  1.00  0.00     0.049 A 
ATOM     22  H   UNL A   1      44.984  27.666  26.981  1.00  0.00     0.167 HD
ATOM     23  C   UNL A   1      49.323  27.843  26.273  1.00  0.00     0.037 A 
ATOM     24  C   UNL A   1      42.550  28.572  27.999  1.00  0.00     0.037 A 
ATOM     25  C   UNL A   1      48.963  29.144  26.761  1.00  0.00     0.049 A 
ATOM     26  C   UNL A   1      43.554  29.670  28.232  1.00  0.00     0.074 A 
ATOM     27  C   UNL A   1      49.757  30.265  26.913  1.00  0.00     0.029 A 
ATOM     28  N   UNL A   1      47.688  29.492  27.188  1.00  0.00    -0.354 N 
ATOM     29  N   UNL A   1      44.833  29.693  27.938  1.00  0.00    -0.248 NA
ATOM     30  C   UNL A   1      43.058  30.908  28.847  1.00  0.00     0.031 C 
ATOM     31  C   UNL A   1      48.969  31.281  27.468  1.00  0.00     0.029 A 
ATOM     32  C   UNL A   1      47.676  30.805  27.621  1.00  0.00     0.049 A 
ATOM     33  H   UNL A   1      46.909  28.891  27.184  1.00  0.00     0.167 HD
ATOM     34  C   UNL A   1      45.280  30.962  28.274  1.00  0.00     0.074 A 
ATOM     35  C   UNL A   1      44.140  31.675  28.815  1.00  0.00     0.031 C 
ATOM     36  C   UNL A   1      46.517  31.498  28.128  1.00  0.00     0.037 A 
BRANCH  23  37
ATOM     37  C   UNL A   1      50.743  27.566  25.874  1.00  0.00     0.064 A 
ATOM     38  C   UNL A   1      51.156  27.675  24.535  1.00  0.00     0.173 A 
ATOM     39  C   UNL A   1      51.683  27.135  26.818  1.00  0.00     0.173 A 
ATOM     40  F   UNL A   1      50.287  28.066  23.590  1.00  0.00    -0.203 F 
ATOM     41  C   UNL A   1      52.442  27.310  24.151  1.00  0.00     0.198 A 
ATOM     42  C   UNL A   1      52.979  26.799  26.434  1.00  0.00     0.198 A 
ATOM     43  F   UNL A   1      51.341  27.016  28.109  1.00  0.00    -0.203 F 
ATOM     44  F   UNL A   1      52.789  27.346  22.856  1.00  0.00    -0.200 F 
ATOM     45  C   UNL A   1      53.354  26.873  25.100  1.00  0.00     0.200 A 
ATOM     46  F   UNL A   1      53.862  26.382  27.352  1.00  0.00    -0.200 F 
ATOM     47  F   UNL A   1      54.586  26.505  24.726  1.00  0.00    -0.200 F 
ENDBRANCH  23  37
BRANCH  24  48
ATOM     48  C   UNL A   1      41.136  28.715  28.434  1.00  0.00     0.064 A 
ATOM     49  C   UNL A   1      40.137  29.121  27.541  1.00  0.00     0.173 A 
ATOM     50  C   UNL A   1      40.756  28.443  29.757  1.00  0.00     0.173 A 
ATOM     51  F   UNL A   1      40.453  29.409  26.270  1.00  0.00    -0.203 F 
ATOM     52  C   UNL A   1      38.814  29.266  27.956  1.00  0.00     0.198 A 
ATOM     53  C   UNL A   1      39.431  28.570  30.167  1.00  0.00     0.198 A 
ATOM     54  F   UNL A   1      41.673  28.043  30.651  1.00  0.00    -0.203 F 
ATOM     55  F   UNL A   1      37.885  29.688  27.088  1.00  0.00    -0.200 F 
ATOM     56  C   UNL A   1      38.461  28.987  29.268  1.00  0.00     0.200 A 
ATOM     57  F   UNL A   1      39.092  28.288  31.433  1.00  0.00    -0.200 F 
ATOM     58  F   UNL A   1      37.189  29.124  29.666  1.00  0.00    -0.200 F 
ENDBRANCH  24  48
BRANCH  36  59
ATOM     59  C   UNL A   1      46.691  32.942  28.489  1.00  0.00     0.064 A 
ATOM     60  C   UNL A   1      47.098  33.341  29.768  1.00  0.00     0.173 A 
ATOM     61  C   UNL A   1      46.513  33.933  27.511  1.00  0.00     0.173 A 
ATOM     62  F   UNL A   1      47.263  32.430  30.739  1.00  0.00    -0.203 F 
ATOM     63  C   UNL A   1      47.311  34.686  30.060  1.00  0.00     0.198 A 
ATOM     64  C   UNL A   1      46.754  35.273  27.799  1.00  0.00     0.198 A 
ATOM     65  F   UNL A   1      46.129  33.598  26.270  1.00  0.00    -0.203 F 
ATOM     66  F   UNL A   1      47.669  35.051  31.299  1.00  0.00    -0.200 F 
ATOM     67  C   UNL A   1      47.149  35.648  29.074  1.00  0.00     0.200 A 
ATOM     68  F   UNL A   1      46.609  36.199  26.842  1.00  0.00    -0.200 F 
ATOM     69  F   UNL A   1      47.371  36.940  29.354  1.00  0.00    -0.200 F 
ENDBRANCH  36  59
ENDBRANCH  10  11
ENDBRANCH   3   5
ENDBRANCH   2   3
ENDBRANCH   1   2
BRANCH   1  70
ATOM     70  C   UNL A   1      41.992  18.908  25.635  1.00  0.00     0.275 C 
BRANCH  70  71
ATOM     71  O   UNL A   1      41.696  20.266  25.990  1.00  0.00    -0.458 OA
BRANCH  71  72
ATOM     72  C   UNL A   1      40.962  20.439  27.118  1.00  0.00     0.339 C 
ATOM     73  O   UNL A   1      40.924  19.699  28.087  1.00  0.00    -0.246 OA
BRANCH  72  74
ATOM     74  C   UNL A   1      40.270  21.742  27.077  1.00  0.00     0.079 A 
ATOM     75  C   UNL A   1      39.144  21.858  26.234  1.00  0.00     0.026 A 
ATOM     76  C   UNL A   1      40.708  22.844  27.814  1.00  0.00     0.055 A 
ATOM     77  C   UNL A   1      38.410  23.056  26.168  1.00  0.00    -0.017 A 
ATOM     78  C   UNL A   1      39.993  24.040  27.746  1.00  0.00     0.022 A 
ATOM     79  Cl  UNL A   1      42.133  22.825  28.790  1.00  0.00    -0.083 Cl
ATOM     80  C   UNL A   1      38.849  24.137  26.950  1.00  0.00     0.010 A 
BRANCH  77  81
ATOM     81  C   UNL A   1      37.218  23.210  25.316  1.00  0.00    -0.017 A 
ATOM     82  C   UNL A   1      37.130  22.535  24.087  1.00  0.00     0.009 A 
ATOM     83  C   UNL A   1      36.169  24.076  25.658  1.00  0.00     0.029 A 
ATOM     84  C   UNL A   1      36.045  22.731  23.227  1.00  0.00     0.002 A 
ATOM     85  C   UNL A   1      35.090  24.281  24.794  1.00  0.00     0.041 A 
ATOM     86  C   UNL A   1      35.025  23.611  23.578  1.00  0.00     0.020 A 
ATOM     87  Cl  UNL A   1      33.850  25.390  25.231  1.00  0.00    -0.084 Cl
ENDBRANCH  77  81
ENDBRANCH  72  74
ENDBRANCH  71  72
ENDBRANCH  70  71
ENDBRANCH   1  70
TORSDOF 12
ENDMDL
