MODEL 1
REMARK VINA RESULT:     -12.1      0.000      0.000
REMARK SMILES O=C(OCCOC(=O)c1cccc(/C=N/NC(=S)Nc2ccccc2)c1O)c1ccc(-c2c3nc(c(-c4c(F)c(F)c(F)c(F)c4F)c4ccc([nH]4)c(-c4c(F)c(F)c(F)c(F)c4F)c4nc(c(-c5c(F)c(F)c(F)c(F)c5F)c5ccc2[nH]5)C=C4)C=C3)cc1
REMARK SMILES IDX 6 1 5 2 4 3 3 4 2 5 1 6 28 7 29 8 90 9 30 10 89 11 31 12
REMARK SMILES IDX 32 13 33 14 83 15 34 16 88 17 82 18 84 19 35 20 87 21 81 22
REMARK SMILES IDX 80 23 36 25 68 26 48 27 67 28 49 29 52 30 66 31 85 32 50 33
REMARK SMILES IDX 51 34 65 36 86 37 53 38 37 39 38 40 46 41 39 42 40 43 44 44
REMARK SMILES IDX 47 45 41 46 42 47 45 48 43 49 69 50 70 51 78 52 71 53 72 54
REMARK SMILES IDX 76 55 79 56 73 57 74 58 77 59 75 60 54 61 55 62 63 63 56 64
REMARK SMILES IDX 57 65 61 66 64 67 58 68 59 69 62 70 60 71 7 72 8 73 9 74
REMARK SMILES IDX 10 75 26 76 11 77 13 78 12 79 27 80 14 82 15 83 16 84 17 86
REMARK SMILES IDX 18 87 19 88 20 90 21 91 25 92 22 93 24 94 23 95
REMARK H PARENT 84 24 52 35 27 81 16 85 19 89
REMARK Flexibility Score: inf
ROOT
ATOM      1  O   UNL A   1      41.342  21.209  26.122  1.00  0.00    -0.458 OA
ENDROOT
BRANCH   1   2
ATOM      2  C   UNL A   1      42.504  20.456  25.752  1.00  0.00     0.275 C 
BRANCH   2   3
ATOM      3  C   UNL A   1      43.691  21.339  25.375  1.00  0.00     0.275 C 
BRANCH   3   4
ATOM      4  O   UNL A   1      43.345  22.541  24.670  1.00  0.00    -0.458 OA
BRANCH   4   5
ATOM      5  C   UNL A   1      43.846  23.791  24.793  1.00  0.00     0.338 C 
ATOM      6  O   UNL A   1      44.920  24.050  24.251  1.00  0.00    -0.246 OA
BRANCH   5   7
ATOM      7  C   UNL A   1      43.222  24.873  25.621  1.00  0.00     0.060 A 
ATOM      8  C   UNL A   1      43.491  26.243  25.544  1.00  0.00     0.016 A 
ATOM      9  C   UNL A   1      42.332  24.438  26.618  1.00  0.00     0.016 A 
ATOM     10  C   UNL A   1      42.864  27.156  26.411  1.00  0.00     0.010 A 
ATOM     11  C   UNL A   1      41.688  25.341  27.466  1.00  0.00     0.010 A 
ATOM     12  C   UNL A   1      41.978  26.709  27.392  1.00  0.00    -0.014 A 
BRANCH  12  13
ATOM     13  C   UNL A   1      41.553  27.581  28.515  1.00  0.00     0.031 A 
ATOM     14  C   UNL A   1      42.261  27.423  29.825  1.00  0.00     0.074 A 
ATOM     15  C   UNL A   1      40.571  28.491  28.410  1.00  0.00     0.049 A 
ATOM     16  N   UNL A   1      42.030  28.019  30.964  1.00  0.00    -0.248 NA
ATOM     17  C   UNL A   1      43.400  26.492  29.845  1.00  0.00     0.031 C 
ATOM     18  C   UNL A   1      39.906  28.859  27.174  1.00  0.00     0.029 A 
ATOM     19  N   UNL A   1      39.941  29.254  29.365  1.00  0.00    -0.354 N 
ATOM     20  C   UNL A   1      43.020  27.568  31.820  1.00  0.00     0.074 A 
ATOM     21  C   UNL A   1      43.791  26.576  31.103  1.00  0.00     0.031 C 
ATOM     22  C   UNL A   1      38.900  29.702  27.458  1.00  0.00     0.029 A 
ATOM     23  C   UNL A   1      38.853  29.941  28.883  1.00  0.00     0.049 A 
ATOM     24  H   UNL A   1      40.241  29.303  30.302  1.00  0.00     0.167 HD
ATOM     25  C   UNL A   1      43.294  27.985  33.075  1.00  0.00     0.037 A 
ATOM     26  C   UNL A   1      37.915  30.671  29.510  1.00  0.00     0.037 A 
ATOM     27  C   UNL A   1      42.509  28.950  33.791  1.00  0.00     0.049 A 
ATOM     28  C   UNL A   1      38.103  30.951  30.968  1.00  0.00     0.074 A 
ATOM     29  C   UNL A   1      42.695  29.441  35.070  1.00  0.00     0.029 A 
ATOM     30  N   UNL A   1      41.364  29.556  33.291  1.00  0.00    -0.354 N 
ATOM     31  N   UNL A   1      39.056  30.541  31.764  1.00  0.00    -0.248 NA
ATOM     32  C   UNL A   1      37.130  31.857  31.594  1.00  0.00     0.031 C 
ATOM     33  C   UNL A   1      41.628  30.299  35.366  1.00  0.00     0.029 A 
ATOM     34  C   UNL A   1      40.810  30.386  34.251  1.00  0.00     0.049 A 
ATOM     35  H   UNL A   1      41.000  29.416  32.387  1.00  0.00     0.167 HD
ATOM     36  C   UNL A   1      38.849  31.197  32.963  1.00  0.00     0.074 A 
ATOM     37  C   UNL A   1      37.653  32.002  32.802  1.00  0.00     0.031 C 
ATOM     38  C   UNL A   1      39.615  31.172  34.078  1.00  0.00     0.037 A 
BRANCH  25  39
ATOM     39  C   UNL A   1      44.481  27.349  33.731  1.00  0.00     0.064 A 
ATOM     40  C   UNL A   1      45.771  27.890  33.595  1.00  0.00     0.173 A 
ATOM     41  C   UNL A   1      44.343  26.136  34.416  1.00  0.00     0.173 A 
ATOM     42  F   UNL A   1      45.957  29.033  32.916  1.00  0.00    -0.203 F 
ATOM     43  C   UNL A   1      46.885  27.207  34.073  1.00  0.00     0.198 A 
ATOM     44  C   UNL A   1      45.455  25.472  34.920  1.00  0.00     0.198 A 
ATOM     45  F   UNL A   1      43.132  25.577  34.561  1.00  0.00    -0.203 F 
ATOM     46  F   UNL A   1      48.113  27.694  33.851  1.00  0.00    -0.200 F 
ATOM     47  C   UNL A   1      46.726  25.999  34.734  1.00  0.00     0.200 A 
ATOM     48  F   UNL A   1      45.302  24.304  35.558  1.00  0.00    -0.200 F 
ATOM     49  F   UNL A   1      47.800  25.327  35.171  1.00  0.00    -0.200 F 
ENDBRANCH  25  39
BRANCH  26  50
ATOM     50  C   UNL A   1      36.739  31.244  28.806  1.00  0.00     0.064 A 
ATOM     51  C   UNL A   1      36.644  32.615  28.540  1.00  0.00     0.173 A 
ATOM     52  C   UNL A   1      35.622  30.445  28.524  1.00  0.00     0.173 A 
ATOM     53  F   UNL A   1      37.680  33.421  28.813  1.00  0.00    -0.203 F 
ATOM     54  C   UNL A   1      35.465  33.172  28.045  1.00  0.00     0.198 A 
ATOM     55  C   UNL A   1      34.439  31.004  28.043  1.00  0.00     0.198 A 
ATOM     56  F   UNL A   1      35.668  29.124  28.756  1.00  0.00    -0.203 F 
ATOM     57  F   UNL A   1      35.390  34.492  27.831  1.00  0.00    -0.200 F 
ATOM     58  C   UNL A   1      34.359  32.369  27.809  1.00  0.00     0.200 A 
ATOM     59  F   UNL A   1      33.372  30.222  27.826  1.00  0.00    -0.200 F 
ATOM     60  F   UNL A   1      33.215  32.913  27.371  1.00  0.00    -0.200 F 
ENDBRANCH  26  50
BRANCH  38  61
ATOM     61  C   UNL A   1      39.214  32.092  35.185  1.00  0.00     0.064 A 
ATOM     62  C   UNL A   1      39.580  33.444  35.193  1.00  0.00     0.173 A 
ATOM     63  C   UNL A   1      38.441  31.605  36.248  1.00  0.00     0.173 A 
ATOM     64  F   UNL A   1      40.348  33.942  34.213  1.00  0.00    -0.203 F 
ATOM     65  C   UNL A   1      39.200  34.275  36.242  1.00  0.00     0.198 A 
ATOM     66  C   UNL A   1      38.036  32.446  37.278  1.00  0.00     0.198 A 
ATOM     67  F   UNL A   1      38.078  30.314  36.287  1.00  0.00    -0.203 F 
ATOM     68  F   UNL A   1      39.604  35.552  36.261  1.00  0.00    -0.200 F 
ATOM     69  C   UNL A   1      38.421  33.777  37.277  1.00  0.00     0.200 A 
ATOM     70  F   UNL A   1      37.279  31.965  38.275  1.00  0.00    -0.200 F 
ATOM     71  F   UNL A   1      38.049  34.582  38.282  1.00  0.00    -0.200 F 
ENDBRANCH  38  61
ENDBRANCH  12  13
ENDBRANCH   5   7
ENDBRANCH   4   5
ENDBRANCH   3   4
ENDBRANCH   2   3
ENDBRANCH   1   2
BRANCH   1  72
ATOM     72  C   UNL A   1      40.136  20.600  25.966  1.00  0.00     0.342 C 
ATOM     73  O   UNL A   1      39.915  19.433  25.697  1.00  0.00    -0.246 OA
BRANCH  72  74
ATOM     74  C   UNL A   1      39.097  21.632  26.116  1.00  0.00     0.102 A 
ATOM     75  C   UNL A   1      39.379  22.827  26.775  1.00  0.00     0.019 A 
ATOM     76  C   UNL A   1      37.886  21.465  25.451  1.00  0.00     0.138 A 
ATOM     77  C   UNL A   1      38.479  23.895  26.666  1.00  0.00     0.002 A 
ATOM     78  C   UNL A   1      37.055  22.560  25.235  1.00  0.00     0.037 A 
ATOM     79  C   UNL A   1      37.344  23.782  25.849  1.00  0.00     0.014 A 
BRANCH  76  80
ATOM     80  O   UNL A   1      37.474  20.229  25.057  1.00  0.00    -0.506 OA
ATOM     81  H   UNL A   1      37.742  19.471  25.537  1.00  0.00     0.293 HD
ENDBRANCH  76  80
BRANCH  78  82
ATOM     82  C   UNL A   1      36.089  22.502  24.124  1.00  0.00     0.145 C 
ATOM     83  N   UNL A   1      34.851  22.156  24.248  1.00  0.00    -0.181 NA
BRANCH  83  84
ATOM     84  N   UNL A   1      34.069  22.364  23.121  1.00  0.00    -0.254 N 
ATOM     85  H   UNL A   1      34.136  21.708  22.390  1.00  0.00     0.193 HD
BRANCH  84  86
ATOM     86  C   UNL A   1      33.200  23.436  22.952  1.00  0.00     0.191 C 
ATOM     87  S   UNL A   1      31.671  23.350  23.627  1.00  0.00    -0.039 S 
BRANCH  86  88
ATOM     88  N   UNL A   1      33.772  24.677  22.778  1.00  0.00    -0.331 N 
ATOM     89  H   UNL A   1      34.209  24.842  21.911  1.00  0.00     0.169 HD
BRANCH  88  90
ATOM     90  C   UNL A   1      33.800  25.729  23.701  1.00  0.00     0.040 A 
ATOM     91  C   UNL A   1      33.599  27.042  23.263  1.00  0.00     0.026 A 
ATOM     92  C   UNL A   1      34.049  25.481  25.044  1.00  0.00     0.026 A 
ATOM     93  C   UNL A   1      33.456  28.071  24.198  1.00  0.00     0.002 A 
ATOM     94  C   UNL A   1      34.015  26.532  25.958  1.00  0.00     0.002 A 
ATOM     95  C   UNL A   1      33.648  27.810  25.550  1.00  0.00     0.000 A 
ENDBRANCH  88  90
ENDBRANCH  86  88
ENDBRANCH  84  86
ENDBRANCH  83  84
ENDBRANCH  78  82
ENDBRANCH  72  74
ENDBRANCH   1  72
TORSDOF 17
ENDMDL
MODEL 2
REMARK VINA RESULT:     -11.8      1.165      2.258
REMARK SMILES O=C(OCCOC(=O)c1cccc(/C=N/NC(=S)Nc2ccccc2)c1O)c1ccc(-c2c3nc(c(-c4c(F)c(F)c(F)c(F)c4F)c4ccc([nH]4)c(-c4c(F)c(F)c(F)c(F)c4F)c4nc(c(-c5c(F)c(F)c(F)c(F)c5F)c5ccc2[nH]5)C=C4)C=C3)cc1
REMARK SMILES IDX 6 1 5 2 4 3 3 4 2 5 1 6 28 7 29 8 90 9 30 10 89 11 31 12
REMARK SMILES IDX 32 13 33 14 83 15 34 16 88 17 82 18 84 19 35 20 87 21 81 22
REMARK SMILES IDX 80 23 36 25 68 26 48 27 67 28 49 29 52 30 66 31 85 32 50 33
REMARK SMILES IDX 51 34 65 36 86 37 53 38 37 39 38 40 46 41 39 42 40 43 44 44
REMARK SMILES IDX 47 45 41 46 42 47 45 48 43 49 69 50 70 51 78 52 71 53 72 54
REMARK SMILES IDX 76 55 79 56 73 57 74 58 77 59 75 60 54 61 55 62 63 63 56 64
REMARK SMILES IDX 57 65 61 66 64 67 58 68 59 69 62 70 60 71 7 72 8 73 9 74
REMARK SMILES IDX 10 75 26 76 11 77 13 78 12 79 27 80 14 82 15 83 16 84 17 86
REMARK SMILES IDX 18 87 19 88 20 90 21 91 25 92 22 93 24 94 23 95
REMARK H PARENT 84 24 52 35 27 81 16 85 19 89
REMARK Flexibility Score: inf
ROOT
ATOM      1  O   UNL A   1      41.565  21.183  25.808  1.00  0.00    -0.458 OA
ENDROOT
BRANCH   1   2
ATOM      2  C   UNL A   1      42.893  20.674  25.981  1.00  0.00     0.275 C 
BRANCH   2   3
ATOM      3  C   UNL A   1      43.913  21.344  25.063  1.00  0.00     0.275 C 
BRANCH   3   4
ATOM      4  O   UNL A   1      43.505  22.619  24.541  1.00  0.00    -0.458 OA
BRANCH   4   5
ATOM      5  C   UNL A   1      44.039  23.845  24.735  1.00  0.00     0.338 C 
ATOM      6  O   UNL A   1      45.146  24.085  24.253  1.00  0.00    -0.246 OA
BRANCH   5   7
ATOM      7  C   UNL A   1      43.413  24.917  25.572  1.00  0.00     0.060 A 
ATOM      8  C   UNL A   1      43.721  26.281  25.550  1.00  0.00     0.016 A 
ATOM      9  C   UNL A   1      42.474  24.476  26.520  1.00  0.00     0.016 A 
ATOM     10  C   UNL A   1      43.086  27.184  26.421  1.00  0.00     0.010 A 
ATOM     11  C   UNL A   1      41.820  25.369  27.371  1.00  0.00     0.010 A 
ATOM     12  C   UNL A   1      42.150  26.730  27.353  1.00  0.00    -0.014 A 
BRANCH  12  13
ATOM     13  C   UNL A   1      41.705  27.578  28.486  1.00  0.00     0.031 A 
ATOM     14  C   UNL A   1      42.409  27.413  29.798  1.00  0.00     0.074 A 
ATOM     15  C   UNL A   1      40.708  28.473  28.390  1.00  0.00     0.049 A 
ATOM     16  N   UNL A   1      42.162  27.988  30.944  1.00  0.00    -0.248 NA
ATOM     17  C   UNL A   1      43.564  26.502  29.809  1.00  0.00     0.031 C 
ATOM     18  C   UNL A   1      40.042  28.847  27.156  1.00  0.00     0.029 A 
ATOM     19  N   UNL A   1      40.060  29.211  29.354  1.00  0.00    -0.354 N 
ATOM     20  C   UNL A   1      43.155  27.541  31.799  1.00  0.00     0.074 A 
ATOM     21  C   UNL A   1      43.947  26.574  31.071  1.00  0.00     0.031 C 
ATOM     22  C   UNL A   1      39.020  29.669  27.448  1.00  0.00     0.029 A 
ATOM     23  C   UNL A   1      38.962  29.886  28.876  1.00  0.00     0.049 A 
ATOM     24  H   UNL A   1      40.354  29.251  30.293  1.00  0.00     0.167 HD
ATOM     25  C   UNL A   1      43.416  27.944  33.061  1.00  0.00     0.037 A 
ATOM     26  C   UNL A   1      38.009  30.590  29.509  1.00  0.00     0.037 A 
ATOM     27  C   UNL A   1      42.611  28.885  33.787  1.00  0.00     0.049 A 
ATOM     28  C   UNL A   1      38.185  30.852  30.972  1.00  0.00     0.074 A 
ATOM     29  C   UNL A   1      42.782  29.360  35.074  1.00  0.00     0.029 A 
ATOM     30  N   UNL A   1      41.458  29.479  33.290  1.00  0.00    -0.354 N 
ATOM     31  N   UNL A   1      39.141  30.446  31.766  1.00  0.00    -0.248 NA
ATOM     32  C   UNL A   1      37.194  31.732  31.606  1.00  0.00     0.031 C 
ATOM     33  C   UNL A   1      41.699  30.195  35.377  1.00  0.00     0.029 A 
ATOM     34  C   UNL A   1      40.885  30.284  34.259  1.00  0.00     0.049 A 
ATOM     35  H   UNL A   1      41.101  29.346  32.382  1.00  0.00     0.167 HD
ATOM     36  C   UNL A   1      38.917  31.081  32.974  1.00  0.00     0.074 A 
ATOM     37  C   UNL A   1      37.708  31.867  32.819  1.00  0.00     0.031 C 
ATOM     38  C   UNL A   1      39.678  31.052  34.092  1.00  0.00     0.037 A 
BRANCH  25  39
ATOM     39  C   UNL A   1      44.611  27.319  33.713  1.00  0.00     0.064 A 
ATOM     40  C   UNL A   1      44.498  26.147  34.480  1.00  0.00     0.173 A 
ATOM     41  C   UNL A   1      45.858  27.953  33.654  1.00  0.00     0.173 A 
ATOM     42  F   UNL A   1      43.315  25.525  34.594  1.00  0.00    -0.203 F 
ATOM     43  C   UNL A   1      45.581  25.665  35.209  1.00  0.00     0.198 A 
ATOM     44  C   UNL A   1      46.946  27.450  34.359  1.00  0.00     0.198 A 
ATOM     45  F   UNL A   1      46.010  29.080  32.944  1.00  0.00    -0.203 F 
ATOM     46  F   UNL A   1      45.428  24.599  36.007  1.00  0.00    -0.200 F 
ATOM     47  C   UNL A   1      46.803  26.317  35.148  1.00  0.00     0.200 A 
ATOM     48  F   UNL A   1      48.126  28.081  34.302  1.00  0.00    -0.200 F 
ATOM     49  F   UNL A   1      47.839  25.870  35.872  1.00  0.00    -0.200 F 
ENDBRANCH  25  39
BRANCH  26  50
ATOM     50  C   UNL A   1      36.826  31.154  28.807  1.00  0.00     0.064 A 
ATOM     51  C   UNL A   1      36.718  32.525  28.545  1.00  0.00     0.173 A 
ATOM     52  C   UNL A   1      35.718  30.344  28.524  1.00  0.00     0.173 A 
ATOM     53  F   UNL A   1      37.746  33.340  28.820  1.00  0.00    -0.203 F 
ATOM     54  C   UNL A   1      35.533  33.071  28.052  1.00  0.00     0.198 A 
ATOM     55  C   UNL A   1      34.528  30.892  28.046  1.00  0.00     0.198 A 
ATOM     56  F   UNL A   1      35.777  29.023  28.752  1.00  0.00    -0.203 F 
ATOM     57  F   UNL A   1      35.445  34.391  27.843  1.00  0.00    -0.200 F 
ATOM     58  C   UNL A   1      34.434  32.257  27.816  1.00  0.00     0.200 A 
ATOM     59  F   UNL A   1      33.469  30.101  27.826  1.00  0.00    -0.200 F 
ATOM     60  F   UNL A   1      33.285  32.791  27.380  1.00  0.00    -0.200 F 
ENDBRANCH  26  50
BRANCH  38  61
ATOM     61  C   UNL A   1      39.255  31.949  35.211  1.00  0.00     0.064 A 
ATOM     62  C   UNL A   1      39.635  33.296  35.263  1.00  0.00     0.173 A 
ATOM     63  C   UNL A   1      38.449  31.444  36.240  1.00  0.00     0.173 A 
ATOM     64  F   UNL A   1      40.435  33.810  34.317  1.00  0.00    -0.203 F 
ATOM     65  C   UNL A   1      39.235  34.105  36.321  1.00  0.00     0.198 A 
ATOM     66  C   UNL A   1      38.024  32.263  37.279  1.00  0.00     0.198 A 
ATOM     67  F   UNL A   1      38.072  30.156  36.236  1.00  0.00    -0.203 F 
ATOM     68  F   UNL A   1      39.651  35.377  36.384  1.00  0.00    -0.200 F 
ATOM     69  C   UNL A   1      38.422  33.590  37.322  1.00  0.00     0.200 A 
ATOM     70  F   UNL A   1      37.235  31.766  38.242  1.00  0.00    -0.200 F 
ATOM     71  F   UNL A   1      38.031  34.374  38.337  1.00  0.00    -0.200 F 
ENDBRANCH  38  61
ENDBRANCH  12  13
ENDBRANCH   5   7
ENDBRANCH   4   5
ENDBRANCH   3   4
ENDBRANCH   2   3
ENDBRANCH   1   2
BRANCH   1  72
ATOM     72  C   UNL A   1      40.586  20.625  26.569  1.00  0.00     0.342 C 
ATOM     73  O   UNL A   1      40.695  20.097  27.661  1.00  0.00    -0.246 OA
BRANCH  72  74
ATOM     74  C   UNL A   1      39.332  20.705  25.804  1.00  0.00     0.102 A 
ATOM     75  C   UNL A   1      38.719  19.548  25.327  1.00  0.00     0.019 A 
ATOM     76  C   UNL A   1      38.684  21.934  25.705  1.00  0.00     0.138 A 
ATOM     77  C   UNL A   1      37.404  19.618  24.852  1.00  0.00     0.002 A 
ATOM     78  C   UNL A   1      37.339  21.984  25.354  1.00  0.00     0.037 A 
ATOM     79  C   UNL A   1      36.692  20.825  24.916  1.00  0.00     0.014 A 
BRANCH  76  80
ATOM     80  O   UNL A   1      39.368  23.096  25.891  1.00  0.00    -0.506 OA
ATOM     81  H   UNL A   1      39.671  23.585  25.152  1.00  0.00     0.293 HD
ENDBRANCH  76  80
BRANCH  78  82
ATOM     82  C   UNL A   1      36.551  23.164  25.753  1.00  0.00     0.145 C 
ATOM     83  N   UNL A   1      35.634  23.712  25.027  1.00  0.00    -0.181 NA
BRANCH  83  84
ATOM     84  N   UNL A   1      34.879  24.681  25.671  1.00  0.00    -0.254 N 
ATOM     85  H   UNL A   1      35.357  25.447  26.065  1.00  0.00     0.193 HD
BRANCH  84  86
ATOM     86  C   UNL A   1      33.496  24.644  25.802  1.00  0.00     0.191 C 
ATOM     87  S   UNL A   1      32.566  25.638  24.829  1.00  0.00    -0.039 S 
BRANCH  86  88
ATOM     88  N   UNL A   1      32.946  23.462  26.248  1.00  0.00    -0.331 N 
ATOM     89  H   UNL A   1      32.568  23.470  27.158  1.00  0.00     0.169 HD
BRANCH  88  90
ATOM     90  C   UNL A   1      32.868  22.252  25.550  1.00  0.00     0.040 A 
ATOM     91  C   UNL A   1      32.372  22.236  24.242  1.00  0.00     0.026 A 
ATOM     92  C   UNL A   1      33.259  21.064  26.154  1.00  0.00     0.026 A 
ATOM     93  C   UNL A   1      32.453  21.065  23.484  1.00  0.00     0.002 A 
ATOM     94  C   UNL A   1      33.230  19.878  25.424  1.00  0.00     0.002 A 
ATOM     95  C   UNL A   1      32.899  19.887  24.073  1.00  0.00     0.000 A 
ENDBRANCH  88  90
ENDBRANCH  86  88
ENDBRANCH  84  86
ENDBRANCH  83  84
ENDBRANCH  78  82
ENDBRANCH  72  74
ENDBRANCH   1  72
TORSDOF 17
ENDMDL
MODEL 3
REMARK VINA RESULT:     -11.7      1.639      7.570
REMARK SMILES O=C(OCCOC(=O)c1cccc(/C=N/NC(=S)Nc2ccccc2)c1O)c1ccc(-c2c3nc(c(-c4c(F)c(F)c(F)c(F)c4F)c4ccc([nH]4)c(-c4c(F)c(F)c(F)c(F)c4F)c4nc(c(-c5c(F)c(F)c(F)c(F)c5F)c5ccc2[nH]5)C=C4)C=C3)cc1
REMARK SMILES IDX 6 1 5 2 4 3 3 4 2 5 1 6 28 7 29 8 90 9 30 10 89 11 31 12
REMARK SMILES IDX 32 13 33 14 83 15 34 16 88 17 82 18 84 19 35 20 87 21 81 22
REMARK SMILES IDX 80 23 36 25 68 26 48 27 67 28 49 29 52 30 66 31 85 32 50 33
REMARK SMILES IDX 51 34 65 36 86 37 53 38 37 39 38 40 46 41 39 42 40 43 44 44
REMARK SMILES IDX 47 45 41 46 42 47 45 48 43 49 69 50 70 51 78 52 71 53 72 54
REMARK SMILES IDX 76 55 79 56 73 57 74 58 77 59 75 60 54 61 55 62 63 63 56 64
REMARK SMILES IDX 57 65 61 66 64 67 58 68 59 69 62 70 60 71 7 72 8 73 9 74
REMARK SMILES IDX 10 75 26 76 11 77 13 78 12 79 27 80 14 82 15 83 16 84 17 86
REMARK SMILES IDX 18 87 19 88 20 90 21 91 25 92 22 93 24 94 23 95
REMARK H PARENT 84 24 52 35 27 81 16 85 19 89
REMARK Flexibility Score: inf
ROOT
ATOM      1  O   UNL A   1      41.901  21.910  25.530  1.00  0.00    -0.458 OA
ENDROOT
BRANCH   1   2
ATOM      2  C   UNL A   1      43.254  21.490  25.744  1.00  0.00     0.275 C 
BRANCH   2   3
ATOM      3  C   UNL A   1      44.275  22.393  25.053  1.00  0.00     0.275 C 
BRANCH   3   4
ATOM      4  O   UNL A   1      43.816  23.729  24.794  1.00  0.00    -0.458 OA
BRANCH   4   5
ATOM      5  C   UNL A   1      44.347  24.915  25.168  1.00  0.00     0.338 C 
ATOM      6  O   UNL A   1      45.464  25.216  24.749  1.00  0.00    -0.246 OA
BRANCH   5   7
ATOM      7  C   UNL A   1      43.702  25.861  26.133  1.00  0.00     0.060 A 
ATOM      8  C   UNL A   1      44.046  27.200  26.345  1.00  0.00     0.016 A 
ATOM      9  C   UNL A   1      42.700  25.309  26.948  1.00  0.00     0.016 A 
ATOM     10  C   UNL A   1      43.387  27.975  27.316  1.00  0.00     0.010 A 
ATOM     11  C   UNL A   1      42.023  26.078  27.896  1.00  0.00     0.010 A 
ATOM     12  C   UNL A   1      42.389  27.413  28.113  1.00  0.00    -0.014 A 
BRANCH  12  13
ATOM     13  C   UNL A   1      41.902  28.085  29.343  1.00  0.00     0.031 A 
ATOM     14  C   UNL A   1      40.678  28.940  29.232  1.00  0.00     0.074 A 
ATOM     15  C   UNL A   1      42.507  27.966  30.536  1.00  0.00     0.049 A 
ATOM     16  N   UNL A   1      40.100  29.676  30.143  1.00  0.00    -0.248 NA
ATOM     17  C   UNL A   1      39.997  28.940  27.927  1.00  0.00     0.031 C 
ATOM     18  C   UNL A   1      43.603  27.060  30.827  1.00  0.00     0.029 A 
ATOM     19  N   UNL A   1      42.303  28.631  31.723  1.00  0.00    -0.354 N 
ATOM     20  C   UNL A   1      38.967  30.189  29.535  1.00  0.00     0.074 A 
ATOM     21  C   UNL A   1      38.991  29.765  28.152  1.00  0.00     0.031 C 
ATOM     22  C   UNL A   1      44.037  27.292  32.076  1.00  0.00     0.029 A 
ATOM     23  C   UNL A   1      43.253  28.350  32.675  1.00  0.00     0.049 A 
ATOM     24  H   UNL A   1      41.551  29.248  31.875  1.00  0.00     0.167 HD
ATOM     25  C   UNL A   1      37.968  30.906  30.095  1.00  0.00     0.037 A 
ATOM     26  C   UNL A   1      43.481  28.883  33.887  1.00  0.00     0.037 A 
ATOM     27  C   UNL A   1      37.964  31.346  31.461  1.00  0.00     0.049 A 
ATOM     28  C   UNL A   1      42.480  29.858  34.423  1.00  0.00     0.074 A 
ATOM     29  C   UNL A   1      37.004  32.082  32.130  1.00  0.00     0.029 A 
ATOM     30  N   UNL A   1      38.991  31.108  32.365  1.00  0.00    -0.354 N 
ATOM     31  N   UNL A   1      41.399  30.319  33.850  1.00  0.00    -0.248 NA
ATOM     32  C   UNL A   1      42.689  30.324  35.801  1.00  0.00     0.031 C 
ATOM     33  C   UNL A   1      37.477  32.341  33.422  1.00  0.00     0.029 A 
ATOM     34  C   UNL A   1      38.706  31.718  33.575  1.00  0.00     0.049 A 
ATOM     35  H   UNL A   1      39.801  30.583  32.174  1.00  0.00     0.167 HD
ATOM     36  C   UNL A   1      40.753  31.066  34.818  1.00  0.00     0.074 A 
ATOM     37  C   UNL A   1      41.588  31.031  36.004  1.00  0.00     0.031 C 
ATOM     38  C   UNL A   1      39.551  31.681  34.741  1.00  0.00     0.037 A 
BRANCH  25  39
ATOM     39  C   UNL A   1      36.833  31.266  29.187  1.00  0.00     0.064 A 
ATOM     40  C   UNL A   1      36.670  32.574  28.701  1.00  0.00     0.173 A 
ATOM     41  C   UNL A   1      35.847  30.320  28.882  1.00  0.00     0.173 A 
ATOM     42  F   UNL A   1      37.571  33.523  28.996  1.00  0.00    -0.203 F 
ATOM     43  C   UNL A   1      35.528  32.933  27.990  1.00  0.00     0.198 A 
ATOM     44  C   UNL A   1      34.723  30.675  28.144  1.00  0.00     0.198 A 
ATOM     45  F   UNL A   1      35.955  29.062  29.333  1.00  0.00    -0.203 F 
ATOM     46  F   UNL A   1      35.348  34.207  27.616  1.00  0.00    -0.200 F 
ATOM     47  C   UNL A   1      34.557  31.984  27.713  1.00  0.00     0.200 A 
ATOM     48  F   UNL A   1      33.783  29.758  27.878  1.00  0.00    -0.200 F 
ATOM     49  F   UNL A   1      33.445  32.335  27.053  1.00  0.00    -0.200 F 
ENDBRANCH  25  39
BRANCH  26  50
ATOM     50  C   UNL A   1      44.650  28.508  34.724  1.00  0.00     0.064 A 
ATOM     51  C   UNL A   1      45.885  29.153  34.584  1.00  0.00     0.173 A 
ATOM     52  C   UNL A   1      44.587  27.393  35.572  1.00  0.00     0.173 A 
ATOM     53  F   UNL A   1      45.997  30.210  33.767  1.00  0.00    -0.203 F 
ATOM     54  C   UNL A   1      47.021  28.679  35.238  1.00  0.00     0.198 A 
ATOM     55  C   UNL A   1      45.727  26.911  36.214  1.00  0.00     0.198 A 
ATOM     56  F   UNL A   1      43.424  26.747  35.743  1.00  0.00    -0.203 F 
ATOM     57  F   UNL A   1      48.198  29.295  35.059  1.00  0.00    -0.200 F 
ATOM     58  C   UNL A   1      46.945  27.551  36.042  1.00  0.00     0.200 A 
ATOM     59  F   UNL A   1      45.646  25.817  36.984  1.00  0.00    -0.200 F 
ATOM     60  F   UNL A   1      48.048  27.076  36.638  1.00  0.00    -0.200 F 
ENDBRANCH  26  50
BRANCH  38  61
ATOM     61  C   UNL A   1      39.041  32.310  35.998  1.00  0.00     0.064 A 
ATOM     62  C   UNL A   1      39.341  33.635  36.338  1.00  0.00     0.173 A 
ATOM     63  C   UNL A   1      38.230  31.567  36.867  1.00  0.00     0.173 A 
ATOM     64  F   UNL A   1      40.142  34.370  35.551  1.00  0.00    -0.203 F 
ATOM     65  C   UNL A   1      38.859  34.191  37.518  1.00  0.00     0.198 A 
ATOM     66  C   UNL A   1      37.725  32.136  38.030  1.00  0.00     0.198 A 
ATOM     67  F   UNL A   1      37.927  30.290  36.587  1.00  0.00    -0.203 F 
ATOM     68  F   UNL A   1      39.200  35.442  37.854  1.00  0.00    -0.200 F 
ATOM     69  C   UNL A   1      38.044  33.444  38.357  1.00  0.00     0.200 A 
ATOM     70  F   UNL A   1      36.933  31.415  38.837  1.00  0.00    -0.200 F 
ATOM     71  F   UNL A   1      37.575  33.984  39.490  1.00  0.00    -0.200 F 
ENDBRANCH  38  61
ENDBRANCH  12  13
ENDBRANCH   5   7
ENDBRANCH   4   5
ENDBRANCH   3   4
ENDBRANCH   2   3
ENDBRANCH   1   2
BRANCH   1  72
ATOM     72  C   UNL A   1      40.924  21.168  26.118  1.00  0.00     0.342 C 
ATOM     73  O   UNL A   1      40.901  19.963  26.293  1.00  0.00    -0.246 OA
BRANCH  72  74
ATOM     74  C   UNL A   1      39.824  22.082  26.465  1.00  0.00     0.102 A 
ATOM     75  C   UNL A   1      40.056  23.189  27.279  1.00  0.00     0.019 A 
ATOM     76  C   UNL A   1      38.592  21.916  25.839  1.00  0.00     0.138 A 
ATOM     77  C   UNL A   1      39.077  24.186  27.369  1.00  0.00     0.002 A 
ATOM     78  C   UNL A   1      37.674  22.961  25.825  1.00  0.00     0.037 A 
ATOM     79  C   UNL A   1      37.908  24.101  26.599  1.00  0.00     0.014 A 
BRANCH  76  80
ATOM     80  O   UNL A   1      38.248  20.720  25.288  1.00  0.00    -0.506 OA
ATOM     81  H   UNL A   1      37.976  20.677  24.393  1.00  0.00     0.293 HD
ENDBRANCH  76  80
BRANCH  78  82
ATOM     82  C   UNL A   1      36.652  22.985  24.763  1.00  0.00     0.145 C 
ATOM     83  N   UNL A   1      35.782  22.052  24.563  1.00  0.00    -0.181 NA
BRANCH  83  84
ATOM     84  N   UNL A   1      34.789  22.366  23.647  1.00  0.00    -0.254 N 
ATOM     85  H   UNL A   1      35.068  22.619  22.737  1.00  0.00     0.193 HD
BRANCH  84  86
ATOM     86  C   UNL A   1      33.427  22.349  23.925  1.00  0.00     0.191 C 
ATOM     87  S   UNL A   1      32.399  23.281  22.989  1.00  0.00    -0.039 S 
BRANCH  86  88
ATOM     88  N   UNL A   1      32.926  21.206  24.508  1.00  0.00    -0.331 N 
ATOM     89  H   UNL A   1      32.432  21.323  25.352  1.00  0.00     0.169 HD
BRANCH  88  90
ATOM     90  C   UNL A   1      33.046  19.895  24.032  1.00  0.00     0.040 A 
ATOM     91  C   UNL A   1      33.929  19.007  24.658  1.00  0.00     0.026 A 
ATOM     92  C   UNL A   1      32.313  19.476  22.930  1.00  0.00     0.026 A 
ATOM     93  C   UNL A   1      33.925  17.657  24.297  1.00  0.00     0.002 A 
ATOM     94  C   UNL A   1      32.401  18.152  22.506  1.00  0.00     0.002 A 
ATOM     95  C   UNL A   1      33.146  17.227  23.230  1.00  0.00     0.000 A 
ENDBRANCH  88  90
ENDBRANCH  86  88
ENDBRANCH  84  86
ENDBRANCH  83  84
ENDBRANCH  78  82
ENDBRANCH  72  74
ENDBRANCH   1  72
TORSDOF 17
ENDMDL
