MODEL 1
REMARK VINA RESULT:     -12.8      0.000      0.000
REMARK SMILES Cc1cc(Cl)cc2c1O[C@H](C(F)(F)F)C(C(=O)OCCOC(=O)c1ccc(-c3c4nc(c(-c5c(F)c(F)c(F)c(F)c5F)c5ccc([nH]5)c(-c5c(F)c(F)c(F)c(F)c5F)c5nc(c(-c6c(F)c(F)c(F)c(F)c6F)c6ccc3[nH]6)C=C5)C=C4)cc1)=C2
REMARK SMILES IDX 20 1 19 2 18 3 16 4 17 5 15 6 1 7 2 8 3 9 8 10 4 11 7 12
REMARK SMILES IDX 9 13 5 14 6 15 87 16 10 17 11 18 12 19 13 20 14 21 21 22
REMARK SMILES IDX 22 23 23 24 24 25 25 26 86 27 26 28 85 29 27 30 28 31 29 32
REMARK SMILES IDX 79 33 30 34 84 35 78 36 80 37 31 38 83 39 77 40 76 41 32 43
REMARK SMILES IDX 64 44 44 45 63 46 45 47 48 48 62 49 81 50 46 51 47 52 61 54
REMARK SMILES IDX 82 55 49 56 33 57 34 58 42 59 35 60 36 61 40 62 43 63 37 64
REMARK SMILES IDX 38 65 41 66 39 67 65 68 66 69 74 70 67 71 68 72 72 73 75 74
REMARK SMILES IDX 69 75 70 76 73 77 71 78 50 79 51 80 59 81 52 82 53 83 57 84
REMARK SMILES IDX 60 85 54 86 55 87 58 88 56 89
REMARK H PARENT 80 42 48 53
REMARK Flexibility Score: inf
ROOT
ATOM      1  C   UNL A   1      31.676  30.455  25.741  1.00  0.00     0.275 C 
ENDROOT
BRANCH   1   2
ATOM      2  C   UNL A   1      31.804  29.095  25.053  1.00  0.00     0.275 C 
BRANCH   2   3
ATOM      3  O   UNL A   1      32.591  28.176  25.841  1.00  0.00    -0.459 OA
BRANCH   3   4
ATOM      4  C   UNL A   1      31.889  27.235  26.511  1.00  0.00     0.338 C 
ATOM      5  O   UNL A   1      31.036  27.430  27.364  1.00  0.00    -0.246 OA
BRANCH   4   6
ATOM      6  C   UNL A   1      32.264  25.882  26.058  1.00  0.00     0.087 C 
ATOM      7  C   UNL A   1      32.437  21.265  23.748  1.00  0.00     0.048 C 
ATOM      8  C   UNL A   1      33.415  22.245  24.329  1.00  0.00    -0.007 A 
ATOM      9  C   UNL A   1      34.789  21.962  24.210  1.00  0.00     0.027 A 
ATOM     10  C   UNL A   1      33.011  23.433  24.956  1.00  0.00     0.131 A 
ATOM     11  C   UNL A   1      35.740  22.842  24.721  1.00  0.00     0.042 A 
ATOM     12  C   UNL A   1      33.975  24.317  25.449  1.00  0.00     0.019 A 
ATOM     13  O   UNL A   1      31.669  23.669  25.077  1.00  0.00    -0.475 OA
ATOM     14  Cl  UNL A   1      37.415  22.486  24.568  1.00  0.00    -0.084 Cl
ATOM     15  C   UNL A   1      35.340  24.018  25.343  1.00  0.00     0.032 A 
ATOM     16  C   UNL A   1      33.564  25.573  26.040  1.00  0.00     0.027 C 
ATOM     17  C   UNL A   1      31.204  24.983  25.498  1.00  0.00     0.316 C 
BRANCH  17  18
ATOM     18  C   UNL A   1      30.472  25.651  24.324  1.00  0.00     0.430 C 
ATOM     19  F   UNL A   1      31.322  26.374  23.556  1.00  0.00    -0.167 F 
ATOM     20  F   UNL A   1      29.900  24.732  23.508  1.00  0.00    -0.167 F 
ATOM     21  F   UNL A   1      29.492  26.484  24.742  1.00  0.00    -0.167 F 
ENDBRANCH  17  18
ENDBRANCH   4   6
ENDBRANCH   3   4
ENDBRANCH   2   3
ENDBRANCH   1   2
BRANCH   1  22
ATOM     22  O   UNL A   1      32.404  30.462  26.984  1.00  0.00    -0.458 OA
BRANCH  22  23
ATOM     23  C   UNL A   1      33.092  31.596  27.239  1.00  0.00     0.338 C 
ATOM     24  O   UNL A   1      32.667  32.739  27.244  1.00  0.00    -0.246 OA
BRANCH  23  25
ATOM     25  C   UNL A   1      34.476  31.281  27.624  1.00  0.00     0.060 A 
ATOM     26  C   UNL A   1      34.800  29.957  27.884  1.00  0.00     0.016 A 
ATOM     27  C   UNL A   1      35.373  32.294  27.951  1.00  0.00     0.016 A 
ATOM     28  C   UNL A   1      35.929  29.651  28.636  1.00  0.00     0.010 A 
ATOM     29  C   UNL A   1      36.592  31.964  28.559  1.00  0.00     0.010 A 
ATOM     30  C   UNL A   1      36.862  30.643  28.965  1.00  0.00    -0.014 A 
BRANCH  30  31
ATOM     31  C   UNL A   1      38.087  30.298  29.747  1.00  0.00     0.031 A 
ATOM     32  C   UNL A   1      39.167  29.436  29.137  1.00  0.00     0.074 A 
ATOM     33  C   UNL A   1      38.257  30.776  30.999  1.00  0.00     0.049 A 
ATOM     34  N   UNL A   1      40.199  28.870  29.713  1.00  0.00    -0.248 NA
ATOM     35  C   UNL A   1      39.071  29.164  27.693  1.00  0.00     0.031 C 
ATOM     36  C   UNL A   1      37.331  31.668  31.700  1.00  0.00     0.029 A 
ATOM     37  N   UNL A   1      39.277  30.595  31.903  1.00  0.00    -0.354 N 
ATOM     38  C   UNL A   1      40.835  28.132  28.719  1.00  0.00     0.074 A 
ATOM     39  C   UNL A   1      40.072  28.315  27.504  1.00  0.00     0.031 C 
ATOM     40  C   UNL A   1      37.849  32.006  32.888  1.00  0.00     0.029 A 
ATOM     41  C   UNL A   1      39.083  31.258  33.092  1.00  0.00     0.049 A 
ATOM     42  H   UNL A   1      40.071  30.044  31.717  1.00  0.00     0.167 HD
ATOM     43  C   UNL A   1      41.956  27.379  28.816  1.00  0.00     0.037 A 
ATOM     44  C   UNL A   1      39.781  31.229  34.244  1.00  0.00     0.037 A 
ATOM     45  C   UNL A   1      42.749  27.257  30.012  1.00  0.00     0.049 A 
ATOM     46  C   UNL A   1      40.985  30.337  34.342  1.00  0.00     0.074 A 
ATOM     47  C   UNL A   1      43.905  26.519  30.207  1.00  0.00     0.029 A 
ATOM     48  N   UNL A   1      42.482  27.906  31.208  1.00  0.00    -0.354 N 
ATOM     49  N   UNL A   1      41.533  29.587  33.418  1.00  0.00    -0.248 NA
ATOM     50  C   UNL A   1      41.652  30.265  35.649  1.00  0.00     0.031 C 
ATOM     51  C   UNL A   1      44.314  26.689  31.533  1.00  0.00     0.029 A 
ATOM     52  C   UNL A   1      43.443  27.572  32.150  1.00  0.00     0.049 A 
ATOM     53  H   UNL A   1      41.723  28.512  31.365  1.00  0.00     0.167 HD
ATOM     54  C   UNL A   1      42.614  28.965  34.026  1.00  0.00     0.074 A 
ATOM     55  C   UNL A   1      42.660  29.445  35.391  1.00  0.00     0.031 C 
ATOM     56  C   UNL A   1      43.483  28.069  33.501  1.00  0.00     0.037 A 
BRANCH  43  57
ATOM     57  C   UNL A   1      42.404  26.606  27.608  1.00  0.00     0.064 A 
ATOM     58  C   UNL A   1      43.377  27.102  26.729  1.00  0.00     0.173 A 
ATOM     59  C   UNL A   1      41.923  25.304  27.386  1.00  0.00     0.173 A 
ATOM     60  F   UNL A   1      43.861  28.342  26.889  1.00  0.00    -0.203 F 
ATOM     61  C   UNL A   1      43.847  26.328  25.670  1.00  0.00     0.198 A 
ATOM     62  C   UNL A   1      42.416  24.523  26.344  1.00  0.00     0.198 A 
ATOM     63  F   UNL A   1      40.997  24.778  28.202  1.00  0.00    -0.203 F 
ATOM     64  F   UNL A   1      44.760  26.832  24.828  1.00  0.00    -0.200 F 
ATOM     65  C   UNL A   1      43.377  25.036  25.486  1.00  0.00     0.200 A 
ATOM     66  F   UNL A   1      41.973  23.270  26.179  1.00  0.00    -0.200 F 
ATOM     67  F   UNL A   1      43.850  24.284  24.482  1.00  0.00    -0.200 F 
ENDBRANCH  43  57
BRANCH  44  68
ATOM     68  C   UNL A   1      39.324  32.033  35.411  1.00  0.00     0.064 A 
ATOM     69  C   UNL A   1      38.481  31.477  36.383  1.00  0.00     0.173 A 
ATOM     70  C   UNL A   1      39.726  33.367  35.586  1.00  0.00     0.173 A 
ATOM     71  F   UNL A   1      38.044  30.217  36.248  1.00  0.00    -0.203 F 
ATOM     72  C   UNL A   1      38.052  32.226  37.478  1.00  0.00     0.198 A 
ATOM     73  C   UNL A   1      39.329  34.102  36.700  1.00  0.00     0.198 A 
ATOM     74  F   UNL A   1      40.530  33.951  34.685  1.00  0.00    -0.203 F 
ATOM     75  F   UNL A   1      37.210  31.684  38.369  1.00  0.00    -0.200 F 
ATOM     76  C   UNL A   1      38.486  33.533  37.642  1.00  0.00     0.200 A 
ATOM     77  F   UNL A   1      39.766  35.358  36.863  1.00  0.00    -0.200 F 
ATOM     78  F   UNL A   1      38.086  34.246  38.704  1.00  0.00    -0.200 F 
ENDBRANCH  44  68
BRANCH  56  79
ATOM     79  C   UNL A   1      44.578  27.565  34.392  1.00  0.00     0.064 A 
ATOM     80  C   UNL A   1      45.787  28.262  34.532  1.00  0.00     0.173 A 
ATOM     81  C   UNL A   1      44.390  26.409  35.165  1.00  0.00     0.173 A 
ATOM     82  F   UNL A   1      46.019  29.363  33.803  1.00  0.00    -0.203 F 
ATOM     83  C   UNL A   1      46.773  27.811  35.404  1.00  0.00     0.198 A 
ATOM     84  C   UNL A   1      45.367  25.979  36.058  1.00  0.00     0.198 A 
ATOM     85  F   UNL A   1      43.248  25.711  35.072  1.00  0.00    -0.203 F 
ATOM     86  F   UNL A   1      47.936  28.472  35.495  1.00  0.00    -0.200 F 
ATOM     87  C   UNL A   1      46.559  26.677  36.173  1.00  0.00     0.200 A 
ATOM     88  F   UNL A   1      45.151  24.893  36.812  1.00  0.00    -0.200 F 
ATOM     89  F   UNL A   1      47.504  26.255  37.025  1.00  0.00    -0.200 F 
ENDBRANCH  56  79
ENDBRANCH  30  31
ENDBRANCH  23  25
ENDBRANCH  22  23
ENDBRANCH   1  22
TORSDOF 12
ENDMDL
MODEL 2
REMARK VINA RESULT:     -12.8      0.198      1.622
REMARK SMILES Cc1cc(Cl)cc2c1O[C@H](C(F)(F)F)C(C(=O)OCCOC(=O)c1ccc(-c3c4nc(c(-c5c(F)c(F)c(F)c(F)c5F)c5ccc([nH]5)c(-c5c(F)c(F)c(F)c(F)c5F)c5nc(c(-c6c(F)c(F)c(F)c(F)c6F)c6ccc3[nH]6)C=C5)C=C4)cc1)=C2
REMARK SMILES IDX 20 1 19 2 18 3 16 4 17 5 15 6 1 7 2 8 3 9 8 10 4 11 7 12
REMARK SMILES IDX 9 13 5 14 6 15 87 16 10 17 11 18 12 19 13 20 14 21 21 22
REMARK SMILES IDX 22 23 23 24 24 25 25 26 86 27 26 28 85 29 27 30 28 31 29 32
REMARK SMILES IDX 79 33 30 34 84 35 78 36 80 37 31 38 83 39 77 40 76 41 32 43
REMARK SMILES IDX 64 44 44 45 63 46 45 47 48 48 62 49 81 50 46 51 47 52 61 54
REMARK SMILES IDX 82 55 49 56 33 57 34 58 42 59 35 60 36 61 40 62 43 63 37 64
REMARK SMILES IDX 38 65 41 66 39 67 65 68 66 69 74 70 67 71 68 72 72 73 75 74
REMARK SMILES IDX 69 75 70 76 73 77 71 78 50 79 51 80 59 81 52 82 53 83 57 84
REMARK SMILES IDX 60 85 54 86 55 87 58 88 56 89
REMARK H PARENT 80 42 48 53
REMARK Flexibility Score: inf
ROOT
ATOM      1  C   UNL A   1      31.783  30.584  25.684  1.00  0.00     0.275 C 
ENDROOT
BRANCH   1   2
ATOM      2  C   UNL A   1      31.455  29.174  25.193  1.00  0.00     0.275 C 
BRANCH   2   3
ATOM      3  O   UNL A   1      32.364  28.197  25.747  1.00  0.00    -0.459 OA
BRANCH   3   4
ATOM      4  C   UNL A   1      31.796  27.249  26.525  1.00  0.00     0.338 C 
ATOM      5  O   UNL A   1      31.027  27.433  27.456  1.00  0.00    -0.246 OA
BRANCH   4   6
ATOM      6  C   UNL A   1      32.204  25.901  26.086  1.00  0.00     0.087 C 
ATOM      7  C   UNL A   1      32.511  21.282  23.794  1.00  0.00     0.048 C 
ATOM      8  C   UNL A   1      33.458  22.277  24.400  1.00  0.00    -0.007 A 
ATOM      9  C   UNL A   1      34.839  22.015  24.322  1.00  0.00     0.027 A 
ATOM     10  C   UNL A   1      33.019  23.461  25.012  1.00  0.00     0.131 A 
ATOM     11  C   UNL A   1      35.762  22.910  24.857  1.00  0.00     0.042 A 
ATOM     12  C   UNL A   1      33.955  24.359  25.530  1.00  0.00     0.019 A 
ATOM     13  O   UNL A   1      31.670  23.677  25.094  1.00  0.00    -0.475 OA
ATOM     14  Cl  UNL A   1      37.446  22.579  24.753  1.00  0.00    -0.084 Cl
ATOM     15  C   UNL A   1      35.326  24.081  25.464  1.00  0.00     0.032 A 
ATOM     16  C   UNL A   1      33.508  25.611  26.106  1.00  0.00     0.027 C 
ATOM     17  C   UNL A   1      31.174  24.985  25.498  1.00  0.00     0.316 C 
BRANCH  17  18
ATOM     18  C   UNL A   1      30.466  25.639  24.302  1.00  0.00     0.430 C 
ATOM     19  F   UNL A   1      31.333  26.347  23.539  1.00  0.00    -0.167 F 
ATOM     20  F   UNL A   1      29.905  24.711  23.489  1.00  0.00    -0.167 F 
ATOM     21  F   UNL A   1      29.483  26.482  24.691  1.00  0.00    -0.167 F 
ENDBRANCH  17  18
ENDBRANCH   4   6
ENDBRANCH   3   4
ENDBRANCH   2   3
ENDBRANCH   1   2
BRANCH   1  22
ATOM     22  O   UNL A   1      32.457  30.533  26.956  1.00  0.00    -0.458 OA
BRANCH  22  23
ATOM     23  C   UNL A   1      33.152  31.645  27.282  1.00  0.00     0.338 C 
ATOM     24  O   UNL A   1      32.739  32.791  27.337  1.00  0.00    -0.246 OA
BRANCH  23  25
ATOM     25  C   UNL A   1      34.525  31.295  27.676  1.00  0.00     0.060 A 
ATOM     26  C   UNL A   1      34.812  29.965  27.948  1.00  0.00     0.016 A 
ATOM     27  C   UNL A   1      35.448  32.285  27.999  1.00  0.00     0.016 A 
ATOM     28  C   UNL A   1      35.928  29.634  28.708  1.00  0.00     0.010 A 
ATOM     29  C   UNL A   1      36.654  31.927  28.616  1.00  0.00     0.010 A 
ATOM     30  C   UNL A   1      36.886  30.603  29.034  1.00  0.00    -0.014 A 
BRANCH  30  31
ATOM     31  C   UNL A   1      38.097  30.230  29.825  1.00  0.00     0.031 A 
ATOM     32  C   UNL A   1      39.160  29.341  29.224  1.00  0.00     0.074 A 
ATOM     33  C   UNL A   1      38.271  30.707  31.076  1.00  0.00     0.049 A 
ATOM     34  N   UNL A   1      40.174  28.751  29.808  1.00  0.00    -0.248 NA
ATOM     35  C   UNL A   1      39.067  29.067  27.780  1.00  0.00     0.031 C 
ATOM     36  C   UNL A   1      37.362  31.624  31.769  1.00  0.00     0.029 A 
ATOM     37  N   UNL A   1      39.280  30.505  31.987  1.00  0.00    -0.354 N 
ATOM     38  C   UNL A   1      40.799  27.996  28.820  1.00  0.00     0.074 A 
ATOM     39  C   UNL A   1      40.048  28.194  27.600  1.00  0.00     0.031 C 
ATOM     40  C   UNL A   1      37.881  31.952  32.960  1.00  0.00     0.029 A 
ATOM     41  C   UNL A   1      39.095  31.175  33.174  1.00  0.00     0.049 A 
ATOM     42  H   UNL A   1      40.062  29.934  31.808  1.00  0.00     0.167 HD
ATOM     43  C   UNL A   1      41.901  27.217  28.926  1.00  0.00     0.037 A 
ATOM     44  C   UNL A   1      39.784  31.133  34.330  1.00  0.00     0.037 A 
ATOM     45  C   UNL A   1      42.683  27.078  30.128  1.00  0.00     0.049 A 
ATOM     46  C   UNL A   1      40.966  30.212  34.438  1.00  0.00     0.074 A 
ATOM     47  C   UNL A   1      43.820  26.314  30.332  1.00  0.00     0.029 A 
ATOM     48  N   UNL A   1      42.424  27.737  31.320  1.00  0.00    -0.354 N 
ATOM     49  N   UNL A   1      41.502  29.447  33.520  1.00  0.00    -0.248 NA
ATOM     50  C   UNL A   1      41.622  30.128  35.750  1.00  0.00     0.031 C 
ATOM     51  C   UNL A   1      44.224  26.478  31.660  1.00  0.00     0.029 A 
ATOM     52  C   UNL A   1      43.371  27.383  32.269  1.00  0.00     0.049 A 
ATOM     53  H   UNL A   1      41.679  28.362  31.471  1.00  0.00     0.167 HD
ATOM     54  C   UNL A   1      42.564  28.801  34.136  1.00  0.00     0.074 A 
ATOM     55  C   UNL A   1      42.613  29.283  35.500  1.00  0.00     0.031 C 
ATOM     56  C   UNL A   1      43.414  27.883  33.619  1.00  0.00     0.037 A 
BRANCH  43  57
ATOM     57  C   UNL A   1      42.338  26.429  27.723  1.00  0.00     0.064 A 
ATOM     58  C   UNL A   1      43.358  26.880  26.873  1.00  0.00     0.173 A 
ATOM     59  C   UNL A   1      41.794  25.157  27.477  1.00  0.00     0.173 A 
ATOM     60  F   UNL A   1      43.904  28.091  27.056  1.00  0.00    -0.203 F 
ATOM     61  C   UNL A   1      43.814  26.090  25.819  1.00  0.00     0.198 A 
ATOM     62  C   UNL A   1      42.271  24.359  26.441  1.00  0.00     0.198 A 
ATOM     63  F   UNL A   1      40.821  24.675  28.265  1.00  0.00    -0.203 F 
ATOM     64  F   UNL A   1      44.773  26.550  25.005  1.00  0.00    -0.200 F 
ATOM     65  C   UNL A   1      43.280  24.826  25.613  1.00  0.00     0.200 A 
ATOM     66  F   UNL A   1      41.766  23.132  26.255  1.00  0.00    -0.200 F 
ATOM     67  F   UNL A   1      43.738  24.057  24.614  1.00  0.00    -0.200 F 
ENDBRANCH  43  57
BRANCH  44  68
ATOM     68  C   UNL A   1      39.339  31.951  35.492  1.00  0.00     0.064 A 
ATOM     69  C   UNL A   1      39.796  33.264  35.665  1.00  0.00     0.173 A 
ATOM     70  C   UNL A   1      38.442  31.444  36.446  1.00  0.00     0.173 A 
ATOM     71  F   UNL A   1      40.677  33.786  34.798  1.00  0.00    -0.203 F 
ATOM     72  C   UNL A   1      39.380  34.035  36.749  1.00  0.00     0.198 A 
ATOM     73  C   UNL A   1      37.997  32.228  37.507  1.00  0.00     0.198 A 
ATOM     74  F   UNL A   1      37.974  30.192  36.331  1.00  0.00    -0.203 F 
ATOM     75  F   UNL A   1      39.867  35.272  36.915  1.00  0.00    -0.200 F 
ATOM     76  C   UNL A   1      38.472  33.520  37.663  1.00  0.00     0.200 A 
ATOM     77  F   UNL A   1      37.105  31.732  38.376  1.00  0.00    -0.200 F 
ATOM     78  F   UNL A   1      38.061  34.268  38.697  1.00  0.00    -0.200 F 
ENDBRANCH  44  68
BRANCH  56  79
ATOM     79  C   UNL A   1      44.491  27.354  34.519  1.00  0.00     0.064 A 
ATOM     80  C   UNL A   1      44.313  26.178  35.261  1.00  0.00     0.173 A 
ATOM     81  C   UNL A   1      45.738  27.994  34.586  1.00  0.00     0.173 A 
ATOM     82  F   UNL A   1      43.134  25.540  35.242  1.00  0.00    -0.203 F 
ATOM     83  C   UNL A   1      45.341  25.670  36.050  1.00  0.00     0.198 A 
ATOM     84  C   UNL A   1      46.773  27.466  35.352  1.00  0.00     0.198 A 
ATOM     85  F   UNL A   1      45.960  29.118  33.887  1.00  0.00    -0.203 F 
ATOM     86  F   UNL A   1      45.137  24.565  36.780  1.00  0.00    -0.200 F 
ATOM     87  C   UNL A   1      46.572  26.308  36.087  1.00  0.00     0.200 A 
ATOM     88  F   UNL A   1      47.967  28.074  35.372  1.00  0.00    -0.200 F 
ATOM     89  F   UNL A   1      47.565  25.806  36.833  1.00  0.00    -0.200 F 
ENDBRANCH  56  79
ENDBRANCH  30  31
ENDBRANCH  23  25
ENDBRANCH  22  23
ENDBRANCH   1  22
TORSDOF 12
ENDMDL
MODEL 3
REMARK VINA RESULT:     -12.7      0.234      1.678
REMARK SMILES Cc1cc(Cl)cc2c1O[C@H](C(F)(F)F)C(C(=O)OCCOC(=O)c1ccc(-c3c4nc(c(-c5c(F)c(F)c(F)c(F)c5F)c5ccc([nH]5)c(-c5c(F)c(F)c(F)c(F)c5F)c5nc(c(-c6c(F)c(F)c(F)c(F)c6F)c6ccc3[nH]6)C=C5)C=C4)cc1)=C2
REMARK SMILES IDX 20 1 19 2 18 3 16 4 17 5 15 6 1 7 2 8 3 9 8 10 4 11 7 12
REMARK SMILES IDX 9 13 5 14 6 15 87 16 10 17 11 18 12 19 13 20 14 21 21 22
REMARK SMILES IDX 22 23 23 24 24 25 25 26 86 27 26 28 85 29 27 30 28 31 29 32
REMARK SMILES IDX 79 33 30 34 84 35 78 36 80 37 31 38 83 39 77 40 76 41 32 43
REMARK SMILES IDX 64 44 44 45 63 46 45 47 48 48 62 49 81 50 46 51 47 52 61 54
REMARK SMILES IDX 82 55 49 56 33 57 34 58 42 59 35 60 36 61 40 62 43 63 37 64
REMARK SMILES IDX 38 65 41 66 39 67 65 68 66 69 74 70 67 71 68 72 72 73 75 74
REMARK SMILES IDX 69 75 70 76 73 77 71 78 50 79 51 80 59 81 52 82 53 83 57 84
REMARK SMILES IDX 60 85 54 86 55 87 58 88 56 89
REMARK H PARENT 80 42 48 53
REMARK Flexibility Score: inf
ROOT
ATOM      1  C   UNL A   1      31.778  30.453  25.752  1.00  0.00     0.275 C 
ENDROOT
BRANCH   1   2
ATOM      2  C   UNL A   1      31.841  29.098  25.047  1.00  0.00     0.275 C 
BRANCH   2   3
ATOM      3  O   UNL A   1      32.612  28.142  25.808  1.00  0.00    -0.459 OA
BRANCH   3   4
ATOM      4  C   UNL A   1      31.891  27.211  26.473  1.00  0.00     0.338 C 
ATOM      5  O   UNL A   1      31.028  27.419  27.312  1.00  0.00    -0.246 OA
BRANCH   4   6
ATOM      6  C   UNL A   1      32.260  25.853  26.032  1.00  0.00     0.087 C 
ATOM      7  C   UNL A   1      32.430  21.226  23.742  1.00  0.00     0.048 C 
ATOM      8  C   UNL A   1      33.407  22.197  24.340  1.00  0.00    -0.007 A 
ATOM      9  C   UNL A   1      34.780  21.898  24.251  1.00  0.00     0.027 A 
ATOM     10  C   UNL A   1      33.003  23.392  24.954  1.00  0.00     0.131 A 
ATOM     11  C   UNL A   1      35.730  22.769  24.779  1.00  0.00     0.042 A 
ATOM     12  C   UNL A   1      33.966  24.266  25.464  1.00  0.00     0.019 A 
ATOM     13  O   UNL A   1      31.661  23.643  25.046  1.00  0.00    -0.475 OA
ATOM     14  Cl  UNL A   1      37.404  22.394  24.663  1.00  0.00    -0.084 Cl
ATOM     15  C   UNL A   1      35.330  23.951  25.388  1.00  0.00     0.032 A 
ATOM     16  C   UNL A   1      33.557  25.529  26.042  1.00  0.00     0.027 C 
ATOM     17  C   UNL A   1      31.203  24.964  25.453  1.00  0.00     0.316 C 
BRANCH  17  18
ATOM     18  C   UNL A   1      30.503  25.636  24.261  1.00  0.00     0.430 C 
ATOM     19  F   UNL A   1      29.903  24.723  23.459  1.00  0.00    -0.167 F 
ATOM     20  F   UNL A   1      29.532  26.488  24.672  1.00  0.00    -0.167 F 
ATOM     21  F   UNL A   1      31.365  26.344  23.498  1.00  0.00    -0.167 F 
ENDBRANCH  17  18
ENDBRANCH   4   6
ENDBRANCH   3   4
ENDBRANCH   2   3
ENDBRANCH   1   2
BRANCH   1  22
ATOM     22  O   UNL A   1      32.534  30.421  26.978  1.00  0.00    -0.458 OA
BRANCH  22  23
ATOM     23  C   UNL A   1      33.227  31.547  27.254  1.00  0.00     0.338 C 
ATOM     24  O   UNL A   1      32.814  32.695  27.251  1.00  0.00    -0.246 OA
BRANCH  23  25
ATOM     25  C   UNL A   1      34.596  31.217  27.675  1.00  0.00     0.060 A 
ATOM     26  C   UNL A   1      34.893  29.893  27.967  1.00  0.00     0.016 A 
ATOM     27  C   UNL A   1      35.504  32.221  28.001  1.00  0.00     0.016 A 
ATOM     28  C   UNL A   1      36.000  29.583  28.749  1.00  0.00     0.010 A 
ATOM     29  C   UNL A   1      36.704  31.882  28.642  1.00  0.00     0.010 A 
ATOM     30  C   UNL A   1      36.942  30.566  29.079  1.00  0.00    -0.014 A 
BRANCH  30  31
ATOM     31  C   UNL A   1      38.145  30.216  29.893  1.00  0.00     0.031 A 
ATOM     32  C   UNL A   1      39.216  29.313  29.328  1.00  0.00     0.074 A 
ATOM     33  C   UNL A   1      38.303  30.725  31.134  1.00  0.00     0.049 A 
ATOM     34  N   UNL A   1      40.224  28.740  29.939  1.00  0.00    -0.248 NA
ATOM     35  C   UNL A   1      39.140  29.002  27.891  1.00  0.00     0.031 C 
ATOM     36  C   UNL A   1      37.384  31.657  31.792  1.00  0.00     0.029 A 
ATOM     37  N   UNL A   1      39.301  30.547  32.062  1.00  0.00    -0.354 N 
ATOM     38  C   UNL A   1      40.861  27.961  28.979  1.00  0.00     0.074 A 
ATOM     39  C   UNL A   1      40.125  28.126  27.744  1.00  0.00     0.031 C 
ATOM     40  C   UNL A   1      37.888  32.016  32.980  1.00  0.00     0.029 A 
ATOM     41  C   UNL A   1      39.101  31.248  33.229  1.00  0.00     0.049 A 
ATOM     42  H   UNL A   1      40.086  29.973  31.907  1.00  0.00     0.167 HD
ATOM     43  C   UNL A   1      41.963  27.186  29.117  1.00  0.00     0.037 A 
ATOM     44  C   UNL A   1      39.776  31.236  34.394  1.00  0.00     0.037 A 
ATOM     45  C   UNL A   1      42.731  27.080  30.332  1.00  0.00     0.049 A 
ATOM     46  C   UNL A   1      40.958  30.320  34.540  1.00  0.00     0.074 A 
ATOM     47  C   UNL A   1      43.866  26.323  30.569  1.00  0.00     0.029 A 
ATOM     48  N   UNL A   1      42.457  27.768  31.503  1.00  0.00    -0.354 N 
ATOM     49  N   UNL A   1      41.505  29.532  33.648  1.00  0.00    -0.248 NA
ATOM     50  C   UNL A   1      41.598  30.271  35.861  1.00  0.00     0.031 C 
ATOM     51  C   UNL A   1      44.254  26.521  31.897  1.00  0.00     0.029 A 
ATOM     52  C   UNL A   1      43.392  27.440  32.472  1.00  0.00     0.049 A 
ATOM     53  H   UNL A   1      41.709  28.396  31.629  1.00  0.00     0.167 HD
ATOM     54  C   UNL A   1      42.561  28.904  34.293  1.00  0.00     0.074 A 
ATOM     55  C   UNL A   1      42.593  29.421  35.644  1.00  0.00     0.031 C 
ATOM     56  C   UNL A   1      43.418  27.974  33.810  1.00  0.00     0.037 A 
BRANCH  43  57
ATOM     57  C   UNL A   1      42.415  26.369  27.940  1.00  0.00     0.064 A 
ATOM     58  C   UNL A   1      41.858  25.116  27.650  1.00  0.00     0.173 A 
ATOM     59  C   UNL A   1      43.350  26.896  27.033  1.00  0.00     0.173 A 
ATOM     60  F   UNL A   1      40.969  24.561  28.488  1.00  0.00    -0.203 F 
ATOM     61  C   UNL A   1      42.222  24.418  26.500  1.00  0.00     0.198 A 
ATOM     62  C   UNL A   1      43.691  26.209  25.871  1.00  0.00     0.198 A 
ATOM     63  F   UNL A   1      43.908  28.095  27.259  1.00  0.00    -0.203 F 
ATOM     64  F   UNL A   1      41.695  23.211  26.255  1.00  0.00    -0.200 F 
ATOM     65  C   UNL A   1      43.128  24.971  25.606  1.00  0.00     0.200 A 
ATOM     66  F   UNL A   1      44.551  26.753  25.001  1.00  0.00    -0.200 F 
ATOM     67  F   UNL A   1      43.457  24.309  24.487  1.00  0.00    -0.200 F 
ENDBRANCH  43  57
BRANCH  44  68
ATOM     68  C   UNL A   1      39.316  32.082  35.529  1.00  0.00     0.064 A 
ATOM     69  C   UNL A   1      38.434  31.577  36.493  1.00  0.00     0.173 A 
ATOM     70  C   UNL A   1      39.755  33.407  35.681  1.00  0.00     0.173 A 
ATOM     71  F   UNL A   1      37.962  30.327  36.379  1.00  0.00    -0.203 F 
ATOM     72  C   UNL A   1      38.003  32.365  37.559  1.00  0.00     0.198 A 
ATOM     73  C   UNL A   1      39.354  34.182  36.766  1.00  0.00     0.198 A 
ATOM     74  F   UNL A   1      40.598  33.944  34.786  1.00  0.00    -0.203 F 
ATOM     75  F   UNL A   1      37.124  31.872  38.442  1.00  0.00    -0.200 F 
ATOM     76  C   UNL A   1      38.472  33.663  37.701  1.00  0.00     0.200 A 
ATOM     77  F   UNL A   1      39.826  35.428  36.909  1.00  0.00    -0.200 F 
ATOM     78  F   UNL A   1      38.068  34.415  38.734  1.00  0.00    -0.200 F 
ENDBRANCH  44  68
BRANCH  56  79
ATOM     79  C   UNL A   1      44.486  27.471  34.735  1.00  0.00     0.064 A 
ATOM     80  C   UNL A   1      44.299  26.314  35.506  1.00  0.00     0.173 A 
ATOM     81  C   UNL A   1      45.730  28.113  34.800  1.00  0.00     0.173 A 
ATOM     82  F   UNL A   1      43.121  25.675  35.490  1.00  0.00    -0.203 F 
ATOM     83  C   UNL A   1      45.318  25.828  36.320  1.00  0.00     0.198 A 
ATOM     84  C   UNL A   1      46.757  27.606  35.592  1.00  0.00     0.198 A 
ATOM     85  F   UNL A   1      45.960  29.219  34.075  1.00  0.00    -0.203 F 
ATOM     86  F   UNL A   1      45.107  24.742  37.077  1.00  0.00    -0.200 F 
ATOM     87  C   UNL A   1      46.548  26.468  36.354  1.00  0.00     0.200 A 
ATOM     88  F   UNL A   1      47.950  28.216  35.610  1.00  0.00    -0.200 F 
ATOM     89  F   UNL A   1      47.533  25.987  37.125  1.00  0.00    -0.200 F 
ENDBRANCH  56  79
ENDBRANCH  30  31
ENDBRANCH  23  25
ENDBRANCH  22  23
ENDBRANCH   1  22
TORSDOF 12
ENDMDL
