MODEL 1
REMARK VINA RESULT:     -12.4      0.000      0.000
REMARK SMILES C#Cc1ccc2c(c1)C=C(C(=O)OCCOC(=O)c1ccc(-c3c4nc(c(-c5c(F)c(F)c(F)c(F)c5F)c5ccc([nH]5)c(-c5c(F)c(F)c(F)c(F)c5F)c5nc(c(-c6c(F)c(F)c(F)c(F)c6F)c6ccc3[nH]6)C=C5)C=C4)cc1)[C@@H](C(F)(F)F)O2
REMARK SMILES IDX 15 1 14 2 13 3 11 4 12 5 10 6 3 7 4 8 8 9 5 10 7 11 6 12
REMARK SMILES IDX 9 13 87 14 82 15 2 16 1 17 83 18 84 19 85 20 86 21 16 22
REMARK SMILES IDX 17 23 18 24 19 25 20 26 81 27 21 28 80 29 22 30 23 31 24 32
REMARK SMILES IDX 74 33 25 34 79 35 73 36 75 37 26 38 78 39 72 40 71 41 27 43
REMARK SMILES IDX 59 44 39 45 58 46 40 47 43 48 57 49 76 50 41 51 42 52 56 54
REMARK SMILES IDX 77 55 44 56 28 57 29 58 37 59 30 60 31 61 35 62 38 63 32 64
REMARK SMILES IDX 33 65 36 66 34 67 60 68 61 69 69 70 62 71 63 72 67 73 70 74
REMARK SMILES IDX 64 75 65 76 68 77 66 78 45 79 46 80 54 81 47 82 48 83 52 84
REMARK SMILES IDX 55 85 49 86 50 87 53 88 51 89
REMARK H PARENT 75 42 43 53
REMARK Flexibility Score: inf
ROOT
ATOM      1  C   UNL A   1      31.754  30.289  25.725  1.00  0.00     0.275 C 
ENDROOT
BRANCH   1   2
ATOM      2  C   UNL A   1      31.521  29.225  24.649  1.00  0.00     0.275 C 
BRANCH   2   3
ATOM      3  O   UNL A   1      32.239  28.003  24.940  1.00  0.00    -0.459 OA
BRANCH   3   4
ATOM      4  C   UNL A   1      31.584  26.853  24.658  1.00  0.00     0.338 C 
ATOM      5  O   UNL A   1      30.372  26.693  24.659  1.00  0.00    -0.246 OA
BRANCH   4   6
ATOM      6  C   UNL A   1      32.530  25.773  24.308  1.00  0.00     0.087 C 
ATOM      7  C   UNL A   1      36.759  23.618  25.139  1.00  0.00     0.025 A 
ATOM      8  C   UNL A   1      36.652  22.939  23.925  1.00  0.00     0.021 A 
ATOM      9  C   UNL A   1      35.722  24.452  25.548  1.00  0.00     0.029 A 
ATOM     10  C   UNL A   1      35.509  23.093  23.126  1.00  0.00     0.048 A 
ATOM     11  C   UNL A   1      34.596  24.623  24.733  1.00  0.00     0.018 A 
ATOM     12  C   UNL A   1      34.479  23.944  23.526  1.00  0.00     0.128 A 
ATOM     13  C   UNL A   1      33.565  25.555  25.124  1.00  0.00     0.027 C 
ATOM     14  O   UNL A   1      33.395  24.057  22.701  1.00  0.00    -0.475 OA
ATOM     15  C   UNL A   1      32.393  25.084  22.981  1.00  0.00     0.316 C 
BRANCH   7  16
ATOM     16  C   UNL A   1      37.924  23.494  25.960  1.00  0.00    -0.070 C 
ATOM     17  C   UNL A   1      38.882  23.409  26.682  1.00  0.00     0.010 C 
ENDBRANCH   7  16
BRANCH  15  18
ATOM     18  C   UNL A   1      32.404  26.113  21.838  1.00  0.00     0.430 C 
ATOM     19  F   UNL A   1      33.311  27.092  22.061  1.00  0.00    -0.167 F 
ATOM     20  F   UNL A   1      32.737  25.541  20.654  1.00  0.00    -0.167 F 
ATOM     21  F   UNL A   1      31.198  26.702  21.674  1.00  0.00    -0.167 F 
ENDBRANCH  15  18
ENDBRANCH   4   6
ENDBRANCH   3   4
ENDBRANCH   2   3
ENDBRANCH   1   2
BRANCH   1  22
ATOM     22  O   UNL A   1      33.090  30.209  26.253  1.00  0.00    -0.458 OA
BRANCH  22  23
ATOM     23  C   UNL A   1      33.434  31.224  27.075  1.00  0.00     0.338 C 
ATOM     24  O   UNL A   1      32.738  32.156  27.441  1.00  0.00    -0.246 OA
BRANCH  23  25
ATOM     25  C   UNL A   1      34.768  30.979  27.626  1.00  0.00     0.060 A 
ATOM     26  C   UNL A   1      35.640  32.009  27.945  1.00  0.00     0.016 A 
ATOM     27  C   UNL A   1      35.070  29.678  27.996  1.00  0.00     0.016 A 
ATOM     28  C   UNL A   1      36.823  31.699  28.626  1.00  0.00     0.010 A 
ATOM     29  C   UNL A   1      36.124  29.406  28.851  1.00  0.00     0.010 A 
ATOM     30  C   UNL A   1      37.061  30.398  29.124  1.00  0.00    -0.014 A 
BRANCH  30  31
ATOM     31  C   UNL A   1      38.290  30.058  29.892  1.00  0.00     0.031 A 
ATOM     32  C   UNL A   1      38.482  30.554  31.309  1.00  0.00     0.074 A 
ATOM     33  C   UNL A   1      39.249  29.314  29.307  1.00  0.00     0.049 A 
ATOM     34  N   UNL A   1      39.463  30.306  32.144  1.00  0.00    -0.248 NA
ATOM     35  C   UNL A   1      37.472  31.478  31.856  1.00  0.00     0.031 C 
ATOM     36  C   UNL A   1      39.234  28.865  27.913  1.00  0.00     0.029 A 
ATOM     37  N   UNL A   1      40.407  28.779  29.812  1.00  0.00    -0.354 N 
ATOM     38  C   UNL A   1      39.183  31.044  33.290  1.00  0.00     0.074 A 
ATOM     39  C   UNL A   1      38.008  31.830  33.014  1.00  0.00     0.031 C 
ATOM     40  C   UNL A   1      40.272  28.044  27.703  1.00  0.00     0.029 A 
ATOM     41  C   UNL A   1      41.062  27.956  28.927  1.00  0.00     0.049 A 
ATOM     42  H   UNL A   1      40.737  28.966  30.721  1.00  0.00     0.167 HD
ATOM     43  C   UNL A   1      39.811  31.023  34.488  1.00  0.00     0.037 A 
ATOM     44  C   UNL A   1      42.165  27.202  29.088  1.00  0.00     0.037 A 
ATOM     45  C   UNL A   1      40.958  30.206  34.772  1.00  0.00     0.049 A 
ATOM     46  C   UNL A   1      42.848  27.192  30.428  1.00  0.00     0.074 A 
ATOM     47  C   UNL A   1      41.635  30.058  35.969  1.00  0.00     0.029 A 
ATOM     48  N   UNL A   1      41.596  29.395  33.845  1.00  0.00    -0.354 N 
ATOM     49  N   UNL A   1      42.513  27.816  31.530  1.00  0.00    -0.248 NA
ATOM     50  C   UNL A   1      44.059  26.370  30.547  1.00  0.00     0.031 C 
ATOM     51  C   UNL A   1      42.721  29.207  35.750  1.00  0.00     0.029 A 
ATOM     52  C   UNL A   1      42.681  28.770  34.436  1.00  0.00     0.049 A 
ATOM     53  H   UNL A   1      41.318  29.282  32.907  1.00  0.00     0.167 HD
ATOM     54  C   UNL A   1      43.457  27.452  32.479  1.00  0.00     0.074 A 
ATOM     55  C   UNL A   1      44.364  26.528  31.827  1.00  0.00     0.031 C 
ATOM     56  C   UNL A   1      43.570  27.851  33.770  1.00  0.00     0.037 A 
BRANCH  43  57
ATOM     57  C   UNL A   1      39.253  31.878  35.594  1.00  0.00     0.064 A 
ATOM     58  C   UNL A   1      38.379  31.352  36.559  1.00  0.00     0.173 A 
ATOM     59  C   UNL A   1      39.641  33.220  35.729  1.00  0.00     0.173 A 
ATOM     60  F   UNL A   1      37.966  30.078  36.476  1.00  0.00    -0.203 F 
ATOM     61  C   UNL A   1      37.897  32.141  37.601  1.00  0.00     0.198 A 
ATOM     62  C   UNL A   1      39.187  33.996  36.793  1.00  0.00     0.198 A 
ATOM     63  F   UNL A   1      40.478  33.775  34.841  1.00  0.00    -0.203 F 
ATOM     64  F   UNL A   1      37.027  31.627  38.482  1.00  0.00    -0.200 F 
ATOM     65  C   UNL A   1      38.311  33.458  37.724  1.00  0.00     0.200 A 
ATOM     66  F   UNL A   1      39.604  35.262  36.922  1.00  0.00    -0.200 F 
ATOM     67  F   UNL A   1      37.863  34.211  38.739  1.00  0.00    -0.200 F 
ENDBRANCH  43  57
BRANCH  44  68
ATOM     68  C   UNL A   1      42.645  26.355  27.963  1.00  0.00     0.064 A 
ATOM     69  C   UNL A   1      42.166  25.048  27.791  1.00  0.00     0.173 A 
ATOM     70  C   UNL A   1      43.551  26.846  27.012  1.00  0.00     0.173 A 
ATOM     71  F   UNL A   1      41.309  24.526  28.681  1.00  0.00    -0.203 F 
ATOM     72  C   UNL A   1      42.578  24.265  26.715  1.00  0.00     0.198 A 
ATOM     73  C   UNL A   1      43.937  26.074  25.917  1.00  0.00     0.198 A 
ATOM     74  F   UNL A   1      44.034  28.091  27.124  1.00  0.00    -0.203 F 
ATOM     75  F   UNL A   1      42.128  23.009  26.592  1.00  0.00    -0.200 F 
ATOM     76  C   UNL A   1      43.454  24.782  25.772  1.00  0.00     0.200 A 
ATOM     77  F   UNL A   1      44.765  26.586  24.997  1.00  0.00    -0.200 F 
ATOM     78  F   UNL A   1      43.834  24.036  24.726  1.00  0.00    -0.200 F 
ENDBRANCH  44  68
BRANCH  56  79
ATOM     79  C   UNL A   1      44.706  27.293  34.575  1.00  0.00     0.064 A 
ATOM     80  C   UNL A   1      45.924  27.977  34.696  1.00  0.00     0.173 A 
ATOM     81  C   UNL A   1      44.543  26.105  35.306  1.00  0.00     0.173 A 
ATOM     82  F   UNL A   1      46.132  29.111  34.010  1.00  0.00    -0.203 F 
ATOM     83  C   UNL A   1      46.944  27.483  35.503  1.00  0.00     0.198 A 
ATOM     84  C   UNL A   1      45.551  25.635  36.142  1.00  0.00     0.198 A 
ATOM     85  F   UNL A   1      43.393  25.418  35.236  1.00  0.00    -0.203 F 
ATOM     86  F   UNL A   1      48.114  28.133  35.572  1.00  0.00    -0.200 F 
ATOM     87  C   UNL A   1      46.752  26.321  36.235  1.00  0.00     0.200 A 
ATOM     88  F   UNL A   1      45.355  24.525  36.867  1.00  0.00    -0.200 F 
ATOM     89  F   UNL A   1      47.727  25.861  37.032  1.00  0.00    -0.200 F 
ENDBRANCH  56  79
ENDBRANCH  30  31
ENDBRANCH  23  25
ENDBRANCH  22  23
ENDBRANCH   1  22
TORSDOF 13
ENDMDL
MODEL 2
REMARK VINA RESULT:     -12.4      0.222      1.675
REMARK SMILES C#Cc1ccc2c(c1)C=C(C(=O)OCCOC(=O)c1ccc(-c3c4nc(c(-c5c(F)c(F)c(F)c(F)c5F)c5ccc([nH]5)c(-c5c(F)c(F)c(F)c(F)c5F)c5nc(c(-c6c(F)c(F)c(F)c(F)c6F)c6ccc3[nH]6)C=C5)C=C4)cc1)[C@@H](C(F)(F)F)O2
REMARK SMILES IDX 15 1 14 2 13 3 11 4 12 5 10 6 3 7 4 8 8 9 5 10 7 11 6 12
REMARK SMILES IDX 9 13 87 14 82 15 2 16 1 17 83 18 84 19 85 20 86 21 16 22
REMARK SMILES IDX 17 23 18 24 19 25 20 26 81 27 21 28 80 29 22 30 23 31 24 32
REMARK SMILES IDX 74 33 25 34 79 35 73 36 75 37 26 38 78 39 72 40 71 41 27 43
REMARK SMILES IDX 59 44 39 45 58 46 40 47 43 48 57 49 76 50 41 51 42 52 56 54
REMARK SMILES IDX 77 55 44 56 28 57 29 58 37 59 30 60 31 61 35 62 38 63 32 64
REMARK SMILES IDX 33 65 36 66 34 67 60 68 61 69 69 70 62 71 63 72 67 73 70 74
REMARK SMILES IDX 64 75 65 76 68 77 66 78 45 79 46 80 54 81 47 82 48 83 52 84
REMARK SMILES IDX 55 85 49 86 50 87 53 88 51 89
REMARK H PARENT 75 42 43 53
REMARK Flexibility Score: inf
ROOT
ATOM      1  C   UNL A   1      31.599  30.354  25.743  1.00  0.00     0.275 C 
ENDROOT
BRANCH   1   2
ATOM      2  C   UNL A   1      31.559  29.328  24.607  1.00  0.00     0.275 C 
BRANCH   2   3
ATOM      3  O   UNL A   1      32.191  28.084  24.986  1.00  0.00    -0.459 OA
BRANCH   3   4
ATOM      4  C   UNL A   1      31.501  26.958  24.692  1.00  0.00     0.338 C 
ATOM      5  O   UNL A   1      30.285  26.833  24.698  1.00  0.00    -0.246 OA
BRANCH   4   6
ATOM      6  C   UNL A   1      32.414  25.856  24.318  1.00  0.00     0.087 C 
ATOM      7  C   UNL A   1      36.605  23.597  25.052  1.00  0.00     0.025 A 
ATOM      8  C   UNL A   1      36.457  22.925  23.838  1.00  0.00     0.021 A 
ATOM      9  C   UNL A   1      35.599  24.455  25.486  1.00  0.00     0.029 A 
ATOM     10  C   UNL A   1      35.301  23.110  23.065  1.00  0.00     0.048 A 
ATOM     11  C   UNL A   1      34.459  24.656  24.695  1.00  0.00     0.018 A 
ATOM     12  C   UNL A   1      34.301  23.984  23.489  1.00  0.00     0.128 A 
ATOM     13  C   UNL A   1      33.461  25.611  25.111  1.00  0.00     0.027 C 
ATOM     14  O   UNL A   1      33.202  24.126  22.688  1.00  0.00    -0.475 OA
ATOM     15  C   UNL A   1      32.232  25.176  22.992  1.00  0.00     0.316 C 
BRANCH   7  16
ATOM     16  C   UNL A   1      37.785  23.442  25.848  1.00  0.00    -0.070 C 
ATOM     17  C   UNL A   1      38.785  23.354  26.509  1.00  0.00     0.010 C 
ENDBRANCH   7  16
BRANCH  15  18
ATOM     18  C   UNL A   1      32.243  26.208  21.852  1.00  0.00     0.430 C 
ATOM     19  F   UNL A   1      32.572  25.638  20.670  1.00  0.00    -0.167 F 
ATOM     20  F   UNL A   1      31.024  26.775  21.680  1.00  0.00    -0.167 F 
ATOM     21  F   UNL A   1      33.123  27.210  22.082  1.00  0.00    -0.167 F 
ENDBRANCH  15  18
ENDBRANCH   4   6
ENDBRANCH   3   4
ENDBRANCH   2   3
ENDBRANCH   1   2
BRANCH   1  22
ATOM     22  O   UNL A   1      32.770  30.177  26.561  1.00  0.00    -0.458 OA
BRANCH  22  23
ATOM     23  C   UNL A   1      33.263  31.315  27.094  1.00  0.00     0.338 C 
ATOM     24  O   UNL A   1      32.685  32.377  27.252  1.00  0.00    -0.246 OA
BRANCH  23  25
ATOM     25  C   UNL A   1      34.603  31.067  27.629  1.00  0.00     0.060 A 
ATOM     26  C   UNL A   1      35.466  32.094  27.976  1.00  0.00     0.016 A 
ATOM     27  C   UNL A   1      34.921  29.757  27.953  1.00  0.00     0.016 A 
ATOM     28  C   UNL A   1      36.657  31.774  28.639  1.00  0.00     0.010 A 
ATOM     29  C   UNL A   1      35.983  29.468  28.792  1.00  0.00     0.010 A 
ATOM     30  C   UNL A   1      36.912  30.461  29.092  1.00  0.00    -0.014 A 
BRANCH  30  31
ATOM     31  C   UNL A   1      38.150  30.108  29.841  1.00  0.00     0.031 A 
ATOM     32  C   UNL A   1      38.364  30.593  31.259  1.00  0.00     0.074 A 
ATOM     33  C   UNL A   1      39.096  29.363  29.237  1.00  0.00     0.049 A 
ATOM     34  N   UNL A   1      39.354  30.333  32.078  1.00  0.00    -0.248 NA
ATOM     35  C   UNL A   1      37.366  31.518  31.826  1.00  0.00     0.031 C 
ATOM     36  C   UNL A   1      39.060  28.924  27.840  1.00  0.00     0.029 A 
ATOM     37  N   UNL A   1      40.258  28.818  29.722  1.00  0.00    -0.354 N 
ATOM     38  C   UNL A   1      39.095  31.064  33.233  1.00  0.00     0.074 A 
ATOM     39  C   UNL A   1      37.920  31.859  32.979  1.00  0.00     0.031 C 
ATOM     40  C   UNL A   1      40.090  28.099  27.610  1.00  0.00     0.029 A 
ATOM     41  C   UNL A   1      40.897  27.998  28.822  1.00  0.00     0.049 A 
ATOM     42  H   UNL A   1      40.602  28.997  30.628  1.00  0.00     0.167 HD
ATOM     43  C   UNL A   1      39.738  31.032  34.423  1.00  0.00     0.037 A 
ATOM     44  C   UNL A   1      41.998  27.237  28.963  1.00  0.00     0.037 A 
ATOM     45  C   UNL A   1      40.885  30.206  34.685  1.00  0.00     0.049 A 
ATOM     46  C   UNL A   1      42.698  27.213  30.293  1.00  0.00     0.074 A 
ATOM     47  C   UNL A   1      41.577  30.046  35.871  1.00  0.00     0.029 A 
ATOM     48  N   UNL A   1      41.505  29.399  33.743  1.00  0.00    -0.354 N 
ATOM     49  N   UNL A   1      42.381  27.831  31.405  1.00  0.00    -0.248 NA
ATOM     50  C   UNL A   1      43.906  26.384  30.390  1.00  0.00     0.031 C 
ATOM     51  C   UNL A   1      42.655  29.191  35.631  1.00  0.00     0.029 A 
ATOM     52  C   UNL A   1      42.595  28.763  34.314  1.00  0.00     0.049 A 
ATOM     53  H   UNL A   1      41.214  29.294  32.808  1.00  0.00     0.167 HD
ATOM     54  C   UNL A   1      43.337  27.455  32.338  1.00  0.00     0.074 A 
ATOM     55  C   UNL A   1      44.230  26.531  31.667  1.00  0.00     0.031 C 
ATOM     56  C   UNL A   1      43.469  27.844  33.630  1.00  0.00     0.037 A 
BRANCH  43  57
ATOM     57  C   UNL A   1      39.200  31.882  35.542  1.00  0.00     0.064 A 
ATOM     58  C   UNL A   1      38.335  31.354  36.514  1.00  0.00     0.173 A 
ATOM     59  C   UNL A   1      39.600  33.219  35.683  1.00  0.00     0.173 A 
ATOM     60  F   UNL A   1      37.911  30.083  36.425  1.00  0.00    -0.203 F 
ATOM     61  C   UNL A   1      37.871  32.138  37.567  1.00  0.00     0.198 A 
ATOM     62  C   UNL A   1      39.164  33.990  36.759  1.00  0.00     0.198 A 
ATOM     63  F   UNL A   1      40.430  33.775  34.789  1.00  0.00    -0.203 F 
ATOM     64  F   UNL A   1      37.008  31.623  38.454  1.00  0.00    -0.200 F 
ATOM     65  C   UNL A   1      38.296  33.451  37.696  1.00  0.00     0.200 A 
ATOM     66  F   UNL A   1      39.592  35.252  36.893  1.00  0.00    -0.200 F 
ATOM     67  F   UNL A   1      37.866  34.199  38.722  1.00  0.00    -0.200 F 
ENDBRANCH  43  57
BRANCH  44  68
ATOM     68  C   UNL A   1      42.457  26.395  27.826  1.00  0.00     0.064 A 
ATOM     69  C   UNL A   1      43.372  26.892  26.886  1.00  0.00     0.173 A 
ATOM     70  C   UNL A   1      42.032  25.066  27.681  1.00  0.00     0.173 A 
ATOM     71  F   UNL A   1      43.797  28.161  26.971  1.00  0.00    -0.203 F 
ATOM     72  C   UNL A   1      43.839  26.094  25.844  1.00  0.00     0.198 A 
ATOM     73  C   UNL A   1      42.527  24.258  26.658  1.00  0.00     0.198 A 
ATOM     74  F   UNL A   1      41.166  24.539  28.557  1.00  0.00    -0.203 F 
ATOM     75  F   UNL A   1      44.689  26.604  24.942  1.00  0.00    -0.200 F 
ATOM     76  C   UNL A   1      43.426  24.775  25.737  1.00  0.00     0.200 A 
ATOM     77  F   UNL A   1      42.142  22.978  26.574  1.00  0.00    -0.200 F 
ATOM     78  F   UNL A   1      43.892  24.001  24.747  1.00  0.00    -0.200 F 
ENDBRANCH  44  68
BRANCH  56  79
ATOM     79  C   UNL A   1      44.614  27.274  34.416  1.00  0.00     0.064 A 
ATOM     80  C   UNL A   1      44.495  26.059  35.104  1.00  0.00     0.173 A 
ATOM     81  C   UNL A   1      45.867  27.905  34.404  1.00  0.00     0.173 A 
ATOM     82  F   UNL A   1      43.316  25.422  35.153  1.00  0.00    -0.203 F 
ATOM     83  C   UNL A   1      45.585  25.505  35.769  1.00  0.00     0.198 A 
ATOM     84  C   UNL A   1      46.964  27.329  35.037  1.00  0.00     0.198 A 
ATOM     85  F   UNL A   1      46.038  29.063  33.749  1.00  0.00    -0.203 F 
ATOM     86  F   UNL A   1      45.438  24.362  36.455  1.00  0.00    -0.200 F 
ATOM     87  C   UNL A   1      46.820  26.133  35.724  1.00  0.00     0.200 A 
ATOM     88  F   UNL A   1      48.163  27.925  34.973  1.00  0.00    -0.200 F 
ATOM     89  F   UNL A   1      47.874  25.585  36.344  1.00  0.00    -0.200 F 
ENDBRANCH  56  79
ENDBRANCH  30  31
ENDBRANCH  23  25
ENDBRANCH  22  23
ENDBRANCH   1  22
TORSDOF 13
ENDMDL
MODEL 3
REMARK VINA RESULT:     -12.4      0.499      1.242
REMARK SMILES C#Cc1ccc2c(c1)C=C(C(=O)OCCOC(=O)c1ccc(-c3c4nc(c(-c5c(F)c(F)c(F)c(F)c5F)c5ccc([nH]5)c(-c5c(F)c(F)c(F)c(F)c5F)c5nc(c(-c6c(F)c(F)c(F)c(F)c6F)c6ccc3[nH]6)C=C5)C=C4)cc1)[C@@H](C(F)(F)F)O2
REMARK SMILES IDX 15 1 14 2 13 3 11 4 12 5 10 6 3 7 4 8 8 9 5 10 7 11 6 12
REMARK SMILES IDX 9 13 87 14 82 15 2 16 1 17 83 18 84 19 85 20 86 21 16 22
REMARK SMILES IDX 17 23 18 24 19 25 20 26 81 27 21 28 80 29 22 30 23 31 24 32
REMARK SMILES IDX 74 33 25 34 79 35 73 36 75 37 26 38 78 39 72 40 71 41 27 43
REMARK SMILES IDX 59 44 39 45 58 46 40 47 43 48 57 49 76 50 41 51 42 52 56 54
REMARK SMILES IDX 77 55 44 56 28 57 29 58 37 59 30 60 31 61 35 62 38 63 32 64
REMARK SMILES IDX 33 65 36 66 34 67 60 68 61 69 69 70 62 71 63 72 67 73 70 74
REMARK SMILES IDX 64 75 65 76 68 77 66 78 45 79 46 80 54 81 47 82 48 83 52 84
REMARK SMILES IDX 55 85 49 86 50 87 53 88 51 89
REMARK H PARENT 75 42 43 53
REMARK Flexibility Score: inf
ROOT
ATOM      1  C   UNL A   1      31.811  30.259  25.738  1.00  0.00     0.275 C 
ENDROOT
BRANCH   1   2
ATOM      2  C   UNL A   1      32.503  29.348  24.719  1.00  0.00     0.275 C 
BRANCH   2   3
ATOM      3  O   UNL A   1      32.961  28.117  25.327  1.00  0.00    -0.459 OA
BRANCH   3   4
ATOM      4  C   UNL A   1      32.197  27.025  25.093  1.00  0.00     0.338 C 
ATOM      5  O   UNL A   1      30.982  26.954  25.210  1.00  0.00    -0.246 OA
BRANCH   4   6
ATOM      6  C   UNL A   1      33.021  25.887  24.634  1.00  0.00     0.087 C 
ATOM      7  C   UNL A   1      37.026  23.264  25.174  1.00  0.00     0.025 A 
ATOM      8  C   UNL A   1      36.825  22.696  23.915  1.00  0.00     0.021 A 
ATOM      9  C   UNL A   1      36.089  24.163  25.676  1.00  0.00     0.029 A 
ATOM     10  C   UNL A   1      35.687  23.025  23.165  1.00  0.00     0.048 A 
ATOM     11  C   UNL A   1      34.968  24.508  24.909  1.00  0.00     0.018 A 
ATOM     12  C   UNL A   1      34.757  23.940  23.658  1.00  0.00     0.128 A 
ATOM     13  C   UNL A   1      34.046  25.504  25.400  1.00  0.00     0.027 C 
ATOM     14  O   UNL A   1      33.672  24.225  22.876  1.00  0.00    -0.475 OA
ATOM     15  C   UNL A   1      32.786  25.321  23.263  1.00  0.00     0.316 C 
BRANCH   7  16
ATOM     16  C   UNL A   1      38.191  22.961  25.948  1.00  0.00    -0.070 C 
ATOM     17  C   UNL A   1      39.158  22.738  26.627  1.00  0.00     0.010 C 
ENDBRANCH   7  16
BRANCH  15  18
ATOM     18  C   UNL A   1      32.876  26.430  22.201  1.00  0.00     0.430 C 
ATOM     19  F   UNL A   1      33.899  27.279  22.456  1.00  0.00    -0.167 F 
ATOM     20  F   UNL A   1      33.097  25.920  20.964  1.00  0.00    -0.167 F 
ATOM     21  F   UNL A   1      31.742  27.164  22.136  1.00  0.00    -0.167 F 
ENDBRANCH  15  18
ENDBRANCH   4   6
ENDBRANCH   3   4
ENDBRANCH   2   3
ENDBRANCH   1   2
BRANCH   1  22
ATOM     22  O   UNL A   1      32.546  30.307  26.974  1.00  0.00    -0.458 OA
BRANCH  22  23
ATOM     23  C   UNL A   1      33.145  31.491  27.227  1.00  0.00     0.338 C 
ATOM     24  O   UNL A   1      32.646  32.603  27.193  1.00  0.00    -0.246 OA
BRANCH  23  25
ATOM     25  C   UNL A   1      34.504  31.257  27.721  1.00  0.00     0.060 A 
ATOM     26  C   UNL A   1      35.381  32.294  27.999  1.00  0.00     0.016 A 
ATOM     27  C   UNL A   1      34.830  29.959  28.082  1.00  0.00     0.016 A 
ATOM     28  C   UNL A   1      36.594  31.994  28.629  1.00  0.00     0.010 A 
ATOM     29  C   UNL A   1      35.922  29.698  28.892  1.00  0.00     0.010 A 
ATOM     30  C   UNL A   1      36.863  30.697  29.121  1.00  0.00    -0.014 A 
BRANCH  30  31
ATOM     31  C   UNL A   1      38.126  30.369  29.837  1.00  0.00     0.031 A 
ATOM     32  C   UNL A   1      38.354  30.829  31.260  1.00  0.00     0.074 A 
ATOM     33  C   UNL A   1      39.083  29.667  29.197  1.00  0.00     0.049 A 
ATOM     34  N   UNL A   1      39.369  30.583  32.054  1.00  0.00    -0.248 NA
ATOM     35  C   UNL A   1      37.340  31.710  31.868  1.00  0.00     0.031 C 
ATOM     36  C   UNL A   1      39.032  29.258  27.793  1.00  0.00     0.029 A 
ATOM     37  N   UNL A   1      40.271  29.149  29.647  1.00  0.00    -0.354 N 
ATOM     38  C   UNL A   1      39.111  31.280  33.230  1.00  0.00     0.074 A 
ATOM     39  C   UNL A   1      37.906  32.042  33.017  1.00  0.00     0.031 C 
ATOM     40  C   UNL A   1      40.083  28.471  27.523  1.00  0.00     0.029 A 
ATOM     41  C   UNL A   1      40.917  28.370  28.716  1.00  0.00     0.049 A 
ATOM     42  H   UNL A   1      40.628  29.319  30.550  1.00  0.00     0.167 HD
ATOM     43  C   UNL A   1      39.780  31.242  34.405  1.00  0.00     0.037 A 
ATOM     44  C   UNL A   1      42.044  27.641  28.818  1.00  0.00     0.037 A 
ATOM     45  C   UNL A   1      40.957  30.448  34.626  1.00  0.00     0.049 A 
ATOM     46  C   UNL A   1      42.772  27.611  30.133  1.00  0.00     0.074 A 
ATOM     47  C   UNL A   1      41.678  30.284  35.795  1.00  0.00     0.029 A 
ATOM     48  N   UNL A   1      41.583  29.682  33.654  1.00  0.00    -0.354 N 
ATOM     49  N   UNL A   1      42.459  28.194  31.264  1.00  0.00    -0.248 NA
ATOM     50  C   UNL A   1      44.007  26.818  30.187  1.00  0.00     0.031 C 
ATOM     51  C   UNL A   1      42.777  29.470  35.514  1.00  0.00     0.029 A 
ATOM     52  C   UNL A   1      42.703  29.069  34.189  1.00  0.00     0.049 A 
ATOM     53  H   UNL A   1      41.276  29.588  32.723  1.00  0.00     0.167 HD
ATOM     54  C   UNL A   1      43.445  27.828  32.170  1.00  0.00     0.074 A 
ATOM     55  C   UNL A   1      44.352  26.948  31.461  1.00  0.00     0.031 C 
ATOM     56  C   UNL A   1      43.592  28.194  33.467  1.00  0.00     0.037 A 
BRANCH  43  57
ATOM     57  C   UNL A   1      39.238  32.050  35.554  1.00  0.00     0.064 A 
ATOM     58  C   UNL A   1      38.391  31.480  36.518  1.00  0.00     0.173 A 
ATOM     59  C   UNL A   1      39.617  33.390  35.730  1.00  0.00     0.173 A 
ATOM     60  F   UNL A   1      37.988  30.206  36.396  1.00  0.00    -0.203 F 
ATOM     61  C   UNL A   1      37.925  32.225  37.598  1.00  0.00     0.198 A 
ATOM     62  C   UNL A   1      39.179  34.121  36.832  1.00  0.00     0.198 A 
ATOM     63  F   UNL A   1      40.429  33.986  34.845  1.00  0.00    -0.203 F 
ATOM     64  F   UNL A   1      37.079  31.670  38.478  1.00  0.00    -0.200 F 
ATOM     65  C   UNL A   1      38.329  33.541  37.762  1.00  0.00     0.200 A 
ATOM     66  F   UNL A   1      39.587  35.386  36.999  1.00  0.00    -0.200 F 
ATOM     67  F   UNL A   1      37.897  34.251  38.813  1.00  0.00    -0.200 F 
ENDBRANCH  43  57
BRANCH  44  68
ATOM     68  C   UNL A   1      42.506  26.839  27.653  1.00  0.00     0.064 A 
ATOM     69  C   UNL A   1      43.404  27.377  26.720  1.00  0.00     0.173 A 
ATOM     70  C   UNL A   1      42.100  25.508  27.474  1.00  0.00     0.173 A 
ATOM     71  F   UNL A   1      43.810  28.649  26.838  1.00  0.00    -0.203 F 
ATOM     72  C   UNL A   1      43.874  26.616  25.652  1.00  0.00     0.198 A 
ATOM     73  C   UNL A   1      42.598  24.738  26.425  1.00  0.00     0.198 A 
ATOM     74  F   UNL A   1      41.250  24.943  28.342  1.00  0.00    -0.203 F 
ATOM     75  F   UNL A   1      44.708  27.165  24.758  1.00  0.00    -0.200 F 
ATOM     76  C   UNL A   1      43.480  25.294  25.511  1.00  0.00     0.200 A 
ATOM     77  F   UNL A   1      42.232  23.455  26.307  1.00  0.00    -0.200 F 
ATOM     78  F   UNL A   1      43.949  24.557  24.495  1.00  0.00    -0.200 F 
ENDBRANCH  44  68
BRANCH  56  79
ATOM     79  C   UNL A   1      44.770  27.643  34.217  1.00  0.00     0.064 A 
ATOM     80  C   UNL A   1      45.972  28.356  34.316  1.00  0.00     0.173 A 
ATOM     81  C   UNL A   1      44.662  26.431  34.917  1.00  0.00     0.173 A 
ATOM     82  F   UNL A   1      46.128  29.514  33.658  1.00  0.00    -0.203 F 
ATOM     83  C   UNL A   1      47.032  27.867  35.074  1.00  0.00     0.198 A 
ATOM     84  C   UNL A   1      45.710  25.965  35.705  1.00  0.00     0.198 A 
ATOM     85  F   UNL A   1      43.528  25.716  34.866  1.00  0.00    -0.203 F 
ATOM     86  F   UNL A   1      48.187  28.545  35.122  1.00  0.00    -0.200 F 
ATOM     87  C   UNL A   1      46.896  26.680  35.777  1.00  0.00     0.200 A 
ATOM     88  F   UNL A   1      45.568  24.829  36.403  1.00  0.00    -0.200 F 
ATOM     89  F   UNL A   1      47.909  26.223  36.526  1.00  0.00    -0.200 F 
ENDBRANCH  56  79
ENDBRANCH  30  31
ENDBRANCH  23  25
ENDBRANCH  22  23
ENDBRANCH   1  22
TORSDOF 13
ENDMDL
