MODEL 1
REMARK VINA RESULT:     -12.0      0.000      0.000
REMARK SMILES O=C(NC[C@@H]1CC[C@H](C(=O)OCCOC(=O)c2ccc(-c3c4nc(c(-c5c(F)c(F)c(F)c(F)c5F)c5ccc([nH]5)c(-c5c(F)c(F)c(F)c(F)c5F)c5nc(c(-c6c(F)c(F)c(F)c(F)c6F)c6ccc3[nH]6)C=C5)C=C4)cc2)O1)Nc1ncccn1
REMARK SMILES IDX 12 1 11 2 9 3 10 4 8 5 5 6 6 7 80 8 7 9 4 10 3 11 1 12 2 13
REMARK SMILES IDX 81 14 82 17 83 18 87 19 84 20 86 21 85 22 13 23 14 24 15 25
REMARK SMILES IDX 16 26 17 27 18 28 79 29 19 30 78 31 20 32 21 33 22 34 72 35
REMARK SMILES IDX 23 36 77 37 71 38 73 39 24 40 76 41 70 42 69 43 25 45 57 46
REMARK SMILES IDX 37 47 56 48 38 49 41 50 55 51 74 52 39 53 40 54 54 56 75 57
REMARK SMILES IDX 42 58 26 59 27 60 35 61 28 62 29 63 33 64 36 65 30 66 31 67
REMARK SMILES IDX 34 68 32 69 58 70 59 71 67 72 60 73 61 74 65 75 68 76 62 77
REMARK SMILES IDX 63 78 66 79 64 80 43 81 44 82 52 83 45 84 46 85 50 86 53 87
REMARK SMILES IDX 47 88 48 89 51 90 49 91
REMARK H PARENT 3 15 81 16 73 44 41 55
REMARK Flexibility Score: inf
ROOT
ATOM      1  C   UNL A   1      31.782  28.601  26.867  1.00  0.00     0.274 C 
ENDROOT
BRANCH   1   2
ATOM      2  O   UNL A   1      31.623  27.593  25.849  1.00  0.00    -0.460 OA
BRANCH   2   3
ATOM      3  C   UNL A   1      31.961  26.318  26.179  1.00  0.00     0.335 C 
ATOM      4  O   UNL A   1      31.235  25.547  26.797  1.00  0.00    -0.249 OA
BRANCH   3   5
ATOM      5  C   UNL A   1      33.375  25.932  25.700  1.00  0.00     0.228 C 
ATOM      6  C   UNL A   1      33.624  26.028  23.385  1.00  0.00     0.138 C 
ATOM      7  C   UNL A   1      33.177  24.618  23.763  1.00  0.00     0.037 C 
ATOM      8  O   UNL A   1      33.800  26.763  24.612  1.00  0.00    -0.361 OA
ATOM      9  C   UNL A   1      33.560  24.509  25.218  1.00  0.00     0.047 C 
BRANCH   6  10
ATOM     10  C   UNL A   1      32.637  26.805  22.501  1.00  0.00     0.149 C 
BRANCH  10  11
ATOM     11  N   UNL A   1      31.249  26.558  22.844  1.00  0.00    -0.335 N 
ATOM     12  O   UNL A   1      29.201  27.088  23.499  1.00  0.00    -0.248 OA
ATOM     13  C   UNL A   1      30.210  27.443  22.900  1.00  0.00     0.321 C 
ATOM     14  N   UNL A   1      30.402  28.619  22.253  1.00  0.00    -0.276 N 
ATOM     15  H   UNL A   1      31.026  25.625  23.068  1.00  0.00     0.165 HD
ATOM     16  H   UNL A   1      31.213  28.696  21.700  1.00  0.00     0.175 HD
BRANCH  14  17
ATOM     17  C   UNL A   1      29.566  29.720  22.298  1.00  0.00     0.230 A 
ATOM     18  N   UNL A   1      29.560  30.356  23.483  1.00  0.00    -0.221 NA
ATOM     19  N   UNL A   1      28.816  30.080  21.250  1.00  0.00    -0.221 NA
ATOM     20  C   UNL A   1      28.794  31.461  23.571  1.00  0.00     0.117 A 
ATOM     21  C   UNL A   1      28.055  31.179  21.393  1.00  0.00     0.117 A 
ATOM     22  C   UNL A   1      28.013  31.926  22.543  1.00  0.00     0.040 A 
ENDBRANCH  14  17
ENDBRANCH  10  11
ENDBRANCH   6  10
ENDBRANCH   3   5
ENDBRANCH   2   3
ENDBRANCH   1   2
BRANCH   1  23
ATOM     23  C   UNL A   1      31.860  29.997  26.246  1.00  0.00     0.275 C 
BRANCH  23  24
ATOM     24  O   UNL A   1      33.220  30.466  26.168  1.00  0.00    -0.458 OA
BRANCH  24  25
ATOM     25  C   UNL A   1      33.552  31.403  27.085  1.00  0.00     0.338 C 
ATOM     26  O   UNL A   1      32.877  32.338  27.477  1.00  0.00    -0.246 OA
BRANCH  25  27
ATOM     27  C   UNL A   1      34.843  31.062  27.696  1.00  0.00     0.060 A 
ATOM     28  C   UNL A   1      35.045  29.737  28.087  1.00  0.00     0.016 A 
ATOM     29  C   UNL A   1      35.788  32.043  27.992  1.00  0.00     0.016 A 
ATOM     30  C   UNL A   1      36.180  29.384  28.804  1.00  0.00     0.010 A 
ATOM     31  C   UNL A   1      36.942  31.684  28.699  1.00  0.00     0.010 A 
ATOM     32  C   UNL A   1      37.134  30.357  29.124  1.00  0.00    -0.014 A 
BRANCH  32  33
ATOM     33  C   UNL A   1      38.299  29.979  29.956  1.00  0.00     0.031 A 
ATOM     34  C   UNL A   1      39.356  29.076  29.395  1.00  0.00     0.074 A 
ATOM     35  C   UNL A   1      38.431  30.492  31.193  1.00  0.00     0.049 A 
ATOM     36  N   UNL A   1      40.410  28.567  29.982  1.00  0.00    -0.248 NA
ATOM     37  C   UNL A   1      39.213  28.696  27.981  1.00  0.00     0.031 C 
ATOM     38  C   UNL A   1      37.503  31.434  31.819  1.00  0.00     0.029 A 
ATOM     39  N   UNL A   1      39.404  30.300  32.141  1.00  0.00    -0.354 N 
ATOM     40  C   UNL A   1      41.038  27.787  29.021  1.00  0.00     0.074 A 
ATOM     41  C   UNL A   1      40.245  27.883  27.813  1.00  0.00     0.031 C 
ATOM     42  C   UNL A   1      37.958  31.748  33.042  1.00  0.00     0.029 A 
ATOM     43  C   UNL A   1      39.180  30.992  33.304  1.00  0.00     0.049 A 
ATOM     44  H   UNL A   1      40.188  29.721  31.999  1.00  0.00     0.167 HD
ATOM     45  C   UNL A   1      42.173  27.059  29.140  1.00  0.00     0.037 A 
ATOM     46  C   UNL A   1      39.869  30.994  34.459  1.00  0.00     0.037 A 
ATOM     47  C   UNL A   1      42.969  26.987  30.338  1.00  0.00     0.049 A 
ATOM     48  C   UNL A   1      41.094  30.132  34.584  1.00  0.00     0.074 A 
ATOM     49  C   UNL A   1      44.132  26.270  30.562  1.00  0.00     0.029 A 
ATOM     50  N   UNL A   1      42.685  27.666  31.513  1.00  0.00    -0.354 N 
ATOM     51  N   UNL A   1      41.657  29.361  33.685  1.00  0.00    -0.248 NA
ATOM     52  C   UNL A   1      41.770  30.127  35.888  1.00  0.00     0.031 C 
ATOM     53  C   UNL A   1      44.535  26.492  31.883  1.00  0.00     0.029 A 
ATOM     54  C   UNL A   1      43.643  27.375  32.471  1.00  0.00     0.049 A 
ATOM     55  H   UNL A   1      41.916  28.265  31.647  1.00  0.00     0.167 HD
ATOM     56  C   UNL A   1      42.760  28.793  34.307  1.00  0.00     0.074 A 
ATOM     57  C   UNL A   1      42.794  29.318  35.657  1.00  0.00     0.031 C 
ATOM     58  C   UNL A   1      43.659  27.912  33.806  1.00  0.00     0.037 A 
BRANCH  45  59
ATOM     59  C   UNL A   1      42.602  26.254  27.951  1.00  0.00     0.064 A 
ATOM     60  C   UNL A   1      42.109  24.963  27.718  1.00  0.00     0.173 A 
ATOM     61  C   UNL A   1      43.504  26.793  27.021  1.00  0.00     0.173 A 
ATOM     62  F   UNL A   1      41.257  24.398  28.587  1.00  0.00    -0.203 F 
ATOM     63  C   UNL A   1      42.520  24.231  26.606  1.00  0.00     0.198 A 
ATOM     64  C   UNL A   1      43.896  26.067  25.900  1.00  0.00     0.198 A 
ATOM     65  F   UNL A   1      44.004  28.025  27.200  1.00  0.00    -0.203 F 
ATOM     66  F   UNL A   1      42.067  22.983  26.423  1.00  0.00    -0.200 F 
ATOM     67  C   UNL A   1      43.408  24.785  25.697  1.00  0.00     0.200 A 
ATOM     68  F   UNL A   1      44.749  26.607  25.018  1.00  0.00    -0.200 F 
ATOM     69  F   UNL A   1      43.802  24.079  24.627  1.00  0.00    -0.200 F 
ENDBRANCH  45  59
BRANCH  46  70
ATOM     70  C   UNL A   1      39.401  31.825  35.595  1.00  0.00     0.064 A 
ATOM     71  C   UNL A   1      38.479  31.323  36.523  1.00  0.00     0.173 A 
ATOM     72  C   UNL A   1      39.871  33.134  35.781  1.00  0.00     0.173 A 
ATOM     73  F   UNL A   1      37.983  30.087  36.371  1.00  0.00    -0.203 F 
ATOM     74  C   UNL A   1      38.040  32.102  37.592  1.00  0.00     0.198 A 
ATOM     75  C   UNL A   1      39.448  33.902  36.863  1.00  0.00     0.198 A 
ATOM     76  F   UNL A   1      40.751  33.661  34.917  1.00  0.00    -0.203 F 
ATOM     77  F   UNL A   1      37.132  31.610  38.446  1.00  0.00    -0.200 F 
ATOM     78  C   UNL A   1      38.529  33.388  37.765  1.00  0.00     0.200 A 
ATOM     79  F   UNL A   1      39.932  35.141  37.031  1.00  0.00    -0.200 F 
ATOM     80  F   UNL A   1      38.111  34.133  38.796  1.00  0.00    -0.200 F 
ENDBRANCH  46  70
BRANCH  58  81
ATOM     81  C   UNL A   1      44.768  27.482  34.718  1.00  0.00     0.064 A 
ATOM     82  C   UNL A   1      45.962  28.210  34.808  1.00  0.00     0.173 A 
ATOM     83  C   UNL A   1      44.621  26.349  35.530  1.00  0.00     0.173 A 
ATOM     84  F   UNL A   1      46.154  29.291  34.037  1.00  0.00    -0.203 F 
ATOM     85  C   UNL A   1      46.980  27.808  35.668  1.00  0.00     0.198 A 
ATOM     86  C   UNL A   1      45.633  25.961  36.405  1.00  0.00     0.198 A 
ATOM     87  F   UNL A   1      43.495  25.623  35.480  1.00  0.00    -0.203 F 
ATOM     88  F   UNL A   1      48.129  28.495  35.713  1.00  0.00    -0.200 F 
ATOM     89  C   UNL A   1      46.813  26.687  36.469  1.00  0.00     0.200 A 
ATOM     90  F   UNL A   1      45.466  24.882  37.182  1.00  0.00    -0.200 F 
ATOM     91  F   UNL A   1      47.792  26.301  37.297  1.00  0.00    -0.200 F 
ENDBRANCH  58  81
ENDBRANCH  32  33
ENDBRANCH  25  27
ENDBRANCH  24  25
ENDBRANCH  23  24
ENDBRANCH   1  23
TORSDOF 14
ENDMDL
MODEL 2
REMARK VINA RESULT:     -11.8      4.865     10.125
REMARK SMILES O=C(NC[C@@H]1CC[C@H](C(=O)OCCOC(=O)c2ccc(-c3c4nc(c(-c5c(F)c(F)c(F)c(F)c5F)c5ccc([nH]5)c(-c5c(F)c(F)c(F)c(F)c5F)c5nc(c(-c6c(F)c(F)c(F)c(F)c6F)c6ccc3[nH]6)C=C5)C=C4)cc2)O1)Nc1ncccn1
REMARK SMILES IDX 12 1 11 2 9 3 10 4 8 5 5 6 6 7 80 8 7 9 4 10 3 11 1 12 2 13
REMARK SMILES IDX 81 14 82 17 83 18 87 19 84 20 86 21 85 22 13 23 14 24 15 25
REMARK SMILES IDX 16 26 17 27 18 28 79 29 19 30 78 31 20 32 21 33 22 34 72 35
REMARK SMILES IDX 23 36 77 37 71 38 73 39 24 40 76 41 70 42 69 43 25 45 57 46
REMARK SMILES IDX 37 47 56 48 38 49 41 50 55 51 74 52 39 53 40 54 54 56 75 57
REMARK SMILES IDX 42 58 26 59 27 60 35 61 28 62 29 63 33 64 36 65 30 66 31 67
REMARK SMILES IDX 34 68 32 69 58 70 59 71 67 72 60 73 61 74 65 75 68 76 62 77
REMARK SMILES IDX 63 78 66 79 64 80 43 81 44 82 52 83 45 84 46 85 50 86 53 87
REMARK SMILES IDX 47 88 48 89 51 90 49 91
REMARK H PARENT 3 15 81 16 73 44 41 55
REMARK Flexibility Score: inf
ROOT
ATOM      1  C   UNL A   1      35.677  22.966  23.876  1.00  0.00     0.274 C 
ENDROOT
BRANCH   1   2
ATOM      2  O   UNL A   1      34.264  22.769  23.677  1.00  0.00    -0.460 OA
BRANCH   2   3
ATOM      3  C   UNL A   1      33.651  23.556  22.753  1.00  0.00     0.335 C 
ATOM      4  O   UNL A   1      33.643  23.331  21.548  1.00  0.00    -0.249 OA
BRANCH   3   5
ATOM      5  C   UNL A   1      32.962  24.786  23.379  1.00  0.00     0.228 C 
ATOM      6  C   UNL A   1      31.270  24.232  24.882  1.00  0.00     0.138 C 
ATOM      7  C   UNL A   1      30.653  24.374  23.493  1.00  0.00     0.037 C 
ATOM      8  O   UNL A   1      32.666  24.568  24.764  1.00  0.00    -0.361 OA
ATOM      9  C   UNL A   1      31.655  25.221  22.751  1.00  0.00     0.047 C 
BRANCH   6  10
ATOM     10  C   UNL A   1      31.167  22.828  25.497  1.00  0.00     0.149 C 
BRANCH  10  11
ATOM     11  N   UNL A   1      32.372  22.423  26.197  1.00  0.00    -0.335 N 
ATOM     12  O   UNL A   1      33.832  20.994  27.053  1.00  0.00    -0.248 OA
ATOM     13  C   UNL A   1      33.018  21.220  26.164  1.00  0.00     0.321 C 
ATOM     14  N   UNL A   1      32.705  20.411  25.122  1.00  0.00    -0.276 N 
ATOM     15  H   UNL A   1      32.778  23.109  26.775  1.00  0.00     0.165 HD
ATOM     16  H   UNL A   1      32.137  20.795  24.415  1.00  0.00     0.175 HD
BRANCH  14  17
ATOM     17  C   UNL A   1      33.109  19.098  24.959  1.00  0.00     0.230 A 
ATOM     18  N   UNL A   1      32.209  18.192  25.380  1.00  0.00    -0.221 NA
ATOM     19  N   UNL A   1      34.307  18.786  24.455  1.00  0.00    -0.221 NA
ATOM     20  C   UNL A   1      32.531  16.895  25.208  1.00  0.00     0.117 A 
ATOM     21  C   UNL A   1      34.590  17.478  24.318  1.00  0.00     0.117 A 
ATOM     22  C   UNL A   1      33.723  16.476  24.673  1.00  0.00     0.040 A 
ENDBRANCH  14  17
ENDBRANCH  10  11
ENDBRANCH   6  10
ENDBRANCH   3   5
ENDBRANCH   2   3
ENDBRANCH   1   2
BRANCH   1  23
ATOM     23  C   UNL A   1      36.331  21.700  24.436  1.00  0.00     0.275 C 
BRANCH  23  24
ATOM     24  O   UNL A   1      36.900  21.932  25.739  1.00  0.00    -0.458 OA
BRANCH  24  25
ATOM     25  C   UNL A   1      38.220  21.654  25.842  1.00  0.00     0.338 C 
ATOM     26  O   UNL A   1      38.811  20.672  25.428  1.00  0.00    -0.246 OA
BRANCH  25  27
ATOM     27  C   UNL A   1      38.926  22.805  26.418  1.00  0.00     0.060 A 
ATOM     28  C   UNL A   1      38.431  24.078  26.131  1.00  0.00     0.016 A 
ATOM     29  C   UNL A   1      40.118  22.647  27.123  1.00  0.00     0.016 A 
ATOM     30  C   UNL A   1      39.138  25.208  26.519  1.00  0.00     0.010 A 
ATOM     31  C   UNL A   1      40.823  23.786  27.531  1.00  0.00     0.010 A 
ATOM     32  C   UNL A   1      40.345  25.071  27.215  1.00  0.00    -0.014 A 
BRANCH  32  33
ATOM     33  C   UNL A   1      41.125  26.284  27.553  1.00  0.00     0.031 A 
ATOM     34  C   UNL A   1      40.502  27.364  28.386  1.00  0.00     0.074 A 
ATOM     35  C   UNL A   1      42.406  26.385  27.156  1.00  0.00     0.049 A 
ATOM     36  N   UNL A   1      40.986  28.532  28.726  1.00  0.00    -0.248 NA
ATOM     37  C   UNL A   1      39.155  27.095  28.911  1.00  0.00     0.031 C 
ATOM     38  C   UNL A   1      43.139  25.369  26.402  1.00  0.00     0.029 A 
ATOM     39  N   UNL A   1      43.322  27.390  27.343  1.00  0.00    -0.354 N 
ATOM     40  C   UNL A   1      39.996  29.146  29.479  1.00  0.00     0.074 A 
ATOM     41  C   UNL A   1      38.879  28.226  29.543  1.00  0.00     0.031 C 
ATOM     42  C   UNL A   1      44.396  25.795  26.201  1.00  0.00     0.029 A 
ATOM     43  C   UNL A   1      44.540  27.134  26.767  1.00  0.00     0.049 A 
ATOM     44  H   UNL A   1      43.123  28.215  27.842  1.00  0.00     0.167 HD
ATOM     45  C   UNL A   1      40.020  30.367  30.064  1.00  0.00     0.037 A 
ATOM     46  C   UNL A   1      45.640  27.904  26.683  1.00  0.00     0.037 A 
ATOM     47  C   UNL A   1      41.142  31.268  30.016  1.00  0.00     0.049 A 
ATOM     48  C   UNL A   1      45.620  29.279  27.291  1.00  0.00     0.074 A 
ATOM     49  C   UNL A   1      41.262  32.531  30.569  1.00  0.00     0.029 A 
ATOM     50  N   UNL A   1      42.344  30.992  29.383  1.00  0.00    -0.354 N 
ATOM     51  N   UNL A   1      44.663  29.872  27.963  1.00  0.00    -0.248 NA
ATOM     52  C   UNL A   1      46.827  30.098  27.115  1.00  0.00     0.031 C 
ATOM     53  C   UNL A   1      42.528  33.032  30.245  1.00  0.00     0.029 A 
ATOM     54  C   UNL A   1      43.208  32.067  29.520  1.00  0.00     0.049 A 
ATOM     55  H   UNL A   1      42.553  30.157  28.906  1.00  0.00     0.167 HD
ATOM     56  C   UNL A   1      45.156  31.123  28.304  1.00  0.00     0.074 A 
ATOM     57  C   UNL A   1      46.502  31.201  27.775  1.00  0.00     0.031 C 
ATOM     58  C   UNL A   1      44.545  32.120  28.989  1.00  0.00     0.037 A 
BRANCH  45  59
ATOM     59  C   UNL A   1      38.779  30.813  30.777  1.00  0.00     0.064 A 
ATOM     60  C   UNL A   1      37.704  31.395  30.091  1.00  0.00     0.173 A 
ATOM     61  C   UNL A   1      38.659  30.636  32.163  1.00  0.00     0.173 A 
ATOM     62  F   UNL A   1      37.778  31.601  28.768  1.00  0.00    -0.203 F 
ATOM     63  C   UNL A   1      36.559  31.803  30.772  1.00  0.00     0.198 A 
ATOM     64  C   UNL A   1      37.505  31.025  32.837  1.00  0.00     0.198 A 
ATOM     65  F   UNL A   1      39.660  30.083  32.863  1.00  0.00    -0.203 F 
ATOM     66  F   UNL A   1      35.558  32.394  30.104  1.00  0.00    -0.200 F 
ATOM     67  C   UNL A   1      36.459  31.613  32.142  1.00  0.00     0.200 A 
ATOM     68  F   UNL A   1      37.406  30.834  34.160  1.00  0.00    -0.200 F 
ATOM     69  F   UNL A   1      35.355  32.005  32.796  1.00  0.00    -0.200 F 
ENDBRANCH  45  59
BRANCH  46  70
ATOM     70  C   UNL A   1      46.842  27.399  25.977  1.00  0.00     0.064 A 
ATOM     71  C   UNL A   1      47.858  26.730  26.672  1.00  0.00     0.173 A 
ATOM     72  C   UNL A   1      46.997  27.567  24.592  1.00  0.00     0.173 A 
ATOM     73  F   UNL A   1      47.767  26.570  28.000  1.00  0.00    -0.203 F 
ATOM     74  C   UNL A   1      48.988  26.254  26.009  1.00  0.00     0.198 A 
ATOM     75  C   UNL A   1      48.115  27.069  23.928  1.00  0.00     0.198 A 
ATOM     76  F   UNL A   1      46.053  28.203  23.883  1.00  0.00    -0.203 F 
ATOM     77  F   UNL A   1      49.961  25.648  26.702  1.00  0.00    -0.200 F 
ATOM     78  C   UNL A   1      49.112  26.417  24.638  1.00  0.00     0.200 A 
ATOM     79  F   UNL A   1      48.226  27.220  22.601  1.00  0.00    -0.200 F 
ATOM     80  F   UNL A   1      50.195  25.952  24.001  1.00  0.00    -0.200 F 
ENDBRANCH  46  70
BRANCH  58  81
ATOM     81  C   UNL A   1      45.340  33.369  29.223  1.00  0.00     0.064 A 
ATOM     82  C   UNL A   1      45.297  34.442  28.323  1.00  0.00     0.173 A 
ATOM     83  C   UNL A   1      46.127  33.503  30.377  1.00  0.00     0.173 A 
ATOM     84  F   UNL A   1      44.572  34.350  27.198  1.00  0.00    -0.203 F 
ATOM     85  C   UNL A   1      46.031  35.601  28.558  1.00  0.00     0.198 A 
ATOM     86  C   UNL A   1      46.842  34.672  30.620  1.00  0.00     0.198 A 
ATOM     87  F   UNL A   1      46.196  32.504  31.269  1.00  0.00    -0.203 F 
ATOM     88  F   UNL A   1      46.007  36.600  27.666  1.00  0.00    -0.200 F 
ATOM     89  C   UNL A   1      46.799  35.717  29.708  1.00  0.00     0.200 A 
ATOM     90  F   UNL A   1      47.578  34.786  31.734  1.00  0.00    -0.200 F 
ATOM     91  F   UNL A   1      47.502  36.834  29.935  1.00  0.00    -0.200 F 
ENDBRANCH  58  81
ENDBRANCH  32  33
ENDBRANCH  25  27
ENDBRANCH  24  25
ENDBRANCH  23  24
ENDBRANCH   1  23
TORSDOF 14
ENDMDL
MODEL 3
REMARK VINA RESULT:     -11.8      0.178      1.981
REMARK SMILES O=C(NC[C@@H]1CC[C@H](C(=O)OCCOC(=O)c2ccc(-c3c4nc(c(-c5c(F)c(F)c(F)c(F)c5F)c5ccc([nH]5)c(-c5c(F)c(F)c(F)c(F)c5F)c5nc(c(-c6c(F)c(F)c(F)c(F)c6F)c6ccc3[nH]6)C=C5)C=C4)cc2)O1)Nc1ncccn1
REMARK SMILES IDX 12 1 11 2 9 3 10 4 8 5 5 6 6 7 80 8 7 9 4 10 3 11 1 12 2 13
REMARK SMILES IDX 81 14 82 17 83 18 87 19 84 20 86 21 85 22 13 23 14 24 15 25
REMARK SMILES IDX 16 26 17 27 18 28 79 29 19 30 78 31 20 32 21 33 22 34 72 35
REMARK SMILES IDX 23 36 77 37 71 38 73 39 24 40 76 41 70 42 69 43 25 45 57 46
REMARK SMILES IDX 37 47 56 48 38 49 41 50 55 51 74 52 39 53 40 54 54 56 75 57
REMARK SMILES IDX 42 58 26 59 27 60 35 61 28 62 29 63 33 64 36 65 30 66 31 67
REMARK SMILES IDX 34 68 32 69 58 70 59 71 67 72 60 73 61 74 65 75 68 76 62 77
REMARK SMILES IDX 63 78 66 79 64 80 43 81 44 82 52 83 45 84 46 85 50 86 53 87
REMARK SMILES IDX 47 88 48 89 51 90 49 91
REMARK H PARENT 3 15 81 16 73 44 41 55
REMARK Flexibility Score: inf
ROOT
ATOM      1  C   UNL A   1      31.779  28.385  27.251  1.00  0.00     0.274 C 
ENDROOT
BRANCH   1   2
ATOM      2  O   UNL A   1      32.319  27.661  26.129  1.00  0.00    -0.460 OA
BRANCH   2   3
ATOM      3  C   UNL A   1      32.383  26.306  26.235  1.00  0.00     0.335 C 
ATOM      4  O   UNL A   1      31.552  25.618  26.818  1.00  0.00    -0.249 OA
BRANCH   3   5
ATOM      5  C   UNL A   1      33.628  25.711  25.546  1.00  0.00     0.228 C 
ATOM      6  C   UNL A   1      33.544  25.835  23.221  1.00  0.00     0.138 C 
ATOM      7  C   UNL A   1      32.932  24.505  23.655  1.00  0.00     0.037 C 
ATOM      8  O   UNL A   1      34.019  26.494  24.411  1.00  0.00    -0.361 OA
ATOM      9  C   UNL A   1      33.502  24.292  25.034  1.00  0.00     0.047 C 
BRANCH   6  10
ATOM     10  C   UNL A   1      32.579  26.788  22.499  1.00  0.00     0.149 C 
BRANCH  10  11
ATOM     11  N   UNL A   1      31.188  26.548  22.834  1.00  0.00    -0.335 N 
ATOM     12  O   UNL A   1      29.139  27.090  23.479  1.00  0.00    -0.248 OA
ATOM     13  C   UNL A   1      30.154  27.441  22.888  1.00  0.00     0.321 C 
ATOM     14  N   UNL A   1      30.359  28.619  22.248  1.00  0.00    -0.276 N 
ATOM     15  H   UNL A   1      30.957  25.616  23.052  1.00  0.00     0.165 HD
ATOM     16  H   UNL A   1      31.174  28.693  21.700  1.00  0.00     0.175 HD
BRANCH  14  17
ATOM     17  C   UNL A   1      29.530  29.726  22.293  1.00  0.00     0.230 A 
ATOM     18  N   UNL A   1      29.533  30.364  23.476  1.00  0.00    -0.221 NA
ATOM     19  N   UNL A   1      28.779  30.087  21.248  1.00  0.00    -0.221 NA
ATOM     20  C   UNL A   1      28.775  31.475  23.565  1.00  0.00     0.117 A 
ATOM     21  C   UNL A   1      28.026  31.192  21.390  1.00  0.00     0.117 A 
ATOM     22  C   UNL A   1      27.993  31.942  22.539  1.00  0.00     0.040 A 
ENDBRANCH  14  17
ENDBRANCH  10  11
ENDBRANCH   6  10
ENDBRANCH   3   5
ENDBRANCH   2   3
ENDBRANCH   1   2
BRANCH   1  23
ATOM     23  C   UNL A   1      31.749  29.889  26.968  1.00  0.00     0.275 C 
BRANCH  23  24
ATOM     24  O   UNL A   1      33.010  30.353  26.447  1.00  0.00    -0.458 OA
BRANCH  24  25
ATOM     25  C   UNL A   1      33.516  31.442  27.070  1.00  0.00     0.338 C 
ATOM     26  O   UNL A   1      32.981  32.523  27.240  1.00  0.00    -0.246 OA
BRANCH  25  27
ATOM     27  C   UNL A   1      34.809  31.106  27.679  1.00  0.00     0.060 A 
ATOM     28  C   UNL A   1      35.034  29.774  28.030  1.00  0.00     0.016 A 
ATOM     29  C   UNL A   1      35.733  32.095  28.015  1.00  0.00     0.016 A 
ATOM     30  C   UNL A   1      36.170  29.419  28.745  1.00  0.00     0.010 A 
ATOM     31  C   UNL A   1      36.889  31.735  28.719  1.00  0.00     0.010 A 
ATOM     32  C   UNL A   1      37.102  30.400  29.103  1.00  0.00    -0.014 A 
BRANCH  32  33
ATOM     33  C   UNL A   1      38.269  30.017  29.932  1.00  0.00     0.031 A 
ATOM     34  C   UNL A   1      39.327  29.120  29.363  1.00  0.00     0.074 A 
ATOM     35  C   UNL A   1      38.400  30.521  31.172  1.00  0.00     0.049 A 
ATOM     36  N   UNL A   1      40.382  28.608  29.947  1.00  0.00    -0.248 NA
ATOM     37  C   UNL A   1      39.183  28.749  27.947  1.00  0.00     0.031 C 
ATOM     38  C   UNL A   1      37.472  31.458  31.805  1.00  0.00     0.029 A 
ATOM     39  N   UNL A   1      39.374  30.324  32.118  1.00  0.00    -0.354 N 
ATOM     40  C   UNL A   1      41.010  27.836  28.980  1.00  0.00     0.074 A 
ATOM     41  C   UNL A   1      40.217  27.939  27.773  1.00  0.00     0.031 C 
ATOM     42  C   UNL A   1      37.928  31.765  33.030  1.00  0.00     0.029 A 
ATOM     43  C   UNL A   1      39.150  31.008  33.286  1.00  0.00     0.049 A 
ATOM     44  H   UNL A   1      40.159  29.747  31.971  1.00  0.00     0.167 HD
ATOM     45  C   UNL A   1      42.146  27.108  29.094  1.00  0.00     0.037 A 
ATOM     46  C   UNL A   1      39.840  31.003  34.441  1.00  0.00     0.037 A 
ATOM     47  C   UNL A   1      42.943  27.028  30.290  1.00  0.00     0.049 A 
ATOM     48  C   UNL A   1      41.066  30.142  34.559  1.00  0.00     0.074 A 
ATOM     49  C   UNL A   1      44.107  26.311  30.509  1.00  0.00     0.029 A 
ATOM     50  N   UNL A   1      42.658  27.699  31.470  1.00  0.00    -0.354 N 
ATOM     51  N   UNL A   1      41.630  29.378  33.655  1.00  0.00    -0.248 NA
ATOM     52  C   UNL A   1      41.743  30.129  35.862  1.00  0.00     0.031 C 
ATOM     53  C   UNL A   1      44.510  26.526  31.831  1.00  0.00     0.029 A 
ATOM     54  C   UNL A   1      43.617  27.403  32.425  1.00  0.00     0.049 A 
ATOM     55  H   UNL A   1      41.889  28.296  31.608  1.00  0.00     0.167 HD
ATOM     56  C   UNL A   1      42.733  28.807  34.272  1.00  0.00     0.074 A 
ATOM     57  C   UNL A   1      42.768  29.323  35.625  1.00  0.00     0.031 C 
ATOM     58  C   UNL A   1      43.634  27.931  33.765  1.00  0.00     0.037 A 
BRANCH  45  59
ATOM     59  C   UNL A   1      42.575  26.312  27.898  1.00  0.00     0.064 A 
ATOM     60  C   UNL A   1      43.509  26.809  26.978  1.00  0.00     0.173 A 
ATOM     61  C   UNL A   1      42.059  25.025  27.684  1.00  0.00     0.173 A 
ATOM     62  F   UNL A   1      44.018  28.041  27.131  1.00  0.00    -0.203 F 
ATOM     63  C   UNL A   1      43.895  26.054  25.873  1.00  0.00     0.198 A 
ATOM     64  C   UNL A   1      42.463  24.265  26.590  1.00  0.00     0.198 A 
ATOM     65  F   UNL A   1      41.164  24.506  28.537  1.00  0.00    -0.203 F 
ATOM     66  F   UNL A   1      44.759  26.563  24.984  1.00  0.00    -0.200 F 
ATOM     67  C   UNL A   1      43.376  24.781  25.684  1.00  0.00     0.200 A 
ATOM     68  F   UNL A   1      41.967  23.032  26.413  1.00  0.00    -0.200 F 
ATOM     69  F   UNL A   1      43.750  24.055  24.620  1.00  0.00    -0.200 F 
ENDBRANCH  45  59
BRANCH  46  70
ATOM     70  C   UNL A   1      39.371  31.826  35.583  1.00  0.00     0.064 A 
ATOM     71  C   UNL A   1      39.850  33.128  35.777  1.00  0.00     0.173 A 
ATOM     72  C   UNL A   1      38.430  31.330  36.498  1.00  0.00     0.173 A 
ATOM     73  F   UNL A   1      40.770  33.633  34.943  1.00  0.00    -0.203 F 
ATOM     74  C   UNL A   1      39.410  33.902  36.849  1.00  0.00     0.198 A 
ATOM     75  C   UNL A   1      37.974  32.114  37.554  1.00  0.00     0.198 A 
ATOM     76  F   UNL A   1      37.945  30.088  36.357  1.00  0.00    -0.203 F 
ATOM     77  F   UNL A   1      39.909  35.132  37.032  1.00  0.00    -0.200 F 
ATOM     78  C   UNL A   1      38.468  33.398  37.732  1.00  0.00     0.200 A 
ATOM     79  F   UNL A   1      37.056  31.626  38.400  1.00  0.00    -0.200 F 
ATOM     80  F   UNL A   1      38.040  34.145  38.758  1.00  0.00    -0.200 F 
ENDBRANCH  46  70
BRANCH  58  81
ATOM     81  C   UNL A   1      44.744  27.496  34.672  1.00  0.00     0.064 A 
ATOM     82  C   UNL A   1      44.637  26.338  35.454  1.00  0.00     0.173 A 
ATOM     83  C   UNL A   1      45.938  28.230  34.736  1.00  0.00     0.173 A 
ATOM     84  F   UNL A   1      43.507  25.615  35.438  1.00  0.00    -0.203 F 
ATOM     85  C   UNL A   1      45.680  25.938  36.284  1.00  0.00     0.198 A 
ATOM     86  C   UNL A   1      46.987  27.815  35.551  1.00  0.00     0.198 A 
ATOM     87  F   UNL A   1      46.087  29.343  34.004  1.00  0.00    -0.203 F 
ATOM     88  F   UNL A   1      45.543  24.848  37.052  1.00  0.00    -0.200 F 
ATOM     89  C   UNL A   1      46.856  26.674  36.328  1.00  0.00     0.200 A 
ATOM     90  F   UNL A   1      48.125  28.523  35.587  1.00  0.00    -0.200 F 
ATOM     91  F   UNL A   1      47.860  26.286  37.125  1.00  0.00    -0.200 F 
ENDBRANCH  58  81
ENDBRANCH  32  33
ENDBRANCH  25  27
ENDBRANCH  24  25
ENDBRANCH  23  24
ENDBRANCH   1  23
TORSDOF 14
ENDMDL
