MODEL 1
REMARK VINA RESULT:     -12.7      0.000      0.000
REMARK SMILES O=C(OCCOC(=O)[C@@H]1CCCN(C(=O)/C=C/c2cccc(F)c2)C1)c1ccc(-c2c3nc(c(-c4c(F)c(F)c(F)c(F)c4F)c4ccc([nH]4)c(-c4c(F)c(F)c(F)c(F)c4F)c4nc(c(-c5c(F)c(F)c(F)c(F)c5F)c5ccc2[nH]5)C=C4)C=C3)cc1
REMARK SMILES IDX 5 1 4 2 3 3 2 4 1 5 26 6 27 7 88 8 28 9 87 10 29 11 30 12
REMARK SMILES IDX 31 13 81 14 32 15 86 16 80 17 82 18 33 19 85 20 79 21 78 22
REMARK SMILES IDX 34 24 66 25 46 26 65 27 47 28 50 29 64 30 83 31 48 32 49 33
REMARK SMILES IDX 63 35 84 36 51 37 35 38 36 39 44 40 37 41 38 42 42 43 45 44
REMARK SMILES IDX 39 45 40 46 43 47 41 48 67 49 68 50 76 51 69 52 70 53 74 54
REMARK SMILES IDX 77 55 71 56 72 57 75 58 73 59 52 60 53 61 61 62 54 63 55 64
REMARK SMILES IDX 59 65 62 66 56 67 57 68 60 69 58 70 6 71 7 72 8 73 9 74
REMARK SMILES IDX 10 75 25 76 11 77 13 78 12 79 14 80 15 81 16 82 17 83 18 84
REMARK SMILES IDX 19 85 24 86 20 87 22 88 21 89 23 90
REMARK H PARENT 82 23 50 34
REMARK Flexibility Score: inf
ROOT
ATOM      1  C   UNL A   1      32.481  30.612  26.345  1.00  0.00     0.274 C 
ENDROOT
BRANCH   1   2
ATOM      2  C   UNL A   1      31.644  31.724  27.008  1.00  0.00     0.275 C 
BRANCH   2   3
ATOM      3  O   UNL A   1      32.333  32.990  27.068  1.00  0.00    -0.458 OA
BRANCH   3   4
ATOM      4  C   UNL A   1      32.984  33.493  28.134  1.00  0.00     0.338 C 
ATOM      5  O   UNL A   1      32.562  34.466  28.749  1.00  0.00    -0.246 OA
BRANCH   4   6
ATOM      6  C   UNL A   1      34.310  32.985  28.495  1.00  0.00     0.060 A 
ATOM      7  C   UNL A   1      34.693  31.550  29.340  1.00  0.00     0.016 A 
ATOM      8  C   UNL A   1      35.629  34.020  28.040  1.00  0.00     0.016 A 
ATOM      9  C   UNL A   1      36.326  31.053  29.681  1.00  0.00     0.010 A 
ATOM     10  C   UNL A   1      37.485  33.485  28.356  1.00  0.00     0.010 A 
ATOM     11  C   UNL A   1      37.755  31.987  29.274  1.00  0.00    -0.014 A 
BRANCH  11  12
ATOM     12  C   UNL A   1      39.006  31.496  29.905  1.00  0.00     0.031 A 
ATOM     13  C   UNL A   1      39.268  31.806  31.364  1.00  0.00     0.074 A 
ATOM     14  C   UNL A   1      39.662  30.492  29.302  1.00  0.00     0.049 A 
ATOM     15  N   UNL A   1      39.850  31.071  32.279  1.00  0.00    -0.248 NA
ATOM     16  C   UNL A   1      38.742  33.069  31.893  1.00  0.00     0.031 C 
ATOM     17  C   UNL A   1      39.432  30.028  27.937  1.00  0.00     0.029 A 
ATOM     18  N   UNL A   1      40.614  29.634  29.793  1.00  0.00    -0.354 N 
ATOM     19  C   UNL A   1      39.639  31.732  33.489  1.00  0.00     0.074 A 
ATOM     20  C   UNL A   1      38.894  32.930  33.201  1.00  0.00     0.031 C 
ATOM     21  C   UNL A   1      40.194  28.950  27.705  1.00  0.00     0.029 A 
ATOM     22  C   UNL A   1      40.989  28.664  28.895  1.00  0.00     0.049 A 
ATOM     23  H   UNL A   1      40.992  29.705  30.699  1.00  0.00     0.167 HD
ATOM     24  C   UNL A   1      40.064  31.393  34.728  1.00  0.00     0.037 A 
ATOM     25  C   UNL A   1      41.876  27.658  29.018  1.00  0.00     0.037 A 
ATOM     26  C   UNL A   1      40.999  30.330  34.967  1.00  0.00     0.049 A 
ATOM     27  C   UNL A   1      42.504  27.422  30.362  1.00  0.00     0.074 A 
ATOM     28  C   UNL A   1      41.622  29.974  36.148  1.00  0.00     0.029 A 
ATOM     29  N   UNL A   1      41.501  29.499  33.976  1.00  0.00    -0.354 N 
ATOM     30  N   UNL A   1      42.250  28.016  31.504  1.00  0.00    -0.248 NA
ATOM     31  C   UNL A   1      43.527  26.373  30.444  1.00  0.00     0.031 C 
ATOM     32  C   UNL A   1      42.564  28.984  35.855  1.00  0.00     0.029 A 
ATOM     33  C   UNL A   1      42.469  28.667  34.507  1.00  0.00     0.049 A 
ATOM     34  H   UNL A   1      41.213  29.501  33.035  1.00  0.00     0.167 HD
ATOM     35  C   UNL A   1      43.072  27.411  32.443  1.00  0.00     0.074 A 
ATOM     36  C   UNL A   1      43.814  26.382  31.739  1.00  0.00     0.031 C 
ATOM     37  C   UNL A   1      43.205  27.677  33.766  1.00  0.00     0.037 A 
BRANCH  24  38
ATOM     38  C   UNL A   1      39.611  32.221  35.899  1.00  0.00     0.064 A 
ATOM     39  C   UNL A   1      40.339  33.349  36.306  1.00  0.00     0.173 A 
ATOM     40  C   UNL A   1      38.509  31.839  36.679  1.00  0.00     0.173 A 
ATOM     41  F   UNL A   1      41.397  33.761  35.592  1.00  0.00    -0.203 F 
ATOM     42  C   UNL A   1      40.000  34.046  37.465  1.00  0.00     0.198 A 
ATOM     43  C   UNL A   1      38.163  32.546  37.830  1.00  0.00     0.198 A 
ATOM     44  F   UNL A   1      37.768  30.777  36.327  1.00  0.00    -0.203 F 
ATOM     45  F   UNL A   1      40.735  35.098  37.852  1.00  0.00    -0.200 F 
ATOM     46  C   UNL A   1      38.916  33.641  38.229  1.00  0.00     0.200 A 
ATOM     47  F   UNL A   1      37.107  32.163  38.562  1.00  0.00    -0.200 F 
ATOM     48  F   UNL A   1      38.599  34.305  39.349  1.00  0.00    -0.200 F 
ENDBRANCH  24  38
BRANCH  25  49
ATOM     49  C   UNL A   1      42.212  26.840  27.821  1.00  0.00     0.064 A 
ATOM     50  C   UNL A   1      41.549  25.621  27.590  1.00  0.00     0.173 A 
ATOM     51  C   UNL A   1      43.220  27.208  26.922  1.00  0.00     0.173 A 
ATOM     52  F   UNL A   1      40.571  25.221  28.416  1.00  0.00    -0.203 F 
ATOM     53  C   UNL A   1      41.914  24.784  26.538  1.00  0.00     0.198 A 
ATOM     54  C   UNL A   1      43.562  26.384  25.848  1.00  0.00     0.198 A 
ATOM     55  F   UNL A   1      43.870  28.369  27.081  1.00  0.00    -0.203 F 
ATOM     56  F   UNL A   1      41.306  23.600  26.386  1.00  0.00    -0.200 F 
ATOM     57  C   UNL A   1      42.921  25.166  25.667  1.00  0.00     0.200 A 
ATOM     58  F   UNL A   1      44.520  26.765  24.992  1.00  0.00    -0.200 F 
ATOM     59  F   UNL A   1      43.274  24.361  24.656  1.00  0.00    -0.200 F 
ENDBRANCH  25  49
BRANCH  37  60
ATOM     60  C   UNL A   1      44.198  26.856  34.531  1.00  0.00     0.064 A 
ATOM     61  C   UNL A   1      43.818  25.632  35.101  1.00  0.00     0.173 A 
ATOM     62  C   UNL A   1      45.504  27.314  34.753  1.00  0.00     0.173 A 
ATOM     63  F   UNL A   1      42.573  25.162  34.929  1.00  0.00    -0.203 F 
ATOM     64  C   UNL A   1      44.712  24.896  35.870  1.00  0.00     0.198 A 
ATOM     65  C   UNL A   1      46.406  26.559  35.495  1.00  0.00     0.198 A 
ATOM     66  F   UNL A   1      45.912  28.477  34.222  1.00  0.00    -0.203 F 
ATOM     67  F   UNL A   1      44.320  23.745  36.432  1.00  0.00    -0.200 F 
ATOM     68  C   UNL A   1      46.007  25.356  36.059  1.00  0.00     0.200 A 
ATOM     69  F   UNL A   1      47.665  26.991  35.656  1.00  0.00    -0.200 F 
ATOM     70  F   UNL A   1      46.875  24.635  36.782  1.00  0.00    -0.200 F 
ENDBRANCH  37  60
ENDBRANCH  11  12
ENDBRANCH   4   6
ENDBRANCH   3   4
ENDBRANCH   2   3
ENDBRANCH   1   2
BRANCH   1  71
ATOM     71  O   UNL A   1      32.604  29.488  27.239  1.00  0.00    -0.462 OA
BRANCH  71  72
ATOM     72  C   UNL A   1      31.870  28.349  27.088  1.00  0.00     0.310 C 
ATOM     73  O   UNL A   1      31.062  27.922  27.893  1.00  0.00    -0.252 OA
BRANCH  72  74
ATOM     74  C   UNL A   1      32.212  27.724  25.712  1.00  0.00     0.119 C 
ATOM     75  C   UNL A   1      30.632  28.041  24.590  1.00  0.00     0.019 C 
ATOM     76  C   UNL A   1      32.816  25.925  25.866  1.00  0.00     0.135 C 
ATOM     77  C   UNL A   1      29.660  26.183  23.904  1.00  0.00     0.022 C 
ATOM     78  N   UNL A   1      31.793  24.542  25.374  1.00  0.00    -0.338 N 
ATOM     79  C   UNL A   1      30.737  24.590  24.069  1.00  0.00     0.120 C 
BRANCH  78  80
ATOM     80  C   UNL A   1      31.574  23.529  26.336  1.00  0.00     0.246 C 
ATOM     81  O   UNL A   1      30.765  23.633  27.251  1.00  0.00    -0.270 OA
BRANCH  80  82
ATOM     82  C   UNL A   1      32.404  22.278  26.211  1.00  0.00     0.072 C 
ATOM     83  C   UNL A   1      32.067  21.249  25.407  1.00  0.00     0.014 C 
BRANCH  83  84
ATOM     84  C   UNL A   1      32.979  20.181  24.941  1.00  0.00    -0.023 A 
ATOM     85  C   UNL A   1      34.364  20.314  25.116  1.00  0.00     0.008 A 
ATOM     86  C   UNL A   1      32.483  18.944  24.499  1.00  0.00     0.047 A 
ATOM     87  C   UNL A   1      35.236  19.264  24.791  1.00  0.00     0.004 A 
ATOM     88  C   UNL A   1      33.357  17.902  24.194  1.00  0.00     0.123 A 
ATOM     89  C   UNL A   1      34.730  18.054  24.322  1.00  0.00     0.039 A 
ATOM     90  F   UNL A   1      32.859  16.722  23.799  1.00  0.00    -0.207 F 
ENDBRANCH  83  84
ENDBRANCH  80  82
ENDBRANCH  78  80
ENDBRANCH  72  74
ENDBRANCH  71  72
ENDBRANCH   1  71
TORSDOF 14
ENDMDL
MODEL 2
REMARK VINA RESULT:     -12.6      4.441     10.519
REMARK SMILES O=C(OCCOC(=O)[C@@H]1CCCN(C(=O)/C=C/c2cccc(F)c2)C1)c1ccc(-c2c3nc(c(-c4c(F)c(F)c(F)c(F)c4F)c4ccc([nH]4)c(-c4c(F)c(F)c(F)c(F)c4F)c4nc(c(-c5c(F)c(F)c(F)c(F)c5F)c5ccc2[nH]5)C=C4)C=C3)cc1
REMARK SMILES IDX 5 1 4 2 3 3 2 4 1 5 26 6 27 7 88 8 28 9 87 10 29 11 30 12
REMARK SMILES IDX 31 13 81 14 32 15 86 16 80 17 82 18 33 19 85 20 79 21 78 22
REMARK SMILES IDX 34 24 66 25 46 26 65 27 47 28 50 29 64 30 83 31 48 32 49 33
REMARK SMILES IDX 63 35 84 36 51 37 35 38 36 39 44 40 37 41 38 42 42 43 45 44
REMARK SMILES IDX 39 45 40 46 43 47 41 48 67 49 68 50 76 51 69 52 70 53 74 54
REMARK SMILES IDX 77 55 71 56 72 57 75 58 73 59 52 60 53 61 61 62 54 63 55 64
REMARK SMILES IDX 59 65 62 66 56 67 57 68 60 69 58 70 6 71 7 72 8 73 9 74
REMARK SMILES IDX 10 75 25 76 11 77 13 78 12 79 14 80 15 81 16 82 17 83 18 84
REMARK SMILES IDX 19 85 24 86 20 87 22 88 21 89 23 90
REMARK H PARENT 82 23 50 34
REMARK Flexibility Score: inf
ROOT
ATOM      1  C   UNL A   1      35.557  20.426  24.997  1.00  0.00     0.274 C 
ENDROOT
BRANCH   1   2
ATOM      2  C   UNL A   1      37.041  20.016  24.933  1.00  0.00     0.275 C 
BRANCH   2   3
ATOM      3  O   UNL A   1      37.942  21.122  25.151  1.00  0.00    -0.458 OA
BRANCH   3   4
ATOM      4  C   UNL A   1      39.134  21.068  25.773  1.00  0.00     0.338 C 
ATOM      5  O   UNL A   1      39.751  20.017  25.898  1.00  0.00    -0.246 OA
BRANCH   4   6
ATOM      6  C   UNL A   1      39.659  22.249  26.465  1.00  0.00     0.060 A 
ATOM      7  C   UNL A   1      39.233  23.885  26.226  1.00  0.00     0.016 A 
ATOM      8  C   UNL A   1      40.904  21.909  27.629  1.00  0.00     0.016 A 
ATOM      9  C   UNL A   1      39.923  25.194  27.143  1.00  0.00     0.010 A 
ATOM     10  C   UNL A   1      41.678  23.338  28.722  1.00  0.00     0.010 A 
ATOM     11  C   UNL A   1      41.178  25.004  28.355  1.00  0.00    -0.014 A 
BRANCH  11  12
ATOM     12  C   UNL A   1      41.795  26.278  28.800  1.00  0.00     0.031 A 
ATOM     13  C   UNL A   1      43.157  26.667  28.263  1.00  0.00     0.074 A 
ATOM     14  C   UNL A   1      40.994  27.212  29.338  1.00  0.00     0.049 A 
ATOM     15  N   UNL A   1      43.625  27.852  27.961  1.00  0.00    -0.248 NA
ATOM     16  C   UNL A   1      44.093  25.583  27.945  1.00  0.00     0.031 C 
ATOM     17  C   UNL A   1      39.627  26.990  29.799  1.00  0.00     0.029 A 
ATOM     18  N   UNL A   1      41.197  28.556  29.523  1.00  0.00    -0.354 N 
ATOM     19  C   UNL A   1      44.839  27.628  27.312  1.00  0.00     0.074 A 
ATOM     20  C   UNL A   1      45.050  26.205  27.273  1.00  0.00     0.031 C 
ATOM     21  C   UNL A   1      39.097  28.160  30.185  1.00  0.00     0.029 A 
ATOM     22  C   UNL A   1      40.098  29.210  30.026  1.00  0.00     0.049 A 
ATOM     23  H   UNL A   1      42.046  29.009  29.316  1.00  0.00     0.167 HD
ATOM     24  C   UNL A   1      45.722  28.531  26.826  1.00  0.00     0.037 A 
ATOM     25  C   UNL A   1      39.920  30.510  30.325  1.00  0.00     0.037 A 
ATOM     26  C   UNL A   1      45.615  29.940  27.079  1.00  0.00     0.049 A 
ATOM     27  C   UNL A   1      41.009  31.481  29.967  1.00  0.00     0.074 A 
ATOM     28  C   UNL A   1      46.512  30.945  26.772  1.00  0.00     0.029 A 
ATOM     29  N   UNL A   1      44.567  30.527  27.774  1.00  0.00    -0.354 N 
ATOM     30  N   UNL A   1      42.119  31.262  29.302  1.00  0.00    -0.248 NA
ATOM     31  C   UNL A   1      40.820  32.876  30.380  1.00  0.00     0.031 C 
ATOM     32  C   UNL A   1      46.047  32.127  27.357  1.00  0.00     0.029 A 
ATOM     33  C   UNL A   1      44.821  31.874  27.956  1.00  0.00     0.049 A 
ATOM     34  H   UNL A   1      43.764  30.056  28.091  1.00  0.00     0.167 HD
ATOM     35  C   UNL A   1      42.759  32.489  29.210  1.00  0.00     0.074 A 
ATOM     36  C   UNL A   1      41.897  33.454  29.863  1.00  0.00     0.031 C 
ATOM     37  C   UNL A   1      43.950  32.794  28.638  1.00  0.00     0.037 A 
BRANCH  24  38
ATOM     38  C   UNL A   1      46.920  28.033  26.066  1.00  0.00     0.064 A 
ATOM     39  C   UNL A   1      48.163  27.884  26.699  1.00  0.00     0.173 A 
ATOM     40  C   UNL A   1      46.859  27.795  24.684  1.00  0.00     0.173 A 
ATOM     41  F   UNL A   1      48.275  28.092  28.019  1.00  0.00    -0.203 F 
ATOM     42  C   UNL A   1      49.306  27.547  25.974  1.00  0.00     0.198 A 
ATOM     43  C   UNL A   1      48.001  27.444  23.964  1.00  0.00     0.198 A 
ATOM     44  F   UNL A   1      45.693  27.907  24.030  1.00  0.00    -0.203 F 
ATOM     45  F   UNL A   1      50.488  27.449  26.598  1.00  0.00    -0.200 F 
ATOM     46  C   UNL A   1      49.225  27.332  24.607  1.00  0.00     0.200 A 
ATOM     47  F   UNL A   1      47.920  27.223  22.644  1.00  0.00    -0.200 F 
ATOM     48  F   UNL A   1      50.326  27.020  23.910  1.00  0.00    -0.200 F 
ENDBRANCH  24  38
BRANCH  25  49
ATOM     49  C   UNL A   1      38.668  30.928  31.014  1.00  0.00     0.064 A 
ATOM     50  C   UNL A   1      37.565  31.376  30.266  1.00  0.00     0.173 A 
ATOM     51  C   UNL A   1      38.554  30.950  32.410  1.00  0.00     0.173 A 
ATOM     52  F   UNL A   1      37.617  31.373  28.926  1.00  0.00    -0.203 F 
ATOM     53  C   UNL A   1      36.421  31.872  30.885  1.00  0.00     0.198 A 
ATOM     54  C   UNL A   1      37.393  31.416  33.029  1.00  0.00     0.198 A 
ATOM     55  F   UNL A   1      39.566  30.514  33.173  1.00  0.00    -0.203 F 
ATOM     56  F   UNL A   1      35.414  32.351  30.141  1.00  0.00    -0.200 F 
ATOM     57  C   UNL A   1      36.335  31.891  32.267  1.00  0.00     0.200 A 
ATOM     58  F   UNL A   1      37.301  31.411  34.366  1.00  0.00    -0.200 F 
ATOM     59  F   UNL A   1      35.234  32.369  32.864  1.00  0.00    -0.200 F 
ENDBRANCH  25  49
BRANCH  37  60
ATOM     60  C   UNL A   1      44.395  34.224  28.709  1.00  0.00     0.064 A 
ATOM     61  C   UNL A   1      45.163  34.674  29.792  1.00  0.00     0.173 A 
ATOM     62  C   UNL A   1      44.005  35.157  27.738  1.00  0.00     0.173 A 
ATOM     63  F   UNL A   1      45.545  33.820  30.754  1.00  0.00    -0.203 F 
ATOM     64  C   UNL A   1      45.522  36.013  29.904  1.00  0.00     0.198 A 
ATOM     65  C   UNL A   1      44.395  36.488  27.836  1.00  0.00     0.198 A 
ATOM     66  F   UNL A   1      43.275  34.769  26.682  1.00  0.00    -0.203 F 
ATOM     67  F   UNL A   1      46.229  36.429  30.963  1.00  0.00    -0.200 F 
ATOM     68  C   UNL A   1      45.145  36.916  28.921  1.00  0.00     0.200 A 
ATOM     69  F   UNL A   1      44.052  37.356  26.873  1.00  0.00    -0.200 F 
ATOM     70  F   UNL A   1      45.511  38.202  29.018  1.00  0.00    -0.200 F 
ENDBRANCH  37  60
ENDBRANCH  11  12
ENDBRANCH   4   6
ENDBRANCH   3   4
ENDBRANCH   2   3
ENDBRANCH   1   2
BRANCH   1  71
ATOM     71  O   UNL A   1      35.391  21.539  25.898  1.00  0.00    -0.462 OA
BRANCH  71  72
ATOM     72  C   UNL A   1      34.772  22.695  25.526  1.00  0.00     0.310 C 
ATOM     73  O   UNL A   1      35.169  23.818  25.783  1.00  0.00    -0.252 OA
BRANCH  72  74
ATOM     74  C   UNL A   1      33.514  22.335  24.697  1.00  0.00     0.119 C 
ATOM     75  C   UNL A   1      33.897  22.956  22.874  1.00  0.00     0.019 C 
ATOM     76  C   UNL A   1      31.910  22.965  25.506  1.00  0.00     0.135 C 
ATOM     77  C   UNL A   1      32.505  24.515  22.171  1.00  0.00     0.022 C 
ATOM     78  N   UNL A   1      31.003  24.356  24.839  1.00  0.00    -0.338 N 
ATOM     79  C   UNL A   1      30.878  24.678  23.197  1.00  0.00     0.120 C 
BRANCH  78  80
ATOM     80  C   UNL A   1      30.722  25.424  25.723  1.00  0.00     0.246 C 
ATOM     81  O   UNL A   1      29.779  25.418  26.507  1.00  0.00    -0.270 OA
BRANCH  80  82
ATOM     82  C   UNL A   1      31.638  26.618  25.664  1.00  0.00     0.072 C 
ATOM     83  C   UNL A   1      31.481  27.706  26.447  1.00  0.00     0.014 C 
BRANCH  83  84
ATOM     84  C   UNL A   1      32.514  28.728  26.724  1.00  0.00    -0.023 A 
ATOM     85  C   UNL A   1      32.149  30.074  26.869  1.00  0.00     0.008 A 
ATOM     86  C   UNL A   1      33.832  28.361  27.040  1.00  0.00     0.047 A 
ATOM     87  C   UNL A   1      33.093  31.040  27.250  1.00  0.00     0.004 A 
ATOM     88  C   UNL A   1      34.758  29.326  27.434  1.00  0.00     0.123 A 
ATOM     89  C   UNL A   1      34.405  30.665  27.527  1.00  0.00     0.039 A 
ATOM     90  F   UNL A   1      36.003  28.948  27.756  1.00  0.00    -0.207 F 
ENDBRANCH  83  84
ENDBRANCH  80  82
ENDBRANCH  78  80
ENDBRANCH  72  74
ENDBRANCH  71  72
ENDBRANCH   1  71
TORSDOF 14
ENDMDL
MODEL 3
REMARK VINA RESULT:     -12.5      8.934     14.294
REMARK SMILES O=C(OCCOC(=O)[C@@H]1CCCN(C(=O)/C=C/c2cccc(F)c2)C1)c1ccc(-c2c3nc(c(-c4c(F)c(F)c(F)c(F)c4F)c4ccc([nH]4)c(-c4c(F)c(F)c(F)c(F)c4F)c4nc(c(-c5c(F)c(F)c(F)c(F)c5F)c5ccc2[nH]5)C=C4)C=C3)cc1
REMARK SMILES IDX 5 1 4 2 3 3 2 4 1 5 26 6 27 7 88 8 28 9 87 10 29 11 30 12
REMARK SMILES IDX 31 13 81 14 32 15 86 16 80 17 82 18 33 19 85 20 79 21 78 22
REMARK SMILES IDX 34 24 66 25 46 26 65 27 47 28 50 29 64 30 83 31 48 32 49 33
REMARK SMILES IDX 63 35 84 36 51 37 35 38 36 39 44 40 37 41 38 42 42 43 45 44
REMARK SMILES IDX 39 45 40 46 43 47 41 48 67 49 68 50 76 51 69 52 70 53 74 54
REMARK SMILES IDX 77 55 71 56 72 57 75 58 73 59 52 60 53 61 61 62 54 63 55 64
REMARK SMILES IDX 59 65 62 66 56 67 57 68 60 69 58 70 6 71 7 72 8 73 9 74
REMARK SMILES IDX 10 75 25 76 11 77 13 78 12 79 14 80 15 81 16 82 17 83 18 84
REMARK SMILES IDX 19 85 24 86 20 87 22 88 21 89 23 90
REMARK H PARENT 82 23 50 34
REMARK Flexibility Score: inf
ROOT
ATOM      1  C   UNL A   1      46.940  41.083  26.867  1.00  0.00     0.274 C 
ENDROOT
BRANCH   1   2
ATOM      2  C   UNL A   1      46.530  39.834  27.671  1.00  0.00     0.275 C 
BRANCH   2   3
ATOM      3  O   UNL A   1      45.764  38.889  26.895  1.00  0.00    -0.458 OA
BRANCH   3   4
ATOM      4  C   UNL A   1      44.656  38.239  27.298  1.00  0.00     0.338 C 
ATOM      5  O   UNL A   1      43.651  38.838  27.661  1.00  0.00    -0.246 OA
BRANCH   4   6
ATOM      6  C   UNL A   1      44.676  36.783  27.468  1.00  0.00     0.060 A 
ATOM      7  C   UNL A   1      43.909  35.601  26.504  1.00  0.00     0.016 A 
ATOM      8  C   UNL A   1      45.554  36.231  28.862  1.00  0.00     0.016 A 
ATOM      9  C   UNL A   1      44.040  33.892  26.809  1.00  0.00     0.010 A 
ATOM     10  C   UNL A   1      45.772  34.319  29.223  1.00  0.00     0.010 A 
ATOM     11  C   UNL A   1      44.898  33.187  28.167  1.00  0.00    -0.014 A 
BRANCH  11  12
ATOM     12  C   UNL A   1      44.640  31.740  28.369  1.00  0.00     0.031 A 
ATOM     13  C   UNL A   1      43.350  31.304  29.032  1.00  0.00     0.074 A 
ATOM     14  C   UNL A   1      45.344  30.866  27.631  1.00  0.00     0.049 A 
ATOM     15  N   UNL A   1      42.604  30.254  28.795  1.00  0.00    -0.248 NA
ATOM     16  C   UNL A   1      42.772  32.201  30.040  1.00  0.00     0.031 C 
ATOM     17  C   UNL A   1      46.544  31.181  26.861  1.00  0.00     0.029 A 
ATOM     18  N   UNL A   1      45.106  29.543  27.355  1.00  0.00    -0.354 N 
ATOM     19  C   UNL A   1      41.433  30.444  29.528  1.00  0.00     0.074 A 
ATOM     20  C   UNL A   1      41.564  31.694  30.230  1.00  0.00     0.031 C 
ATOM     21  C   UNL A   1      46.922  30.095  26.173  1.00  0.00     0.029 A 
ATOM     22  C   UNL A   1      46.009  28.998  26.475  1.00  0.00     0.049 A 
ATOM     23  H   UNL A   1      44.361  29.034  27.748  1.00  0.00     0.167 HD
ATOM     24  C   UNL A   1      40.359  29.629  29.639  1.00  0.00     0.037 A 
ATOM     25  C   UNL A   1      46.091  27.753  25.970  1.00  0.00     0.037 A 
ATOM     26  C   UNL A   1      40.341  28.288  29.125  1.00  0.00     0.049 A 
ATOM     27  C   UNL A   1      44.984  26.785  26.278  1.00  0.00     0.074 A 
ATOM     28  C   UNL A   1      39.380  27.310  29.293  1.00  0.00     0.029 A 
ATOM     29  N   UNL A   1      41.381  27.719  28.404  1.00  0.00    -0.354 N 
ATOM     30  N   UNL A   1      43.860  26.998  26.920  1.00  0.00    -0.248 NA
ATOM     31  C   UNL A   1      45.144  25.412  25.783  1.00  0.00     0.031 C 
ATOM     32  C   UNL A   1      39.877  26.123  28.746  1.00  0.00     0.029 A 
ATOM     33  C   UNL A   1      41.110  26.385  28.166  1.00  0.00     0.049 A 
ATOM     34  H   UNL A   1      42.190  28.193  28.106  1.00  0.00     0.167 HD
ATOM     35  C   UNL A   1      43.173  25.793  26.902  1.00  0.00     0.074 A 
ATOM     36  C   UNL A   1      43.997  24.860  26.158  1.00  0.00     0.031 C 
ATOM     37  C   UNL A   1      41.970  25.482  27.447  1.00  0.00     0.037 A 
BRANCH  24  38
ATOM     38  C   UNL A   1      39.164  30.112  30.413  1.00  0.00     0.064 A 
ATOM     39  C   UNL A   1      39.047  29.859  31.788  1.00  0.00     0.173 A 
ATOM     40  C   UNL A   1      38.085  30.741  29.772  1.00  0.00     0.173 A 
ATOM     41  F   UNL A   1      40.052  29.267  32.451  1.00  0.00    -0.203 F 
ATOM     42  C   UNL A   1      37.886  30.189  32.486  1.00  0.00     0.198 A 
ATOM     43  C   UNL A   1      36.930  31.083  30.475  1.00  0.00     0.198 A 
ATOM     44  F   UNL A   1      38.149  31.020  28.461  1.00  0.00    -0.203 F 
ATOM     45  F   UNL A   1      37.786  29.902  33.791  1.00  0.00    -0.200 F 
ATOM     46  C   UNL A   1      36.827  30.796  31.828  1.00  0.00     0.200 A 
ATOM     47  F   UNL A   1      35.912  31.681  29.842  1.00  0.00    -0.200 F 
ATOM     48  F   UNL A   1      35.707  31.101  32.498  1.00  0.00    -0.200 F 
ENDBRANCH  24  38
BRANCH  25  49
ATOM     49  C   UNL A   1      47.277  27.381  25.152  1.00  0.00     0.064 A 
ATOM     50  C   UNL A   1      48.365  26.715  25.745  1.00  0.00     0.173 A 
ATOM     51  C   UNL A   1      47.388  27.721  23.798  1.00  0.00     0.173 A 
ATOM     52  F   UNL A   1      48.311  26.361  27.037  1.00  0.00    -0.203 F 
ATOM     53  C   UNL A   1      49.530  26.449  25.031  1.00  0.00     0.198 A 
ATOM     54  C   UNL A   1      48.544  27.424  23.074  1.00  0.00     0.198 A 
ATOM     55  F   UNL A   1      46.374  28.337  23.175  1.00  0.00    -0.203 F 
ATOM     56  F   UNL A   1      50.571  25.872  25.645  1.00  0.00    -0.200 F 
ATOM     57  C   UNL A   1      49.619  26.803  23.695  1.00  0.00     0.200 A 
ATOM     58  F   UNL A   1      48.620  27.745  21.775  1.00  0.00    -0.200 F 
ATOM     59  F   UNL A   1      50.741  26.549  23.007  1.00  0.00    -0.200 F 
ENDBRANCH  25  49
BRANCH  37  60
ATOM     60  C   UNL A   1      41.486  24.075  27.274  1.00  0.00     0.064 A 
ATOM     61  C   UNL A   1      40.346  23.807  26.503  1.00  0.00     0.173 A 
ATOM     62  C   UNL A   1      42.114  23.004  27.925  1.00  0.00     0.173 A 
ATOM     63  F   UNL A   1      39.702  24.804  25.875  1.00  0.00    -0.203 F 
ATOM     64  C   UNL A   1      39.848  22.514  26.393  1.00  0.00     0.198 A 
ATOM     65  C   UNL A   1      41.632  21.707  27.784  1.00  0.00     0.198 A 
ATOM     66  F   UNL A   1      43.210  23.213  28.668  1.00  0.00    -0.203 F 
ATOM     67  F   UNL A   1      38.739  22.284  25.676  1.00  0.00    -0.200 F 
ATOM     68  C   UNL A   1      40.496  21.464  27.025  1.00  0.00     0.200 A 
ATOM     69  F   UNL A   1      42.273  20.689  28.376  1.00  0.00    -0.200 F 
ATOM     70  F   UNL A   1      40.028  20.215  26.901  1.00  0.00    -0.200 F 
ENDBRANCH  37  60
ENDBRANCH  11  12
ENDBRANCH   4   6
ENDBRANCH   3   4
ENDBRANCH   2   3
ENDBRANCH   1   2
BRANCH   1  71
ATOM     71  O   UNL A   1      45.766  41.779  26.404  1.00  0.00    -0.462 OA
BRANCH  71  72
ATOM     72  C   UNL A   1      45.433  41.856  25.084  1.00  0.00     0.310 C 
ATOM     73  O   UNL A   1      45.952  41.211  24.191  1.00  0.00    -0.252 OA
BRANCH  72  74
ATOM     74  C   UNL A   1      44.268  42.865  24.929  1.00  0.00     0.119 C 
ATOM     75  C   UNL A   1      42.638  41.772  24.871  1.00  0.00     0.019 C 
ATOM     76  C   UNL A   1      44.548  44.076  23.488  1.00  0.00     0.135 C 
ATOM     77  C   UNL A   1      41.529  41.956  22.973  1.00  0.00     0.022 C 
ATOM     78  N   UNL A   1      43.623  43.954  21.961  1.00  0.00    -0.338 N 
ATOM     79  C   UNL A   1      42.015  43.477  21.889  1.00  0.00     0.120 C 
BRANCH  78  80
ATOM     80  C   UNL A   1      44.368  43.872  20.762  1.00  0.00     0.246 C 
ATOM     81  O   UNL A   1      45.059  42.904  20.464  1.00  0.00    -0.270 OA
BRANCH  80  82
ATOM     82  C   UNL A   1      44.299  45.055  19.832  1.00  0.00     0.072 C 
ATOM     83  C   UNL A   1      43.664  45.020  18.643  1.00  0.00     0.014 C 
BRANCH  83  84
ATOM     84  C   UNL A   1      43.227  46.198  17.861  1.00  0.00    -0.023 A 
ATOM     85  C   UNL A   1      42.279  46.050  16.838  1.00  0.00     0.008 A 
ATOM     86  C   UNL A   1      43.593  47.499  18.242  1.00  0.00     0.047 A 
ATOM     87  C   UNL A   1      41.763  47.169  16.165  1.00  0.00     0.004 A 
ATOM     88  C   UNL A   1      43.062  48.604  17.579  1.00  0.00     0.123 A 
ATOM     89  C   UNL A   1      42.161  48.452  16.534  1.00  0.00     0.039 A 
ATOM     90  F   UNL A   1      43.405  49.837  17.978  1.00  0.00    -0.207 F 
ENDBRANCH  83  84
ENDBRANCH  80  82
ENDBRANCH  78  80
ENDBRANCH  72  74
ENDBRANCH  71  72
ENDBRANCH   1  71
TORSDOF 14
ENDMDL
