MODEL 1
REMARK VINA RESULT:     -13.3      0.000      0.000
REMARK SMILES O=C1N=C(O)/C(=C\c2cc(Cl)c(OCC(=O)OCCOC(=O)c3ccc(-c4c5nc(c(-c6c(F)c(F)c(F)c(F)c6F)c6ccc([nH]6)c(-c6c(F)c(F)c(F)c(F)c6F)c6nc(c(-c7c(F)c(F)c(F)c(F)c7F)c7ccc4[nH]7)C=C6)C=C5)cc3)c(Cl)c2)C(=O)N1
REMARK SMILES IDX 18 1 17 2 15 3 16 4 14 5 13 6 12 7 8 8 9 9 88 10 10 11 86 12
REMARK SMILES IDX 11 13 87 14 7 15 1 16 2 17 3 18 91 19 4 20 89 21 6 23 90 24
REMARK SMILES IDX 5 25 19 27 20 28 21 29 22 30 23 31 24 32 85 33 25 34 84 35
REMARK SMILES IDX 26 36 27 37 28 38 78 39 29 40 83 41 77 42 79 43 30 44 82 45
REMARK SMILES IDX 76 46 75 47 31 49 63 50 43 51 62 52 44 53 47 54 61 55 80 56
REMARK SMILES IDX 45 57 46 58 60 60 81 61 48 62 32 63 33 64 41 65 34 66 35 67
REMARK SMILES IDX 39 68 42 69 36 70 37 71 40 72 38 73 64 74 65 75 73 76 66 77
REMARK SMILES IDX 67 78 71 79 74 80 68 81 69 82 72 83 70 84 49 85 50 86 58 87
REMARK SMILES IDX 51 88 52 89 56 90 59 91 53 92 54 93 57 94 55 95
REMARK H PARENT 91 22 5 26 79 48 47 59
REMARK Flexibility Score: inf
ROOT
ATOM      1  C   UNL A   1      32.070  28.978  25.320  1.00  0.00     0.274 C 
ENDROOT
BRANCH   1   2
ATOM      2  O   UNL A   1      31.420  28.052  26.227  1.00  0.00    -0.460 OA
BRANCH   2   3
ATOM      3  C   UNL A   1      31.304  26.778  25.775  1.00  0.00     0.344 C 
ATOM      4  O   UNL A   1      30.235  26.265  25.448  1.00  0.00    -0.248 OA
BRANCH   3   5
ATOM      5  C   UNL A   1      32.615  25.971  25.738  1.00  0.00     0.352 C 
BRANCH   5   6
ATOM      6  O   UNL A   1      32.939  24.823  26.500  1.00  0.00    -0.479 OA
BRANCH   6   7
ATOM      7  C   UNL A   1      32.800  23.574  25.956  1.00  0.00     0.157 A 
ATOM      8  C   UNL A   1      32.758  21.087  24.585  1.00  0.00    -0.021 A 
ATOM      9  C   UNL A   1      31.595  21.602  25.162  1.00  0.00     0.032 A 
ATOM     10  C   UNL A   1      33.968  21.731  24.841  1.00  0.00     0.032 A 
ATOM     11  C   UNL A   1      31.636  22.799  25.903  1.00  0.00     0.085 A 
ATOM     12  C   UNL A   1      33.983  22.965  25.506  1.00  0.00     0.085 A 
ATOM     13  Cl  UNL A   1      30.273  23.104  26.922  1.00  0.00    -0.080 Cl
ATOM     14  Cl  UNL A   1      35.528  23.688  25.810  1.00  0.00    -0.080 Cl
BRANCH   8  15
ATOM     15  C   UNL A   1      32.720  19.865  23.769  1.00  0.00     0.027 C 
ATOM     16  O   UNL A   1      33.129  14.720  25.339  1.00  0.00    -0.246 OA
ATOM     17  C   UNL A   1      33.000  15.906  25.044  1.00  0.00     0.351 C 
ATOM     18  N   UNL A   1      33.020  16.894  25.986  1.00  0.00    -0.157 NA
ATOM     19  N   UNL A   1      32.827  16.244  23.728  1.00  0.00    -0.272 N 
ATOM     20  C   UNL A   1      32.893  18.104  25.588  1.00  0.00     0.228 C 
ATOM     21  C   UNL A   1      32.729  17.502  23.201  1.00  0.00     0.264 C 
ATOM     22  H   UNL A   1      32.765  15.496  23.089  1.00  0.00     0.175 HD
ATOM     23  C   UNL A   1      32.770  18.589  24.209  1.00  0.00     0.102 C 
ATOM     24  O   UNL A   1      32.634  17.693  21.995  1.00  0.00    -0.269 OA
BRANCH  20  25
ATOM     25  O   UNL A   1      32.849  19.042  26.525  1.00  0.00    -0.493 OA
ATOM     26  H   UNL A   1      32.069  19.166  27.028  1.00  0.00     0.295 HD
ENDBRANCH  20  25
ENDBRANCH   8  15
ENDBRANCH   6   7
ENDBRANCH   5   6
ENDBRANCH   3   5
ENDBRANCH   2   3
ENDBRANCH   1   2
BRANCH   1  27
ATOM     27  C   UNL A   1      31.905  30.445  25.742  1.00  0.00     0.275 C 
BRANCH  27  28
ATOM     28  O   UNL A   1      32.270  30.672  27.122  1.00  0.00    -0.458 OA
BRANCH  28  29
ATOM     29  C   UNL A   1      33.088  31.732  27.281  1.00  0.00     0.338 C 
ATOM     30  O   UNL A   1      32.754  32.904  27.250  1.00  0.00    -0.246 OA
BRANCH  29  31
ATOM     31  C   UNL A   1      34.469  31.380  27.614  1.00  0.00     0.060 A 
ATOM     32  C   UNL A   1      34.723  30.052  27.930  1.00  0.00     0.016 A 
ATOM     33  C   UNL A   1      35.394  32.371  27.949  1.00  0.00     0.016 A 
ATOM     34  C   UNL A   1      35.856  29.722  28.666  1.00  0.00     0.010 A 
ATOM     35  C   UNL A   1      36.586  32.016  28.604  1.00  0.00     0.010 A 
ATOM     36  C   UNL A   1      36.815  30.689  29.007  1.00  0.00    -0.014 A 
BRANCH  36  37
ATOM     37  C   UNL A   1      38.035  30.266  29.762  1.00  0.00     0.031 A 
ATOM     38  C   UNL A   1      39.074  29.351  29.159  1.00  0.00     0.074 A 
ATOM     39  C   UNL A   1      38.233  30.755  31.004  1.00  0.00     0.049 A 
ATOM     40  N   UNL A   1      40.154  28.850  29.712  1.00  0.00    -0.248 NA
ATOM     41  C   UNL A   1      38.878  28.932  27.763  1.00  0.00     0.031 C 
ATOM     42  C   UNL A   1      37.322  31.660  31.710  1.00  0.00     0.029 A 
ATOM     43  N   UNL A   1      39.267  30.579  31.891  1.00  0.00    -0.354 N 
ATOM     44  C   UNL A   1      40.735  28.023  28.756  1.00  0.00     0.074 A 
ATOM     45  C   UNL A   1      39.887  28.087  27.584  1.00  0.00     0.031 C 
ATOM     46  C   UNL A   1      37.860  32.006  32.886  1.00  0.00     0.029 A 
ATOM     47  C   UNL A   1      39.099  31.264  33.071  1.00  0.00     0.049 A 
ATOM     48  H   UNL A   1      40.052  30.017  31.701  1.00  0.00     0.167 HD
ATOM     49  C   UNL A   1      41.865  27.278  28.852  1.00  0.00     0.037 A 
ATOM     50  C   UNL A   1      39.828  31.267  34.203  1.00  0.00     0.037 A 
ATOM     51  C   UNL A   1      42.738  27.256  30.003  1.00  0.00     0.049 A 
ATOM     52  C   UNL A   1      41.062  30.417  34.279  1.00  0.00     0.074 A 
ATOM     53  C   UNL A   1      43.935  26.576  30.162  1.00  0.00     0.029 A 
ATOM     54  N   UNL A   1      42.513  27.939  31.189  1.00  0.00    -0.354 N 
ATOM     55  N   UNL A   1      41.599  29.649  33.364  1.00  0.00    -0.248 NA
ATOM     56  C   UNL A   1      41.790  30.430  35.554  1.00  0.00     0.031 C 
ATOM     57  C   UNL A   1      44.396  26.791  31.465  1.00  0.00     0.029 A 
ATOM     58  C   UNL A   1      43.530  27.667  32.094  1.00  0.00     0.049 A 
ATOM     59  H   UNL A   1      41.745  28.531  31.362  1.00  0.00     0.167 HD
ATOM     60  C   UNL A   1      42.736  29.106  33.944  1.00  0.00     0.074 A 
ATOM     61  C   UNL A   1      42.832  29.663  35.277  1.00  0.00     0.031 C 
ATOM     62  C   UNL A   1      43.619  28.220  33.422  1.00  0.00     0.037 A 
BRANCH  49  63
ATOM     63  C   UNL A   1      42.231  26.379  27.701  1.00  0.00     0.064 A 
ATOM     64  C   UNL A   1      43.207  26.727  26.757  1.00  0.00     0.173 A 
ATOM     65  C   UNL A   1      41.662  25.097  27.609  1.00  0.00     0.173 A 
ATOM     66  F   UNL A   1      43.780  27.939  26.792  1.00  0.00    -0.203 F 
ATOM     67  C   UNL A   1      43.591  25.832  25.759  1.00  0.00     0.198 A 
ATOM     68  C   UNL A   1      42.070  24.194  26.630  1.00  0.00     0.198 A 
ATOM     69  F   UNL A   1      40.731  24.705  28.492  1.00  0.00    -0.203 F 
ATOM     70  F   UNL A   1      44.506  26.197  24.850  1.00  0.00    -0.200 F 
ATOM     71  C   UNL A   1      43.032  24.563  25.703  1.00  0.00     0.200 A 
ATOM     72  F   UNL A   1      41.543  22.962  26.594  1.00  0.00    -0.200 F 
ATOM     73  F   UNL A   1      43.420  23.697  24.757  1.00  0.00    -0.200 F 
ENDBRANCH  49  63
BRANCH  50  74
ATOM     74  C   UNL A   1      39.378  32.063  35.377  1.00  0.00     0.064 A 
ATOM     75  C   UNL A   1      38.565  31.500  36.369  1.00  0.00     0.173 A 
ATOM     76  C   UNL A   1      39.728  33.415  35.514  1.00  0.00     0.173 A 
ATOM     77  F   UNL A   1      38.183  30.217  36.274  1.00  0.00    -0.203 F 
ATOM     78  C   UNL A   1      38.089  32.267  37.432  1.00  0.00     0.198 A 
ATOM     79  C   UNL A   1      39.291  34.168  36.600  1.00  0.00     0.198 A 
ATOM     80  F   UNL A   1      40.509  34.006  34.595  1.00  0.00    -0.203 F 
ATOM     81  F   UNL A   1      37.252  31.722  38.325  1.00  0.00    -0.200 F 
ATOM     82  C   UNL A   1      38.458  33.598  37.549  1.00  0.00     0.200 A 
ATOM     83  F   UNL A   1      39.670  35.448  36.720  1.00  0.00    -0.200 F 
ATOM     84  F   UNL A   1      38.002  34.335  38.571  1.00  0.00    -0.200 F 
ENDBRANCH  50  74
BRANCH  62  85
ATOM     85  C   UNL A   1      44.786  27.835  34.287  1.00  0.00     0.064 A 
ATOM     86  C   UNL A   1      45.965  28.597  34.323  1.00  0.00     0.173 A 
ATOM     87  C   UNL A   1      44.738  26.670  35.069  1.00  0.00     0.173 A 
ATOM     88  F   UNL A   1      46.072  29.710  33.583  1.00  0.00    -0.203 F 
ATOM     89  C   UNL A   1      47.069  28.176  35.062  1.00  0.00     0.198 A 
ATOM     90  C   UNL A   1      45.829  26.275  35.838  1.00  0.00     0.198 A 
ATOM     91  F   UNL A   1      43.634  25.908  35.080  1.00  0.00    -0.203 F 
ATOM     92  F   UNL A   1      48.212  28.874  35.010  1.00  0.00    -0.200 F 
ATOM     93  C   UNL A   1      46.998  27.017  35.821  1.00  0.00     0.200 A 
ATOM     94  F   UNL A   1      45.752  25.164  36.584  1.00  0.00    -0.200 F 
ATOM     95  F   UNL A   1      48.064  26.609  36.523  1.00  0.00    -0.200 F 
ENDBRANCH  62  85
ENDBRANCH  36  37
ENDBRANCH  29  31
ENDBRANCH  28  29
ENDBRANCH  27  28
ENDBRANCH   1  27
TORSDOF 15
ENDMDL
MODEL 2
REMARK VINA RESULT:     -13.3      0.371      7.220
REMARK SMILES O=C1N=C(O)/C(=C\c2cc(Cl)c(OCC(=O)OCCOC(=O)c3ccc(-c4c5nc(c(-c6c(F)c(F)c(F)c(F)c6F)c6ccc([nH]6)c(-c6c(F)c(F)c(F)c(F)c6F)c6nc(c(-c7c(F)c(F)c(F)c(F)c7F)c7ccc4[nH]7)C=C6)C=C5)cc3)c(Cl)c2)C(=O)N1
REMARK SMILES IDX 18 1 17 2 15 3 16 4 14 5 13 6 12 7 8 8 9 9 88 10 10 11 86 12
REMARK SMILES IDX 11 13 87 14 7 15 1 16 2 17 3 18 91 19 4 20 89 21 6 23 90 24
REMARK SMILES IDX 5 25 19 27 20 28 21 29 22 30 23 31 24 32 85 33 25 34 84 35
REMARK SMILES IDX 26 36 27 37 28 38 78 39 29 40 83 41 77 42 79 43 30 44 82 45
REMARK SMILES IDX 76 46 75 47 31 49 63 50 43 51 62 52 44 53 47 54 61 55 80 56
REMARK SMILES IDX 45 57 46 58 60 60 81 61 48 62 32 63 33 64 41 65 34 66 35 67
REMARK SMILES IDX 39 68 42 69 36 70 37 71 40 72 38 73 64 74 65 75 73 76 66 77
REMARK SMILES IDX 67 78 71 79 74 80 68 81 69 82 72 83 70 84 49 85 50 86 58 87
REMARK SMILES IDX 51 88 52 89 56 90 59 91 53 92 54 93 57 94 55 95
REMARK H PARENT 91 22 5 26 79 48 47 59
REMARK Flexibility Score: inf
ROOT
ATOM      1  C   UNL A   1      31.977  28.982  25.272  1.00  0.00     0.274 C 
ENDROOT
BRANCH   1   2
ATOM      2  O   UNL A   1      31.412  28.050  26.229  1.00  0.00    -0.460 OA
BRANCH   2   3
ATOM      3  C   UNL A   1      31.309  26.767  25.799  1.00  0.00     0.344 C 
ATOM      4  O   UNL A   1      30.243  26.236  25.489  1.00  0.00    -0.248 OA
BRANCH   3   5
ATOM      5  C   UNL A   1      32.628  25.974  25.768  1.00  0.00     0.352 C 
BRANCH   5   6
ATOM      6  O   UNL A   1      32.960  24.827  26.526  1.00  0.00    -0.479 OA
BRANCH   6   7
ATOM      7  C   UNL A   1      32.832  23.578  25.978  1.00  0.00     0.157 A 
ATOM      8  C   UNL A   1      32.819  21.093  24.603  1.00  0.00    -0.021 A 
ATOM      9  C   UNL A   1      31.644  21.608  25.156  1.00  0.00     0.032 A 
ATOM     10  C   UNL A   1      34.023  21.737  24.886  1.00  0.00     0.032 A 
ATOM     11  C   UNL A   1      31.669  22.804  25.899  1.00  0.00     0.085 A 
ATOM     12  C   UNL A   1      34.024  22.969  25.553  1.00  0.00     0.085 A 
ATOM     13  Cl  UNL A   1      30.285  23.108  26.890  1.00  0.00    -0.080 Cl
ATOM     14  Cl  UNL A   1      35.562  23.691  25.891  1.00  0.00    -0.080 Cl
BRANCH   8  15
ATOM     15  C   UNL A   1      32.798  19.872  23.784  1.00  0.00     0.027 C 
ATOM     16  O   UNL A   1      33.216  14.727  25.352  1.00  0.00    -0.246 OA
ATOM     17  C   UNL A   1      33.084  15.913  25.057  1.00  0.00     0.351 C 
ATOM     18  N   UNL A   1      33.087  16.899  26.001  1.00  0.00    -0.157 NA
ATOM     19  N   UNL A   1      32.925  16.252  23.739  1.00  0.00    -0.272 N 
ATOM     20  C   UNL A   1      32.958  18.109  25.603  1.00  0.00     0.228 C 
ATOM     21  C   UNL A   1      32.827  17.511  23.213  1.00  0.00     0.264 C 
ATOM     22  H   UNL A   1      32.876  15.505  23.099  1.00  0.00     0.175 HD
ATOM     23  C   UNL A   1      32.849  18.596  24.224  1.00  0.00     0.102 C 
ATOM     24  O   UNL A   1      32.746  17.703  22.007  1.00  0.00    -0.269 OA
BRANCH  20  25
ATOM     25  O   UNL A   1      32.897  19.046  26.541  1.00  0.00    -0.493 OA
ATOM     26  H   UNL A   1      32.243  19.714  26.494  1.00  0.00     0.295 HD
ENDBRANCH  20  25
ENDBRANCH   8  15
ENDBRANCH   6   7
ENDBRANCH   5   6
ENDBRANCH   3   5
ENDBRANCH   2   3
ENDBRANCH   1   2
BRANCH   1  27
ATOM     27  C   UNL A   1      31.851  30.446  25.718  1.00  0.00     0.275 C 
BRANCH  27  28
ATOM     28  O   UNL A   1      32.232  30.643  27.099  1.00  0.00    -0.458 OA
BRANCH  28  29
ATOM     29  C   UNL A   1      33.059  31.694  27.270  1.00  0.00     0.338 C 
ATOM     30  O   UNL A   1      32.744  32.869  27.211  1.00  0.00    -0.246 OA
BRANCH  29  31
ATOM     31  C   UNL A   1      34.423  31.327  27.656  1.00  0.00     0.060 A 
ATOM     32  C   UNL A   1      34.651  29.997  27.980  1.00  0.00     0.016 A 
ATOM     33  C   UNL A   1      35.345  32.309  28.026  1.00  0.00     0.016 A 
ATOM     34  C   UNL A   1      35.752  29.656  28.759  1.00  0.00     0.010 A 
ATOM     35  C   UNL A   1      36.507  31.942  28.726  1.00  0.00     0.010 A 
ATOM     36  C   UNL A   1      36.707  30.613  29.137  1.00  0.00    -0.014 A 
BRANCH  36  37
ATOM     37  C   UNL A   1      37.893  30.177  29.937  1.00  0.00     0.031 A 
ATOM     38  C   UNL A   1      38.078  30.579  31.381  1.00  0.00     0.074 A 
ATOM     39  C   UNL A   1      38.803  29.363  29.361  1.00  0.00     0.049 A 
ATOM     40  N   UNL A   1      39.084  30.328  32.186  1.00  0.00    -0.248 NA
ATOM     41  C   UNL A   1      37.008  31.372  32.005  1.00  0.00     0.031 C 
ATOM     42  C   UNL A   1      38.748  28.882  27.978  1.00  0.00     0.029 A 
ATOM     43  N   UNL A   1      39.941  28.780  29.862  1.00  0.00    -0.354 N 
ATOM     44  C   UNL A   1      38.794  30.969  33.386  1.00  0.00     0.074 A 
ATOM     45  C   UNL A   1      37.515  31.624  33.206  1.00  0.00     0.031 C 
ATOM     46  C   UNL A   1      39.762  28.036  27.761  1.00  0.00     0.029 A 
ATOM     47  C   UNL A   1      40.605  27.998  28.948  1.00  0.00     0.049 A 
ATOM     48  H   UNL A   1      40.251  28.910  30.787  1.00  0.00     0.167 HD
ATOM     49  C   UNL A   1      39.529  31.010  34.525  1.00  0.00     0.037 A 
ATOM     50  C   UNL A   1      41.785  27.356  29.025  1.00  0.00     0.037 A 
ATOM     51  C   UNL A   1      40.779  30.312  34.721  1.00  0.00     0.049 A 
ATOM     52  C   UNL A   1      42.580  27.438  30.296  1.00  0.00     0.074 A 
ATOM     53  C   UNL A   1      41.561  30.251  35.864  1.00  0.00     0.029 A 
ATOM     54  N   UNL A   1      41.432  29.558  33.757  1.00  0.00    -0.354 N 
ATOM     55  N   UNL A   1      42.286  28.042  31.420  1.00  0.00    -0.248 NA
ATOM     56  C   UNL A   1      43.877  26.752  30.304  1.00  0.00     0.031 C 
ATOM     57  C   UNL A   1      42.717  29.521  35.572  1.00  0.00     0.029 A 
ATOM     58  C   UNL A   1      42.622  29.060  34.270  1.00  0.00     0.049 A 
ATOM     59  H   UNL A   1      41.100  29.400  32.844  1.00  0.00     0.167 HD
ATOM     60  C   UNL A   1      43.350  27.791  32.275  1.00  0.00     0.074 A 
ATOM     61  C   UNL A   1      44.277  26.948  31.550  1.00  0.00     0.031 C 
ATOM     62  C   UNL A   1      43.545  28.225  33.544  1.00  0.00     0.037 A 
BRANCH  49  63
ATOM     63  C   UNL A   1      39.040  31.866  35.664  1.00  0.00     0.064 A 
ATOM     64  C   UNL A   1      38.228  31.360  36.689  1.00  0.00     0.173 A 
ATOM     65  C   UNL A   1      39.486  33.194  35.780  1.00  0.00     0.173 A 
ATOM     66  F   UNL A   1      37.769  30.102  36.629  1.00  0.00    -0.203 F 
ATOM     67  C   UNL A   1      37.872  32.154  37.779  1.00  0.00     0.198 A 
ATOM     68  C   UNL A   1      39.153  33.974  36.885  1.00  0.00     0.198 A 
ATOM     69  F   UNL A   1      40.275  33.727  34.835  1.00  0.00    -0.203 F 
ATOM     70  F   UNL A   1      37.071  31.658  38.733  1.00  0.00    -0.200 F 
ATOM     71  C   UNL A   1      38.344  33.455  37.882  1.00  0.00     0.200 A 
ATOM     72  F   UNL A   1      39.630  35.222  36.991  1.00  0.00    -0.200 F 
ATOM     73  F   UNL A   1      38.019  34.207  38.943  1.00  0.00    -0.200 F 
ENDBRANCH  49  63
BRANCH  50  74
ATOM     74  C   UNL A   1      42.313  26.621  27.844  1.00  0.00     0.064 A 
ATOM     75  C   UNL A   1      42.003  25.272  27.627  1.00  0.00     0.173 A 
ATOM     76  C   UNL A   1      43.168  27.248  26.923  1.00  0.00     0.173 A 
ATOM     77  F   UNL A   1      41.209  24.621  28.490  1.00  0.00    -0.203 F 
ATOM     78  C   UNL A   1      42.555  24.569  26.558  1.00  0.00     0.198 A 
ATOM     79  C   UNL A   1      43.682  26.557  25.829  1.00  0.00     0.198 A 
ATOM     80  F   UNL A   1      43.496  28.540  27.079  1.00  0.00    -0.203 F 
ATOM     81  F   UNL A   1      42.301  23.261  26.417  1.00  0.00    -0.200 F 
ATOM     82  C   UNL A   1      43.389  25.214  25.656  1.00  0.00     0.200 A 
ATOM     83  F   UNL A   1      44.468  27.192  24.949  1.00  0.00    -0.200 F 
ATOM     84  F   UNL A   1      43.918  24.538  24.628  1.00  0.00    -0.200 F 
ENDBRANCH  50  74
BRANCH  62  85
ATOM     85  C   UNL A   1      44.794  27.756  34.237  1.00  0.00     0.064 A 
ATOM     86  C   UNL A   1      45.981  28.506  34.214  1.00  0.00     0.173 A 
ATOM     87  C   UNL A   1      44.813  26.523  34.908  1.00  0.00     0.173 A 
ATOM     88  F   UNL A   1      46.023  29.683  33.574  1.00  0.00    -0.203 F 
ATOM     89  C   UNL A   1      47.151  28.012  34.786  1.00  0.00     0.198 A 
ATOM     90  C   UNL A   1      45.975  26.052  35.513  1.00  0.00     0.198 A 
ATOM     91  F   UNL A   1      43.705  25.768  34.969  1.00  0.00    -0.203 F 
ATOM     92  F   UNL A   1      48.292  28.707  34.674  1.00  0.00    -0.200 F 
ATOM     93  C   UNL A   1      47.146  26.788  35.437  1.00  0.00     0.200 A 
ATOM     94  F   UNL A   1      45.963  24.877  36.157  1.00  0.00    -0.200 F 
ATOM     95  F   UNL A   1      48.276  26.310  35.977  1.00  0.00    -0.200 F 
ENDBRANCH  62  85
ENDBRANCH  36  37
ENDBRANCH  29  31
ENDBRANCH  28  29
ENDBRANCH  27  28
ENDBRANCH   1  27
TORSDOF 15
ENDMDL
MODEL 3
REMARK VINA RESULT:     -13.3      0.370      1.617
REMARK SMILES O=C1N=C(O)/C(=C\c2cc(Cl)c(OCC(=O)OCCOC(=O)c3ccc(-c4c5nc(c(-c6c(F)c(F)c(F)c(F)c6F)c6ccc([nH]6)c(-c6c(F)c(F)c(F)c(F)c6F)c6nc(c(-c7c(F)c(F)c(F)c(F)c7F)c7ccc4[nH]7)C=C6)C=C5)cc3)c(Cl)c2)C(=O)N1
REMARK SMILES IDX 18 1 17 2 15 3 16 4 14 5 13 6 12 7 8 8 9 9 88 10 10 11 86 12
REMARK SMILES IDX 11 13 87 14 7 15 1 16 2 17 3 18 91 19 4 20 89 21 6 23 90 24
REMARK SMILES IDX 5 25 19 27 20 28 21 29 22 30 23 31 24 32 85 33 25 34 84 35
REMARK SMILES IDX 26 36 27 37 28 38 78 39 29 40 83 41 77 42 79 43 30 44 82 45
REMARK SMILES IDX 76 46 75 47 31 49 63 50 43 51 62 52 44 53 47 54 61 55 80 56
REMARK SMILES IDX 45 57 46 58 60 60 81 61 48 62 32 63 33 64 41 65 34 66 35 67
REMARK SMILES IDX 39 68 42 69 36 70 37 71 40 72 38 73 64 74 65 75 73 76 66 77
REMARK SMILES IDX 67 78 71 79 74 80 68 81 69 82 72 83 70 84 49 85 50 86 58 87
REMARK SMILES IDX 51 88 52 89 56 90 59 91 53 92 54 93 57 94 55 95
REMARK H PARENT 91 22 5 26 79 48 47 59
REMARK Flexibility Score: inf
ROOT
ATOM      1  C   UNL A   1      32.203  29.298  24.652  1.00  0.00     0.274 C 
ENDROOT
BRANCH   1   2
ATOM      2  O   UNL A   1      33.048  28.296  25.273  1.00  0.00    -0.460 OA
BRANCH   2   3
ATOM      3  C   UNL A   1      32.452  27.102  25.516  1.00  0.00     0.344 C 
ATOM      4  O   UNL A   1      31.233  26.953  25.602  1.00  0.00    -0.248 OA
BRANCH   3   5
ATOM      5  C   UNL A   1      33.412  25.918  25.734  1.00  0.00     0.352 C 
BRANCH   5   6
ATOM      6  O   UNL A   1      33.209  24.789  26.562  1.00  0.00    -0.479 OA
BRANCH   6   7
ATOM      7  C   UNL A   1      33.017  23.552  26.006  1.00  0.00     0.157 A 
ATOM      8  C   UNL A   1      32.882  21.076  24.623  1.00  0.00    -0.021 A 
ATOM      9  C   UNL A   1      31.728  21.663  25.146  1.00  0.00     0.032 A 
ATOM     10  C   UNL A   1      34.117  21.640  24.940  1.00  0.00     0.032 A 
ATOM     11  C   UNL A   1      31.809  22.853  25.894  1.00  0.00     0.085 A 
ATOM     12  C   UNL A   1      34.179  22.869  25.611  1.00  0.00     0.085 A 
ATOM     13  Cl  UNL A   1      30.421  23.243  26.848  1.00  0.00    -0.080 Cl
ATOM     14  Cl  UNL A   1      35.750  23.491  25.993  1.00  0.00    -0.080 Cl
BRANCH   8  15
ATOM     15  C   UNL A   1      32.806  19.860  23.799  1.00  0.00     0.027 C 
ATOM     16  O   UNL A   1      33.020  14.695  25.343  1.00  0.00    -0.246 OA
ATOM     17  C   UNL A   1      32.936  15.887  25.053  1.00  0.00     0.351 C 
ATOM     18  N   UNL A   1      32.985  16.868  26.001  1.00  0.00    -0.157 NA
ATOM     19  N   UNL A   1      32.783  16.238  23.738  1.00  0.00    -0.272 N 
ATOM     20  C   UNL A   1      32.903  18.084  25.609  1.00  0.00     0.228 C 
ATOM     21  C   UNL A   1      32.733  17.502  23.218  1.00  0.00     0.264 C 
ATOM     22  H   UNL A   1      32.699  15.496  23.095  1.00  0.00     0.175 HD
ATOM     23  C   UNL A   1      32.807  18.581  24.233  1.00  0.00     0.102 C 
ATOM     24  O   UNL A   1      32.653  17.702  22.013  1.00  0.00    -0.269 OA
BRANCH  20  25
ATOM     25  O   UNL A   1      32.888  19.018  26.551  1.00  0.00    -0.493 OA
ATOM     26  H   UNL A   1      32.147  19.585  26.637  1.00  0.00     0.295 HD
ENDBRANCH  20  25
ENDBRANCH   8  15
ENDBRANCH   6   7
ENDBRANCH   5   6
ENDBRANCH   3   5
ENDBRANCH   2   3
ENDBRANCH   1   2
BRANCH   1  27
ATOM     27  C   UNL A   1      31.775  30.405  25.626  1.00  0.00     0.275 C 
BRANCH  27  28
ATOM     28  O   UNL A   1      32.421  30.295  26.914  1.00  0.00    -0.458 OA
BRANCH  28  29
ATOM     29  C   UNL A   1      33.163  31.378  27.223  1.00  0.00     0.338 C 
ATOM     30  O   UNL A   1      32.758  32.525  27.298  1.00  0.00    -0.246 OA
BRANCH  29  31
ATOM     31  C   UNL A   1      34.548  31.073  27.586  1.00  0.00     0.060 A 
ATOM     32  C   UNL A   1      34.833  29.762  27.944  1.00  0.00     0.016 A 
ATOM     33  C   UNL A   1      35.442  32.099  27.904  1.00  0.00     0.016 A 
ATOM     34  C   UNL A   1      35.963  29.485  28.705  1.00  0.00     0.010 A 
ATOM     35  C   UNL A   1      36.632  31.796  28.586  1.00  0.00     0.010 A 
ATOM     36  C   UNL A   1      36.891  30.488  29.031  1.00  0.00    -0.014 A 
BRANCH  36  37
ATOM     37  C   UNL A   1      38.110  30.120  29.815  1.00  0.00     0.031 A 
ATOM     38  C   UNL A   1      39.188  29.225  29.250  1.00  0.00     0.074 A 
ATOM     39  C   UNL A   1      38.272  30.642  31.049  1.00  0.00     0.049 A 
ATOM     40  N   UNL A   1      40.273  28.771  29.831  1.00  0.00    -0.248 NA
ATOM     41  C   UNL A   1      39.028  28.769  27.861  1.00  0.00     0.031 C 
ATOM     42  C   UNL A   1      37.321  31.534  31.719  1.00  0.00     0.029 A 
ATOM     43  N   UNL A   1      39.296  30.519  31.956  1.00  0.00    -0.354 N 
ATOM     44  C   UNL A   1      40.896  27.942  28.904  1.00  0.00     0.074 A 
ATOM     45  C   UNL A   1      40.066  27.954  27.717  1.00  0.00     0.031 C 
ATOM     46  C   UNL A   1      37.829  31.923  32.895  1.00  0.00     0.029 A 
ATOM     47  C   UNL A   1      39.087  31.224  33.118  1.00  0.00     0.049 A 
ATOM     48  H   UNL A   1      40.101  29.978  31.792  1.00  0.00     0.167 HD
ATOM     49  C   UNL A   1      42.047  27.236  29.035  1.00  0.00     0.037 A 
ATOM     50  C   UNL A   1      39.796  31.276  34.261  1.00  0.00     0.037 A 
ATOM     51  C   UNL A   1      42.901  27.267  30.200  1.00  0.00     0.049 A 
ATOM     52  C   UNL A   1      41.055  30.467  34.376  1.00  0.00     0.074 A 
ATOM     53  C   UNL A   1      44.116  26.628  30.394  1.00  0.00     0.029 A 
ATOM     54  N   UNL A   1      42.635  27.969  31.366  1.00  0.00    -0.354 N 
ATOM     55  N   UNL A   1      41.631  29.696  33.487  1.00  0.00    -0.248 NA
ATOM     56  C   UNL A   1      41.761  30.531  35.662  1.00  0.00     0.031 C 
ATOM     57  C   UNL A   1      44.548  26.886  31.699  1.00  0.00     0.029 A 
ATOM     58  C   UNL A   1      43.644  27.748  32.294  1.00  0.00     0.049 A 
ATOM     59  H   UNL A   1      41.846  28.539  31.514  1.00  0.00     0.167 HD
ATOM     60  C   UNL A   1      42.775  29.202  34.097  1.00  0.00     0.074 A 
ATOM     61  C   UNL A   1      42.830  29.791  35.419  1.00  0.00     0.031 C 
ATOM     62  C   UNL A   1      43.693  28.333  33.610  1.00  0.00     0.037 A 
BRANCH  49  63
ATOM     63  C   UNL A   1      42.461  26.323  27.911  1.00  0.00     0.064 A 
ATOM     64  C   UNL A   1      41.911  25.045  27.742  1.00  0.00     0.173 A 
ATOM     65  C   UNL A   1      43.350  26.787  26.926  1.00  0.00     0.173 A 
ATOM     66  F   UNL A   1      41.061  24.547  28.652  1.00  0.00    -0.203 F 
ATOM     67  C   UNL A   1      42.245  24.261  26.636  1.00  0.00     0.198 A 
ATOM     68  C   UNL A   1      43.657  26.015  25.808  1.00  0.00     0.198 A 
ATOM     69  F   UNL A   1      43.898  28.007  27.030  1.00  0.00    -0.203 F 
ATOM     70  F   UNL A   1      41.729  23.031  26.509  1.00  0.00    -0.200 F 
ATOM     71  C   UNL A   1      43.107  24.751  25.665  1.00  0.00     0.200 A 
ATOM     72  F   UNL A   1      44.472  26.501  24.862  1.00  0.00    -0.200 F 
ATOM     73  F   UNL A   1      43.407  24.006  24.593  1.00  0.00    -0.200 F 
ENDBRANCH  49  63
BRANCH  50  74
ATOM     74  C   UNL A   1      39.302  32.083  35.409  1.00  0.00     0.064 A 
ATOM     75  C   UNL A   1      39.661  33.428  35.560  1.00  0.00     0.173 A 
ATOM     76  C   UNL A   1      38.487  31.512  36.399  1.00  0.00     0.173 A 
ATOM     77  F   UNL A   1      40.458  34.015  34.655  1.00  0.00    -0.203 F 
ATOM     78  C   UNL A   1      39.253  34.162  36.673  1.00  0.00     0.198 A 
ATOM     79  C   UNL A   1      38.040  32.259  37.486  1.00  0.00     0.198 A 
ATOM     80  F   UNL A   1      38.109  30.228  36.303  1.00  0.00    -0.203 F 
ATOM     81  F   UNL A   1      39.672  35.425  36.829  1.00  0.00    -0.200 F 
ATOM     82  C   UNL A   1      38.438  33.578  37.631  1.00  0.00     0.200 A 
ATOM     83  F   UNL A   1      37.235  31.695  38.397  1.00  0.00    -0.200 F 
ATOM     84  F   UNL A   1      38.045  34.283  38.700  1.00  0.00    -0.200 F 
ENDBRANCH  50  74
BRANCH  62  85
ATOM     85  C   UNL A   1      44.857  28.005  34.503  1.00  0.00     0.064 A 
ATOM     86  C   UNL A   1      46.036  28.768  34.495  1.00  0.00     0.173 A 
ATOM     87  C   UNL A   1      44.806  26.892  35.357  1.00  0.00     0.173 A 
ATOM     88  F   UNL A   1      46.146  29.832  33.686  1.00  0.00    -0.203 F 
ATOM     89  C   UNL A   1      47.137  28.396  35.263  1.00  0.00     0.198 A 
ATOM     90  C   UNL A   1      45.894  26.547  36.154  1.00  0.00     0.198 A 
ATOM     91  F   UNL A   1      43.702  26.131  35.412  1.00  0.00    -0.203 F 
ATOM     92  F   UNL A   1      48.280  29.090  35.172  1.00  0.00    -0.200 F 
ATOM     93  C   UNL A   1      47.064  27.287  36.094  1.00  0.00     0.200 A 
ATOM     94  F   UNL A   1      45.815  25.486  36.969  1.00  0.00    -0.200 F 
ATOM     95  F   UNL A   1      48.127  26.925  36.825  1.00  0.00    -0.200 F 
ENDBRANCH  62  85
ENDBRANCH  36  37
ENDBRANCH  29  31
ENDBRANCH  28  29
ENDBRANCH  27  28
ENDBRANCH   1  27
TORSDOF 15
ENDMDL
