MODEL 1
REMARK VINA RESULT:     -11.8      0.000      0.000
REMARK SMILES O=C(OCCOC(=O)c1ccc(S(=O)(=O)Cc2cnoc2)c(F)c1)c1ccc(-c2c3nc(c(-c4c(F)c(F)c(F)c(F)c4F)c4ccc([nH]4)c(-c4c(F)c(F)c(F)c(F)c4F)c4nc(c(-c5c(F)c(F)c(F)c(F)c5F)c5ccc2[nH]5)C=C4)C=C3)cc1
REMARK SMILES IDX 5 1 4 2 3 3 2 4 1 5 25 6 26 7 87 8 27 9 86 10 28 11 29 12
REMARK SMILES IDX 30 13 80 14 31 15 85 16 79 17 81 18 32 19 84 20 78 21 77 22
REMARK SMILES IDX 33 24 65 25 45 26 64 27 46 28 49 29 63 30 82 31 47 32 48 33
REMARK SMILES IDX 62 35 83 36 50 37 34 38 35 39 43 40 36 41 37 42 41 43 44 44
REMARK SMILES IDX 38 45 39 46 42 47 40 48 66 49 67 50 75 51 68 52 69 53 73 54
REMARK SMILES IDX 76 55 70 56 71 57 74 58 72 59 51 60 52 61 60 62 53 63 54 64
REMARK SMILES IDX 58 65 61 66 55 67 56 68 59 69 57 70 6 71 7 72 8 73 9 74
REMARK SMILES IDX 10 75 24 76 11 77 22 78 12 79 23 80 13 81 14 82 15 83 16 84
REMARK SMILES IDX 17 85 18 86 21 87 19 88 20 89
REMARK H PARENT 81 23 49 34
REMARK Flexibility Score: inf
ROOT
ATOM      1  C   UNL A   1      42.274  20.551  26.254  1.00  0.00     0.275 C 
ENDROOT
BRANCH   1   2
ATOM      2  C   UNL A   1      43.287  21.611  25.819  1.00  0.00     0.275 C 
BRANCH   2   3
ATOM      3  O   UNL A   1      42.696  22.808  25.282  1.00  0.00    -0.458 OA
BRANCH   3   4
ATOM      4  C   UNL A   1      43.187  24.069  25.263  1.00  0.00     0.338 C 
ATOM      5  O   UNL A   1      44.115  24.341  24.504  1.00  0.00    -0.246 OA
BRANCH   4   6
ATOM      6  C   UNL A   1      42.797  25.110  26.264  1.00  0.00     0.060 A 
ATOM      7  C   UNL A   1      43.326  26.397  26.352  1.00  0.00     0.016 A 
ATOM      8  C   UNL A   1      41.842  24.720  27.223  1.00  0.00     0.016 A 
ATOM      9  C   UNL A   1      42.876  27.287  27.331  1.00  0.00     0.010 A 
ATOM     10  C   UNL A   1      41.370  25.612  28.190  1.00  0.00     0.010 A 
ATOM     11  C   UNL A   1      41.903  26.899  28.257  1.00  0.00    -0.014 A 
BRANCH  11  12
ATOM     12  C   UNL A   1      41.589  27.805  29.382  1.00  0.00     0.031 A 
ATOM     13  C   UNL A   1      40.390  28.698  29.269  1.00  0.00     0.074 A 
ATOM     14  C   UNL A   1      42.302  27.750  30.520  1.00  0.00     0.049 A 
ATOM     15  N   UNL A   1      39.824  29.444  30.180  1.00  0.00    -0.248 NA
ATOM     16  C   UNL A   1      39.720  28.736  27.957  1.00  0.00     0.031 C 
ATOM     17  C   UNL A   1      43.464  26.892  30.743  1.00  0.00     0.029 A 
ATOM     18  N   UNL A   1      42.142  28.414  31.709  1.00  0.00    -0.354 N 
ATOM     19  C   UNL A   1      38.713  30.003  29.567  1.00  0.00     0.074 A 
ATOM     20  C   UNL A   1      38.718  29.568  28.188  1.00  0.00     0.031 C 
ATOM     21  C   UNL A   1      43.918  27.085  31.992  1.00  0.00     0.029 A 
ATOM     22  C   UNL A   1      43.074  28.076  32.657  1.00  0.00     0.049 A 
ATOM     23  H   UNL A   1      41.427  29.072  31.866  1.00  0.00     0.167 HD
ATOM     24  C   UNL A   1      37.755  30.782  30.116  1.00  0.00     0.037 A 
ATOM     25  C   UNL A   1      43.214  28.506  33.926  1.00  0.00     0.037 A 
ATOM     26  C   UNL A   1      37.781  31.245  31.476  1.00  0.00     0.049 A 
ATOM     27  C   UNL A   1      42.190  29.455  34.487  1.00  0.00     0.074 A 
ATOM     28  C   UNL A   1      36.884  32.071  32.125  1.00  0.00     0.029 A 
ATOM     29  N   UNL A   1      38.773  30.924  32.392  1.00  0.00    -0.354 N 
ATOM     30  N   UNL A   1      41.115  29.944  33.915  1.00  0.00    -0.248 NA
ATOM     31  C   UNL A   1      42.381  29.894  35.876  1.00  0.00     0.031 C 
ATOM     32  C   UNL A   1      37.354  32.282  33.427  1.00  0.00     0.029 A 
ATOM     33  C   UNL A   1      38.519  31.550  33.600  1.00  0.00     0.049 A 
ATOM     34  H   UNL A   1      39.543  30.338  32.210  1.00  0.00     0.167 HD
ATOM     35  C   UNL A   1      40.486  30.721  34.878  1.00  0.00     0.074 A 
ATOM     36  C   UNL A   1      41.298  30.635  36.076  1.00  0.00     0.031 C 
ATOM     37  C   UNL A   1      39.339  31.436  34.780  1.00  0.00     0.037 A 
BRANCH  24  38
ATOM     38  C   UNL A   1      36.613  31.175  29.231  1.00  0.00     0.064 A 
ATOM     39  C   UNL A   1      35.653  30.233  28.834  1.00  0.00     0.173 A 
ATOM     40  C   UNL A   1      36.459  32.499  28.790  1.00  0.00     0.173 A 
ATOM     41  F   UNL A   1      35.753  28.957  29.235  1.00  0.00    -0.203 F 
ATOM     42  C   UNL A   1      34.578  30.605  28.031  1.00  0.00     0.198 A 
ATOM     43  C   UNL A   1      35.371  32.871  28.007  1.00  0.00     0.198 A 
ATOM     44  F   UNL A   1      37.339  33.441  29.164  1.00  0.00    -0.203 F 
ATOM     45  F   UNL A   1      33.673  29.688  27.661  1.00  0.00    -0.200 F 
ATOM     46  C   UNL A   1      34.433  31.924  27.625  1.00  0.00     0.200 A 
ATOM     47  F   UNL A   1      35.216  34.151  27.641  1.00  0.00    -0.200 F 
ATOM     48  F   UNL A   1      33.382  32.284  26.877  1.00  0.00    -0.200 F 
ENDBRANCH  24  38
BRANCH  25  49
ATOM     49  C   UNL A   1      44.339  28.002  34.753  1.00  0.00     0.064 A 
ATOM     50  C   UNL A   1      44.175  26.901  35.607  1.00  0.00     0.173 A 
ATOM     51  C   UNL A   1      45.593  28.628  34.730  1.00  0.00     0.173 A 
ATOM     52  F   UNL A   1      42.994  26.270  35.668  1.00  0.00    -0.203 F 
ATOM     53  C   UNL A   1      45.217  26.455  36.418  1.00  0.00     0.198 A 
ATOM     54  C   UNL A   1      46.641  28.168  35.527  1.00  0.00     0.198 A 
ATOM     55  F   UNL A   1      45.804  29.674  33.919  1.00  0.00    -0.203 F 
ATOM     56  F   UNL A   1      45.026  25.420  37.246  1.00  0.00    -0.200 F 
ATOM     57  C   UNL A   1      46.451  27.089  36.375  1.00  0.00     0.200 A 
ATOM     58  F   UNL A   1      47.836  28.772  35.470  1.00  0.00    -0.200 F 
ATOM     59  F   UNL A   1      47.454  26.657  37.151  1.00  0.00    -0.200 F 
ENDBRANCH  25  49
BRANCH  37  60
ATOM     60  C   UNL A   1      38.871  32.162  36.004  1.00  0.00     0.064 A 
ATOM     61  C   UNL A   1      39.227  33.504  36.210  1.00  0.00     0.173 A 
ATOM     62  C   UNL A   1      38.149  31.507  37.011  1.00  0.00     0.173 A 
ATOM     63  F   UNL A   1      39.924  34.169  35.278  1.00  0.00    -0.203 F 
ATOM     64  C   UNL A   1      38.891  34.158  37.392  1.00  0.00     0.198 A 
ATOM     65  C   UNL A   1      37.794  32.173  38.181  1.00  0.00     0.198 A 
ATOM     66  F   UNL A   1      37.777  30.228  36.853  1.00  0.00    -0.203 F 
ATOM     67  F   UNL A   1      39.271  35.429  37.583  1.00  0.00    -0.200 F 
ATOM     68  C   UNL A   1      38.173  33.493  38.374  1.00  0.00     0.200 A 
ATOM     69  F   UNL A   1      37.083  31.536  39.122  1.00  0.00    -0.200 F 
ATOM     70  F   UNL A   1      37.846  34.126  39.509  1.00  0.00    -0.200 F 
ENDBRANCH  37  60
ENDBRANCH  11  12
ENDBRANCH   4   6
ENDBRANCH   3   4
ENDBRANCH   2   3
ENDBRANCH   1   2
BRANCH   1  71
ATOM     71  O   UNL A   1      40.938  20.836  25.815  1.00  0.00    -0.458 OA
BRANCH  71  72
ATOM     72  C   UNL A   1      40.148  21.407  26.759  1.00  0.00     0.338 C 
ATOM     73  O   UNL A   1      40.408  21.589  27.936  1.00  0.00    -0.246 OA
BRANCH  72  74
ATOM     74  C   UNL A   1      38.945  21.950  26.112  1.00  0.00     0.063 A 
ATOM     75  C   UNL A   1      38.573  23.289  26.248  1.00  0.00     0.017 A 
ATOM     76  C   UNL A   1      38.159  21.064  25.373  1.00  0.00     0.056 A 
ATOM     77  C   UNL A   1      37.404  23.741  25.627  1.00  0.00     0.024 A 
ATOM     78  C   UNL A   1      36.958  21.505  24.832  1.00  0.00     0.142 A 
ATOM     79  C   UNL A   1      36.591  22.837  24.924  1.00  0.00     0.103 A 
ATOM     80  F   UNL A   1      36.136  20.588  24.312  1.00  0.00    -0.206 F 
BRANCH  79  81
ATOM     81  S   UNL A   1      35.100  23.443  24.198  1.00  0.00     0.185 S 
ATOM     82  O   UNL A   1      34.866  24.728  24.832  1.00  0.00    -0.223 OA
ATOM     83  O   UNL A   1      35.300  23.363  22.760  1.00  0.00    -0.223 OA
BRANCH  81  84
ATOM     84  C   UNL A   1      33.726  22.384  24.606  1.00  0.00     0.183 C 
BRANCH  84  85
ATOM     85  C   UNL A   1      33.144  22.553  25.962  1.00  0.00     0.027 A 
ATOM     86  C   UNL A   1      33.717  22.277  27.222  1.00  0.00     0.162 A 
ATOM     87  C   UNL A   1      31.884  23.005  26.283  1.00  0.00     0.235 A 
ATOM     88  N   UNL A   1      32.889  22.571  28.227  1.00  0.00    -0.088 NA
ATOM     89  O   UNL A   1      31.730  23.031  27.628  1.00  0.00    -0.364 OA
ENDBRANCH  84  85
ENDBRANCH  81  84
ENDBRANCH  79  81
ENDBRANCH  72  74
ENDBRANCH  71  72
ENDBRANCH   1  71
TORSDOF 14
ENDMDL
MODEL 2
REMARK VINA RESULT:     -11.7      3.066      8.763
REMARK SMILES O=C(OCCOC(=O)c1ccc(S(=O)(=O)Cc2cnoc2)c(F)c1)c1ccc(-c2c3nc(c(-c4c(F)c(F)c(F)c(F)c4F)c4ccc([nH]4)c(-c4c(F)c(F)c(F)c(F)c4F)c4nc(c(-c5c(F)c(F)c(F)c(F)c5F)c5ccc2[nH]5)C=C4)C=C3)cc1
REMARK SMILES IDX 5 1 4 2 3 3 2 4 1 5 25 6 26 7 87 8 27 9 86 10 28 11 29 12
REMARK SMILES IDX 30 13 80 14 31 15 85 16 79 17 81 18 32 19 84 20 78 21 77 22
REMARK SMILES IDX 33 24 65 25 45 26 64 27 46 28 49 29 63 30 82 31 47 32 48 33
REMARK SMILES IDX 62 35 83 36 50 37 34 38 35 39 43 40 36 41 37 42 41 43 44 44
REMARK SMILES IDX 38 45 39 46 42 47 40 48 66 49 67 50 75 51 68 52 69 53 73 54
REMARK SMILES IDX 76 55 70 56 71 57 74 58 72 59 51 60 52 61 60 62 53 63 54 64
REMARK SMILES IDX 58 65 61 66 55 67 56 68 59 69 57 70 6 71 7 72 8 73 9 74
REMARK SMILES IDX 10 75 24 76 11 77 22 78 12 79 23 80 13 81 14 82 15 83 16 84
REMARK SMILES IDX 17 85 18 86 21 87 19 88 20 89
REMARK H PARENT 81 23 49 34
REMARK Flexibility Score: inf
ROOT
ATOM      1  C   UNL A   1      31.888  30.564  26.870  1.00  0.00     0.275 C 
ENDROOT
BRANCH   1   2
ATOM      2  C   UNL A   1      31.551  32.056  26.839  1.00  0.00     0.275 C 
BRANCH   2   3
ATOM      3  O   UNL A   1      32.701  32.921  26.852  1.00  0.00    -0.458 OA
BRANCH   3   4
ATOM      4  C   UNL A   1      33.419  33.371  27.908  1.00  0.00     0.338 C 
ATOM      5  O   UNL A   1      33.177  34.486  28.367  1.00  0.00    -0.246 OA
BRANCH   4   6
ATOM      6  C   UNL A   1      34.633  32.670  28.427  1.00  0.00     0.060 A 
ATOM      7  C   UNL A   1      34.656  31.410  29.025  1.00  0.00     0.016 A 
ATOM      8  C   UNL A   1      35.846  33.381  28.337  1.00  0.00     0.016 A 
ATOM      9  C   UNL A   1      35.859  30.853  29.468  1.00  0.00     0.010 A 
ATOM     10  C   UNL A   1      37.055  32.821  28.755  1.00  0.00     0.010 A 
ATOM     11  C   UNL A   1      37.061  31.555  29.342  1.00  0.00    -0.014 A 
BRANCH  11  12
ATOM     12  C   UNL A   1      38.276  31.010  29.984  1.00  0.00     0.031 A 
ATOM     13  C   UNL A   1      38.585  31.420  31.393  1.00  0.00     0.074 A 
ATOM     14  C   UNL A   1      39.025  30.089  29.354  1.00  0.00     0.049 A 
ATOM     15  N   UNL A   1      39.487  30.949  32.212  1.00  0.00    -0.248 NA
ATOM     16  C   UNL A   1      37.746  32.486  31.967  1.00  0.00     0.031 C 
ATOM     17  C   UNL A   1      38.789  29.600  27.998  1.00  0.00     0.029 A 
ATOM     18  N   UNL A   1      40.123  29.386  29.779  1.00  0.00    -0.354 N 
ATOM     19  C   UNL A   1      39.297  31.628  33.406  1.00  0.00     0.074 A 
ATOM     20  C   UNL A   1      38.241  32.592  33.190  1.00  0.00     0.031 C 
ATOM     21  C   UNL A   1      39.719  28.678  27.696  1.00  0.00     0.029 A 
ATOM     22  C   UNL A   1      40.610  28.509  28.842  1.00  0.00     0.049 A 
ATOM     23  H   UNL A   1      40.523  29.501  30.671  1.00  0.00     0.167 HD
ATOM     24  C   UNL A   1      39.925  31.440  34.588  1.00  0.00     0.037 A 
ATOM     25  C   UNL A   1      41.649  27.655  28.914  1.00  0.00     0.037 A 
ATOM     26  C   UNL A   1      41.002  30.510  34.784  1.00  0.00     0.049 A 
ATOM     27  C   UNL A   1      42.400  27.534  30.212  1.00  0.00     0.074 A 
ATOM     28  C   UNL A   1      41.738  30.267  35.928  1.00  0.00     0.029 A 
ATOM     29  N   UNL A   1      41.505  29.678  33.794  1.00  0.00    -0.354 N 
ATOM     30  N   UNL A   1      42.184  28.147  31.352  1.00  0.00    -0.248 NA
ATOM     31  C   UNL A   1      43.523  26.587  30.246  1.00  0.00     0.031 C 
ATOM     32  C   UNL A   1      42.713  29.312  35.620  1.00  0.00     0.029 A 
ATOM     33  C   UNL A   1      42.555  28.928  34.297  1.00  0.00     0.049 A 
ATOM     34  H   UNL A   1      41.166  29.627  32.871  1.00  0.00     0.167 HD
ATOM     35  C   UNL A   1      43.120  27.642  32.244  1.00  0.00     0.074 A 
ATOM     36  C   UNL A   1      43.903  26.664  31.514  1.00  0.00     0.031 C 
ATOM     37  C   UNL A   1      43.309  27.954  33.549  1.00  0.00     0.037 A 
BRANCH  24  38
ATOM     38  C   UNL A   1      39.451  32.265  35.744  1.00  0.00     0.064 A 
ATOM     39  C   UNL A   1      39.964  33.551  35.970  1.00  0.00     0.173 A 
ATOM     40  C   UNL A   1      38.467  31.785  36.623  1.00  0.00     0.173 A 
ATOM     41  F   UNL A   1      40.901  34.056  35.153  1.00  0.00    -0.203 F 
ATOM     42  C   UNL A   1      39.506  34.327  37.031  1.00  0.00     0.198 A 
ATOM     43  C   UNL A   1      37.995  32.573  37.669  1.00  0.00     0.198 A 
ATOM     44  F   UNL A   1      37.928  30.571  36.434  1.00  0.00    -0.203 F 
ATOM     45  F   UNL A   1      40.011  35.552  37.229  1.00  0.00    -0.200 F 
ATOM     46  C   UNL A   1      38.516  33.841  37.874  1.00  0.00     0.200 A 
ATOM     47  F   UNL A   1      37.018  32.114  38.464  1.00  0.00    -0.200 F 
ATOM     48  F   UNL A   1      38.057  34.602  38.876  1.00  0.00    -0.200 F 
ENDBRANCH  24  38
BRANCH  25  49
ATOM     49  C   UNL A   1      41.997  26.822  27.736  1.00  0.00     0.064 A 
ATOM     50  C   UNL A   1      41.352  25.599  27.496  1.00  0.00     0.173 A 
ATOM     51  C   UNL A   1      43.004  27.213  26.842  1.00  0.00     0.173 A 
ATOM     52  F   UNL A   1      40.384  25.178  28.324  1.00  0.00    -0.203 F 
ATOM     53  C   UNL A   1      41.710  24.794  26.416  1.00  0.00     0.198 A 
ATOM     54  C   UNL A   1      43.347  26.417  25.751  1.00  0.00     0.198 A 
ATOM     55  F   UNL A   1      43.639  28.380  27.021  1.00  0.00    -0.203 F 
ATOM     56  F   UNL A   1      41.098  23.618  26.226  1.00  0.00    -0.200 F 
ATOM     57  C   UNL A   1      42.706  25.205  25.543  1.00  0.00     0.200 A 
ATOM     58  F   UNL A   1      44.298  26.825  24.900  1.00  0.00    -0.200 F 
ATOM     59  F   UNL A   1      43.047  24.434  24.502  1.00  0.00    -0.200 F 
ENDBRANCH  25  49
BRANCH  37  60
ATOM     60  C   UNL A   1      44.384  27.216  34.288  1.00  0.00     0.064 A 
ATOM     61  C   UNL A   1      45.692  27.723  34.324  1.00  0.00     0.173 A 
ATOM     62  C   UNL A   1      44.141  25.969  34.879  1.00  0.00     0.173 A 
ATOM     63  F   UNL A   1      45.973  28.909  33.765  1.00  0.00    -0.203 F 
ATOM     64  C   UNL A   1      46.723  26.997  34.913  1.00  0.00     0.198 A 
ATOM     65  C   UNL A   1      45.171  25.257  35.489  1.00  0.00     0.198 A 
ATOM     66  F   UNL A   1      42.904  25.450  34.878  1.00  0.00    -0.203 F 
ATOM     67  F   UNL A   1      47.971  27.484  34.908  1.00  0.00    -0.200 F 
ATOM     68  C   UNL A   1      46.461  25.767  35.496  1.00  0.00     0.200 A 
ATOM     69  F   UNL A   1      44.914  24.077  36.069  1.00  0.00    -0.200 F 
ATOM     70  F   UNL A   1      47.453  25.071  36.068  1.00  0.00    -0.200 F 
ENDBRANCH  37  60
ENDBRANCH  11  12
ENDBRANCH   4   6
ENDBRANCH   3   4
ENDBRANCH   2   3
ENDBRANCH   1   2
BRANCH   1  71
ATOM     71  O   UNL A   1      32.443  30.087  25.635  1.00  0.00    -0.458 OA
BRANCH  71  72
ATOM     72  C   UNL A   1      31.649  29.212  24.966  1.00  0.00     0.338 C 
ATOM     73  O   UNL A   1      30.873  29.456  24.059  1.00  0.00    -0.246 OA
BRANCH  72  74
ATOM     74  C   UNL A   1      31.982  27.844  25.389  1.00  0.00     0.063 A 
ATOM     75  C   UNL A   1      33.300  27.385  25.437  1.00  0.00     0.017 A 
ATOM     76  C   UNL A   1      30.920  26.997  25.715  1.00  0.00     0.056 A 
ATOM     77  C   UNL A   1      33.552  26.066  25.826  1.00  0.00     0.024 A 
ATOM     78  C   UNL A   1      31.177  25.666  26.017  1.00  0.00     0.142 A 
ATOM     79  C   UNL A   1      32.480  25.204  26.108  1.00  0.00     0.103 A 
ATOM     80  F   UNL A   1      30.133  24.839  26.121  1.00  0.00    -0.206 F 
BRANCH  79  81
ATOM     81  S   UNL A   1      32.844  23.532  26.546  1.00  0.00     0.185 S 
ATOM     82  O   UNL A   1      34.265  23.520  26.841  1.00  0.00    -0.223 OA
ATOM     83  O   UNL A   1      31.881  23.176  27.575  1.00  0.00    -0.223 OA
BRANCH  81  84
ATOM     84  C   UNL A   1      32.572  22.444  25.162  1.00  0.00     0.183 C 
BRANCH  84  85
ATOM     85  C   UNL A   1      33.220  22.831  23.883  1.00  0.00     0.027 A 
ATOM     86  C   UNL A   1      32.631  23.132  22.635  1.00  0.00     0.162 A 
ATOM     87  C   UNL A   1      34.568  22.961  23.631  1.00  0.00     0.235 A 
ATOM     88  N   UNL A   1      33.541  23.454  21.713  1.00  0.00    -0.088 NA
ATOM     89  O   UNL A   1      34.765  23.344  22.348  1.00  0.00    -0.364 OA
ENDBRANCH  84  85
ENDBRANCH  81  84
ENDBRANCH  79  81
ENDBRANCH  72  74
ENDBRANCH  71  72
ENDBRANCH   1  71
TORSDOF 14
ENDMDL
MODEL 3
REMARK VINA RESULT:     -11.6      3.405      8.966
REMARK SMILES O=C(OCCOC(=O)c1ccc(S(=O)(=O)Cc2cnoc2)c(F)c1)c1ccc(-c2c3nc(c(-c4c(F)c(F)c(F)c(F)c4F)c4ccc([nH]4)c(-c4c(F)c(F)c(F)c(F)c4F)c4nc(c(-c5c(F)c(F)c(F)c(F)c5F)c5ccc2[nH]5)C=C4)C=C3)cc1
REMARK SMILES IDX 5 1 4 2 3 3 2 4 1 5 25 6 26 7 87 8 27 9 86 10 28 11 29 12
REMARK SMILES IDX 30 13 80 14 31 15 85 16 79 17 81 18 32 19 84 20 78 21 77 22
REMARK SMILES IDX 33 24 65 25 45 26 64 27 46 28 49 29 63 30 82 31 47 32 48 33
REMARK SMILES IDX 62 35 83 36 50 37 34 38 35 39 43 40 36 41 37 42 41 43 44 44
REMARK SMILES IDX 38 45 39 46 42 47 40 48 66 49 67 50 75 51 68 52 69 53 73 54
REMARK SMILES IDX 76 55 70 56 71 57 74 58 72 59 51 60 52 61 60 62 53 63 54 64
REMARK SMILES IDX 58 65 61 66 55 67 56 68 59 69 57 70 6 71 7 72 8 73 9 74
REMARK SMILES IDX 10 75 24 76 11 77 22 78 12 79 23 80 13 81 14 82 15 83 16 84
REMARK SMILES IDX 17 85 18 86 21 87 19 88 20 89
REMARK H PARENT 81 23 49 34
REMARK Flexibility Score: inf
ROOT
ATOM      1  C   UNL A   1      31.767  31.055  26.177  1.00  0.00     0.275 C 
ENDROOT
BRANCH   1   2
ATOM      2  C   UNL A   1      31.496  32.388  26.877  1.00  0.00     0.275 C 
BRANCH   2   3
ATOM      3  O   UNL A   1      32.639  33.259  26.951  1.00  0.00    -0.458 OA
BRANCH   3   4
ATOM      4  C   UNL A   1      33.175  33.873  28.031  1.00  0.00     0.338 C 
ATOM      5  O   UNL A   1      32.704  34.944  28.409  1.00  0.00    -0.246 OA
BRANCH   4   6
ATOM      6  C   UNL A   1      34.446  33.422  28.677  1.00  0.00     0.060 A 
ATOM      7  C   UNL A   1      35.714  33.954  28.446  1.00  0.00     0.016 A 
ATOM      8  C   UNL A   1      34.337  32.331  29.563  1.00  0.00     0.016 A 
ATOM      9  C   UNL A   1      36.832  33.450  29.118  1.00  0.00     0.010 A 
ATOM     10  C   UNL A   1      35.446  31.839  30.256  1.00  0.00     0.010 A 
ATOM     11  C   UNL A   1      36.706  32.390  30.019  1.00  0.00    -0.014 A 
BRANCH  11  12
ATOM     12  C   UNL A   1      37.931  31.772  30.568  1.00  0.00     0.031 A 
ATOM     13  C   UNL A   1      38.359  32.141  31.957  1.00  0.00     0.074 A 
ATOM     14  C   UNL A   1      38.585  30.824  29.875  1.00  0.00     0.049 A 
ATOM     15  N   UNL A   1      39.289  31.610  32.705  1.00  0.00    -0.248 NA
ATOM     16  C   UNL A   1      37.619  33.239  32.602  1.00  0.00     0.031 C 
ATOM     17  C   UNL A   1      38.231  30.370  28.532  1.00  0.00     0.029 A 
ATOM     18  N   UNL A   1      39.671  30.057  30.213  1.00  0.00    -0.354 N 
ATOM     19  C   UNL A   1      39.218  32.278  33.918  1.00  0.00     0.074 A 
ATOM     20  C   UNL A   1      38.202  33.299  33.789  1.00  0.00     0.031 C 
ATOM     21  C   UNL A   1      39.087  29.406  28.155  1.00  0.00     0.029 A 
ATOM     22  C   UNL A   1      40.046  29.172  29.233  1.00  0.00     0.049 A 
ATOM     23  H   UNL A   1      40.138  30.136  31.076  1.00  0.00     0.167 HD
ATOM     24  C   UNL A   1      39.915  32.038  35.051  1.00  0.00     0.037 A 
ATOM     25  C   UNL A   1      41.040  28.264  29.221  1.00  0.00     0.037 A 
ATOM     26  C   UNL A   1      40.953  31.050  35.158  1.00  0.00     0.049 A 
ATOM     27  C   UNL A   1      41.872  28.083  30.461  1.00  0.00     0.074 A 
ATOM     28  C   UNL A   1      41.752  30.750  36.245  1.00  0.00     0.029 A 
ATOM     29  N   UNL A   1      41.342  30.209  34.125  1.00  0.00    -0.354 N 
ATOM     30  N   UNL A   1      41.768  28.687  31.622  1.00  0.00    -0.248 NA
ATOM     31  C   UNL A   1      42.942  27.078  30.404  1.00  0.00     0.031 C 
ATOM     32  C   UNL A   1      42.652  29.751  35.857  1.00  0.00     0.029 A 
ATOM     33  C   UNL A   1      42.382  29.398  34.543  1.00  0.00     0.049 A 
ATOM     34  H   UNL A   1      40.937  30.192  33.227  1.00  0.00     0.167 HD
ATOM     35  C   UNL A   1      42.735  28.118  32.439  1.00  0.00     0.074 A 
ATOM     36  C   UNL A   1      43.413  27.114  31.643  1.00  0.00     0.031 C 
ATOM     37  C   UNL A   1      43.030  28.398  33.732  1.00  0.00     0.037 A 
BRANCH  24  38
ATOM     38  C   UNL A   1      39.568  32.867  36.248  1.00  0.00     0.064 A 
ATOM     39  C   UNL A   1      40.230  34.076  36.504  1.00  0.00     0.173 A 
ATOM     40  C   UNL A   1      38.556  32.469  37.137  1.00  0.00     0.173 A 
ATOM     41  F   UNL A   1      41.199  34.502  35.680  1.00  0.00    -0.203 F 
ATOM     42  C   UNL A   1      39.889  34.859  37.604  1.00  0.00     0.198 A 
ATOM     43  C   UNL A   1      38.202  33.265  38.222  1.00  0.00     0.198 A 
ATOM     44  F   UNL A   1      37.877  31.332  36.921  1.00  0.00    -0.203 F 
ATOM     45  F   UNL A   1      40.536  36.010  37.830  1.00  0.00    -0.200 F 
ATOM     46  C   UNL A   1      38.871  34.457  38.457  1.00  0.00     0.200 A 
ATOM     47  F   UNL A   1      37.198  32.891  39.027  1.00  0.00    -0.200 F 
ATOM     48  F   UNL A   1      38.525  35.226  39.497  1.00  0.00    -0.200 F 
ENDBRANCH  24  38
BRANCH  25  49
ATOM     49  C   UNL A   1      41.261  27.434  28.010  1.00  0.00     0.064 A 
ATOM     50  C   UNL A   1      40.628  26.191  27.858  1.00  0.00     0.173 A 
ATOM     51  C   UNL A   1      42.134  27.849  26.995  1.00  0.00     0.173 A 
ATOM     52  F   UNL A   1      39.786  25.747  28.802  1.00  0.00    -0.203 F 
ATOM     53  C   UNL A   1      40.870  25.390  26.743  1.00  0.00     0.198 A 
ATOM     54  C   UNL A   1      42.361  27.055  25.872  1.00  0.00     0.198 A 
ATOM     55  F   UNL A   1      42.752  29.035  27.088  1.00  0.00    -0.203 F 
ATOM     56  F   UNL A   1      40.275  24.195  26.636  1.00  0.00    -0.200 F 
ATOM     57  C   UNL A   1      41.735  25.824  25.750  1.00  0.00     0.200 A 
ATOM     58  F   UNL A   1      43.183  27.486  24.906  1.00  0.00    -0.200 F 
ATOM     59  F   UNL A   1      41.965  25.056  24.676  1.00  0.00    -0.200 F 
ENDBRANCH  25  49
BRANCH  37  60
ATOM     60  C   UNL A   1      44.113  27.594  34.384  1.00  0.00     0.064 A 
ATOM     61  C   UNL A   1      43.802  26.392  35.040  1.00  0.00     0.173 A 
ATOM     62  C   UNL A   1      45.435  28.054  34.437  1.00  0.00     0.173 A 
ATOM     63  F   UNL A   1      42.549  25.917  35.023  1.00  0.00    -0.203 F 
ATOM     64  C   UNL A   1      44.778  25.689  35.741  1.00  0.00     0.198 A 
ATOM     65  C   UNL A   1      46.413  27.335  35.119  1.00  0.00     0.198 A 
ATOM     66  F   UNL A   1      45.780  29.191  33.816  1.00  0.00    -0.203 F 
ATOM     67  F   UNL A   1      44.453  24.562  36.389  1.00  0.00    -0.200 F 
ATOM     68  C   UNL A   1      46.081  26.160  35.778  1.00  0.00     0.200 A 
ATOM     69  F   UNL A   1      47.677  27.779  35.139  1.00  0.00    -0.200 F 
ATOM     70  F   UNL A   1      47.021  25.480  36.450  1.00  0.00    -0.200 F 
ENDBRANCH  37  60
ENDBRANCH  11  12
ENDBRANCH   4   6
ENDBRANCH   3   4
ENDBRANCH   2   3
ENDBRANCH   1   2
BRANCH   1  71
ATOM     71  O   UNL A   1      31.993  29.974  27.094  1.00  0.00    -0.458 OA
BRANCH  71  72
ATOM     72  C   UNL A   1      33.163  29.313  26.904  1.00  0.00     0.338 C 
ATOM     73  O   UNL A   1      34.291  29.726  27.107  1.00  0.00    -0.246 OA
BRANCH  72  74
ATOM     74  C   UNL A   1      32.872  27.914  26.558  1.00  0.00     0.063 A 
ATOM     75  C   UNL A   1      33.870  27.037  26.127  1.00  0.00     0.017 A 
ATOM     76  C   UNL A   1      31.543  27.495  26.644  1.00  0.00     0.056 A 
ATOM     77  C   UNL A   1      33.527  25.724  25.789  1.00  0.00     0.024 A 
ATOM     78  C   UNL A   1      31.203  26.215  26.225  1.00  0.00     0.142 A 
ATOM     79  C   UNL A   1      32.183  25.319  25.832  1.00  0.00     0.103 A 
ATOM     80  F   UNL A   1      29.903  25.918  26.126  1.00  0.00    -0.206 F 
BRANCH  79  81
ATOM     81  S   UNL A   1      31.792  23.666  25.350  1.00  0.00     0.185 S 
ATOM     82  O   UNL A   1      33.060  22.960  25.357  1.00  0.00    -0.223 OA
ATOM     83  O   UNL A   1      30.714  23.243  26.229  1.00  0.00    -0.223 OA
BRANCH  81  84
ATOM     84  C   UNL A   1      31.164  23.628  23.682  1.00  0.00     0.183 C 
BRANCH  84  85
ATOM     85  C   UNL A   1      31.814  24.547  22.713  1.00  0.00     0.027 A 
ATOM     86  C   UNL A   1      33.023  24.389  22.001  1.00  0.00     0.162 A 
ATOM     87  C   UNL A   1      31.375  25.789  22.311  1.00  0.00     0.235 A 
ATOM     88  N   UNL A   1      33.279  25.430  21.206  1.00  0.00    -0.088 NA
ATOM     89  O   UNL A   1      32.233  26.313  21.405  1.00  0.00    -0.364 OA
ENDBRANCH  84  85
ENDBRANCH  81  84
ENDBRANCH  79  81
ENDBRANCH  72  74
ENDBRANCH  71  72
ENDBRANCH   1  71
TORSDOF 14
ENDMDL
