MODEL 1
REMARK VINA RESULT:     -13.1      0.000      0.000
REMARK SMILES O=C(OCCOC(=O)c1cccc(S(=O)(=O)Nc2ccccc2N2CCOCC2)c1)c1ccc(-c2c3nc(c(-c4c(F)c(F)c(F)c(F)c4F)c4ccc([nH]4)c(-c4c(F)c(F)c(F)c(F)c4F)c4nc(c(-c5c(F)c(F)c(F)c(F)c5F)c5ccc2[nH]5)C=C4)C=C3)cc1
REMARK SMILES IDX 5 1 4 2 3 3 2 4 1 5 31 6 32 7 93 8 33 9 92 10 34 11 35 12
REMARK SMILES IDX 36 13 86 14 37 15 91 16 85 17 87 18 38 19 90 20 84 21 83 22
REMARK SMILES IDX 39 24 71 25 51 26 70 27 52 28 55 29 69 30 88 31 53 32 54 33
REMARK SMILES IDX 68 35 89 36 56 37 40 38 41 39 49 40 42 41 43 42 47 43 50 44
REMARK SMILES IDX 44 45 45 46 48 47 46 48 72 49 73 50 81 51 74 52 75 53 79 54
REMARK SMILES IDX 82 55 76 56 77 57 80 58 78 59 57 60 58 61 66 62 59 63 60 64
REMARK SMILES IDX 64 65 67 66 61 67 62 68 65 69 63 70 6 71 7 72 8 73 9 74
REMARK SMILES IDX 10 75 30 76 11 77 13 78 12 79 14 80 15 81 16 82 17 83 18 85
REMARK SMILES IDX 19 86 23 87 20 88 22 89 21 90 24 91 25 92 29 93 26 94 28 95
REMARK SMILES IDX 27 96
REMARK H PARENT 87 23 55 34 17 84
REMARK Flexibility Score: inf
ROOT
ATOM      1  C   UNL A   1      31.426  32.004  26.658  1.00  0.00     0.275 C 
ENDROOT
BRANCH   1   2
ATOM      2  C   UNL A   1      32.542  32.991  26.996  1.00  0.00     0.275 C 
BRANCH   2   3
ATOM      3  O   UNL A   1      32.154  34.097  27.836  1.00  0.00    -0.458 OA
BRANCH   3   4
ATOM      4  C   UNL A   1      32.907  34.818  28.701  1.00  0.00     0.338 C 
ATOM      5  O   UNL A   1      32.625  35.990  28.939  1.00  0.00    -0.246 OA
BRANCH   4   6
ATOM      6  C   UNL A   1      34.170  34.285  29.277  1.00  0.00     0.060 A 
ATOM      7  C   UNL A   1      35.420  34.371  28.660  1.00  0.00     0.016 A 
ATOM      8  C   UNL A   1      34.064  33.592  30.492  1.00  0.00     0.016 A 
ATOM      9  C   UNL A   1      36.558  33.847  29.286  1.00  0.00     0.010 A 
ATOM     10  C   UNL A   1      35.199  33.079  31.127  1.00  0.00     0.010 A 
ATOM     11  C   UNL A   1      36.456  33.191  30.518  1.00  0.00    -0.014 A 
BRANCH  11  12
ATOM     12  C   UNL A   1      37.612  32.441  31.065  1.00  0.00     0.031 A 
ATOM     13  C   UNL A   1      38.290  32.969  32.294  1.00  0.00     0.074 A 
ATOM     14  C   UNL A   1      38.041  31.281  30.538  1.00  0.00     0.049 A 
ATOM     15  N   UNL A   1      39.245  32.418  32.999  1.00  0.00    -0.248 NA
ATOM     16  C   UNL A   1      37.795  34.245  32.833  1.00  0.00     0.031 C 
ATOM     17  C   UNL A   1      37.437  30.579  29.413  1.00  0.00     0.029 A 
ATOM     18  N   UNL A   1      39.130  30.506  30.870  1.00  0.00    -0.354 N 
ATOM     19  C   UNL A   1      39.364  33.207  34.128  1.00  0.00     0.074 A 
ATOM     20  C   UNL A   1      38.508  34.358  33.943  1.00  0.00     0.031 C 
ATOM     21  C   UNL A   1      38.228  29.542  29.084  1.00  0.00     0.029 A 
ATOM     22  C   UNL A   1      39.394  29.525  29.950  1.00  0.00     0.049 A 
ATOM     23  H   UNL A   1      39.664  30.643  31.687  1.00  0.00     0.167 HD
ATOM     24  C   UNL A   1      40.046  32.937  35.265  1.00  0.00     0.037 A 
ATOM     25  C   UNL A   1      40.462  28.722  29.793  1.00  0.00     0.037 A 
ATOM     26  C   UNL A   1      40.955  31.838  35.426  1.00  0.00     0.049 A 
ATOM     27  C   UNL A   1      41.459  28.642  30.902  1.00  0.00     0.074 A 
ATOM     28  C   UNL A   1      41.691  31.474  36.538  1.00  0.00     0.029 A 
ATOM     29  N   UNL A   1      41.284  30.943  34.417  1.00  0.00    -0.354 N 
ATOM     30  N   UNL A   1      41.488  29.313  32.024  1.00  0.00    -0.248 NA
ATOM     31  C   UNL A   1      42.503  27.617  30.778  1.00  0.00     0.031 C 
ATOM     32  C   UNL A   1      42.497  30.381  36.188  1.00  0.00     0.029 A 
ATOM     33  C   UNL A   1      42.239  30.046  34.869  1.00  0.00     0.049 A 
ATOM     34  H   UNL A   1      40.896  30.945  33.512  1.00  0.00     0.167 HD
ATOM     35  C   UNL A   1      42.484  28.728  32.786  1.00  0.00     0.074 A 
ATOM     36  C   UNL A   1      43.076  27.685  31.972  1.00  0.00     0.031 C 
ATOM     37  C   UNL A   1      42.822  29.001  34.069  1.00  0.00     0.037 A 
BRANCH  24  38
ATOM     38  C   UNL A   1      39.749  33.832  36.425  1.00  0.00     0.064 A 
ATOM     39  C   UNL A   1      40.425  35.057  36.561  1.00  0.00     0.173 A 
ATOM     40  C   UNL A   1      38.845  33.459  37.424  1.00  0.00     0.173 A 
ATOM     41  F   UNL A   1      41.320  35.443  35.638  1.00  0.00    -0.203 F 
ATOM     42  C   UNL A   1      40.226  35.863  37.677  1.00  0.00     0.198 A 
ATOM     43  C   UNL A   1      38.636  34.278  38.531  1.00  0.00     0.198 A 
ATOM     44  F   UNL A   1      38.189  32.293  37.341  1.00  0.00    -0.203 F 
ATOM     45  F   UNL A   1      40.923  37.000  37.814  1.00  0.00    -0.200 F 
ATOM     46  C   UNL A   1      39.333  35.472  38.661  1.00  0.00     0.200 A 
ATOM     47  F   UNL A   1      37.776  33.900  39.487  1.00  0.00    -0.200 F 
ATOM     48  F   UNL A   1      39.153  36.239  39.746  1.00  0.00    -0.200 F 
ENDBRANCH  24  38
BRANCH  25  49
ATOM     49  C   UNL A   1      40.629  27.906  28.564  1.00  0.00     0.064 A 
ATOM     50  C   UNL A   1      41.330  28.384  27.452  1.00  0.00     0.173 A 
ATOM     51  C   UNL A   1      40.049  26.630  28.473  1.00  0.00     0.173 A 
ATOM     52  F   UNL A   1      41.875  29.608  27.482  1.00  0.00    -0.203 F 
ATOM     53  C   UNL A   1      41.447  27.618  26.293  1.00  0.00     0.198 A 
ATOM     54  C   UNL A   1      40.184  25.857  27.322  1.00  0.00     0.198 A 
ATOM     55  F   UNL A   1      39.325  26.149  29.492  1.00  0.00    -0.203 F 
ATOM     56  F   UNL A   1      42.099  28.109  25.231  1.00  0.00    -0.200 F 
ATOM     57  C   UNL A   1      40.879  26.352  26.231  1.00  0.00     0.200 A 
ATOM     58  F   UNL A   1      39.631  24.637  27.264  1.00  0.00    -0.200 F 
ATOM     59  F   UNL A   1      40.996  25.618  25.117  1.00  0.00    -0.200 F 
ENDBRANCH  25  49
BRANCH  37  60
ATOM     60  C   UNL A   1      43.818  28.086  34.707  1.00  0.00     0.064 A 
ATOM     61  C   UNL A   1      45.189  28.373  34.722  1.00  0.00     0.173 A 
ATOM     62  C   UNL A   1      43.386  26.890  35.301  1.00  0.00     0.173 A 
ATOM     63  F   UNL A   1      45.651  29.490  34.138  1.00  0.00    -0.203 F 
ATOM     64  C   UNL A   1      46.097  27.481  35.287  1.00  0.00     0.198 A 
ATOM     65  C   UNL A   1      44.292  26.014  35.888  1.00  0.00     0.198 A 
ATOM     66  F   UNL A   1      42.083  26.568  35.303  1.00  0.00    -0.203 F 
ATOM     67  F   UNL A   1      47.410  27.746  35.239  1.00  0.00    -0.200 F 
ATOM     68  C   UNL A   1      45.647  26.307  35.874  1.00  0.00     0.200 A 
ATOM     69  F   UNL A   1      43.856  24.883  36.457  1.00  0.00    -0.200 F 
ATOM     70  F   UNL A   1      46.523  25.448  36.413  1.00  0.00    -0.200 F 
ENDBRANCH  37  60
ENDBRANCH  11  12
ENDBRANCH   4   6
ENDBRANCH   3   4
ENDBRANCH   2   3
ENDBRANCH   1   2
BRANCH   1  71
ATOM     71  O   UNL A   1      31.794  30.638  26.893  1.00  0.00    -0.458 OA
BRANCH  71  72
ATOM     72  C   UNL A   1      31.580  29.818  25.838  1.00  0.00     0.338 C 
ATOM     73  O   UNL A   1      31.023  30.123  24.787  1.00  0.00    -0.246 OA
BRANCH  72  74
ATOM     74  C   UNL A   1      32.109  28.458  26.078  1.00  0.00     0.061 A 
ATOM     75  C   UNL A   1      33.456  28.227  25.767  1.00  0.00     0.016 A 
ATOM     76  C   UNL A   1      31.278  27.401  26.475  1.00  0.00     0.038 A 
ATOM     77  C   UNL A   1      33.975  26.941  25.840  1.00  0.00     0.002 A 
ATOM     78  C   UNL A   1      31.755  26.098  26.375  1.00  0.00     0.088 A 
ATOM     79  C   UNL A   1      33.119  25.877  26.111  1.00  0.00     0.022 A 
BRANCH  78  80
ATOM     80  S   UNL A   1      30.742  24.638  26.403  1.00  0.00     0.261 S 
ATOM     81  O   UNL A   1      31.353  23.714  27.337  1.00  0.00    -0.201 OA
ATOM     82  O   UNL A   1      29.407  25.119  26.687  1.00  0.00    -0.201 OA
BRANCH  80  83
ATOM     83  N   UNL A   1      30.578  23.804  24.941  1.00  0.00    -0.278 N 
ATOM     84  H   UNL A   1      29.920  23.071  24.909  1.00  0.00     0.180 HD
BRANCH  83  85
ATOM     85  C   UNL A   1      31.317  24.074  23.743  1.00  0.00     0.072 A 
ATOM     86  C   UNL A   1      30.924  25.206  23.010  1.00  0.00     0.029 A 
ATOM     87  C   UNL A   1      32.399  23.283  23.297  1.00  0.00     0.061 A 
ATOM     88  C   UNL A   1      31.689  25.678  21.950  1.00  0.00     0.002 A 
ATOM     89  C   UNL A   1      33.166  23.792  22.232  1.00  0.00     0.028 A 
ATOM     90  C   UNL A   1      32.831  24.986  21.582  1.00  0.00     0.002 A 
BRANCH  87  91
ATOM     91  N   UNL A   1      32.707  22.074  23.913  1.00  0.00    -0.365 N 
ATOM     92  C   UNL A   1      32.408  20.862  23.116  1.00  0.00     0.145 C 
ATOM     93  C   UNL A   1      33.906  21.922  24.751  1.00  0.00     0.145 C 
ATOM     94  C   UNL A   1      32.415  19.605  24.004  1.00  0.00     0.181 C 
ATOM     95  C   UNL A   1      33.727  20.683  25.636  1.00  0.00     0.181 C 
ATOM     96  O   UNL A   1      33.598  19.509  24.817  1.00  0.00    -0.378 OA
ENDBRANCH  87  91
ENDBRANCH  83  85
ENDBRANCH  80  83
ENDBRANCH  78  80
ENDBRANCH  72  74
ENDBRANCH  71  72
ENDBRANCH   1  71
TORSDOF 15
ENDMDL
MODEL 2
REMARK VINA RESULT:     -13.0      5.187     10.853
REMARK SMILES O=C(OCCOC(=O)c1cccc(S(=O)(=O)Nc2ccccc2N2CCOCC2)c1)c1ccc(-c2c3nc(c(-c4c(F)c(F)c(F)c(F)c4F)c4ccc([nH]4)c(-c4c(F)c(F)c(F)c(F)c4F)c4nc(c(-c5c(F)c(F)c(F)c(F)c5F)c5ccc2[nH]5)C=C4)C=C3)cc1
REMARK SMILES IDX 5 1 4 2 3 3 2 4 1 5 31 6 32 7 93 8 33 9 92 10 34 11 35 12
REMARK SMILES IDX 36 13 86 14 37 15 91 16 85 17 87 18 38 19 90 20 84 21 83 22
REMARK SMILES IDX 39 24 71 25 51 26 70 27 52 28 55 29 69 30 88 31 53 32 54 33
REMARK SMILES IDX 68 35 89 36 56 37 40 38 41 39 49 40 42 41 43 42 47 43 50 44
REMARK SMILES IDX 44 45 45 46 48 47 46 48 72 49 73 50 81 51 74 52 75 53 79 54
REMARK SMILES IDX 82 55 76 56 77 57 80 58 78 59 57 60 58 61 66 62 59 63 60 64
REMARK SMILES IDX 64 65 67 66 61 67 62 68 65 69 63 70 6 71 7 72 8 73 9 74
REMARK SMILES IDX 10 75 30 76 11 77 13 78 12 79 14 80 15 81 16 82 17 83 18 85
REMARK SMILES IDX 19 86 23 87 20 88 22 89 21 90 24 91 25 92 29 93 26 94 28 95
REMARK SMILES IDX 27 96
REMARK H PARENT 87 23 55 34 17 84
REMARK Flexibility Score: inf
ROOT
ATOM      1  C   UNL A   1      38.113  19.808  24.997  1.00  0.00     0.275 C 
ENDROOT
BRANCH   1   2
ATOM      2  C   UNL A   1      39.287  20.061  25.940  1.00  0.00     0.275 C 
BRANCH   2   3
ATOM      3  O   UNL A   1      40.430  19.203  25.747  1.00  0.00    -0.458 OA
BRANCH   3   4
ATOM      4  C   UNL A   1      41.741  19.465  25.965  1.00  0.00     0.338 C 
ATOM      5  O   UNL A   1      42.568  18.558  25.923  1.00  0.00    -0.246 OA
BRANCH   4   6
ATOM      6  C   UNL A   1      42.212  20.807  26.401  1.00  0.00     0.060 A 
ATOM      7  C   UNL A   1      42.269  21.233  27.730  1.00  0.00     0.016 A 
ATOM      8  C   UNL A   1      42.554  21.714  25.386  1.00  0.00     0.016 A 
ATOM      9  C   UNL A   1      42.739  22.514  28.045  1.00  0.00     0.010 A 
ATOM     10  C   UNL A   1      43.036  22.989  25.696  1.00  0.00     0.010 A 
ATOM     11  C   UNL A   1      43.118  23.403  27.033  1.00  0.00    -0.014 A 
BRANCH  11  12
ATOM     12  C   UNL A   1      43.393  24.825  27.350  1.00  0.00     0.031 A 
ATOM     13  C   UNL A   1      44.815  25.300  27.331  1.00  0.00     0.074 A 
ATOM     14  C   UNL A   1      42.417  25.716  27.599  1.00  0.00     0.049 A 
ATOM     15  N   UNL A   1      45.271  26.518  27.470  1.00  0.00    -0.248 NA
ATOM     16  C   UNL A   1      45.852  24.291  27.063  1.00  0.00     0.031 C 
ATOM     17  C   UNL A   1      40.986  25.448  27.558  1.00  0.00     0.029 A 
ATOM     18  N   UNL A   1      42.501  27.037  27.980  1.00  0.00    -0.354 N 
ATOM     19  C   UNL A   1      46.618  26.439  27.171  1.00  0.00     0.074 A 
ATOM     20  C   UNL A   1      46.942  25.040  27.004  1.00  0.00     0.031 C 
ATOM     21  C   UNL A   1      40.337  26.538  28.007  1.00  0.00     0.029 A 
ATOM     22  C   UNL A   1      41.299  27.556  28.386  1.00  0.00     0.049 A 
ATOM     23  H   UNL A   1      43.338  27.555  27.961  1.00  0.00     0.167 HD
ATOM     24  C   UNL A   1      47.483  27.456  26.950  1.00  0.00     0.037 A 
ATOM     25  C   UNL A   1      41.000  28.704  29.022  1.00  0.00     0.037 A 
ATOM     26  C   UNL A   1      47.189  28.840  27.188  1.00  0.00     0.049 A 
ATOM     27  C   UNL A   1      42.053  29.759  29.115  1.00  0.00     0.074 A 
ATOM     28  C   UNL A   1      47.993  29.948  26.991  1.00  0.00     0.029 A 
ATOM     29  N   UNL A   1      45.994  29.303  27.722  1.00  0.00    -0.354 N 
ATOM     30  N   UNL A   1      43.296  29.709  28.714  1.00  0.00    -0.248 NA
ATOM     31  C   UNL A   1      41.635  31.065  29.642  1.00  0.00     0.031 C 
ATOM     32  C   UNL A   1      47.299  31.077  27.445  1.00  0.00     0.029 A 
ATOM     33  C   UNL A   1      46.051  30.678  27.894  1.00  0.00     0.049 A 
ATOM     34  H   UNL A   1      45.220  28.739  27.946  1.00  0.00     0.167 HD
ATOM     35  C   UNL A   1      43.784  30.998  28.841  1.00  0.00     0.074 A 
ATOM     36  C   UNL A   1      42.718  31.795  29.415  1.00  0.00     0.031 C 
ATOM     37  C   UNL A   1      44.990  31.476  28.453  1.00  0.00     0.037 A 
BRANCH  24  38
ATOM     38  C   UNL A   1      48.797  27.067  26.354  1.00  0.00     0.064 A 
ATOM     39  C   UNL A   1      48.986  27.129  24.962  1.00  0.00     0.173 A 
ATOM     40  C   UNL A   1      49.845  26.584  27.144  1.00  0.00     0.173 A 
ATOM     41  F   UNL A   1      47.998  27.563  24.164  1.00  0.00    -0.203 F 
ATOM     42  C   UNL A   1      50.171  26.690  24.381  1.00  0.00     0.198 A 
ATOM     43  C   UNL A   1      51.037  26.162  26.559  1.00  0.00     0.198 A 
ATOM     44  F   UNL A   1      49.703  26.496  28.474  1.00  0.00    -0.203 F 
ATOM     45  F   UNL A   1      50.308  26.706  23.048  1.00  0.00    -0.200 F 
ATOM     46  C   UNL A   1      51.194  26.207  25.180  1.00  0.00     0.200 A 
ATOM     47  F   UNL A   1      52.027  25.689  27.329  1.00  0.00    -0.200 F 
ATOM     48  F   UNL A   1      52.330  25.766  24.621  1.00  0.00    -0.200 F 
ENDBRANCH  24  38
BRANCH  25  49
ATOM     49  C   UNL A   1      39.645  28.934  29.585  1.00  0.00     0.064 A 
ATOM     50  C   UNL A   1      39.338  28.625  30.914  1.00  0.00     0.173 A 
ATOM     51  C   UNL A   1      38.616  29.441  28.777  1.00  0.00     0.173 A 
ATOM     52  F   UNL A   1      40.282  28.110  31.716  1.00  0.00    -0.203 F 
ATOM     53  C   UNL A   1      38.051  28.814  31.417  1.00  0.00     0.198 A 
ATOM     54  C   UNL A   1      37.336  29.650  29.285  1.00  0.00     0.198 A 
ATOM     55  F   UNL A   1      38.847  29.705  27.484  1.00  0.00    -0.203 F 
ATOM     56  F   UNL A   1      37.776  28.484  32.685  1.00  0.00    -0.200 F 
ATOM     57  C   UNL A   1      37.053  29.333  30.604  1.00  0.00     0.200 A 
ATOM     58  F   UNL A   1      36.372  30.147  28.497  1.00  0.00    -0.200 F 
ATOM     59  F   UNL A   1      35.818  29.516  31.091  1.00  0.00    -0.200 F 
ENDBRANCH  25  49
BRANCH  37  60
ATOM     60  C   UNL A   1      45.185  32.956  28.544  1.00  0.00     0.064 A 
ATOM     61  C   UNL A   1      45.757  33.564  29.669  1.00  0.00     0.173 A 
ATOM     62  C   UNL A   1      44.772  33.780  27.485  1.00  0.00     0.173 A 
ATOM     63  F   UNL A   1      46.136  32.818  30.718  1.00  0.00    -0.203 F 
ATOM     64  C   UNL A   1      45.886  34.948  29.743  1.00  0.00     0.198 A 
ATOM     65  C   UNL A   1      44.927  35.160  27.550  1.00  0.00     0.198 A 
ATOM     66  F   UNL A   1      44.210  33.244  26.390  1.00  0.00    -0.203 F 
ATOM     67  F   UNL A   1      46.382  35.514  30.851  1.00  0.00    -0.200 F 
ATOM     68  C   UNL A   1      45.476  35.743  28.681  1.00  0.00     0.200 A 
ATOM     69  F   UNL A   1      44.535  35.925  26.523  1.00  0.00    -0.200 F 
ATOM     70  F   UNL A   1      45.598  37.075  28.756  1.00  0.00    -0.200 F 
ENDBRANCH  37  60
ENDBRANCH  11  12
ENDBRANCH   4   6
ENDBRANCH   3   4
ENDBRANCH   2   3
ENDBRANCH   1   2
BRANCH   1  71
ATOM     71  O   UNL A   1      37.518  21.014  24.502  1.00  0.00    -0.458 OA
BRANCH  71  72
ATOM     72  C   UNL A   1      36.184  21.102  24.712  1.00  0.00     0.338 C 
ATOM     73  O   UNL A   1      35.436  20.172  25.002  1.00  0.00    -0.246 OA
BRANCH  72  74
ATOM     74  C   UNL A   1      35.688  22.487  24.560  1.00  0.00     0.061 A 
ATOM     75  C   UNL A   1      35.681  23.297  25.704  1.00  0.00     0.016 A 
ATOM     76  C   UNL A   1      35.124  22.942  23.361  1.00  0.00     0.038 A 
ATOM     77  C   UNL A   1      35.102  24.558  25.658  1.00  0.00     0.002 A 
ATOM     78  C   UNL A   1      34.394  24.126  23.368  1.00  0.00     0.088 A 
ATOM     79  C   UNL A   1      34.433  24.957  24.503  1.00  0.00     0.022 A 
BRANCH  78  80
ATOM     80  S   UNL A   1      33.261  24.632  22.097  1.00  0.00     0.261 S 
ATOM     81  O   UNL A   1      33.654  25.964  21.682  1.00  0.00    -0.201 OA
ATOM     82  O   UNL A   1      33.304  23.568  21.118  1.00  0.00    -0.201 OA
BRANCH  80  83
ATOM     83  N   UNL A   1      31.629  24.727  22.532  1.00  0.00    -0.278 N 
ATOM     84  H   UNL A   1      30.982  24.937  21.819  1.00  0.00     0.180 HD
BRANCH  83  85
ATOM     85  C   UNL A   1      31.109  24.527  23.852  1.00  0.00     0.072 A 
ATOM     86  C   UNL A   1      31.031  23.196  24.296  1.00  0.00     0.029 A 
ATOM     87  C   UNL A   1      30.701  25.581  24.699  1.00  0.00     0.061 A 
ATOM     88  C   UNL A   1      30.736  22.896  25.621  1.00  0.00     0.002 A 
ATOM     89  C   UNL A   1      30.421  25.252  26.039  1.00  0.00     0.028 A 
ATOM     90  C   UNL A   1      30.463  23.930  26.502  1.00  0.00     0.002 A 
BRANCH  87  91
ATOM     91  N   UNL A   1      30.617  26.888  24.230  1.00  0.00    -0.365 N 
ATOM     92  C   UNL A   1      29.346  27.239  23.555  1.00  0.00     0.145 C 
ATOM     93  C   UNL A   1      31.190  28.013  24.984  1.00  0.00     0.145 C 
ATOM     94  C   UNL A   1      29.494  28.543  22.750  1.00  0.00     0.181 C 
ATOM     95  C   UNL A   1      31.356  29.203  24.031  1.00  0.00     0.181 C 
ATOM     96  O   UNL A   1      30.074  29.608  23.524  1.00  0.00    -0.378 OA
ENDBRANCH  87  91
ENDBRANCH  83  85
ENDBRANCH  80  83
ENDBRANCH  78  80
ENDBRANCH  72  74
ENDBRANCH  71  72
ENDBRANCH   1  71
TORSDOF 15
ENDMDL
MODEL 3
REMARK VINA RESULT:     -12.9      1.082      2.056
REMARK SMILES O=C(OCCOC(=O)c1cccc(S(=O)(=O)Nc2ccccc2N2CCOCC2)c1)c1ccc(-c2c3nc(c(-c4c(F)c(F)c(F)c(F)c4F)c4ccc([nH]4)c(-c4c(F)c(F)c(F)c(F)c4F)c4nc(c(-c5c(F)c(F)c(F)c(F)c5F)c5ccc2[nH]5)C=C4)C=C3)cc1
REMARK SMILES IDX 5 1 4 2 3 3 2 4 1 5 31 6 32 7 93 8 33 9 92 10 34 11 35 12
REMARK SMILES IDX 36 13 86 14 37 15 91 16 85 17 87 18 38 19 90 20 84 21 83 22
REMARK SMILES IDX 39 24 71 25 51 26 70 27 52 28 55 29 69 30 88 31 53 32 54 33
REMARK SMILES IDX 68 35 89 36 56 37 40 38 41 39 49 40 42 41 43 42 47 43 50 44
REMARK SMILES IDX 44 45 45 46 48 47 46 48 72 49 73 50 81 51 74 52 75 53 79 54
REMARK SMILES IDX 82 55 76 56 77 57 80 58 78 59 57 60 58 61 66 62 59 63 60 64
REMARK SMILES IDX 64 65 67 66 61 67 62 68 65 69 63 70 6 71 7 72 8 73 9 74
REMARK SMILES IDX 10 75 30 76 11 77 13 78 12 79 14 80 15 81 16 82 17 83 18 85
REMARK SMILES IDX 19 86 23 87 20 88 22 89 21 90 24 91 25 92 29 93 26 94 28 95
REMARK SMILES IDX 27 96
REMARK H PARENT 87 23 55 34 17 84
REMARK Flexibility Score: inf
ROOT
ATOM      1  C   UNL A   1      31.474  31.783  26.869  1.00  0.00     0.275 C 
ENDROOT
BRANCH   1   2
ATOM      2  C   UNL A   1      31.990  33.217  26.770  1.00  0.00     0.275 C 
BRANCH   2   3
ATOM      3  O   UNL A   1      32.431  33.801  28.013  1.00  0.00    -0.458 OA
BRANCH   3   4
ATOM      4  C   UNL A   1      33.656  34.272  28.348  1.00  0.00     0.338 C 
ATOM      5  O   UNL A   1      33.955  35.440  28.113  1.00  0.00    -0.246 OA
BRANCH   4   6
ATOM      6  C   UNL A   1      34.725  33.380  28.872  1.00  0.00     0.060 A 
ATOM      7  C   UNL A   1      34.524  32.381  29.827  1.00  0.00     0.016 A 
ATOM      8  C   UNL A   1      36.028  33.621  28.411  1.00  0.00     0.016 A 
ATOM      9  C   UNL A   1      35.593  31.581  30.252  1.00  0.00     0.010 A 
ATOM     10  C   UNL A   1      37.095  32.817  28.822  1.00  0.00     0.010 A 
ATOM     11  C   UNL A   1      36.885  31.798  29.761  1.00  0.00    -0.014 A 
BRANCH  11  12
ATOM     12  C   UNL A   1      38.045  31.110  30.377  1.00  0.00     0.031 A 
ATOM     13  C   UNL A   1      38.554  31.609  31.696  1.00  0.00     0.074 A 
ATOM     14  C   UNL A   1      38.624  30.027  29.828  1.00  0.00     0.049 A 
ATOM     15  N   UNL A   1      39.482  31.093  32.461  1.00  0.00    -0.248 NA
ATOM     16  C   UNL A   1      37.899  32.802  32.256  1.00  0.00     0.031 C 
ATOM     17  C   UNL A   1      38.194  29.355  28.609  1.00  0.00     0.029 A 
ATOM     18  N   UNL A   1      39.740  29.325  30.223  1.00  0.00    -0.354 N 
ATOM     19  C   UNL A   1      39.423  31.812  33.640  1.00  0.00     0.074 A 
ATOM     20  C   UNL A   1      38.490  32.899  33.437  1.00  0.00     0.031 C 
ATOM     21  C   UNL A   1      39.101  28.410  28.302  1.00  0.00     0.029 A 
ATOM     22  C   UNL A   1      40.176  28.432  29.278  1.00  0.00     0.049 A 
ATOM     23  H   UNL A   1      40.180  29.450  31.096  1.00  0.00     0.167 HD
ATOM     24  C   UNL A   1      40.016  31.524  34.822  1.00  0.00     0.037 A 
ATOM     25  C   UNL A   1      41.321  27.732  29.183  1.00  0.00     0.037 A 
ATOM     26  C   UNL A   1      40.998  30.495  35.009  1.00  0.00     0.049 A 
ATOM     27  C   UNL A   1      42.211  27.660  30.380  1.00  0.00     0.074 A 
ATOM     28  C   UNL A   1      41.655  30.119  36.166  1.00  0.00     0.029 A 
ATOM     29  N   UNL A   1      41.499  29.700  33.987  1.00  0.00    -0.354 N 
ATOM     30  N   UNL A   1      42.074  28.254  31.536  1.00  0.00    -0.248 NA
ATOM     31  C   UNL A   1      43.349  26.735  30.302  1.00  0.00     0.031 C 
ATOM     32  C   UNL A   1      42.584  29.123  35.836  1.00  0.00     0.029 A 
ATOM     33  C   UNL A   1      42.483  28.856  34.480  1.00  0.00     0.049 A 
ATOM     34  H   UNL A   1      41.201  29.730  33.050  1.00  0.00     0.167 HD
ATOM     35  C   UNL A   1      43.041  27.704  32.359  1.00  0.00     0.074 A 
ATOM     36  C   UNL A   1      43.797  26.770  31.549  1.00  0.00     0.031 C 
ATOM     37  C   UNL A   1      43.230  27.918  33.683  1.00  0.00     0.037 A 
BRANCH  24  38
ATOM     38  C   UNL A   1      39.532  32.312  35.996  1.00  0.00     0.064 A 
ATOM     39  C   UNL A   1      40.181  33.504  36.361  1.00  0.00     0.173 A 
ATOM     40  C   UNL A   1      38.470  31.866  36.789  1.00  0.00     0.173 A 
ATOM     41  F   UNL A   1      41.221  33.956  35.642  1.00  0.00    -0.203 F 
ATOM     42  C   UNL A   1      39.802  34.205  37.500  1.00  0.00     0.198 A 
ATOM     43  C   UNL A   1      38.081  32.581  37.919  1.00  0.00     0.198 A 
ATOM     44  F   UNL A   1      37.831  30.728  36.485  1.00  0.00    -0.203 F 
ATOM     45  F   UNL A   1      40.471  35.309  37.860  1.00  0.00    -0.200 F 
ATOM     46  C   UNL A   1      38.752  33.743  38.278  1.00  0.00     0.200 A 
ATOM     47  F   UNL A   1      37.070  32.134  38.677  1.00  0.00    -0.200 F 
ATOM     48  F   UNL A   1      38.396  34.408  39.386  1.00  0.00    -0.200 F 
ENDBRANCH  24  38
BRANCH  25  49
ATOM     49  C   UNL A   1      41.675  27.016  27.931  1.00  0.00     0.064 A 
ATOM     50  C   UNL A   1      41.405  25.654  27.760  1.00  0.00     0.173 A 
ATOM     51  C   UNL A   1      42.330  27.689  26.888  1.00  0.00     0.173 A 
ATOM     52  F   UNL A   1      40.808  24.963  28.742  1.00  0.00    -0.203 F 
ATOM     53  C   UNL A   1      41.776  24.989  26.592  1.00  0.00     0.198 A 
ATOM     54  C   UNL A   1      42.682  27.029  25.712  1.00  0.00     0.198 A 
ATOM     55  F   UNL A   1      42.656  28.981  27.023  1.00  0.00    -0.203 F 
ATOM     56  F   UNL A   1      41.531  23.679  26.464  1.00  0.00    -0.200 F 
ATOM     57  C   UNL A   1      42.408  25.679  25.566  1.00  0.00     0.200 A 
ATOM     58  F   UNL A   1      43.297  27.696  24.725  1.00  0.00    -0.200 F 
ATOM     59  F   UNL A   1      42.761  25.037  24.444  1.00  0.00    -0.200 F 
ENDBRANCH  25  49
BRANCH  37  60
ATOM     60  C   UNL A   1      44.238  27.047  34.364  1.00  0.00     0.064 A 
ATOM     61  C   UNL A   1      43.909  25.781  34.864  1.00  0.00     0.173 A 
ATOM     62  C   UNL A   1      45.554  27.504  34.530  1.00  0.00     0.173 A 
ATOM     63  F   UNL A   1      42.655  25.317  34.756  1.00  0.00    -0.203 F 
ATOM     64  C   UNL A   1      44.858  25.011  35.532  1.00  0.00     0.198 A 
ATOM     65  C   UNL A   1      46.507  26.721  35.174  1.00  0.00     0.198 A 
ATOM     66  F   UNL A   1      45.913  28.715  34.076  1.00  0.00    -0.203 F 
ATOM     67  F   UNL A   1      44.510  23.828  36.054  1.00  0.00    -0.200 F 
ATOM     68  C   UNL A   1      46.156  25.480  35.680  1.00  0.00     0.200 A 
ATOM     69  F   UNL A   1      47.760  27.174  35.313  1.00  0.00    -0.200 F 
ATOM     70  F   UNL A   1      47.067  24.739  36.326  1.00  0.00    -0.200 F 
ENDBRANCH  37  60
ENDBRANCH  11  12
ENDBRANCH   4   6
ENDBRANCH   3   4
ENDBRANCH   2   3
ENDBRANCH   1   2
BRANCH   1  71
ATOM     71  O   UNL A   1      32.348  30.826  26.254  1.00  0.00    -0.458 OA
BRANCH  71  72
ATOM     72  C   UNL A   1      31.709  29.857  25.560  1.00  0.00     0.338 C 
ATOM     73  O   UNL A   1      30.822  30.029  24.728  1.00  0.00    -0.246 OA
BRANCH  72  74
ATOM     74  C   UNL A   1      32.203  28.507  25.910  1.00  0.00     0.061 A 
ATOM     75  C   UNL A   1      33.566  28.250  25.707  1.00  0.00     0.016 A 
ATOM     76  C   UNL A   1      31.334  27.481  26.303  1.00  0.00     0.038 A 
ATOM     77  C   UNL A   1      34.064  26.965  25.886  1.00  0.00     0.002 A 
ATOM     78  C   UNL A   1      31.801  26.170  26.307  1.00  0.00     0.088 A 
ATOM     79  C   UNL A   1      33.178  25.924  26.153  1.00  0.00     0.022 A 
BRANCH  78  80
ATOM     80  S   UNL A   1      30.771  24.722  26.341  1.00  0.00     0.261 S 
ATOM     81  O   UNL A   1      31.390  23.782  27.254  1.00  0.00    -0.201 OA
ATOM     82  O   UNL A   1      29.449  25.216  26.656  1.00  0.00    -0.201 OA
BRANCH  80  83
ATOM     83  N   UNL A   1      30.569  23.904  24.875  1.00  0.00    -0.278 N 
ATOM     84  H   UNL A   1      29.854  23.227  24.829  1.00  0.00     0.180 HD
BRANCH  83  85
ATOM     85  C   UNL A   1      31.351  24.113  23.692  1.00  0.00     0.072 A 
ATOM     86  C   UNL A   1      30.943  25.161  22.852  1.00  0.00     0.029 A 
ATOM     87  C   UNL A   1      32.487  23.342  23.361  1.00  0.00     0.061 A 
ATOM     88  C   UNL A   1      31.735  25.584  21.791  1.00  0.00     0.002 A 
ATOM     89  C   UNL A   1      33.280  23.800  22.291  1.00  0.00     0.028 A 
ATOM     90  C   UNL A   1      32.923  24.921  21.532  1.00  0.00     0.002 A 
BRANCH  87  91
ATOM     91  N   UNL A   1      32.820  22.203  24.087  1.00  0.00    -0.365 N 
ATOM     92  C   UNL A   1      32.383  20.920  23.490  1.00  0.00     0.145 C 
ATOM     93  C   UNL A   1      34.102  22.092  24.798  1.00  0.00     0.145 C 
ATOM     94  C   UNL A   1      32.447  19.782  24.524  1.00  0.00     0.181 C 
ATOM     95  C   UNL A   1      33.982  20.981  25.848  1.00  0.00     0.181 C 
ATOM     96  O   UNL A   1      33.714  19.724  25.204  1.00  0.00    -0.378 OA
ENDBRANCH  87  91
ENDBRANCH  83  85
ENDBRANCH  80  83
ENDBRANCH  78  80
ENDBRANCH  72  74
ENDBRANCH  71  72
ENDBRANCH   1  71
TORSDOF 15
ENDMDL
