MODEL 1
REMARK VINA RESULT:     -14.2      0.000      0.000
REMARK SMILES Cc1ccc(S(=O)(=O)n2cc(C(=O)C(=O)NCC(=O)OCCOC(=O)c3ccc(-c4c5nc(c(-c6c(F)c(F)c(F)c(F)c6F)c6ccc([nH]6)c(-c6c(F)c(F)c(F)c(F)c6F)c6nc(c(-c7c(F)c(F)c(F)c(F)c7F)c7ccc4[nH]7)C=C6)C=C5)cc3)c3ccccc32)cc1
REMARK SMILES IDX 20 1 18 2 19 3 17 4 16 5 14 6 15 7 12 9 13 10 11 11 9 12
REMARK SMILES IDX 10 13 94 14 89 15 93 16 90 17 92 18 91 19 6 20 7 21 8 22
REMARK SMILES IDX 5 23 1 24 2 25 3 26 96 27 4 28 95 29 21 30 22 31 23 32 24 33
REMARK SMILES IDX 25 34 26 35 27 36 88 37 28 38 87 39 29 40 30 41 31 42 81 43
REMARK SMILES IDX 32 44 86 45 80 46 82 47 33 48 85 49 79 50 78 51 34 53 66 54
REMARK SMILES IDX 46 55 65 56 47 57 50 58 64 59 83 60 48 61 49 62 63 64 84 65
REMARK SMILES IDX 51 66 35 67 36 68 44 69 37 70 38 71 42 72 45 73 39 74 40 75
REMARK SMILES IDX 43 76 41 77 67 78 68 79 76 80 69 81 70 82 74 83 77 84 71 85
REMARK SMILES IDX 72 86 75 87 73 88 52 89 53 90 61 91 54 92 55 93 59 94 62 95
REMARK SMILES IDX 56 96 57 97 60 98 58 99
REMARK H PARENT 16 8 82 52 50 63
REMARK Flexibility Score: inf
ROOT
ATOM      1  O   UNL A   1      33.263  29.979  25.329  1.00  0.00    -0.461 OA
ENDROOT
BRANCH   1   2
ATOM      2  C   UNL A   1      31.968  30.132  25.724  1.00  0.00     0.325 C 
ATOM      3  O   UNL A   1      31.590  30.912  26.593  1.00  0.00    -0.250 OA
BRANCH   2   4
ATOM      4  C   UNL A   1      30.993  29.325  24.887  1.00  0.00     0.239 C 
BRANCH   4   5
ATOM      5  N   UNL A   1      30.786  29.730  23.512  1.00  0.00    -0.338 N 
ATOM      6  C   UNL A   1      30.002  29.016  22.628  1.00  0.00     0.292 C 
ATOM      7  O   UNL A   1      29.880  29.310  21.450  1.00  0.00    -0.265 OA
ATOM      8  H   UNL A   1      31.224  30.552  23.193  1.00  0.00     0.164 HD
BRANCH   6   9
ATOM      9  C   UNL A   1      29.293  27.780  23.205  1.00  0.00     0.252 C 
ATOM     10  O   UNL A   1      28.109  27.904  23.510  1.00  0.00    -0.283 OA
BRANCH   9  11
ATOM     11  C   UNL A   1      30.067  26.581  23.516  1.00  0.00     0.054 A 
ATOM     12  N   UNL A   1      30.865  24.799  24.590  1.00  0.00    -0.240 N 
ATOM     13  C   UNL A   1      29.973  25.837  24.677  1.00  0.00     0.117 A 
ATOM     14  C   UNL A   1      31.533  24.815  23.382  1.00  0.00     0.065 A 
ATOM     15  C   UNL A   1      31.055  25.940  22.692  1.00  0.00     0.012 A 
ATOM     16  C   UNL A   1      32.536  23.988  22.841  1.00  0.00     0.028 A 
ATOM     17  C   UNL A   1      31.589  26.224  21.417  1.00  0.00     0.011 A 
ATOM     18  C   UNL A   1      33.053  24.305  21.584  1.00  0.00     0.002 A 
ATOM     19  C   UNL A   1      32.584  25.405  20.877  1.00  0.00     0.001 A 
BRANCH  12  20
ATOM     20  S   UNL A   1      31.284  23.823  25.923  1.00  0.00     0.268 S 
ATOM     21  O   UNL A   1      30.761  22.510  25.635  1.00  0.00    -0.201 OA
ATOM     22  O   UNL A   1      30.860  24.579  27.097  1.00  0.00    -0.201 OA
BRANCH  20  23
ATOM     23  C   UNL A   1      33.054  23.729  25.957  1.00  0.00     0.088 A 
ATOM     24  C   UNL A   1      37.323  23.244  25.783  1.00  0.00     0.044 C 
ATOM     25  C   UNL A   1      35.836  23.421  25.871  1.00  0.00    -0.051 A 
ATOM     26  C   UNL A   1      35.008  22.310  26.078  1.00  0.00     0.005 A 
ATOM     27  C   UNL A   1      35.261  24.688  25.743  1.00  0.00     0.005 A 
ATOM     28  C   UNL A   1      33.621  22.461  26.117  1.00  0.00     0.022 A 
ATOM     29  C   UNL A   1      33.875  24.847  25.793  1.00  0.00     0.022 A 
ENDBRANCH  20  23
ENDBRANCH  12  20
ENDBRANCH   9  11
ENDBRANCH   6   9
ENDBRANCH   4   5
ENDBRANCH   2   4
ENDBRANCH   1   2
BRANCH   1  30
ATOM     30  C   UNL A   1      33.756  28.659  25.564  1.00  0.00     0.274 C 
BRANCH  30  31
ATOM     31  C   UNL A   1      34.431  28.502  26.931  1.00  0.00     0.275 C 
BRANCH  31  32
ATOM     32  O   UNL A   1      34.712  29.661  27.772  1.00  0.00    -0.458 OA
BRANCH  32  33
ATOM     33  C   UNL A   1      35.797  30.465  27.863  1.00  0.00     0.338 C 
ATOM     34  O   UNL A   1      35.717  31.669  27.664  1.00  0.00    -0.246 OA
BRANCH  33  35
ATOM     35  C   UNL A   1      37.099  29.858  28.203  1.00  0.00     0.060 A 
ATOM     36  C   UNL A   1      37.237  29.100  29.380  1.00  0.00     0.016 A 
ATOM     37  C   UNL A   1      38.156  29.963  27.315  1.00  0.00     0.016 A 
ATOM     38  C   UNL A   1      38.384  28.323  29.588  1.00  0.00     0.010 A 
ATOM     39  C   UNL A   1      39.210  29.088  27.446  1.00  0.00     0.010 A 
ATOM     40  C   UNL A   1      39.349  28.271  28.583  1.00  0.00    -0.014 A 
BRANCH  40  41
ATOM     41  C   UNL A   1      40.610  27.527  28.657  1.00  0.00     0.031 A 
ATOM     42  C   UNL A   1      40.768  26.083  28.360  1.00  0.00     0.074 A 
ATOM     43  C   UNL A   1      41.683  28.290  28.964  1.00  0.00     0.049 A 
ATOM     44  N   UNL A   1      41.751  25.367  28.794  1.00  0.00    -0.248 NA
ATOM     45  C   UNL A   1      39.843  25.310  27.537  1.00  0.00     0.031 C 
ATOM     46  C   UNL A   1      43.103  27.979  28.934  1.00  0.00     0.029 A 
ATOM     47  N   UNL A   1      41.626  29.555  29.575  1.00  0.00    -0.354 N 
ATOM     48  C   UNL A   1      41.746  24.171  28.106  1.00  0.00     0.074 A 
ATOM     49  C   UNL A   1      40.497  24.150  27.386  1.00  0.00     0.031 C 
ATOM     50  C   UNL A   1      43.736  28.827  29.770  1.00  0.00     0.029 A 
ATOM     51  C   UNL A   1      42.704  29.590  30.463  1.00  0.00     0.049 A 
ATOM     52  H   UNL A   1      40.964  30.267  29.412  1.00  0.00     0.167 HD
ATOM     53  C   UNL A   1      42.865  23.390  28.104  1.00  0.00     0.037 A 
ATOM     54  C   UNL A   1      42.457  29.576  31.805  1.00  0.00     0.037 A 
ATOM     55  C   UNL A   1      43.898  23.958  28.959  1.00  0.00     0.049 A 
ATOM     56  C   UNL A   1      43.118  28.398  32.464  1.00  0.00     0.074 A 
ATOM     57  C   UNL A   1      44.966  24.794  28.687  1.00  0.00     0.029 A 
ATOM     58  N   UNL A   1      43.691  24.010  30.335  1.00  0.00    -0.354 N 
ATOM     59  N   UNL A   1      43.286  27.241  31.886  1.00  0.00    -0.248 NA
ATOM     60  C   UNL A   1      43.688  28.463  33.803  1.00  0.00     0.031 C 
ATOM     61  C   UNL A   1      45.337  25.433  29.894  1.00  0.00     0.029 A 
ATOM     62  C   UNL A   1      44.521  24.954  30.904  1.00  0.00     0.049 A 
ATOM     63  H   UNL A   1      43.046  23.454  30.829  1.00  0.00     0.167 HD
ATOM     64  C   UNL A   1      44.043  26.449  32.705  1.00  0.00     0.074 A 
ATOM     65  C   UNL A   1      44.244  27.244  33.904  1.00  0.00     0.031 C 
ATOM     66  C   UNL A   1      44.500  25.220  32.330  1.00  0.00     0.037 A 
BRANCH  53  67
ATOM     67  C   UNL A   1      43.108  22.289  27.104  1.00  0.00     0.064 A 
ATOM     68  C   UNL A   1      42.352  21.095  27.135  1.00  0.00     0.173 A 
ATOM     69  C   UNL A   1      44.099  22.344  26.109  1.00  0.00     0.173 A 
ATOM     70  F   UNL A   1      41.352  20.922  28.009  1.00  0.00    -0.203 F 
ATOM     71  C   UNL A   1      42.611  20.017  26.284  1.00  0.00     0.198 A 
ATOM     72  C   UNL A   1      44.381  21.252  25.278  1.00  0.00     0.198 A 
ATOM     73  F   UNL A   1      44.805  23.468  25.910  1.00  0.00    -0.203 F 
ATOM     74  F   UNL A   1      41.864  18.906  26.369  1.00  0.00    -0.200 F 
ATOM     75  C   UNL A   1      43.641  20.086  25.371  1.00  0.00     0.200 A 
ATOM     76  F   UNL A   1      45.379  21.332  24.386  1.00  0.00    -0.200 F 
ATOM     77  F   UNL A   1      43.914  19.039  24.578  1.00  0.00    -0.200 F 
ENDBRANCH  53  67
BRANCH  54  78
ATOM     78  C   UNL A   1      41.124  30.145  32.188  1.00  0.00     0.064 A 
ATOM     79  C   UNL A   1      40.044  29.259  32.402  1.00  0.00     0.173 A 
ATOM     80  C   UNL A   1      40.965  31.457  32.654  1.00  0.00     0.173 A 
ATOM     81  F   UNL A   1      40.130  27.984  31.983  1.00  0.00    -0.203 F 
ATOM     82  C   UNL A   1      38.922  29.631  33.141  1.00  0.00     0.198 A 
ATOM     83  C   UNL A   1      39.826  31.835  33.375  1.00  0.00     0.198 A 
ATOM     84  F   UNL A   1      41.938  32.362  32.479  1.00  0.00    -0.203 F 
ATOM     85  F   UNL A   1      37.972  28.725  33.420  1.00  0.00    -0.200 F 
ATOM     86  C   UNL A   1      38.822  30.915  33.644  1.00  0.00     0.200 A 
ATOM     87  F   UNL A   1      39.727  33.080  33.863  1.00  0.00    -0.200 F 
ATOM     88  F   UNL A   1      37.774  31.259  34.405  1.00  0.00    -0.200 F 
ENDBRANCH  54  78
BRANCH  66  89
ATOM     89  C   UNL A   1      45.116  24.217  33.263  1.00  0.00     0.064 A 
ATOM     90  C   UNL A   1      44.468  23.032  33.641  1.00  0.00     0.173 A 
ATOM     91  C   UNL A   1      46.459  24.351  33.684  1.00  0.00     0.173 A 
ATOM     92  F   UNL A   1      43.237  22.739  33.197  1.00  0.00    -0.203 F 
ATOM     93  C   UNL A   1      45.091  22.082  34.449  1.00  0.00     0.198 A 
ATOM     94  C   UNL A   1      47.097  23.374  34.442  1.00  0.00     0.198 A 
ATOM     95  F   UNL A   1      47.199  25.419  33.350  1.00  0.00    -0.203 F 
ATOM     96  F   UNL A   1      44.416  20.988  34.827  1.00  0.00    -0.200 F 
ATOM     97  C   UNL A   1      46.408  22.248  34.840  1.00  0.00     0.200 A 
ATOM     98  F   UNL A   1      48.389  23.521  34.764  1.00  0.00    -0.200 F 
ATOM     99  F   UNL A   1      47.016  21.312  35.582  1.00  0.00    -0.200 F 
ENDBRANCH  66  89
ENDBRANCH  40  41
ENDBRANCH  33  35
ENDBRANCH  32  33
ENDBRANCH  31  32
ENDBRANCH  30  31
ENDBRANCH   1  30
TORSDOF 16
ENDMDL
MODEL 2
REMARK VINA RESULT:     -13.8      1.549      2.089
REMARK SMILES Cc1ccc(S(=O)(=O)n2cc(C(=O)C(=O)NCC(=O)OCCOC(=O)c3ccc(-c4c5nc(c(-c6c(F)c(F)c(F)c(F)c6F)c6ccc([nH]6)c(-c6c(F)c(F)c(F)c(F)c6F)c6nc(c(-c7c(F)c(F)c(F)c(F)c7F)c7ccc4[nH]7)C=C6)C=C5)cc3)c3ccccc32)cc1
REMARK SMILES IDX 20 1 18 2 19 3 17 4 16 5 14 6 15 7 12 9 13 10 11 11 9 12
REMARK SMILES IDX 10 13 94 14 89 15 93 16 90 17 92 18 91 19 6 20 7 21 8 22
REMARK SMILES IDX 5 23 1 24 2 25 3 26 96 27 4 28 95 29 21 30 22 31 23 32 24 33
REMARK SMILES IDX 25 34 26 35 27 36 88 37 28 38 87 39 29 40 30 41 31 42 81 43
REMARK SMILES IDX 32 44 86 45 80 46 82 47 33 48 85 49 79 50 78 51 34 53 66 54
REMARK SMILES IDX 46 55 65 56 47 57 50 58 64 59 83 60 48 61 49 62 63 64 84 65
REMARK SMILES IDX 51 66 35 67 36 68 44 69 37 70 38 71 42 72 45 73 39 74 40 75
REMARK SMILES IDX 43 76 41 77 67 78 68 79 76 80 69 81 70 82 74 83 77 84 71 85
REMARK SMILES IDX 72 86 75 87 73 88 52 89 53 90 61 91 54 92 55 93 59 94 62 95
REMARK SMILES IDX 56 96 57 97 60 98 58 99
REMARK H PARENT 16 8 82 52 50 63
REMARK Flexibility Score: inf
ROOT
ATOM      1  O   UNL A   1      31.747  29.740  26.825  1.00  0.00    -0.461 OA
ENDROOT
BRANCH   1   2
ATOM      2  C   UNL A   1      31.587  28.392  26.947  1.00  0.00     0.325 C 
ATOM      3  O   UNL A   1      31.238  27.821  27.975  1.00  0.00    -0.250 OA
BRANCH   2   4
ATOM      4  C   UNL A   1      31.759  27.653  25.633  1.00  0.00     0.239 C 
BRANCH   4   5
ATOM      5  N   UNL A   1      30.633  27.621  24.723  1.00  0.00    -0.338 N 
ATOM      6  C   UNL A   1      29.787  26.536  24.612  1.00  0.00     0.292 C 
ATOM      7  O   UNL A   1      28.879  26.472  23.798  1.00  0.00    -0.265 OA
ATOM      8  H   UNL A   1      30.462  28.409  24.158  1.00  0.00     0.164 HD
BRANCH   6   9
ATOM      9  C   UNL A   1      30.066  25.365  25.568  1.00  0.00     0.252 C 
ATOM     10  O   UNL A   1      29.411  25.321  26.606  1.00  0.00    -0.283 OA
BRANCH   9  11
ATOM     11  C   UNL A   1      31.181  24.461  25.298  1.00  0.00     0.054 A 
ATOM     12  N   UNL A   1      32.774  22.927  25.574  1.00  0.00    -0.240 N 
ATOM     13  C   UNL A   1      31.758  23.595  26.207  1.00  0.00     0.117 A 
ATOM     14  C   UNL A   1      32.871  23.307  24.250  1.00  0.00     0.065 A 
ATOM     15  C   UNL A   1      31.883  24.284  24.056  1.00  0.00     0.012 A 
ATOM     16  C   UNL A   1      33.748  22.927  23.216  1.00  0.00     0.028 A 
ATOM     17  C   UNL A   1      31.766  24.878  22.781  1.00  0.00     0.011 A 
ATOM     18  C   UNL A   1      33.615  23.545  21.972  1.00  0.00     0.002 A 
ATOM     19  C   UNL A   1      32.634  24.504  21.752  1.00  0.00     0.001 A 
BRANCH  12  20
ATOM     20  S   UNL A   1      33.931  21.992  26.408  1.00  0.00     0.268 S 
ATOM     21  O   UNL A   1      33.395  21.783  27.730  1.00  0.00    -0.201 OA
ATOM     22  O   UNL A   1      35.201  22.678  26.191  1.00  0.00    -0.201 OA
BRANCH  20  23
ATOM     23  C   UNL A   1      34.019  20.426  25.582  1.00  0.00     0.088 A 
ATOM     24  C   UNL A   1      33.976  16.748  23.354  1.00  0.00     0.044 C 
ATOM     25  C   UNL A   1      33.999  18.017  24.154  1.00  0.00    -0.051 A 
ATOM     26  C   UNL A   1      32.808  18.541  24.674  1.00  0.00     0.005 A 
ATOM     27  C   UNL A   1      35.201  18.691  24.387  1.00  0.00     0.005 A 
ATOM     28  C   UNL A   1      32.815  19.744  25.382  1.00  0.00     0.022 A 
ATOM     29  C   UNL A   1      35.217  19.888  25.105  1.00  0.00     0.022 A 
ENDBRANCH  20  23
ENDBRANCH  12  20
ENDBRANCH   9  11
ENDBRANCH   6   9
ENDBRANCH   4   5
ENDBRANCH   2   4
ENDBRANCH   1   2
BRANCH   1  30
ATOM     30  C   UNL A   1      33.014  30.093  26.265  1.00  0.00     0.274 C 
BRANCH  30  31
ATOM     31  C   UNL A   1      34.195  29.736  27.174  1.00  0.00     0.275 C 
BRANCH  31  32
ATOM     32  O   UNL A   1      35.049  30.772  27.746  1.00  0.00    -0.458 OA
BRANCH  32  33
ATOM     33  C   UNL A   1      35.997  30.725  28.710  1.00  0.00     0.338 C 
ATOM     34  O   UNL A   1      35.930  31.434  29.705  1.00  0.00    -0.246 OA
BRANCH  33  35
ATOM     35  C   UNL A   1      37.132  29.799  28.540  1.00  0.00     0.060 A 
ATOM     36  C   UNL A   1      37.944  29.881  27.393  1.00  0.00     0.016 A 
ATOM     37  C   UNL A   1      37.449  28.910  29.553  1.00  0.00     0.016 A 
ATOM     38  C   UNL A   1      39.157  29.182  27.335  1.00  0.00     0.010 A 
ATOM     39  C   UNL A   1      38.704  28.345  29.560  1.00  0.00     0.010 A 
ATOM     40  C   UNL A   1      39.566  28.458  28.454  1.00  0.00    -0.014 A 
BRANCH  40  41
ATOM     41  C   UNL A   1      40.791  27.658  28.542  1.00  0.00     0.031 A 
ATOM     42  C   UNL A   1      40.881  26.202  28.277  1.00  0.00     0.074 A 
ATOM     43  C   UNL A   1      41.900  28.376  28.830  1.00  0.00     0.049 A 
ATOM     44  N   UNL A   1      41.830  25.450  28.725  1.00  0.00    -0.248 NA
ATOM     45  C   UNL A   1      39.918  25.455  27.473  1.00  0.00     0.031 C 
ATOM     46  C   UNL A   1      43.303  27.998  28.806  1.00  0.00     0.029 A 
ATOM     47  N   UNL A   1      41.904  29.656  29.414  1.00  0.00    -0.354 N 
ATOM     48  C   UNL A   1      41.768  24.241  28.065  1.00  0.00     0.074 A 
ATOM     49  C   UNL A   1      40.518  24.263  27.347  1.00  0.00     0.031 C 
ATOM     50  C   UNL A   1      43.977  28.834  29.621  1.00  0.00     0.029 A 
ATOM     51  C   UNL A   1      42.984  29.660  30.299  1.00  0.00     0.049 A 
ATOM     52  H   UNL A   1      41.276  30.394  29.235  1.00  0.00     0.167 HD
ATOM     53  C   UNL A   1      42.849  23.409  28.078  1.00  0.00     0.037 A 
ATOM     54  C   UNL A   1      42.740  29.687  31.641  1.00  0.00     0.037 A 
ATOM     55  C   UNL A   1      43.909  23.946  28.919  1.00  0.00     0.049 A 
ATOM     56  C   UNL A   1      43.347  28.495  32.326  1.00  0.00     0.074 A 
ATOM     57  C   UNL A   1      45.015  24.725  28.627  1.00  0.00     0.029 A 
ATOM     58  N   UNL A   1      43.709  24.038  30.293  1.00  0.00    -0.354 N 
ATOM     59  N   UNL A   1      43.459  27.318  31.773  1.00  0.00    -0.248 NA
ATOM     60  C   UNL A   1      43.923  28.562  33.662  1.00  0.00     0.031 C 
ATOM     61  C   UNL A   1      45.418  25.373  29.819  1.00  0.00     0.029 A 
ATOM     62  C   UNL A   1      44.583  24.954  30.840  1.00  0.00     0.049 A 
ATOM     63  H   UNL A   1      43.040  23.525  30.801  1.00  0.00     0.167 HD
ATOM     64  C   UNL A   1      44.180  26.510  32.608  1.00  0.00     0.074 A 
ATOM     65  C   UNL A   1      44.421  27.321  33.790  1.00  0.00     0.031 C 
ATOM     66  C   UNL A   1      44.578  25.253  32.260  1.00  0.00     0.037 A 
BRANCH  53  67
ATOM     67  C   UNL A   1      43.037  22.275  27.103  1.00  0.00     0.064 A 
ATOM     68  C   UNL A   1      42.253  21.103  27.185  1.00  0.00     0.173 A 
ATOM     69  C   UNL A   1      44.003  22.278  26.081  1.00  0.00     0.173 A 
ATOM     70  F   UNL A   1      41.272  20.979  28.089  1.00  0.00    -0.203 F 
ATOM     71  C   UNL A   1      42.462  19.997  26.357  1.00  0.00     0.198 A 
ATOM     72  C   UNL A   1      44.236  21.157  25.273  1.00  0.00     0.198 A 
ATOM     73  F   UNL A   1      44.731  23.378  25.834  1.00  0.00    -0.203 F 
ATOM     74  F   UNL A   1      41.690  18.908  26.492  1.00  0.00    -0.200 F 
ATOM     75  C   UNL A   1      43.469  20.014  25.416  1.00  0.00     0.200 A 
ATOM     76  F   UNL A   1      45.212  21.188  24.355  1.00  0.00    -0.200 F 
ATOM     77  F   UNL A   1      43.694  18.940  24.646  1.00  0.00    -0.200 F 
ENDBRANCH  53  67
BRANCH  54  78
ATOM     78  C   UNL A   1      41.436  30.326  32.013  1.00  0.00     0.064 A 
ATOM     79  C   UNL A   1      40.360  29.497  32.403  1.00  0.00     0.173 A 
ATOM     80  C   UNL A   1      41.317  31.692  32.304  1.00  0.00     0.173 A 
ATOM     81  F   UNL A   1      40.409  28.175  32.157  1.00  0.00    -0.203 F 
ATOM     82  C   UNL A   1      39.284  29.985  33.143  1.00  0.00     0.198 A 
ATOM     83  C   UNL A   1      40.223  32.184  33.027  1.00  0.00     0.198 A 
ATOM     84  F   UNL A   1      42.288  32.547  31.958  1.00  0.00    -0.203 F 
ATOM     85  F   UNL A   1      38.342  29.142  33.591  1.00  0.00    -0.200 F 
ATOM     86  C   UNL A   1      39.225  31.327  33.471  1.00  0.00     0.200 A 
ATOM     87  F   UNL A   1      40.164  33.485  33.346  1.00  0.00    -0.200 F 
ATOM     88  F   UNL A   1      38.224  31.789  34.233  1.00  0.00    -0.200 F 
ENDBRANCH  54  78
BRANCH  66  89
ATOM     89  C   UNL A   1      45.148  24.243  33.214  1.00  0.00     0.064 A 
ATOM     90  C   UNL A   1      44.459  23.083  33.596  1.00  0.00     0.173 A 
ATOM     91  C   UNL A   1      46.489  24.341  33.655  1.00  0.00     0.173 A 
ATOM     92  F   UNL A   1      43.227  22.822  33.137  1.00  0.00    -0.203 F 
ATOM     93  C   UNL A   1      45.040  22.124  34.425  1.00  0.00     0.198 A 
ATOM     94  C   UNL A   1      47.085  23.354  34.434  1.00  0.00     0.198 A 
ATOM     95  F   UNL A   1      47.266  25.382  33.320  1.00  0.00    -0.203 F 
ATOM     96  F   UNL A   1      44.326  21.056  34.804  1.00  0.00    -0.200 F 
ATOM     97  C   UNL A   1      46.355  22.255  34.835  1.00  0.00     0.200 A 
ATOM     98  F   UNL A   1      48.376  23.466  34.775  1.00  0.00    -0.200 F 
ATOM     99  F   UNL A   1      46.923  21.310  35.596  1.00  0.00    -0.200 F 
ENDBRANCH  66  89
ENDBRANCH  40  41
ENDBRANCH  33  35
ENDBRANCH  32  33
ENDBRANCH  31  32
ENDBRANCH  30  31
ENDBRANCH   1  30
TORSDOF 16
ENDMDL
MODEL 3
REMARK VINA RESULT:     -13.8      1.237      1.905
REMARK SMILES Cc1ccc(S(=O)(=O)n2cc(C(=O)C(=O)NCC(=O)OCCOC(=O)c3ccc(-c4c5nc(c(-c6c(F)c(F)c(F)c(F)c6F)c6ccc([nH]6)c(-c6c(F)c(F)c(F)c(F)c6F)c6nc(c(-c7c(F)c(F)c(F)c(F)c7F)c7ccc4[nH]7)C=C6)C=C5)cc3)c3ccccc32)cc1
REMARK SMILES IDX 20 1 18 2 19 3 17 4 16 5 14 6 15 7 12 9 13 10 11 11 9 12
REMARK SMILES IDX 10 13 94 14 89 15 93 16 90 17 92 18 91 19 6 20 7 21 8 22
REMARK SMILES IDX 5 23 1 24 2 25 3 26 96 27 4 28 95 29 21 30 22 31 23 32 24 33
REMARK SMILES IDX 25 34 26 35 27 36 88 37 28 38 87 39 29 40 30 41 31 42 81 43
REMARK SMILES IDX 32 44 86 45 80 46 82 47 33 48 85 49 79 50 78 51 34 53 66 54
REMARK SMILES IDX 46 55 65 56 47 57 50 58 64 59 83 60 48 61 49 62 63 64 84 65
REMARK SMILES IDX 51 66 35 67 36 68 44 69 37 70 38 71 42 72 45 73 39 74 40 75
REMARK SMILES IDX 43 76 41 77 67 78 68 79 76 80 69 81 70 82 74 83 77 84 71 85
REMARK SMILES IDX 72 86 75 87 73 88 52 89 53 90 61 91 54 92 55 93 59 94 62 95
REMARK SMILES IDX 56 96 57 97 60 98 58 99
REMARK H PARENT 16 8 82 52 50 63
REMARK Flexibility Score: inf
ROOT
ATOM      1  O   UNL A   1      33.491  28.898  26.692  1.00  0.00    -0.461 OA
ENDROOT
BRANCH   1   2
ATOM      2  C   UNL A   1      33.146  28.310  25.512  1.00  0.00     0.325 C 
ATOM      3  O   UNL A   1      33.845  27.506  24.902  1.00  0.00    -0.250 OA
BRANCH   2   4
ATOM      4  C   UNL A   1      31.735  28.648  25.070  1.00  0.00     0.239 C 
BRANCH   4   5
ATOM      5  N   UNL A   1      31.538  29.059  23.695  1.00  0.00    -0.338 N 
ATOM      6  C   UNL A   1      30.741  28.361  22.810  1.00  0.00     0.292 C 
ATOM      7  O   UNL A   1      30.626  28.660  21.632  1.00  0.00    -0.265 OA
ATOM      8  H   UNL A   1      31.991  29.873  23.378  1.00  0.00     0.164 HD
BRANCH   6   9
ATOM      9  C   UNL A   1      30.007  27.139  23.384  1.00  0.00     0.252 C 
ATOM     10  O   UNL A   1      28.854  27.308  23.772  1.00  0.00    -0.283 OA
BRANCH   9  11
ATOM     11  C   UNL A   1      30.736  25.891  23.594  1.00  0.00     0.054 A 
ATOM     12  N   UNL A   1      32.104  24.161  23.274  1.00  0.00    -0.240 N 
ATOM     13  C   UNL A   1      31.646  25.329  22.720  1.00  0.00     0.117 A 
ATOM     14  C   UNL A   1      31.542  23.944  24.516  1.00  0.00     0.065 A 
ATOM     15  C   UNL A   1      30.665  25.017  24.734  1.00  0.00     0.012 A 
ATOM     16  C   UNL A   1      31.678  22.900  25.449  1.00  0.00     0.028 A 
ATOM     17  C   UNL A   1      29.921  25.046  25.934  1.00  0.00     0.011 A 
ATOM     18  C   UNL A   1      30.918  22.950  26.619  1.00  0.00     0.002 A 
ATOM     19  C   UNL A   1      30.054  24.010  26.863  1.00  0.00     0.001 A 
BRANCH  12  20
ATOM     20  S   UNL A   1      33.007  23.010  22.397  1.00  0.00     0.268 S 
ATOM     21  O   UNL A   1      33.430  23.673  21.188  1.00  0.00    -0.201 OA
ATOM     22  O   UNL A   1      32.171  21.815  22.368  1.00  0.00    -0.201 OA
BRANCH  20  23
ATOM     23  C   UNL A   1      34.444  22.637  23.367  1.00  0.00     0.088 A 
ATOM     24  C   UNL A   1      37.925  22.075  25.828  1.00  0.00     0.044 C 
ATOM     25  C   UNL A   1      36.720  22.251  24.952  1.00  0.00    -0.051 A 
ATOM     26  C   UNL A   1      36.683  23.285  24.007  1.00  0.00     0.005 A 
ATOM     27  C   UNL A   1      35.623  21.393  25.070  1.00  0.00     0.005 A 
ATOM     28  C   UNL A   1      35.548  23.482  23.219  1.00  0.00     0.022 A 
ATOM     29  C   UNL A   1      34.489  21.577  24.276  1.00  0.00     0.022 A 
ENDBRANCH  20  23
ENDBRANCH  12  20
ENDBRANCH   9  11
ENDBRANCH   6   9
ENDBRANCH   4   5
ENDBRANCH   2   4
ENDBRANCH   1   2
BRANCH   1  30
ATOM     30  C   UNL A   1      32.809  30.135  26.907  1.00  0.00     0.274 C 
BRANCH  30  31
ATOM     31  C   UNL A   1      33.699  31.210  27.543  1.00  0.00     0.275 C 
BRANCH  31  32
ATOM     32  O   UNL A   1      35.141  31.022  27.665  1.00  0.00    -0.458 OA
BRANCH  32  33
ATOM     33  C   UNL A   1      35.926  30.753  28.734  1.00  0.00     0.338 C 
ATOM     34  O   UNL A   1      35.713  31.264  29.825  1.00  0.00    -0.246 OA
BRANCH  33  35
ATOM     35  C   UNL A   1      37.062  29.828  28.561  1.00  0.00     0.060 A 
ATOM     36  C   UNL A   1      37.859  29.899  27.404  1.00  0.00     0.016 A 
ATOM     37  C   UNL A   1      37.393  28.952  29.581  1.00  0.00     0.016 A 
ATOM     38  C   UNL A   1      39.073  29.202  27.340  1.00  0.00     0.010 A 
ATOM     39  C   UNL A   1      38.649  28.391  29.580  1.00  0.00     0.010 A 
ATOM     40  C   UNL A   1      39.498  28.492  28.462  1.00  0.00    -0.014 A 
BRANCH  40  41
ATOM     41  C   UNL A   1      40.726  27.696  28.546  1.00  0.00     0.031 A 
ATOM     42  C   UNL A   1      40.819  26.240  28.288  1.00  0.00     0.074 A 
ATOM     43  C   UNL A   1      41.835  28.420  28.822  1.00  0.00     0.049 A 
ATOM     44  N   UNL A   1      41.773  25.493  28.733  1.00  0.00    -0.248 NA
ATOM     45  C   UNL A   1      39.852  25.485  27.495  1.00  0.00     0.031 C 
ATOM     46  C   UNL A   1      43.239  28.047  28.789  1.00  0.00     0.029 A 
ATOM     47  N   UNL A   1      41.838  29.703  29.399  1.00  0.00    -0.354 N 
ATOM     48  C   UNL A   1      41.710  24.280  28.079  1.00  0.00     0.074 A 
ATOM     49  C   UNL A   1      40.455  24.294  27.371  1.00  0.00     0.031 C 
ATOM     50  C   UNL A   1      43.916  28.889  29.595  1.00  0.00     0.029 A 
ATOM     51  C   UNL A   1      42.925  29.715  30.275  1.00  0.00     0.049 A 
ATOM     52  H   UNL A   1      41.207  30.438  29.221  1.00  0.00     0.167 HD
ATOM     53  C   UNL A   1      42.794  23.452  28.089  1.00  0.00     0.037 A 
ATOM     54  C   UNL A   1      42.691  29.749  31.620  1.00  0.00     0.037 A 
ATOM     55  C   UNL A   1      43.858  23.997  28.919  1.00  0.00     0.049 A 
ATOM     56  C   UNL A   1      43.307  28.562  32.306  1.00  0.00     0.074 A 
ATOM     57  C   UNL A   1      44.960  24.778  28.615  1.00  0.00     0.029 A 
ATOM     58  N   UNL A   1      43.668  24.095  30.294  1.00  0.00    -0.354 N 
ATOM     59  N   UNL A   1      43.418  27.382  31.759  1.00  0.00    -0.248 NA
ATOM     60  C   UNL A   1      43.892  28.638  33.637  1.00  0.00     0.031 C 
ATOM     61  C   UNL A   1      45.369  25.433  29.800  1.00  0.00     0.029 A 
ATOM     62  C   UNL A   1      44.544  25.017  30.830  1.00  0.00     0.049 A 
ATOM     63  H   UNL A   1      43.004  23.583  30.810  1.00  0.00     0.167 HD
ATOM     64  C   UNL A   1      44.148  26.581  32.593  1.00  0.00     0.074 A 
ATOM     65  C   UNL A   1      44.395  27.399  33.768  1.00  0.00     0.031 C 
ATOM     66  C   UNL A   1      44.548  25.323  32.248  1.00  0.00     0.037 A 
BRANCH  53  67
ATOM     67  C   UNL A   1      42.978  22.313  27.118  1.00  0.00     0.064 A 
ATOM     68  C   UNL A   1      42.189  21.145  27.205  1.00  0.00     0.173 A 
ATOM     69  C   UNL A   1      43.945  22.309  26.098  1.00  0.00     0.173 A 
ATOM     70  F   UNL A   1      41.207  21.028  28.108  1.00  0.00    -0.203 F 
ATOM     71  C   UNL A   1      42.395  20.034  26.381  1.00  0.00     0.198 A 
ATOM     72  C   UNL A   1      44.174  21.184  25.294  1.00  0.00     0.198 A 
ATOM     73  F   UNL A   1      44.678  23.404  25.846  1.00  0.00    -0.203 F 
ATOM     74  F   UNL A   1      41.618  18.949  26.519  1.00  0.00    -0.200 F 
ATOM     75  C   UNL A   1      43.403  20.044  25.441  1.00  0.00     0.200 A 
ATOM     76  F   UNL A   1      45.151  21.207  24.376  1.00  0.00    -0.200 F 
ATOM     77  F   UNL A   1      43.625  18.967  24.676  1.00  0.00    -0.200 F 
ENDBRANCH  53  67
BRANCH  54  78
ATOM     78  C   UNL A   1      41.387  30.386  31.998  1.00  0.00     0.064 A 
ATOM     79  C   UNL A   1      40.321  29.555  32.412  1.00  0.00     0.173 A 
ATOM     80  C   UNL A   1      41.264  31.754  32.271  1.00  0.00     0.173 A 
ATOM     81  F   UNL A   1      40.375  28.231  32.183  1.00  0.00    -0.203 F 
ATOM     82  C   UNL A   1      39.251  30.048  33.157  1.00  0.00     0.198 A 
ATOM     83  C   UNL A   1      40.176  32.250  33.000  1.00  0.00     0.198 A 
ATOM     84  F   UNL A   1      42.226  32.610  31.901  1.00  0.00    -0.203 F 
ATOM     85  F   UNL A   1      38.319  29.207  33.629  1.00  0.00    -0.200 F 
ATOM     86  C   UNL A   1      39.189  31.394  33.467  1.00  0.00     0.200 A 
ATOM     87  F   UNL A   1      40.114  33.556  33.301  1.00  0.00    -0.200 F 
ATOM     88  F   UNL A   1      38.194  31.862  34.234  1.00  0.00    -0.200 F 
ENDBRANCH  54  78
BRANCH  66  89
ATOM     89  C   UNL A   1      45.128  24.321  33.204  1.00  0.00     0.064 A 
ATOM     90  C   UNL A   1      44.458  23.145  33.574  1.00  0.00     0.173 A 
ATOM     91  C   UNL A   1      46.462  24.443  33.658  1.00  0.00     0.173 A 
ATOM     92  F   UNL A   1      43.236  22.863  33.101  1.00  0.00    -0.203 F 
ATOM     93  C   UNL A   1      45.050  22.194  34.404  1.00  0.00     0.198 A 
ATOM     94  C   UNL A   1      47.070  23.464  34.438  1.00  0.00     0.198 A 
ATOM     95  F   UNL A   1      47.222  25.500  33.335  1.00  0.00    -0.203 F 
ATOM     96  F   UNL A   1      44.353  21.111  34.771  1.00  0.00    -0.200 F 
ATOM     97  C   UNL A   1      46.358  22.349  34.827  1.00  0.00     0.200 A 
ATOM     98  F   UNL A   1      48.355  23.600  34.792  1.00  0.00    -0.200 F 
ATOM     99  F   UNL A   1      46.936  21.412  35.590  1.00  0.00    -0.200 F 
ENDBRANCH  66  89
ENDBRANCH  40  41
ENDBRANCH  33  35
ENDBRANCH  32  33
ENDBRANCH  31  32
ENDBRANCH  30  31
ENDBRANCH   1  30
TORSDOF 16
ENDMDL
