MODEL 1
REMARK VINA RESULT:     -11.6      0.000      0.000
REMARK SMILES COc1ccc([N+](=O)[O-])cc1OCC(C)(C)C(=O)OCCOC(=O)c1ccc(-c2c3nc(c(-c4c(F)c(F)c(F)c(F)c4F)c4ccc([nH]4)c(-c4c(F)c(F)c(F)c(F)c4F)c4nc(c(-c5c(F)c(F)c(F)c(F)c5F)c5ccc2[nH]5)C=C4)C=C3)cc1
REMARK SMILES IDX 20 1 19 2 17 3 18 4 14 5 15 6 16 7 13 8 12 9 11 10 3 11 4 12
REMARK SMILES IDX 5 13 10 14 6 15 2 16 1 17 7 18 8 19 9 20 21 21 22 22 23 23
REMARK SMILES IDX 24 24 25 25 26 26 87 27 27 28 86 29 28 30 29 31 30 32 80 33
REMARK SMILES IDX 31 34 85 35 79 36 81 37 32 38 84 39 78 40 77 41 33 43 65 44
REMARK SMILES IDX 45 45 64 46 46 47 49 48 63 49 82 50 47 51 48 52 62 54 83 55
REMARK SMILES IDX 50 56 34 57 35 58 43 59 36 60 37 61 41 62 44 63 38 64 39 65
REMARK SMILES IDX 42 66 40 67 66 68 67 69 75 70 68 71 69 72 73 73 76 74 70 75
REMARK SMILES IDX 71 76 74 77 72 78 51 79 52 80 60 81 53 82 54 83 58 84 61 85
REMARK SMILES IDX 55 86 56 87 59 88 57 89
REMARK H PARENT 81 42 49 53
REMARK Flexibility Score: inf
ROOT
ATOM      1  C   UNL A   1      31.916  28.340  26.371  1.00  0.00     0.274 C 
ENDROOT
BRANCH   1   2
ATOM      2  O   UNL A   1      31.682  27.663  25.121  1.00  0.00    -0.462 OA
BRANCH   2   3
ATOM      3  C   UNL A   1      32.780  27.338  24.386  1.00  0.00     0.315 C 
ATOM      4  O   UNL A   1      33.830  26.932  24.870  1.00  0.00    -0.251 OA
BRANCH   3   5
ATOM      5  C   UNL A   1      32.594  27.656  22.902  1.00  0.00     0.096 C 
ATOM      6  C   UNL A   1      32.010  26.381  22.282  1.00  0.00     0.027 C 
ATOM      7  C   UNL A   1      33.932  27.966  22.196  1.00  0.00     0.027 C 
BRANCH   5   8
ATOM      8  C   UNL A   1      31.714  28.922  22.715  1.00  0.00     0.248 C 
BRANCH   8   9
ATOM      9  O   UNL A   1      30.527  28.799  21.925  1.00  0.00    -0.488 OA
BRANCH   9  10
ATOM     10  C   UNL A   1      29.394  29.432  22.350  1.00  0.00     0.168 A 
ATOM     11  C   UNL A   1      28.306  28.822  22.991  1.00  0.00     0.161 A 
ATOM     12  C   UNL A   1      27.262  29.613  23.485  1.00  0.00     0.057 A 
ATOM     13  C   UNL A   1      27.272  30.998  23.284  1.00  0.00     0.090 A 
ATOM     14  C   UNL A   1      29.375  30.806  22.084  1.00  0.00     0.136 A 
ATOM     15  C   UNL A   1      28.311  31.581  22.548  1.00  0.00     0.273 A 
BRANCH  11  16
ATOM     16  O   UNL A   1      28.241  27.457  22.989  1.00  0.00    -0.493 OA
ATOM     17  C   UNL A   1      28.741  26.812  24.154  1.00  0.00     0.278 C 
ENDBRANCH  11  16
BRANCH  15  18
ATOM     18  N   UNL A   1      28.275  33.014  22.247  1.00  0.00     0.062 N 
ATOM     19  O   UNL A   1      27.687  33.367  21.214  1.00  0.00    -0.258 OA
ATOM     20  O   UNL A   1      28.850  33.783  23.030  1.00  0.00    -0.258 OA
ENDBRANCH  15  18
ENDBRANCH   9  10
ENDBRANCH   8   9
ENDBRANCH   5   8
ENDBRANCH   3   5
ENDBRANCH   2   3
ENDBRANCH   1   2
BRANCH   1  21
ATOM     21  C   UNL A   1      31.801  29.852  26.199  1.00  0.00     0.275 C 
BRANCH  21  22
ATOM     22  O   UNL A   1      33.109  30.443  26.090  1.00  0.00    -0.458 OA
BRANCH  22  23
ATOM     23  C   UNL A   1      33.413  31.357  27.039  1.00  0.00     0.338 C 
ATOM     24  O   UNL A   1      32.704  32.245  27.478  1.00  0.00    -0.246 OA
BRANCH  23  25
ATOM     25  C   UNL A   1      34.760  31.095  27.562  1.00  0.00     0.060 A 
ATOM     26  C   UNL A   1      35.103  29.784  27.879  1.00  0.00     0.016 A 
ATOM     27  C   UNL A   1      35.613  32.142  27.896  1.00  0.00     0.016 A 
ATOM     28  C   UNL A   1      36.244  29.515  28.626  1.00  0.00     0.010 A 
ATOM     29  C   UNL A   1      36.818  31.858  28.551  1.00  0.00     0.010 A 
ATOM     30  C   UNL A   1      37.131  30.546  28.958  1.00  0.00    -0.014 A 
BRANCH  30  31
ATOM     31  C   UNL A   1      38.355  30.265  29.762  1.00  0.00     0.031 A 
ATOM     32  C   UNL A   1      39.445  29.398  29.190  1.00  0.00     0.074 A 
ATOM     33  C   UNL A   1      38.506  30.781  30.998  1.00  0.00     0.049 A 
ATOM     34  N   UNL A   1      40.454  28.823  29.796  1.00  0.00    -0.248 NA
ATOM     35  C   UNL A   1      39.382  29.127  27.745  1.00  0.00     0.031 C 
ATOM     36  C   UNL A   1      37.573  31.694  31.662  1.00  0.00     0.029 A 
ATOM     37  N   UNL A   1      39.509  30.608  31.923  1.00  0.00    -0.354 N 
ATOM     38  C   UNL A   1      41.093  28.061  28.827  1.00  0.00     0.074 A 
ATOM     39  C   UNL A   1      40.372  28.260  27.588  1.00  0.00     0.031 C 
ATOM     40  C   UNL A   1      38.060  32.025  32.867  1.00  0.00     0.029 A 
ATOM     41  C   UNL A   1      39.284  31.269  33.106  1.00  0.00     0.049 A 
ATOM     42  H   UNL A   1      40.310  30.062  31.754  1.00  0.00     0.167 HD
ATOM     43  C   UNL A   1      42.175  27.258  28.967  1.00  0.00     0.037 A 
ATOM     44  C   UNL A   1      39.951  31.229  34.275  1.00  0.00     0.037 A 
ATOM     45  C   UNL A   1      42.938  27.130  30.181  1.00  0.00     0.049 A 
ATOM     46  C   UNL A   1      41.143  30.323  34.409  1.00  0.00     0.074 A 
ATOM     47  C   UNL A   1      44.069  26.365  30.414  1.00  0.00     0.029 A 
ATOM     48  N   UNL A   1      42.663  27.805  31.360  1.00  0.00    -0.354 N 
ATOM     49  N   UNL A   1      41.693  29.540  33.514  1.00  0.00    -0.248 NA
ATOM     50  C   UNL A   1      41.789  30.273  35.729  1.00  0.00     0.031 C 
ATOM     51  C   UNL A   1      44.459  26.555  31.744  1.00  0.00     0.029 A 
ATOM     52  C   UNL A   1      43.595  27.467  32.327  1.00  0.00     0.049 A 
ATOM     53  H   UNL A   1      41.915  28.432  31.491  1.00  0.00     0.167 HD
ATOM     54  C   UNL A   1      42.751  28.913  34.156  1.00  0.00     0.074 A 
ATOM     55  C   UNL A   1      42.781  29.422  35.511  1.00  0.00     0.031 C 
ATOM     56  C   UNL A   1      43.614  27.990  33.668  1.00  0.00     0.037 A 
BRANCH  43  57
ATOM     57  C   UNL A   1      42.578  26.416  27.793  1.00  0.00     0.064 A 
ATOM     58  C   UNL A   1      41.976  25.182  27.515  1.00  0.00     0.173 A 
ATOM     59  C   UNL A   1      43.556  26.886  26.902  1.00  0.00     0.173 A 
ATOM     60  F   UNL A   1      41.047  24.682  28.342  1.00  0.00    -0.203 F 
ATOM     61  C   UNL A   1      42.353  24.439  26.397  1.00  0.00     0.198 A 
ATOM     62  C   UNL A   1      43.911  26.154  25.772  1.00  0.00     0.198 A 
ATOM     63  F   UNL A   1      44.159  28.065  27.120  1.00  0.00    -0.203 F 
ATOM     64  F   UNL A   1      41.791  23.243  26.169  1.00  0.00    -0.200 F 
ATOM     65  C   UNL A   1      43.313  24.929  25.523  1.00  0.00     0.200 A 
ATOM     66  F   UNL A   1      44.830  26.635  24.924  1.00  0.00    -0.200 F 
ATOM     67  F   UNL A   1      43.665  24.217  24.443  1.00  0.00    -0.200 F 
ENDBRANCH  43  57
BRANCH  44  68
ATOM     68  C   UNL A   1      39.467  32.025  35.433  1.00  0.00     0.064 A 
ATOM     69  C   UNL A   1      38.559  31.483  36.353  1.00  0.00     0.173 A 
ATOM     70  C   UNL A   1      39.896  33.346  35.639  1.00  0.00     0.173 A 
ATOM     71  F   UNL A   1      38.095  30.237  36.180  1.00  0.00    -0.203 F 
ATOM     72  C   UNL A   1      38.090  32.236  37.427  1.00  0.00     0.198 A 
ATOM     73  C   UNL A   1      39.451  34.086  36.732  1.00  0.00     0.198 A 
ATOM     74  F   UNL A   1      40.758  33.914  34.783  1.00  0.00    -0.203 F 
ATOM     75  F   UNL A   1      37.186  31.710  38.265  1.00  0.00    -0.200 F 
ATOM     76  C   UNL A   1      38.543  33.533  37.621  1.00  0.00     0.200 A 
ATOM     77  F   UNL A   1      39.898  35.335  36.918  1.00  0.00    -0.200 F 
ATOM     78  F   UNL A   1      38.092  34.254  38.656  1.00  0.00    -0.200 F 
ENDBRANCH  44  68
BRANCH  56  79
ATOM     79  C   UNL A   1      44.681  27.496  34.598  1.00  0.00     0.064 A 
ATOM     80  C   UNL A   1      44.492  26.352  35.386  1.00  0.00     0.173 A 
ATOM     81  C   UNL A   1      45.914  28.158  34.679  1.00  0.00     0.173 A 
ATOM     82  F   UNL A   1      43.322  25.696  35.356  1.00  0.00    -0.203 F 
ATOM     83  C   UNL A   1      45.495  25.901  36.241  1.00  0.00     0.198 A 
ATOM     84  C   UNL A   1      46.922  27.691  35.516  1.00  0.00     0.198 A 
ATOM     85  F   UNL A   1      46.142  29.254  33.940  1.00  0.00    -0.203 F 
ATOM     86  F   UNL A   1      45.279  24.830  37.018  1.00  0.00    -0.200 F 
ATOM     87  C   UNL A   1      46.710  26.567  36.301  1.00  0.00     0.200 A 
ATOM     88  F   UNL A   1      48.100  28.329  35.566  1.00  0.00    -0.200 F 
ATOM     89  F   UNL A   1      47.675  26.130  37.121  1.00  0.00    -0.200 F 
ENDBRANCH  56  79
ENDBRANCH  30  31
ENDBRANCH  23  25
ENDBRANCH  22  23
ENDBRANCH  21  22
ENDBRANCH   1  21
TORSDOF 16
ENDMDL
MODEL 2
REMARK VINA RESULT:     -11.4      0.385      1.689
REMARK SMILES COc1ccc([N+](=O)[O-])cc1OCC(C)(C)C(=O)OCCOC(=O)c1ccc(-c2c3nc(c(-c4c(F)c(F)c(F)c(F)c4F)c4ccc([nH]4)c(-c4c(F)c(F)c(F)c(F)c4F)c4nc(c(-c5c(F)c(F)c(F)c(F)c5F)c5ccc2[nH]5)C=C4)C=C3)cc1
REMARK SMILES IDX 20 1 19 2 17 3 18 4 14 5 15 6 16 7 13 8 12 9 11 10 3 11 4 12
REMARK SMILES IDX 5 13 10 14 6 15 2 16 1 17 7 18 8 19 9 20 21 21 22 22 23 23
REMARK SMILES IDX 24 24 25 25 26 26 87 27 27 28 86 29 28 30 29 31 30 32 80 33
REMARK SMILES IDX 31 34 85 35 79 36 81 37 32 38 84 39 78 40 77 41 33 43 65 44
REMARK SMILES IDX 45 45 64 46 46 47 49 48 63 49 82 50 47 51 48 52 62 54 83 55
REMARK SMILES IDX 50 56 34 57 35 58 43 59 36 60 37 61 41 62 44 63 38 64 39 65
REMARK SMILES IDX 42 66 40 67 66 68 67 69 75 70 68 71 69 72 73 73 76 74 70 75
REMARK SMILES IDX 71 76 74 77 72 78 51 79 52 80 60 81 53 82 54 83 58 84 61 85
REMARK SMILES IDX 55 86 56 87 59 88 57 89
REMARK H PARENT 81 42 49 53
REMARK Flexibility Score: inf
ROOT
ATOM      1  C   UNL A   1      31.670  28.688  25.783  1.00  0.00     0.274 C 
ENDROOT
BRANCH   1   2
ATOM      2  O   UNL A   1      32.786  28.103  25.086  1.00  0.00    -0.462 OA
BRANCH   2   3
ATOM      3  C   UNL A   1      32.499  27.144  24.164  1.00  0.00     0.315 C 
ATOM      4  O   UNL A   1      32.258  25.977  24.446  1.00  0.00    -0.251 OA
BRANCH   3   5
ATOM      5  C   UNL A   1      32.635  27.664  22.732  1.00  0.00     0.096 C 
ATOM      6  C   UNL A   1      32.348  26.457  21.831  1.00  0.00     0.027 C 
ATOM      7  C   UNL A   1      34.061  28.168  22.424  1.00  0.00     0.027 C 
BRANCH   5   8
ATOM      8  C   UNL A   1      31.696  28.879  22.495  1.00  0.00     0.248 C 
BRANCH   8   9
ATOM      9  O   UNL A   1      30.417  28.629  21.905  1.00  0.00    -0.488 OA
BRANCH   9  10
ATOM     10  C   UNL A   1      29.338  29.325  22.371  1.00  0.00     0.168 A 
ATOM     11  C   UNL A   1      28.252  28.780  23.072  1.00  0.00     0.161 A 
ATOM     12  C   UNL A   1      27.273  29.630  23.600  1.00  0.00     0.057 A 
ATOM     13  C   UNL A   1      27.344  31.010  23.377  1.00  0.00     0.090 A 
ATOM     14  C   UNL A   1      29.375  30.694  22.084  1.00  0.00     0.136 A 
ATOM     15  C   UNL A   1      28.374  31.529  22.584  1.00  0.00     0.273 A 
BRANCH  11  16
ATOM     16  O   UNL A   1      28.118  27.419  23.096  1.00  0.00    -0.493 OA
ATOM     17  C   UNL A   1      28.851  26.744  24.110  1.00  0.00     0.278 C 
ENDBRANCH  11  16
BRANCH  15  18
ATOM     18  N   UNL A   1      28.397  32.957  22.261  1.00  0.00     0.062 N 
ATOM     19  O   UNL A   1      29.042  33.703  23.013  1.00  0.00    -0.258 OA
ATOM     20  O   UNL A   1      27.755  33.334  21.271  1.00  0.00    -0.258 OA
ENDBRANCH  15  18
ENDBRANCH   9  10
ENDBRANCH   8   9
ENDBRANCH   5   8
ENDBRANCH   3   5
ENDBRANCH   2   3
ENDBRANCH   1   2
BRANCH   1  21
ATOM     21  C   UNL A   1      31.870  30.190  25.962  1.00  0.00     0.275 C 
BRANCH  21  22
ATOM     22  O   UNL A   1      32.476  30.465  27.238  1.00  0.00    -0.458 OA
BRANCH  22  23
ATOM     23  C   UNL A   1      33.198  31.605  27.304  1.00  0.00     0.338 C 
ATOM     24  O   UNL A   1      32.828  32.741  27.064  1.00  0.00    -0.246 OA
BRANCH  23  25
ATOM     25  C   UNL A   1      34.548  31.306  27.799  1.00  0.00     0.060 A 
ATOM     26  C   UNL A   1      34.841  29.998  28.171  1.00  0.00     0.016 A 
ATOM     27  C   UNL A   1      35.459  32.327  28.052  1.00  0.00     0.016 A 
ATOM     28  C   UNL A   1      35.993  29.713  28.896  1.00  0.00     0.010 A 
ATOM     29  C   UNL A   1      36.671  32.019  28.684  1.00  0.00     0.010 A 
ATOM     30  C   UNL A   1      36.936  30.716  29.147  1.00  0.00    -0.014 A 
BRANCH  30  31
ATOM     31  C   UNL A   1      38.172  30.417  29.927  1.00  0.00     0.031 A 
ATOM     32  C   UNL A   1      39.245  29.549  29.326  1.00  0.00     0.074 A 
ATOM     33  C   UNL A   1      38.348  30.918  31.166  1.00  0.00     0.049 A 
ATOM     34  N   UNL A   1      40.261  28.960  29.908  1.00  0.00    -0.248 NA
ATOM     35  C   UNL A   1      39.156  29.295  27.880  1.00  0.00     0.031 C 
ATOM     36  C   UNL A   1      37.433  31.830  31.855  1.00  0.00     0.029 A 
ATOM     37  N   UNL A   1      39.366  30.728  32.071  1.00  0.00    -0.354 N 
ATOM     38  C   UNL A   1      40.877  28.205  28.919  1.00  0.00     0.074 A 
ATOM     39  C   UNL A   1      40.137  28.423  27.695  1.00  0.00     0.031 C 
ATOM     40  C   UNL A   1      37.943  32.144  33.056  1.00  0.00     0.029 A 
ATOM     41  C   UNL A   1      39.166  31.377  33.265  1.00  0.00     0.049 A 
ATOM     42  H   UNL A   1      40.160  30.178  31.881  1.00  0.00     0.167 HD
ATOM     43  C   UNL A   1      41.956  27.393  29.031  1.00  0.00     0.037 A 
ATOM     44  C   UNL A   1      39.854  31.319  34.421  1.00  0.00     0.037 A 
ATOM     45  C   UNL A   1      42.739  27.246  30.230  1.00  0.00     0.049 A 
ATOM     46  C   UNL A   1      41.041  30.403  34.525  1.00  0.00     0.074 A 
ATOM     47  C   UNL A   1      43.869  26.470  30.435  1.00  0.00     0.029 A 
ATOM     48  N   UNL A   1      42.489  27.909  31.421  1.00  0.00    -0.354 N 
ATOM     49  N   UNL A   1      41.570  29.627  33.611  1.00  0.00    -0.248 NA
ATOM     50  C   UNL A   1      41.709  30.334  35.833  1.00  0.00     0.031 C 
ATOM     51  C   UNL A   1      44.283  26.643  31.760  1.00  0.00     0.029 A 
ATOM     52  C   UNL A   1      43.436  27.554  32.368  1.00  0.00     0.049 A 
ATOM     53  H   UNL A   1      41.749  28.540  31.573  1.00  0.00     0.167 HD
ATOM     54  C   UNL A   1      42.634  28.985  34.227  1.00  0.00     0.074 A 
ATOM     55  C   UNL A   1      42.691  29.478  35.587  1.00  0.00     0.031 C 
ATOM     56  C   UNL A   1      43.482  28.061  33.714  1.00  0.00     0.037 A 
BRANCH  43  57
ATOM     57  C   UNL A   1      42.333  26.561  27.841  1.00  0.00     0.064 A 
ATOM     58  C   UNL A   1      41.726  25.329  27.566  1.00  0.00     0.173 A 
ATOM     59  C   UNL A   1      43.290  27.040  26.932  1.00  0.00     0.173 A 
ATOM     60  F   UNL A   1      40.817  24.822  28.410  1.00  0.00    -0.203 F 
ATOM     61  C   UNL A   1      42.077  24.597  26.434  1.00  0.00     0.198 A 
ATOM     62  C   UNL A   1      43.619  26.318  25.788  1.00  0.00     0.198 A 
ATOM     63  F   UNL A   1      43.896  28.218  27.146  1.00  0.00    -0.203 F 
ATOM     64  F   UNL A   1      41.511  23.402  26.209  1.00  0.00    -0.200 F 
ATOM     65  C   UNL A   1      43.016  25.095  25.542  1.00  0.00     0.200 A 
ATOM     66  F   UNL A   1      44.518  26.807  24.923  1.00  0.00    -0.200 F 
ATOM     67  F   UNL A   1      43.344  24.393  24.449  1.00  0.00    -0.200 F 
ENDBRANCH  43  57
BRANCH  44  68
ATOM     68  C   UNL A   1      39.395  32.105  35.596  1.00  0.00     0.064 A 
ATOM     69  C   UNL A   1      39.858  33.409  35.819  1.00  0.00     0.173 A 
ATOM     70  C   UNL A   1      38.489  31.566  36.524  1.00  0.00     0.173 A 
ATOM     71  F   UNL A   1      40.748  33.955  34.979  1.00  0.00    -0.203 F 
ATOM     72  C   UNL A   1      39.443  34.139  36.931  1.00  0.00     0.198 A 
ATOM     73  C   UNL A   1      38.050  32.309  37.617  1.00  0.00     0.198 A 
ATOM     74  F   UNL A   1      38.022  30.320  36.361  1.00  0.00    -0.203 F 
ATOM     75  F   UNL A   1      39.938  35.365  37.146  1.00  0.00    -0.200 F 
ATOM     76  C   UNL A   1      38.533  33.592  37.824  1.00  0.00     0.200 A 
ATOM     77  F   UNL A   1      37.165  31.779  38.472  1.00  0.00    -0.200 F 
ATOM     78  F   UNL A   1      38.133  34.296  38.891  1.00  0.00    -0.200 F 
ENDBRANCH  44  68
BRANCH  56  79
ATOM     79  C   UNL A   1      44.561  27.550  34.620  1.00  0.00     0.064 A 
ATOM     80  C   UNL A   1      45.791  28.211  34.740  1.00  0.00     0.173 A 
ATOM     81  C   UNL A   1      44.350  26.402  35.398  1.00  0.00     0.173 A 
ATOM     82  F   UNL A   1      46.045  29.303  34.003  1.00  0.00    -0.203 F 
ATOM     83  C   UNL A   1      46.781  27.728  35.592  1.00  0.00     0.198 A 
ATOM     84  C   UNL A   1      45.332  25.936  36.266  1.00  0.00     0.198 A 
ATOM     85  F   UNL A   1      43.186  25.738  35.321  1.00  0.00    -0.203 F 
ATOM     86  F   UNL A   1      47.967  28.351  35.660  1.00  0.00    -0.200 F 
ATOM     87  C   UNL A   1      46.549  26.596  36.357  1.00  0.00     0.200 A 
ATOM     88  F   UNL A   1      45.103  24.847  37.012  1.00  0.00    -0.200 F 
ATOM     89  F   UNL A   1      47.502  26.134  37.179  1.00  0.00    -0.200 F 
ENDBRANCH  56  79
ENDBRANCH  30  31
ENDBRANCH  23  25
ENDBRANCH  22  23
ENDBRANCH  21  22
ENDBRANCH   1  21
TORSDOF 16
ENDMDL
MODEL 3
REMARK VINA RESULT:     -11.3      2.416      4.835
REMARK SMILES COc1ccc([N+](=O)[O-])cc1OCC(C)(C)C(=O)OCCOC(=O)c1ccc(-c2c3nc(c(-c4c(F)c(F)c(F)c(F)c4F)c4ccc([nH]4)c(-c4c(F)c(F)c(F)c(F)c4F)c4nc(c(-c5c(F)c(F)c(F)c(F)c5F)c5ccc2[nH]5)C=C4)C=C3)cc1
REMARK SMILES IDX 20 1 19 2 17 3 18 4 14 5 15 6 16 7 13 8 12 9 11 10 3 11 4 12
REMARK SMILES IDX 5 13 10 14 6 15 2 16 1 17 7 18 8 19 9 20 21 21 22 22 23 23
REMARK SMILES IDX 24 24 25 25 26 26 87 27 27 28 86 29 28 30 29 31 30 32 80 33
REMARK SMILES IDX 31 34 85 35 79 36 81 37 32 38 84 39 78 40 77 41 33 43 65 44
REMARK SMILES IDX 45 45 64 46 46 47 49 48 63 49 82 50 47 51 48 52 62 54 83 55
REMARK SMILES IDX 50 56 34 57 35 58 43 59 36 60 37 61 41 62 44 63 38 64 39 65
REMARK SMILES IDX 42 66 40 67 66 68 67 69 75 70 68 71 69 72 73 73 76 74 70 75
REMARK SMILES IDX 71 76 74 77 72 78 51 79 52 80 60 81 53 82 54 83 58 84 61 85
REMARK SMILES IDX 55 86 56 87 59 88 57 89
REMARK H PARENT 81 42 49 53
REMARK Flexibility Score: inf
ROOT
ATOM      1  C   UNL A   1      31.272  28.728  24.821  1.00  0.00     0.274 C 
ENDROOT
BRANCH   1   2
ATOM      2  O   UNL A   1      32.144  27.674  25.273  1.00  0.00    -0.462 OA
BRANCH   2   3
ATOM      3  C   UNL A   1      31.582  26.701  26.040  1.00  0.00     0.315 C 
ATOM      4  O   UNL A   1      30.913  26.924  27.042  1.00  0.00    -0.251 OA
BRANCH   3   5
ATOM      5  C   UNL A   1      31.988  25.300  25.581  1.00  0.00     0.096 C 
ATOM      6  C   UNL A   1      31.025  24.951  24.440  1.00  0.00     0.027 C 
ATOM      7  C   UNL A   1      31.819  24.245  26.696  1.00  0.00     0.027 C 
BRANCH   5   8
ATOM      8  C   UNL A   1      33.491  25.263  25.188  1.00  0.00     0.248 C 
BRANCH   8   9
ATOM      9  O   UNL A   1      33.899  24.306  24.204  1.00  0.00    -0.488 OA
BRANCH   9  10
ATOM     10  C   UNL A   1      34.614  23.217  24.614  1.00  0.00     0.168 A 
ATOM     11  C   UNL A   1      34.153  21.892  24.627  1.00  0.00     0.161 A 
ATOM     12  C   UNL A   1      35.036  20.856  24.955  1.00  0.00     0.057 A 
ATOM     13  C   UNL A   1      36.353  21.145  25.329  1.00  0.00     0.090 A 
ATOM     14  C   UNL A   1      35.907  23.517  25.056  1.00  0.00     0.136 A 
ATOM     15  C   UNL A   1      36.768  22.479  25.417  1.00  0.00     0.273 A 
BRANCH  11  16
ATOM     16  O   UNL A   1      32.815  21.674  24.450  1.00  0.00    -0.493 OA
ATOM     17  C   UNL A   1      32.457  20.381  23.979  1.00  0.00     0.278 C 
ENDBRANCH  11  16
BRANCH  15  18
ATOM     18  N   UNL A   1      38.113  22.793  25.906  1.00  0.00     0.062 N 
ATOM     19  O   UNL A   1      38.953  21.881  25.894  1.00  0.00    -0.258 OA
ATOM     20  O   UNL A   1      38.323  23.942  26.318  1.00  0.00    -0.258 OA
ENDBRANCH  15  18
ENDBRANCH   9  10
ENDBRANCH   8   9
ENDBRANCH   5   8
ENDBRANCH   3   5
ENDBRANCH   2   3
ENDBRANCH   1   2
BRANCH   1  21
ATOM     21  C   UNL A   1      31.576  30.034  25.550  1.00  0.00     0.275 C 
BRANCH  21  22
ATOM     22  O   UNL A   1      32.909  30.005  26.091  1.00  0.00    -0.458 OA
BRANCH  22  23
ATOM     23  C   UNL A   1      33.222  31.028  26.917  1.00  0.00     0.338 C 
ATOM     24  O   UNL A   1      32.509  31.951  27.270  1.00  0.00    -0.246 OA
BRANCH  23  25
ATOM     25  C   UNL A   1      34.587  30.848  27.430  1.00  0.00     0.060 A 
ATOM     26  C   UNL A   1      35.039  29.553  27.666  1.00  0.00     0.016 A 
ATOM     27  C   UNL A   1      35.349  31.940  27.832  1.00  0.00     0.016 A 
ATOM     28  C   UNL A   1      36.199  29.336  28.401  1.00  0.00     0.010 A 
ATOM     29  C   UNL A   1      36.573  31.719  28.475  1.00  0.00     0.010 A 
ATOM     30  C   UNL A   1      36.996  30.415  28.801  1.00  0.00    -0.014 A 
BRANCH  30  31
ATOM     31  C   UNL A   1      38.240  30.189  29.592  1.00  0.00     0.031 A 
ATOM     32  C   UNL A   1      39.343  29.336  29.025  1.00  0.00     0.074 A 
ATOM     33  C   UNL A   1      38.396  30.741  30.811  1.00  0.00     0.049 A 
ATOM     34  N   UNL A   1      40.377  28.805  29.629  1.00  0.00    -0.248 NA
ATOM     35  C   UNL A   1      39.266  29.025  27.589  1.00  0.00     0.031 C 
ATOM     36  C   UNL A   1      37.449  31.646  31.466  1.00  0.00     0.029 A 
ATOM     37  N   UNL A   1      39.418  30.620  31.724  1.00  0.00    -0.354 N 
ATOM     38  C   UNL A   1      41.022  28.035  28.670  1.00  0.00     0.074 A 
ATOM     39  C   UNL A   1      40.277  28.181  27.438  1.00  0.00     0.031 C 
ATOM     40  C   UNL A   1      37.945  32.022  32.654  1.00  0.00     0.029 A 
ATOM     41  C   UNL A   1      39.193  31.306  32.893  1.00  0.00     0.049 A 
ATOM     42  H   UNL A   1      40.231  30.091  31.556  1.00  0.00     0.167 HD
ATOM     43  C   UNL A   1      42.127  27.265  28.813  1.00  0.00     0.037 A 
ATOM     44  C   UNL A   1      39.880  31.315  34.051  1.00  0.00     0.037 A 
ATOM     45  C   UNL A   1      42.913  27.190  30.017  1.00  0.00     0.049 A 
ATOM     46  C   UNL A   1      41.098  30.445  34.190  1.00  0.00     0.074 A 
ATOM     47  C   UNL A   1      44.068  26.462  30.252  1.00  0.00     0.029 A 
ATOM     48  N   UNL A   1      42.638  27.888  31.183  1.00  0.00    -0.354 N 
ATOM     49  N   UNL A   1      41.655  29.654  33.306  1.00  0.00    -0.248 NA
ATOM     50  C   UNL A   1      41.765  30.448  35.499  1.00  0.00     0.031 C 
ATOM     51  C   UNL A   1      44.473  26.698  31.570  1.00  0.00     0.029 A 
ATOM     52  C   UNL A   1      43.594  27.602  32.143  1.00  0.00     0.049 A 
ATOM     53  H   UNL A   1      41.875  28.499  31.310  1.00  0.00     0.167 HD
ATOM     54  C   UNL A   1      42.739  29.073  33.946  1.00  0.00     0.074 A 
ATOM     55  C   UNL A   1      42.776  29.618  35.287  1.00  0.00     0.031 C 
ATOM     56  C   UNL A   1      43.620  28.160  33.469  1.00  0.00     0.037 A 
BRANCH  43  57
ATOM     57  C   UNL A   1      42.535  26.403  27.655  1.00  0.00     0.064 A 
ATOM     58  C   UNL A   1      43.524  26.794  26.742  1.00  0.00     0.173 A 
ATOM     59  C   UNL A   1      41.951  25.136  27.491  1.00  0.00     0.173 A 
ATOM     60  F   UNL A   1      44.101  27.999  26.847  1.00  0.00    -0.203 F 
ATOM     61  C   UNL A   1      43.901  25.954  25.696  1.00  0.00     0.198 A 
ATOM     62  C   UNL A   1      42.349  24.290  26.460  1.00  0.00     0.198 A 
ATOM     63  F   UNL A   1      41.004  24.713  28.341  1.00  0.00    -0.203 F 
ATOM     64  F   UNL A   1      44.823  26.362  24.812  1.00  0.00    -0.200 F 
ATOM     65  C   UNL A   1      43.320  24.701  25.560  1.00  0.00     0.200 A 
ATOM     66  F   UNL A   1      41.795  23.076  26.338  1.00  0.00    -0.200 F 
ATOM     67  F   UNL A   1      43.693  23.892  24.559  1.00  0.00    -0.200 F 
ENDBRANCH  43  57
BRANCH  44  68
ATOM     68  C   UNL A   1      39.392  32.128  35.195  1.00  0.00     0.064 A 
ATOM     69  C   UNL A   1      39.788  33.463  35.354  1.00  0.00     0.173 A 
ATOM     70  C   UNL A   1      38.525  31.585  36.157  1.00  0.00     0.173 A 
ATOM     71  F   UNL A   1      40.640  34.016  34.480  1.00  0.00    -0.203 F 
ATOM     72  C   UNL A   1      39.346  34.219  36.438  1.00  0.00     0.198 A 
ATOM     73  C   UNL A   1      38.058  32.352  37.221  1.00  0.00     0.198 A 
ATOM     74  F   UNL A   1      38.123  30.310  36.055  1.00  0.00    -0.203 F 
ATOM     75  F   UNL A   1      39.777  35.478  36.592  1.00  0.00    -0.200 F 
ATOM     76  C   UNL A   1      38.475  33.667  37.365  1.00  0.00     0.200 A 
ATOM     77  F   UNL A   1      37.211  31.816  38.109  1.00  0.00    -0.200 F 
ATOM     78  F   UNL A   1      38.048  34.396  38.405  1.00  0.00    -0.200 F 
ENDBRANCH  44  68
BRANCH  56  79
ATOM     79  C   UNL A   1      44.714  27.720  34.394  1.00  0.00     0.064 A 
ATOM     80  C   UNL A   1      45.929  28.414  34.473  1.00  0.00     0.173 A 
ATOM     81  C   UNL A   1      44.531  26.610  35.232  1.00  0.00     0.173 A 
ATOM     82  F   UNL A   1      46.156  29.470  33.678  1.00  0.00    -0.203 F 
ATOM     83  C   UNL A   1      46.934  27.997  35.343  1.00  0.00     0.198 A 
ATOM     84  C   UNL A   1      45.527  26.212  36.117  1.00  0.00     0.198 A 
ATOM     85  F   UNL A   1      43.382  25.918  35.196  1.00  0.00    -0.203 F 
ATOM     86  F   UNL A   1      48.105  28.648  35.372  1.00  0.00    -0.200 F 
ATOM     87  C   UNL A   1      46.730  26.901  36.168  1.00  0.00     0.200 A 
ATOM     88  F   UNL A   1      45.326  25.158  36.921  1.00  0.00    -0.200 F 
ATOM     89  F   UNL A   1      47.696  26.504  37.007  1.00  0.00    -0.200 F 
ENDBRANCH  56  79
ENDBRANCH  30  31
ENDBRANCH  23  25
ENDBRANCH  22  23
ENDBRANCH  21  22
ENDBRANCH   1  21
TORSDOF 16
ENDMDL
