MODEL 1
REMARK VINA RESULT:     -14.1      0.000      0.000
REMARK SMILES Cc1ccc(-c2cc([C@@H](C)C(=O)OCCOC(=O)c3ccc(-c4c5nc(c(-c6c(F)c(F)c(F)c(F)c6F)c6ccc([nH]6)c(-c6c(F)c(F)c(F)c(F)c6F)c6nc(c(-c7c(F)c(F)c(F)c(F)c7F)c7ccc4[nH]7)C=C6)C=C5)cc3)ccc2C[C@H]2CCCC2=O)cc1
REMARK SMILES IDX 14 1 13 2 11 3 12 4 9 5 10 6 8 7 6 8 7 9 84 10 83 11 82 12
REMARK SMILES IDX 5 13 1 14 2 15 3 16 93 17 4 18 92 19 85 20 86 21 87 22 90 23
REMARK SMILES IDX 88 24 89 25 91 26 15 27 16 28 17 29 18 30 19 31 20 32 81 33
REMARK SMILES IDX 21 34 80 35 22 36 23 37 24 38 74 39 25 40 79 41 73 42 75 43
REMARK SMILES IDX 26 44 78 45 72 46 71 47 27 49 59 50 39 51 58 52 40 53 43 54
REMARK SMILES IDX 57 55 76 56 41 57 42 58 56 60 77 61 44 62 28 63 29 64 37 65
REMARK SMILES IDX 30 66 31 67 35 68 38 69 32 70 33 71 36 72 34 73 60 74 61 75
REMARK SMILES IDX 69 76 62 77 63 78 67 79 70 80 64 81 65 82 68 83 66 84 45 85
REMARK SMILES IDX 46 86 54 87 47 88 48 89 52 90 55 91 49 92 50 93 53 94 51 95
REMARK H PARENT 75 48 43 59
REMARK Flexibility Score: inf
ROOT
ATOM      1  C   UNL A   1      32.140  29.133  27.258  1.00  0.00     0.274 C 
ENDROOT
BRANCH   1   2
ATOM      2  O   UNL A   1      32.420  27.875  26.649  1.00  0.00    -0.462 OA
BRANCH   2   3
ATOM      3  C   UNL A   1      31.770  27.647  25.466  1.00  0.00     0.313 C 
ATOM      4  O   UNL A   1      30.688  27.085  25.380  1.00  0.00    -0.252 OA
BRANCH   3   5
ATOM      5  C   UNL A   1      32.651  28.101  24.290  1.00  0.00     0.126 C 
ATOM      6  C   UNL A   1      32.014  29.117  23.347  1.00  0.00     0.025 C 
BRANCH   5   7
ATOM      7  C   UNL A   1      33.059  26.852  23.556  1.00  0.00    -0.033 A 
ATOM      8  C   UNL A   1      34.153  24.688  23.629  1.00  0.00    -0.015 A 
ATOM      9  C   UNL A   1      33.997  25.986  24.124  1.00  0.00     0.013 A 
ATOM     10  C   UNL A   1      33.277  24.252  22.608  1.00  0.00    -0.039 A 
ATOM     11  C   UNL A   1      32.462  25.184  21.944  1.00  0.00     0.004 A 
ATOM     12  C   UNL A   1      32.362  26.480  22.405  1.00  0.00     0.005 A 
BRANCH   8  13
ATOM     13  C   UNL A   1      35.270  23.870  24.118  1.00  0.00    -0.018 A 
ATOM     14  C   UNL A   1      38.588  21.632  25.741  1.00  0.00     0.044 C 
ATOM     15  C   UNL A   1      37.414  22.370  25.171  1.00  0.00    -0.051 A 
ATOM     16  C   UNL A   1      36.685  23.231  25.995  1.00  0.00     0.004 A 
ATOM     17  C   UNL A   1      37.040  22.231  23.829  1.00  0.00     0.004 A 
ATOM     18  C   UNL A   1      35.623  23.963  25.474  1.00  0.00     0.009 A 
ATOM     19  C   UNL A   1      35.971  22.970  23.306  1.00  0.00     0.009 A 
ENDBRANCH   8  13
BRANCH  10  20
ATOM     20  C   UNL A   1      33.096  22.794  22.242  1.00  0.00     0.047 C 
BRANCH  20  21
ATOM     21  C   UNL A   1      32.199  21.986  23.199  1.00  0.00     0.060 C 
ATOM     22  C   UNL A   1      32.888  20.905  24.036  1.00  0.00     0.012 C 
ATOM     23  C   UNL A   1      31.520  22.823  24.263  1.00  0.00     0.136 C 
ATOM     24  C   UNL A   1      33.083  21.480  25.432  1.00  0.00     0.009 C 
ATOM     25  C   UNL A   1      31.927  22.440  25.660  1.00  0.00     0.076 C 
ATOM     26  O   UNL A   1      30.708  23.710  24.022  1.00  0.00    -0.299 OA
ENDBRANCH  20  21
ENDBRANCH  10  20
ENDBRANCH   5   7
ENDBRANCH   3   5
ENDBRANCH   2   3
ENDBRANCH   1   2
BRANCH   1  27
ATOM     27  C   UNL A   1      33.266  30.148  27.007  1.00  0.00     0.275 C 
BRANCH  27  28
ATOM     28  O   UNL A   1      34.647  29.862  27.394  1.00  0.00    -0.458 OA
BRANCH  28  29
ATOM     29  C   UNL A   1      35.622  30.698  27.853  1.00  0.00     0.338 C 
ATOM     30  O   UNL A   1      35.471  31.893  27.920  1.00  0.00    -0.246 OA
BRANCH  29  31
ATOM     31  C   UNL A   1      36.896  30.066  28.261  1.00  0.00     0.060 A 
ATOM     32  C   UNL A   1      36.980  29.373  29.483  1.00  0.00     0.016 A 
ATOM     33  C   UNL A   1      37.943  30.033  27.357  1.00  0.00     0.016 A 
ATOM     34  C   UNL A   1      38.054  28.510  29.726  1.00  0.00     0.010 A 
ATOM     35  C   UNL A   1      38.904  29.069  27.519  1.00  0.00     0.010 A 
ATOM     36  C   UNL A   1      38.990  28.326  28.712  1.00  0.00    -0.014 A 
BRANCH  36  37
ATOM     37  C   UNL A   1      40.252  27.604  28.829  1.00  0.00     0.031 A 
ATOM     38  C   UNL A   1      40.449  26.176  28.522  1.00  0.00     0.074 A 
ATOM     39  C   UNL A   1      41.289  28.454  28.993  1.00  0.00     0.049 A 
ATOM     40  N   UNL A   1      41.549  25.543  28.742  1.00  0.00    -0.248 NA
ATOM     41  C   UNL A   1      39.440  25.314  27.938  1.00  0.00     0.031 C 
ATOM     42  C   UNL A   1      42.712  28.275  28.789  1.00  0.00     0.029 A 
ATOM     43  N   UNL A   1      41.186  29.751  29.529  1.00  0.00    -0.354 N 
ATOM     44  C   UNL A   1      41.492  24.322  28.095  1.00  0.00     0.074 A 
ATOM     45  C   UNL A   1      40.124  24.197  27.671  1.00  0.00     0.031 C 
ATOM     46  C   UNL A   1      43.355  29.228  29.493  1.00  0.00     0.029 A 
ATOM     47  C   UNL A   1      42.352  29.932  30.284  1.00  0.00     0.049 A 
ATOM     48  H   UNL A   1      40.451  30.394  29.402  1.00  0.00     0.167 HD
ATOM     49  C   UNL A   1      42.657  23.635  27.907  1.00  0.00     0.037 A 
ATOM     50  C   UNL A   1      42.209  29.895  31.646  1.00  0.00     0.037 A 
ATOM     51  C   UNL A   1      43.744  24.318  28.604  1.00  0.00     0.049 A 
ATOM     52  C   UNL A   1      42.868  28.675  32.255  1.00  0.00     0.074 A 
ATOM     53  C   UNL A   1      44.699  25.247  28.227  1.00  0.00     0.029 A 
ATOM     54  N   UNL A   1      43.692  24.355  29.982  1.00  0.00    -0.354 N 
ATOM     55  N   UNL A   1      43.276  27.645  31.562  1.00  0.00    -0.248 NA
ATOM     56  C   UNL A   1      43.089  28.496  33.687  1.00  0.00     0.031 C 
ATOM     57  C   UNL A   1      45.157  25.903  29.413  1.00  0.00     0.029 A 
ATOM     58  C   UNL A   1      44.492  25.354  30.496  1.00  0.00     0.049 A 
ATOM     59  H   UNL A   1      43.151  23.743  30.532  1.00  0.00     0.167 HD
ATOM     60  C   UNL A   1      43.854  26.731  32.388  1.00  0.00     0.074 A 
ATOM     61  C   UNL A   1      43.671  27.283  33.718  1.00  0.00     0.031 C 
ATOM     62  C   UNL A   1      44.455  25.596  31.929  1.00  0.00     0.037 A 
BRANCH  49  63
ATOM     63  C   UNL A   1      42.892  22.470  26.968  1.00  0.00     0.064 A 
ATOM     64  C   UNL A   1      42.193  21.255  27.171  1.00  0.00     0.173 A 
ATOM     65  C   UNL A   1      43.787  22.453  25.882  1.00  0.00     0.173 A 
ATOM     66  F   UNL A   1      41.257  21.136  28.122  1.00  0.00    -0.203 F 
ATOM     67  C   UNL A   1      42.427  20.109  26.407  1.00  0.00     0.198 A 
ATOM     68  C   UNL A   1      44.044  21.293  25.136  1.00  0.00     0.198 A 
ATOM     69  F   UNL A   1      44.406  23.560  25.465  1.00  0.00    -0.203 F 
ATOM     70  F   UNL A   1      41.733  18.989  26.660  1.00  0.00    -0.200 F 
ATOM     71  C   UNL A   1      43.370  20.120  25.403  1.00  0.00     0.200 A 
ATOM     72  F   UNL A   1      44.950  21.326  24.146  1.00  0.00    -0.200 F 
ATOM     73  F   UNL A   1      43.611  19.014  24.686  1.00  0.00    -0.200 F 
ENDBRANCH  49  63
BRANCH  50  74
ATOM     74  C   UNL A   1      40.913  30.520  32.094  1.00  0.00     0.064 A 
ATOM     75  C   UNL A   1      39.868  29.660  32.516  1.00  0.00     0.173 A 
ATOM     76  C   UNL A   1      40.809  31.864  32.472  1.00  0.00     0.173 A 
ATOM     77  F   UNL A   1      39.900  28.357  32.194  1.00  0.00    -0.203 F 
ATOM     78  C   UNL A   1      38.868  30.089  33.389  1.00  0.00     0.198 A 
ATOM     79  C   UNL A   1      39.779  32.300  33.316  1.00  0.00     0.198 A 
ATOM     80  F   UNL A   1      41.751  32.748  32.114  1.00  0.00    -0.203 F 
ATOM     81  F   UNL A   1      37.990  29.206  33.888  1.00  0.00    -0.200 F 
ATOM     82  C   UNL A   1      38.836  31.406  33.805  1.00  0.00     0.200 A 
ATOM     83  F   UNL A   1      39.750  33.576  33.729  1.00  0.00    -0.200 F 
ATOM     84  F   UNL A   1      37.926  31.807  34.704  1.00  0.00    -0.200 F 
ENDBRANCH  50  74
BRANCH  62  85
ATOM     85  C   UNL A   1      45.102  24.605  32.838  1.00  0.00     0.064 A 
ATOM     86  C   UNL A   1      44.412  23.483  33.310  1.00  0.00     0.173 A 
ATOM     87  C   UNL A   1      46.392  24.826  33.360  1.00  0.00     0.173 A 
ATOM     88  F   UNL A   1      43.158  23.230  32.906  1.00  0.00    -0.203 F 
ATOM     89  C   UNL A   1      44.997  22.606  34.220  1.00  0.00     0.198 A 
ATOM     90  C   UNL A   1      46.946  23.989  34.320  1.00  0.00     0.198 A 
ATOM     91  F   UNL A   1      47.156  25.844  32.934  1.00  0.00    -0.203 F 
ATOM     92  F   UNL A   1      44.335  21.506  34.601  1.00  0.00    -0.200 F 
ATOM     93  C   UNL A   1      46.257  22.867  34.737  1.00  0.00     0.200 A 
ATOM     94  F   UNL A   1      48.154  24.269  34.829  1.00  0.00    -0.200 F 
ATOM     95  F   UNL A   1      46.807  22.035  35.629  1.00  0.00    -0.200 F 
ENDBRANCH  62  85
ENDBRANCH  36  37
ENDBRANCH  29  31
ENDBRANCH  28  29
ENDBRANCH  27  28
ENDBRANCH   1  27
TORSDOF 15
ENDMDL
MODEL 2
REMARK VINA RESULT:     -13.9      3.884      9.966
REMARK SMILES Cc1ccc(-c2cc([C@@H](C)C(=O)OCCOC(=O)c3ccc(-c4c5nc(c(-c6c(F)c(F)c(F)c(F)c6F)c6ccc([nH]6)c(-c6c(F)c(F)c(F)c(F)c6F)c6nc(c(-c7c(F)c(F)c(F)c(F)c7F)c7ccc4[nH]7)C=C6)C=C5)cc3)ccc2C[C@H]2CCCC2=O)cc1
REMARK SMILES IDX 14 1 13 2 11 3 12 4 9 5 10 6 8 7 6 8 7 9 84 10 83 11 82 12
REMARK SMILES IDX 5 13 1 14 2 15 3 16 93 17 4 18 92 19 85 20 86 21 87 22 90 23
REMARK SMILES IDX 88 24 89 25 91 26 15 27 16 28 17 29 18 30 19 31 20 32 81 33
REMARK SMILES IDX 21 34 80 35 22 36 23 37 24 38 74 39 25 40 79 41 73 42 75 43
REMARK SMILES IDX 26 44 78 45 72 46 71 47 27 49 59 50 39 51 58 52 40 53 43 54
REMARK SMILES IDX 57 55 76 56 41 57 42 58 56 60 77 61 44 62 28 63 29 64 37 65
REMARK SMILES IDX 30 66 31 67 35 68 38 69 32 70 33 71 36 72 34 73 60 74 61 75
REMARK SMILES IDX 69 76 62 77 63 78 67 79 70 80 64 81 65 82 68 83 66 84 45 85
REMARK SMILES IDX 46 86 54 87 47 88 48 89 52 90 55 91 49 92 50 93 53 94 51 95
REMARK H PARENT 75 48 43 59
REMARK Flexibility Score: inf
ROOT
ATOM      1  C   UNL A   1      36.091  22.892  25.866  1.00  0.00     0.274 C 
ENDROOT
BRANCH   1   2
ATOM      2  O   UNL A   1      35.369  21.822  25.263  1.00  0.00    -0.462 OA
BRANCH   2   3
ATOM      3  C   UNL A   1      34.311  22.205  24.482  1.00  0.00     0.313 C 
ATOM      4  O   UNL A   1      34.426  22.655  23.351  1.00  0.00    -0.252 OA
BRANCH   3   5
ATOM      5  C   UNL A   1      33.002  22.085  25.280  1.00  0.00     0.126 C 
ATOM      6  C   UNL A   1      32.176  20.834  25.000  1.00  0.00     0.025 C 
BRANCH   5   7
ATOM      7  C   UNL A   1      32.215  23.337  24.998  1.00  0.00    -0.033 A 
ATOM      8  C   UNL A   1      32.149  25.761  24.965  1.00  0.00    -0.015 A 
ATOM      9  C   UNL A   1      32.674  24.568  25.472  1.00  0.00     0.013 A 
ATOM     10  C   UNL A   1      31.217  25.685  23.905  1.00  0.00    -0.039 A 
ATOM     11  C   UNL A   1      30.652  24.446  23.562  1.00  0.00     0.004 A 
ATOM     12  C   UNL A   1      31.136  23.278  24.114  1.00  0.00     0.005 A 
BRANCH   8  13
ATOM     13  C   UNL A   1      32.511  27.028  25.612  1.00  0.00    -0.018 A 
ATOM     14  C   UNL A   1      33.334  30.787  27.573  1.00  0.00     0.044 C 
ATOM     15  C   UNL A   1      33.085  29.466  26.912  1.00  0.00    -0.051 A 
ATOM     16  C   UNL A   1      31.946  28.734  27.258  1.00  0.00     0.004 A 
ATOM     17  C   UNL A   1      33.957  28.953  25.944  1.00  0.00     0.004 A 
ATOM     18  C   UNL A   1      31.671  27.528  26.621  1.00  0.00     0.009 A 
ATOM     19  C   UNL A   1      33.677  27.740  25.303  1.00  0.00     0.009 A 
ENDBRANCH   8  13
BRANCH  10  20
ATOM     20  C   UNL A   1      30.854  26.872  23.038  1.00  0.00     0.047 C 
BRANCH  20  21
ATOM     21  C   UNL A   1      29.948  27.920  23.710  1.00  0.00     0.060 C 
ATOM     22  C   UNL A   1      30.135  29.374  23.265  1.00  0.00     0.012 C 
ATOM     23  C   UNL A   1      28.469  27.705  23.466  1.00  0.00     0.136 C 
ATOM     24  C   UNL A   1      29.010  29.690  22.290  1.00  0.00     0.009 C 
ATOM     25  C   UNL A   1      27.823  28.844  22.723  1.00  0.00     0.076 C 
ATOM     26  O   UNL A   1      27.849  26.718  23.846  1.00  0.00    -0.299 OA
ENDBRANCH  20  21
ENDBRANCH  10  20
ENDBRANCH   5   7
ENDBRANCH   3   5
ENDBRANCH   2   3
ENDBRANCH   1   2
BRANCH   1  27
ATOM     27  C   UNL A   1      37.609  22.712  25.708  1.00  0.00     0.275 C 
BRANCH  27  28
ATOM     28  O   UNL A   1      38.538  23.806  25.989  1.00  0.00    -0.458 OA
BRANCH  28  29
ATOM     29  C   UNL A   1      39.539  23.894  26.910  1.00  0.00     0.338 C 
ATOM     30  O   UNL A   1      40.153  22.928  27.293  1.00  0.00    -0.246 OA
BRANCH  29  31
ATOM     31  C   UNL A   1      39.838  25.244  27.436  1.00  0.00     0.060 A 
ATOM     32  C   UNL A   1      40.358  26.234  26.581  1.00  0.00     0.016 A 
ATOM     33  C   UNL A   1      39.451  25.558  28.727  1.00  0.00     0.016 A 
ATOM     34  C   UNL A   1      40.336  27.578  26.971  1.00  0.00     0.010 A 
ATOM     35  C   UNL A   1      39.275  26.880  29.043  1.00  0.00     0.010 A 
ATOM     36  C   UNL A   1      39.744  27.897  28.190  1.00  0.00    -0.014 A 
BRANCH  36  37
ATOM     37  C   UNL A   1      39.768  29.203  28.840  1.00  0.00     0.031 A 
ATOM     38  C   UNL A   1      38.721  30.233  28.723  1.00  0.00     0.074 A 
ATOM     39  C   UNL A   1      40.733  29.262  29.784  1.00  0.00     0.049 A 
ATOM     40  N   UNL A   1      38.824  31.418  29.219  1.00  0.00    -0.248 NA
ATOM     41  C   UNL A   1      37.454  30.043  28.043  1.00  0.00     0.031 C 
ATOM     42  C   UNL A   1      40.913  30.154  30.911  1.00  0.00     0.029 A 
ATOM     43  N   UNL A   1      41.894  28.467  29.795  1.00  0.00    -0.354 N 
ATOM     44  C   UNL A   1      37.582  32.023  29.177  1.00  0.00     0.074 A 
ATOM     45  C   UNL A   1      36.778  31.152  28.364  1.00  0.00     0.031 C 
ATOM     46  C   UNL A   1      42.210  30.107  31.275  1.00  0.00     0.029 A 
ATOM     47  C   UNL A   1      42.909  29.301  30.280  1.00  0.00     0.049 A 
ATOM     48  H   UNL A   1      41.975  27.525  29.521  1.00  0.00     0.167 HD
ATOM     49  C   UNL A   1      37.378  33.134  29.944  1.00  0.00     0.037 A 
ATOM     50  C   UNL A   1      43.824  29.745  29.362  1.00  0.00     0.037 A 
ATOM     51  C   UNL A   1      38.639  33.540  30.560  1.00  0.00     0.049 A 
ATOM     52  C   UNL A   1      43.708  31.236  29.118  1.00  0.00     0.074 A 
ATOM     53  C   UNL A   1      39.238  33.294  31.783  1.00  0.00     0.029 A 
ATOM     54  N   UNL A   1      39.640  33.991  29.724  1.00  0.00    -0.354 N 
ATOM     55  N   UNL A   1      42.694  31.961  29.510  1.00  0.00    -0.248 NA
ATOM     56  C   UNL A   1      44.697  32.022  28.387  1.00  0.00     0.031 C 
ATOM     57  C   UNL A   1      40.640  33.530  31.634  1.00  0.00     0.029 A 
ATOM     58  C   UNL A   1      40.876  33.932  30.331  1.00  0.00     0.049 A 
ATOM     59  H   UNL A   1      39.489  34.314  28.806  1.00  0.00     0.167 HD
ATOM     60  C   UNL A   1      42.899  33.264  29.172  1.00  0.00     0.074 A 
ATOM     61  C   UNL A   1      44.145  33.249  28.426  1.00  0.00     0.031 C 
ATOM     62  C   UNL A   1      42.048  34.264  29.537  1.00  0.00     0.037 A 
BRANCH  49  63
ATOM     63  C   UNL A   1      36.050  33.765  30.307  1.00  0.00     0.064 A 
ATOM     64  C   UNL A   1      35.211  34.271  29.286  1.00  0.00     0.173 A 
ATOM     65  C   UNL A   1      35.545  33.932  31.611  1.00  0.00     0.173 A 
ATOM     66  F   UNL A   1      35.521  34.127  27.990  1.00  0.00    -0.203 F 
ATOM     67  C   UNL A   1      34.019  34.950  29.549  1.00  0.00     0.198 A 
ATOM     68  C   UNL A   1      34.365  34.641  31.877  1.00  0.00     0.198 A 
ATOM     69  F   UNL A   1      36.139  33.375  32.670  1.00  0.00    -0.203 F 
ATOM     70  F   UNL A   1      33.278  35.410  28.530  1.00  0.00    -0.200 F 
ATOM     71  C   UNL A   1      33.606  35.157  30.847  1.00  0.00     0.200 A 
ATOM     72  F   UNL A   1      33.964  34.813  33.146  1.00  0.00    -0.200 F 
ATOM     73  F   UNL A   1      32.475  35.828  31.101  1.00  0.00    -0.200 F 
ENDBRANCH  49  63
BRANCH  50  74
ATOM     74  C   UNL A   1      44.136  28.698  28.324  1.00  0.00     0.064 A 
ATOM     75  C   UNL A   1      44.625  27.444  28.767  1.00  0.00     0.173 A 
ATOM     76  C   UNL A   1      43.629  28.748  27.020  1.00  0.00     0.173 A 
ATOM     77  F   UNL A   1      45.125  27.318  30.007  1.00  0.00    -0.203 F 
ATOM     78  C   UNL A   1      44.474  26.284  28.007  1.00  0.00     0.198 A 
ATOM     79  C   UNL A   1      43.516  27.587  26.244  1.00  0.00     0.198 A 
ATOM     80  F   UNL A   1      43.149  29.894  26.519  1.00  0.00    -0.203 F 
ATOM     81  F   UNL A   1      44.807  25.093  28.527  1.00  0.00    -0.200 F 
ATOM     82  C   UNL A   1      43.900  26.354  26.752  1.00  0.00     0.200 A 
ATOM     83  F   UNL A   1      42.951  27.649  25.028  1.00  0.00    -0.200 F 
ATOM     84  F   UNL A   1      43.679  25.233  26.050  1.00  0.00    -0.200 F 
ENDBRANCH  50  74
BRANCH  62  85
ATOM     85  C   UNL A   1      42.287  35.693  29.179  1.00  0.00     0.064 A 
ATOM     86  C   UNL A   1      41.788  36.246  27.994  1.00  0.00     0.173 A 
ATOM     87  C   UNL A   1      43.133  36.510  29.957  1.00  0.00     0.173 A 
ATOM     88  F   UNL A   1      41.021  35.518  27.169  1.00  0.00    -0.203 F 
ATOM     89  C   UNL A   1      42.083  37.558  27.630  1.00  0.00     0.198 A 
ATOM     90  C   UNL A   1      43.480  37.794  29.556  1.00  0.00     0.198 A 
ATOM     91  F   UNL A   1      43.621  36.093  31.135  1.00  0.00    -0.203 F 
ATOM     92  F   UNL A   1      41.535  38.077  26.524  1.00  0.00    -0.200 F 
ATOM     93  C   UNL A   1      42.941  38.325  28.402  1.00  0.00     0.200 A 
ATOM     94  F   UNL A   1      44.332  38.514  30.300  1.00  0.00    -0.200 F 
ATOM     95  F   UNL A   1      43.240  39.578  28.037  1.00  0.00    -0.200 F 
ENDBRANCH  62  85
ENDBRANCH  36  37
ENDBRANCH  29  31
ENDBRANCH  28  29
ENDBRANCH  27  28
ENDBRANCH   1  27
TORSDOF 15
ENDMDL
MODEL 3
REMARK VINA RESULT:     -13.7      0.998      1.671
REMARK SMILES Cc1ccc(-c2cc([C@@H](C)C(=O)OCCOC(=O)c3ccc(-c4c5nc(c(-c6c(F)c(F)c(F)c(F)c6F)c6ccc([nH]6)c(-c6c(F)c(F)c(F)c(F)c6F)c6nc(c(-c7c(F)c(F)c(F)c(F)c7F)c7ccc4[nH]7)C=C6)C=C5)cc3)ccc2C[C@H]2CCCC2=O)cc1
REMARK SMILES IDX 14 1 13 2 11 3 12 4 9 5 10 6 8 7 6 8 7 9 84 10 83 11 82 12
REMARK SMILES IDX 5 13 1 14 2 15 3 16 93 17 4 18 92 19 85 20 86 21 87 22 90 23
REMARK SMILES IDX 88 24 89 25 91 26 15 27 16 28 17 29 18 30 19 31 20 32 81 33
REMARK SMILES IDX 21 34 80 35 22 36 23 37 24 38 74 39 25 40 79 41 73 42 75 43
REMARK SMILES IDX 26 44 78 45 72 46 71 47 27 49 59 50 39 51 58 52 40 53 43 54
REMARK SMILES IDX 57 55 76 56 41 57 42 58 56 60 77 61 44 62 28 63 29 64 37 65
REMARK SMILES IDX 30 66 31 67 35 68 38 69 32 70 33 71 36 72 34 73 60 74 61 75
REMARK SMILES IDX 69 76 62 77 63 78 67 79 70 80 64 81 65 82 68 83 66 84 45 85
REMARK SMILES IDX 46 86 54 87 47 88 48 89 52 90 55 91 49 92 50 93 53 94 51 95
REMARK H PARENT 75 48 43 59
REMARK Flexibility Score: inf
ROOT
ATOM      1  C   UNL A   1      33.338  29.436  25.211  1.00  0.00     0.274 C 
ENDROOT
BRANCH   1   2
ATOM      2  O   UNL A   1      33.726  28.066  25.136  1.00  0.00    -0.462 OA
BRANCH   2   3
ATOM      3  C   UNL A   1      32.739  27.206  24.734  1.00  0.00     0.313 C 
ATOM      4  O   UNL A   1      31.898  26.735  25.485  1.00  0.00    -0.252 OA
BRANCH   3   5
ATOM      5  C   UNL A   1      32.927  26.853  23.249  1.00  0.00     0.126 C 
ATOM      6  C   UNL A   1      31.769  27.236  22.333  1.00  0.00     0.025 C 
BRANCH   5   7
ATOM      7  C   UNL A   1      33.204  25.374  23.195  1.00  0.00    -0.033 A 
ATOM      8  C   UNL A   1      34.434  23.478  24.075  1.00  0.00    -0.015 A 
ATOM      9  C   UNL A   1      34.327  24.853  23.842  1.00  0.00     0.013 A 
ATOM     10  C   UNL A   1      33.341  22.653  23.724  1.00  0.00    -0.039 A 
ATOM     11  C   UNL A   1      32.304  23.170  22.932  1.00  0.00     0.004 A 
ATOM     12  C   UNL A   1      32.240  24.520  22.655  1.00  0.00     0.005 A 
BRANCH   8  13
ATOM     13  C   UNL A   1      35.702  22.941  24.583  1.00  0.00    -0.018 A 
ATOM     14  C   UNL A   1      39.506  21.595  26.124  1.00  0.00     0.044 C 
ATOM     15  C   UNL A   1      38.166  22.029  25.611  1.00  0.00    -0.051 A 
ATOM     16  C   UNL A   1      37.651  23.264  26.010  1.00  0.00     0.004 A 
ATOM     17  C   UNL A   1      37.425  21.233  24.729  1.00  0.00     0.004 A 
ATOM     18  C   UNL A   1      36.431  23.707  25.507  1.00  0.00     0.009 A 
ATOM     19  C   UNL A   1      36.199  21.681  24.223  1.00  0.00     0.009 A 
ENDBRANCH   8  13
BRANCH  10  20
ATOM     20  C   UNL A   1      33.175  21.239  24.240  1.00  0.00     0.047 C 
BRANCH  20  21
ATOM     21  C   UNL A   1      32.611  21.126  25.669  1.00  0.00     0.060 C 
ATOM     22  C   UNL A   1      33.633  21.084  26.808  1.00  0.00     0.012 C 
ATOM     23  C   UNL A   1      31.731  22.288  26.079  1.00  0.00     0.136 C 
ATOM     24  C   UNL A   1      33.674  22.477  27.421  1.00  0.00     0.009 C 
ATOM     25  C   UNL A   1      32.279  23.056  27.252  1.00  0.00     0.076 C 
ATOM     26  O   UNL A   1      30.672  22.571  25.530  1.00  0.00    -0.299 OA
ENDBRANCH  20  21
ENDBRANCH  10  20
ENDBRANCH   5   7
ENDBRANCH   3   5
ENDBRANCH   2   3
ENDBRANCH   1   2
BRANCH   1  27
ATOM     27  C   UNL A   1      33.419  29.970  26.650  1.00  0.00     0.275 C 
BRANCH  27  28
ATOM     28  O   UNL A   1      34.556  29.654  27.515  1.00  0.00    -0.458 OA
BRANCH  28  29
ATOM     29  C   UNL A   1      35.331  30.473  28.280  1.00  0.00     0.338 C 
ATOM     30  O   UNL A   1      34.965  31.567  28.634  1.00  0.00    -0.246 OA
BRANCH  29  31
ATOM     31  C   UNL A   1      36.668  29.960  28.653  1.00  0.00     0.060 A 
ATOM     32  C   UNL A   1      36.831  29.211  29.835  1.00  0.00     0.016 A 
ATOM     33  C   UNL A   1      37.709  30.090  27.751  1.00  0.00     0.016 A 
ATOM     34  C   UNL A   1      37.991  28.455  30.030  1.00  0.00     0.010 A 
ATOM     35  C   UNL A   1      38.768  29.226  27.860  1.00  0.00     0.010 A 
ATOM     36  C   UNL A   1      38.938  28.430  29.009  1.00  0.00    -0.014 A 
BRANCH  36  37
ATOM     37  C   UNL A   1      40.270  27.841  29.087  1.00  0.00     0.031 A 
ATOM     38  C   UNL A   1      40.644  26.507  28.585  1.00  0.00     0.074 A 
ATOM     39  C   UNL A   1      41.194  28.766  29.431  1.00  0.00     0.049 A 
ATOM     40  N   UNL A   1      41.801  25.972  28.769  1.00  0.00    -0.248 NA
ATOM     41  C   UNL A   1      39.764  25.639  27.826  1.00  0.00     0.031 C 
ATOM     42  C   UNL A   1      42.634  28.777  29.281  1.00  0.00     0.029 A 
ATOM     43  N   UNL A   1      40.920  29.946  30.146  1.00  0.00    -0.354 N 
ATOM     44  C   UNL A   1      41.911  24.866  27.947  1.00  0.00     0.074 A 
ATOM     45  C   UNL A   1      40.584  24.658  27.435  1.00  0.00     0.031 C 
ATOM     46  C   UNL A   1      43.135  29.676  30.152  1.00  0.00     0.029 A 
ATOM     47  C   UNL A   1      42.028  30.137  30.982  1.00  0.00     0.049 A 
ATOM     48  H   UNL A   1      40.121  30.516  30.074  1.00  0.00     0.167 HD
ATOM     49  C   UNL A   1      43.154  24.348  27.724  1.00  0.00     0.037 A 
ATOM     50  C   UNL A   1      41.839  29.877  32.314  1.00  0.00     0.037 A 
ATOM     51  C   UNL A   1      44.127  25.032  28.573  1.00  0.00     0.049 A 
ATOM     52  C   UNL A   1      42.613  28.658  32.772  1.00  0.00     0.074 A 
ATOM     53  C   UNL A   1      44.980  26.106  28.389  1.00  0.00     0.029 A 
ATOM     54  N   UNL A   1      44.020  24.852  29.936  1.00  0.00    -0.354 N 
ATOM     55  N   UNL A   1      43.164  27.797  31.957  1.00  0.00    -0.248 NA
ATOM     56  C   UNL A   1      42.799  28.289  34.171  1.00  0.00     0.031 C 
ATOM     57  C   UNL A   1      45.314  26.620  29.681  1.00  0.00     0.029 A 
ATOM     58  C   UNL A   1      44.678  25.843  30.634  1.00  0.00     0.049 A 
ATOM     59  H   UNL A   1      43.533  24.108  30.359  1.00  0.00     0.167 HD
ATOM     60  C   UNL A   1      43.813  26.837  32.670  1.00  0.00     0.074 A 
ATOM     61  C   UNL A   1      43.517  27.156  34.056  1.00  0.00     0.031 C 
ATOM     62  C   UNL A   1      44.559  25.858  32.083  1.00  0.00     0.037 A 
BRANCH  49  63
ATOM     63  C   UNL A   1      43.558  23.372  26.638  1.00  0.00     0.064 A 
ATOM     64  C   UNL A   1      43.206  22.006  26.757  1.00  0.00     0.173 A 
ATOM     65  C   UNL A   1      44.300  23.683  25.483  1.00  0.00     0.173 A 
ATOM     66  F   UNL A   1      42.443  21.565  27.766  1.00  0.00    -0.203 F 
ATOM     67  C   UNL A   1      43.624  21.032  25.847  1.00  0.00     0.198 A 
ATOM     68  C   UNL A   1      44.747  22.701  24.587  1.00  0.00     0.198 A 
ATOM     69  F   UNL A   1      44.577  24.946  25.146  1.00  0.00    -0.203 F 
ATOM     70  F   UNL A   1      43.259  19.754  26.026  1.00  0.00    -0.200 F 
ATOM     71  C   UNL A   1      44.416  21.375  24.772  1.00  0.00     0.200 A 
ATOM     72  F   UNL A   1      45.497  23.055  23.532  1.00  0.00    -0.200 F 
ATOM     73  F   UNL A   1      44.836  20.439  23.912  1.00  0.00    -0.200 F 
ENDBRANCH  49  63
BRANCH  50  74
ATOM     74  C   UNL A   1      40.463  30.280  32.778  1.00  0.00     0.064 A 
ATOM     75  C   UNL A   1      40.070  31.631  32.610  1.00  0.00     0.173 A 
ATOM     76  C   UNL A   1      39.438  29.353  33.006  1.00  0.00     0.173 A 
ATOM     77  F   UNL A   1      40.997  32.576  32.384  1.00  0.00    -0.203 F 
ATOM     78  C   UNL A   1      38.728  32.003  32.523  1.00  0.00     0.198 A 
ATOM     79  C   UNL A   1      38.092  29.738  32.959  1.00  0.00     0.198 A 
ATOM     80  F   UNL A   1      39.720  28.055  33.180  1.00  0.00    -0.203 F 
ATOM     81  F   UNL A   1      38.402  33.265  32.207  1.00  0.00    -0.200 F 
ATOM     82  C   UNL A   1      37.739  31.051  32.678  1.00  0.00     0.200 A 
ATOM     83  F   UNL A   1      37.128  28.815  33.100  1.00  0.00    -0.200 F 
ATOM     84  F   UNL A   1      36.451  31.387  32.517  1.00  0.00    -0.200 F 
ENDBRANCH  50  74
BRANCH  62  85
ATOM     85  C   UNL A   1      45.283  24.817  32.870  1.00  0.00     0.064 A 
ATOM     86  C   UNL A   1      44.657  23.629  33.265  1.00  0.00     0.173 A 
ATOM     87  C   UNL A   1      46.585  25.044  33.358  1.00  0.00     0.173 A 
ATOM     88  F   UNL A   1      43.397  23.361  32.889  1.00  0.00    -0.203 F 
ATOM     89  C   UNL A   1      45.315  22.699  34.066  1.00  0.00     0.198 A 
ATOM     90  C   UNL A   1      47.212  24.147  34.213  1.00  0.00     0.198 A 
ATOM     91  F   UNL A   1      47.291  26.127  32.997  1.00  0.00    -0.203 F 
ATOM     92  F   UNL A   1      44.713  21.542  34.370  1.00  0.00    -0.200 F 
ATOM     93  C   UNL A   1      46.585  22.965  34.553  1.00  0.00     0.200 A 
ATOM     94  F   UNL A   1      48.430  24.432  34.697  1.00  0.00    -0.200 F 
ATOM     95  F   UNL A   1      47.206  22.080  35.342  1.00  0.00    -0.200 F 
ENDBRANCH  62  85
ENDBRANCH  36  37
ENDBRANCH  29  31
ENDBRANCH  28  29
ENDBRANCH  27  28
ENDBRANCH   1  27
TORSDOF 15
ENDMDL
