MODEL 1
REMARK VINA RESULT:     -11.8      0.000      0.000
REMARK SMILES C[C@]([NH2+]Cc1noc(C2CC2)n1)(C(=O)OCCOC(=O)c1ccc(-c2c3nc(c(-c4c(F)c(F)c(F)c(F)c4F)c4ccc([nH]4)c(-c4c(F)c(F)c(F)c(F)c4F)c4nc(c(-c5c(F)c(F)c(F)c(F)c5F)c5ccc2[nH]5)C=C4)C=C3)cc1)C(F)(F)F
REMARK SMILES IDX 16 1 15 2 13 3 14 4 2 5 1 6 84 7 85 8 86 9 87 10 3 11 4 14
REMARK SMILES IDX 5 15 6 16 12 17 7 18 8 19 9 20 10 21 11 22 17 23 18 24 19 25
REMARK SMILES IDX 20 26 21 27 22 28 83 29 23 30 82 31 24 32 25 33 26 34 76 35
REMARK SMILES IDX 27 36 81 37 75 38 77 39 28 40 80 41 74 42 73 43 29 45 61 46
REMARK SMILES IDX 41 47 60 48 42 49 45 50 59 51 78 52 43 53 44 54 58 56 79 57
REMARK SMILES IDX 46 58 30 59 31 60 39 61 32 62 33 63 37 64 40 65 34 66 35 67
REMARK SMILES IDX 38 68 36 69 62 70 63 71 71 72 64 73 65 74 69 75 72 76 66 77
REMARK SMILES IDX 67 78 70 79 68 80 47 81 48 82 56 83 49 84 50 85 54 86 57 87
REMARK SMILES IDX 51 88 52 89 55 90 53 91
REMARK H PARENT 3 12 3 13 77 44 45 55
REMARK Flexibility Score: inf
ROOT
ATOM      1  C   UNL A   1      31.748  28.683  27.515  1.00  0.00     0.274 C 
ENDROOT
BRANCH   1   2
ATOM      2  O   UNL A   1      31.272  27.350  27.231  1.00  0.00    -0.457 OA
BRANCH   2   3
ATOM      3  C   UNL A   1      32.071  26.573  26.435  1.00  0.00     0.377 C 
ATOM      4  O   UNL A   1      33.292  26.664  26.422  1.00  0.00    -0.244 OA
BRANCH   3   5
ATOM      5  C   UNL A   1      31.251  25.688  25.477  1.00  0.00     0.287 C 
ATOM      6  C   UNL A   1      32.154  25.446  24.255  1.00  0.00     0.103 C 
BRANCH   5   7
ATOM      7  C   UNL A   1      31.035  24.336  26.210  1.00  0.00     0.455 C 
ATOM      8  F   UNL A   1      29.760  24.181  26.628  1.00  0.00    -0.164 F 
ATOM      9  F   UNL A   1      31.283  23.298  25.365  1.00  0.00    -0.164 F 
ATOM     10  F   UNL A   1      31.847  24.146  27.270  1.00  0.00    -0.164 F 
ENDBRANCH   5   7
BRANCH   5  11
ATOM     11  N   UNL A   1      30.010  26.436  25.042  1.00  0.00    -0.318 N 
ATOM     12  H   UNL A   1      30.135  27.423  25.268  1.00  0.00     0.347 HD
ATOM     13  H   UNL A   1      29.223  26.016  25.536  1.00  0.00     0.347 HD
BRANCH  11  14
ATOM     14  C   UNL A   1      29.717  26.326  23.605  1.00  0.00     0.344 C 
BRANCH  14  15
ATOM     15  C   UNL A   1      29.565  27.670  22.964  1.00  0.00     0.226 A 
ATOM     16  N   UNL A   1      30.390  28.081  21.990  1.00  0.00    -0.056 NA
ATOM     17  N   UNL A   1      28.544  28.540  23.259  1.00  0.00    -0.190 NA
ATOM     18  O   UNL A   1      29.841  29.302  21.605  1.00  0.00    -0.339 OA
ATOM     19  C   UNL A   1      28.749  29.516  22.400  1.00  0.00     0.229 A 
BRANCH  19  20
ATOM     20  C   UNL A   1      27.878  30.757  22.270  1.00  0.00     0.079 C 
ATOM     21  C   UNL A   1      27.588  31.583  23.505  1.00  0.00     0.014 C 
ATOM     22  C   UNL A   1      28.515  32.116  22.467  1.00  0.00     0.014 C 
ENDBRANCH  19  20
ENDBRANCH  14  15
ENDBRANCH  11  14
ENDBRANCH   5  11
ENDBRANCH   3   5
ENDBRANCH   2   3
ENDBRANCH   1   2
BRANCH   1  23
ATOM     23  C   UNL A   1      31.763  29.537  26.252  1.00  0.00     0.275 C 
BRANCH  23  24
ATOM     24  O   UNL A   1      33.062  30.130  26.099  1.00  0.00    -0.458 OA
BRANCH  24  25
ATOM     25  C   UNL A   1      33.385  31.079  27.004  1.00  0.00     0.338 C 
ATOM     26  O   UNL A   1      32.711  32.039  27.346  1.00  0.00    -0.246 OA
BRANCH  25  27
ATOM     27  C   UNL A   1      34.734  30.818  27.535  1.00  0.00     0.060 A 
ATOM     28  C   UNL A   1      35.145  29.519  27.831  1.00  0.00     0.016 A 
ATOM     29  C   UNL A   1      35.559  31.897  27.841  1.00  0.00     0.016 A 
ATOM     30  C   UNL A   1      36.333  29.300  28.528  1.00  0.00     0.010 A 
ATOM     31  C   UNL A   1      36.794  31.669  28.452  1.00  0.00     0.010 A 
ATOM     32  C   UNL A   1      37.175  30.372  28.843  1.00  0.00    -0.014 A 
BRANCH  32  33
ATOM     33  C   UNL A   1      38.420  30.179  29.633  1.00  0.00     0.031 A 
ATOM     34  C   UNL A   1      39.523  29.323  29.073  1.00  0.00     0.074 A 
ATOM     35  C   UNL A   1      38.569  30.735  30.850  1.00  0.00     0.049 A 
ATOM     36  N   UNL A   1      40.542  28.773  29.682  1.00  0.00    -0.248 NA
ATOM     37  C   UNL A   1      39.454  29.030  27.632  1.00  0.00     0.031 C 
ATOM     38  C   UNL A   1      37.623  31.646  31.491  1.00  0.00     0.029 A 
ATOM     39  N   UNL A   1      39.578  30.597  31.774  1.00  0.00    -0.354 N 
ATOM     40  C   UNL A   1      41.187  28.007  28.719  1.00  0.00     0.074 A 
ATOM     41  C   UNL A   1      40.457  28.178  27.481  1.00  0.00     0.031 C 
ATOM     42  C   UNL A   1      38.100  32.000  32.694  1.00  0.00     0.029 A 
ATOM     43  C   UNL A   1      39.337  31.268  32.947  1.00  0.00     0.049 A 
ATOM     44  H   UNL A   1      40.392  30.070  31.609  1.00  0.00     0.167 HD
ATOM     45  C   UNL A   1      42.282  27.223  28.866  1.00  0.00     0.037 A 
ATOM     46  C   UNL A   1      40.005  31.252  34.117  1.00  0.00     0.037 A 
ATOM     47  C   UNL A   1      43.042  27.114  30.083  1.00  0.00     0.049 A 
ATOM     48  C   UNL A   1      41.212  30.370  34.264  1.00  0.00     0.074 A 
ATOM     49  C   UNL A   1      44.168  26.353  30.336  1.00  0.00     0.029 A 
ATOM     50  N   UNL A   1      42.762  27.814  31.248  1.00  0.00    -0.354 N 
ATOM     51  N   UNL A   1      41.763  29.570  33.383  1.00  0.00    -0.248 NA
ATOM     52  C   UNL A   1      41.877  30.368  35.574  1.00  0.00     0.031 C 
ATOM     53  C   UNL A   1      44.559  26.575  31.662  1.00  0.00     0.029 A 
ATOM     54  C   UNL A   1      43.694  27.502  32.223  1.00  0.00     0.049 A 
ATOM     55  H   UNL A   1      42.011  28.440  31.364  1.00  0.00     0.167 HD
ATOM     56  C   UNL A   1      42.840  28.978  34.026  1.00  0.00     0.074 A 
ATOM     57  C   UNL A   1      42.876  29.521  35.369  1.00  0.00     0.031 C 
ATOM     58  C   UNL A   1      43.717  28.061  33.550  1.00  0.00     0.037 A 
BRANCH  45  59
ATOM     59  C   UNL A   1      42.694  26.383  27.693  1.00  0.00     0.064 A 
ATOM     60  C   UNL A   1      43.676  26.800  26.785  1.00  0.00     0.173 A 
ATOM     61  C   UNL A   1      42.104  25.125  27.492  1.00  0.00     0.173 A 
ATOM     62  F   UNL A   1      44.259  28.000  26.924  1.00  0.00    -0.203 F 
ATOM     63  C   UNL A   1      44.035  26.000  25.702  1.00  0.00     0.198 A 
ATOM     64  C   UNL A   1      42.483  24.316  26.424  1.00  0.00     0.198 A 
ATOM     65  F   UNL A   1      41.162  24.677  28.335  1.00  0.00    -0.203 F 
ATOM     66  F   UNL A   1      44.944  26.437  24.820  1.00  0.00    -0.200 F 
ATOM     67  C   UNL A   1      43.443  24.757  25.526  1.00  0.00     0.200 A 
ATOM     68  F   UNL A   1      41.917  23.113  26.261  1.00  0.00    -0.200 F 
ATOM     69  F   UNL A   1      43.792  23.988  24.485  1.00  0.00    -0.200 F 
ENDBRANCH  45  59
BRANCH  46  70
ATOM     70  C   UNL A   1      39.505  32.066  35.254  1.00  0.00     0.064 A 
ATOM     71  C   UNL A   1      39.847  33.419  35.374  1.00  0.00     0.173 A 
ATOM     72  C   UNL A   1      38.649  31.520  36.220  1.00  0.00     0.173 A 
ATOM     73  F   UNL A   1      40.685  33.978  34.488  1.00  0.00    -0.203 F 
ATOM     74  C   UNL A   1      39.349  34.195  36.417  1.00  0.00     0.198 A 
ATOM     75  C   UNL A   1      38.130  32.303  37.248  1.00  0.00     0.198 A 
ATOM     76  F   UNL A   1      38.294  30.227  36.150  1.00  0.00    -0.203 F 
ATOM     77  F   UNL A   1      39.711  35.481  36.526  1.00  0.00    -0.200 F 
ATOM     78  C   UNL A   1      38.483  33.640  37.347  1.00  0.00     0.200 A 
ATOM     79  F   UNL A   1      37.283  31.764  38.136  1.00  0.00    -0.200 F 
ATOM     80  F   UNL A   1      37.991  34.392  38.341  1.00  0.00    -0.200 F 
ENDBRANCH  46  70
BRANCH  58  81
ATOM     81  C   UNL A   1      44.808  27.615  34.473  1.00  0.00     0.064 A 
ATOM     82  C   UNL A   1      44.673  26.467  35.265  1.00  0.00     0.173 A 
ATOM     83  C   UNL A   1      46.019  28.320  34.531  1.00  0.00     0.173 A 
ATOM     84  F   UNL A   1      43.527  25.770  35.252  1.00  0.00    -0.203 F 
ATOM     85  C   UNL A   1      45.708  26.047  36.095  1.00  0.00     0.198 A 
ATOM     86  C   UNL A   1      47.059  27.888  35.347  1.00  0.00     0.198 A 
ATOM     87  F   UNL A   1      46.195  29.424  33.789  1.00  0.00    -0.203 F 
ATOM     88  F   UNL A   1      45.548  24.965  36.869  1.00  0.00    -0.200 F 
ATOM     89  C   UNL A   1      46.901  26.754  36.131  1.00  0.00     0.200 A 
ATOM     90  F   UNL A   1      48.214  28.568  35.376  1.00  0.00    -0.200 F 
ATOM     91  F   UNL A   1      47.899  26.346  36.928  1.00  0.00    -0.200 F 
ENDBRANCH  58  81
ENDBRANCH  32  33
ENDBRANCH  25  27
ENDBRANCH  24  25
ENDBRANCH  23  24
ENDBRANCH   1  23
TORSDOF 16
ENDMDL
MODEL 2
REMARK VINA RESULT:     -11.5      2.265      3.987
REMARK SMILES C[C@]([NH2+]Cc1noc(C2CC2)n1)(C(=O)OCCOC(=O)c1ccc(-c2c3nc(c(-c4c(F)c(F)c(F)c(F)c4F)c4ccc([nH]4)c(-c4c(F)c(F)c(F)c(F)c4F)c4nc(c(-c5c(F)c(F)c(F)c(F)c5F)c5ccc2[nH]5)C=C4)C=C3)cc1)C(F)(F)F
REMARK SMILES IDX 16 1 15 2 13 3 14 4 2 5 1 6 84 7 85 8 86 9 87 10 3 11 4 14
REMARK SMILES IDX 5 15 6 16 12 17 7 18 8 19 9 20 10 21 11 22 17 23 18 24 19 25
REMARK SMILES IDX 20 26 21 27 22 28 83 29 23 30 82 31 24 32 25 33 26 34 76 35
REMARK SMILES IDX 27 36 81 37 75 38 77 39 28 40 80 41 74 42 73 43 29 45 61 46
REMARK SMILES IDX 41 47 60 48 42 49 45 50 59 51 78 52 43 53 44 54 58 56 79 57
REMARK SMILES IDX 46 58 30 59 31 60 39 61 32 62 33 63 37 64 40 65 34 66 35 67
REMARK SMILES IDX 38 68 36 69 62 70 63 71 71 72 64 73 65 74 69 75 72 76 66 77
REMARK SMILES IDX 67 78 70 79 68 80 47 81 48 82 56 83 49 84 50 85 54 86 57 87
REMARK SMILES IDX 51 88 52 89 55 90 53 91
REMARK H PARENT 3 12 3 13 77 44 45 55
REMARK Flexibility Score: inf
ROOT
ATOM      1  C   UNL A   1      31.731  28.403  26.266  1.00  0.00     0.274 C 
ENDROOT
BRANCH   1   2
ATOM      2  O   UNL A   1      31.497  27.350  25.308  1.00  0.00    -0.457 OA
BRANCH   2   3
ATOM      3  C   UNL A   1      31.653  26.067  25.761  1.00  0.00     0.377 C 
ATOM      4  O   UNL A   1      31.302  25.704  26.877  1.00  0.00    -0.244 OA
BRANCH   3   5
ATOM      5  C   UNL A   1      32.436  25.190  24.765  1.00  0.00     0.287 C 
ATOM      6  C   UNL A   1      31.799  25.449  23.389  1.00  0.00     0.103 C 
BRANCH   5   7
ATOM      7  C   UNL A   1      33.889  25.739  24.750  1.00  0.00     0.455 C 
ATOM      8  F   UNL A   1      34.032  26.780  23.901  1.00  0.00    -0.164 F 
ATOM      9  F   UNL A   1      34.227  26.209  25.982  1.00  0.00    -0.164 F 
ATOM     10  F   UNL A   1      34.825  24.818  24.442  1.00  0.00    -0.164 F 
ENDBRANCH   5   7
BRANCH   5  11
ATOM     11  N   UNL A   1      32.259  23.734  25.132  1.00  0.00    -0.318 N 
ATOM     12  H   UNL A   1      31.389  23.639  25.657  1.00  0.00     0.347 HD
ATOM     13  H   UNL A   1      33.078  23.465  25.678  1.00  0.00     0.347 HD
BRANCH  11  14
ATOM     14  C   UNL A   1      32.203  22.827  23.976  1.00  0.00     0.344 C 
BRANCH  14  15
ATOM     15  C   UNL A   1      33.003  21.583  24.207  1.00  0.00     0.226 A 
ATOM     16  N   UNL A   1      34.249  21.631  24.698  1.00  0.00    -0.056 NA
ATOM     17  N   UNL A   1      32.508  20.316  24.014  1.00  0.00    -0.190 NA
ATOM     18  O   UNL A   1      34.577  20.286  24.864  1.00  0.00    -0.339 OA
ATOM     19  C   UNL A   1      33.500  19.560  24.435  1.00  0.00     0.229 A 
BRANCH  19  20
ATOM     20  C   UNL A   1      33.480  18.038  24.469  1.00  0.00     0.079 C 
ATOM     21  C   UNL A   1      33.734  17.273  23.188  1.00  0.00     0.014 C 
ATOM     22  C   UNL A   1      34.777  17.289  24.251  1.00  0.00     0.014 C 
ENDBRANCH  19  20
ENDBRANCH  14  15
ENDBRANCH  11  14
ENDBRANCH   5  11
ENDBRANCH   3   5
ENDBRANCH   2   3
ENDBRANCH   1   2
BRANCH   1  23
ATOM     23  C   UNL A   1      31.804  29.761  25.576  1.00  0.00     0.275 C 
BRANCH  23  24
ATOM     24  O   UNL A   1      33.119  30.311  25.755  1.00  0.00    -0.458 OA
BRANCH  24  25
ATOM     25  C   UNL A   1      33.302  31.043  26.875  1.00  0.00     0.338 C 
ATOM     26  O   UNL A   1      32.518  31.831  27.384  1.00  0.00    -0.246 OA
BRANCH  25  27
ATOM     27  C   UNL A   1      34.644  30.784  27.423  1.00  0.00     0.060 A 
ATOM     28  C   UNL A   1      35.087  29.480  27.637  1.00  0.00     0.016 A 
ATOM     29  C   UNL A   1      35.429  31.862  27.827  1.00  0.00     0.016 A 
ATOM     30  C   UNL A   1      36.264  29.245  28.349  1.00  0.00     0.010 A 
ATOM     31  C   UNL A   1      36.655  31.626  28.452  1.00  0.00     0.010 A 
ATOM     32  C   UNL A   1      37.065  30.316  28.761  1.00  0.00    -0.014 A 
BRANCH  32  33
ATOM     33  C   UNL A   1      38.295  30.103  29.569  1.00  0.00     0.031 A 
ATOM     34  C   UNL A   1      39.396  29.238  29.020  1.00  0.00     0.074 A 
ATOM     35  C   UNL A   1      38.432  30.649  30.792  1.00  0.00     0.049 A 
ATOM     36  N   UNL A   1      40.399  28.671  29.640  1.00  0.00    -0.248 NA
ATOM     37  C   UNL A   1      39.346  28.956  27.576  1.00  0.00     0.031 C 
ATOM     38  C   UNL A   1      37.486  31.566  31.425  1.00  0.00     0.029 A 
ATOM     39  N   UNL A   1      39.424  30.493  31.730  1.00  0.00    -0.354 N 
ATOM     40  C   UNL A   1      41.051  27.905  28.682  1.00  0.00     0.074 A 
ATOM     41  C   UNL A   1      40.342  28.093  27.434  1.00  0.00     0.031 C 
ATOM     42  C   UNL A   1      37.949  31.906  32.638  1.00  0.00     0.029 A 
ATOM     43  C   UNL A   1      39.174  31.158  32.904  1.00  0.00     0.049 A 
ATOM     44  H   UNL A   1      40.235  29.957  31.574  1.00  0.00     0.167 HD
ATOM     45  C   UNL A   1      42.134  27.107  28.839  1.00  0.00     0.037 A 
ATOM     46  C   UNL A   1      39.823  31.125  34.083  1.00  0.00     0.037 A 
ATOM     47  C   UNL A   1      42.874  26.981  30.067  1.00  0.00     0.049 A 
ATOM     48  C   UNL A   1      41.018  30.229  34.243  1.00  0.00     0.074 A 
ATOM     49  C   UNL A   1      43.987  26.205  30.332  1.00  0.00     0.029 A 
ATOM     50  N   UNL A   1      42.584  27.676  31.232  1.00  0.00    -0.354 N 
ATOM     51  N   UNL A   1      41.573  29.429  33.365  1.00  0.00    -0.248 NA
ATOM     52  C   UNL A   1      41.662  30.210  35.563  1.00  0.00     0.031 C 
ATOM     53  C   UNL A   1      44.360  26.413  31.666  1.00  0.00     0.029 A 
ATOM     54  C   UNL A   1      43.498  27.346  32.220  1.00  0.00     0.049 A 
ATOM     55  H   UNL A   1      41.839  28.310  31.342  1.00  0.00     0.167 HD
ATOM     56  C   UNL A   1      42.633  28.820  34.020  1.00  0.00     0.074 A 
ATOM     57  C   UNL A   1      42.654  29.353  35.367  1.00  0.00     0.031 C 
ATOM     58  C   UNL A   1      43.506  27.896  33.550  1.00  0.00     0.037 A 
BRANCH  45  59
ATOM     59  C   UNL A   1      42.554  26.270  27.667  1.00  0.00     0.064 A 
ATOM     60  C   UNL A   1      41.964  25.031  27.386  1.00  0.00     0.173 A 
ATOM     61  C   UNL A   1      43.556  26.734  26.799  1.00  0.00     0.173 A 
ATOM     62  F   UNL A   1      41.014  24.537  28.194  1.00  0.00    -0.203 F 
ATOM     63  C   UNL A   1      42.378  24.274  26.293  1.00  0.00     0.198 A 
ATOM     64  C   UNL A   1      43.949  25.987  25.693  1.00  0.00     0.198 A 
ATOM     65  F   UNL A   1      44.150  27.916  27.021  1.00  0.00    -0.203 F 
ATOM     66  F   UNL A   1      41.832  23.071  26.067  1.00  0.00    -0.200 F 
ATOM     67  C   UNL A   1      43.365  24.754  25.444  1.00  0.00     0.200 A 
ATOM     68  F   UNL A   1      44.896  26.457  24.869  1.00  0.00    -0.200 F 
ATOM     69  F   UNL A   1      43.760  24.025  24.391  1.00  0.00    -0.200 F 
ENDBRANCH  45  59
BRANCH  46  70
ATOM     70  C   UNL A   1      39.316  31.938  35.218  1.00  0.00     0.064 A 
ATOM     71  C   UNL A   1      39.627  33.300  35.324  1.00  0.00     0.173 A 
ATOM     72  C   UNL A   1      38.482  31.380  36.198  1.00  0.00     0.173 A 
ATOM     73  F   UNL A   1      40.443  33.871  34.425  1.00  0.00    -0.203 F 
ATOM     74  C   UNL A   1      39.121  34.073  36.366  1.00  0.00     0.198 A 
ATOM     75  C   UNL A   1      37.954  32.159  37.225  1.00  0.00     0.198 A 
ATOM     76  F   UNL A   1      38.157  30.079  36.142  1.00  0.00    -0.203 F 
ATOM     77  F   UNL A   1      39.454  35.367  36.460  1.00  0.00    -0.200 F 
ATOM     78  C   UNL A   1      38.277  33.505  37.309  1.00  0.00     0.200 A 
ATOM     79  F   UNL A   1      37.129  31.609  38.125  1.00  0.00    -0.200 F 
ATOM     80  F   UNL A   1      37.777  34.254  38.302  1.00  0.00    -0.200 F 
ENDBRANCH  46  70
BRANCH  58  81
ATOM     81  C   UNL A   1      44.578  27.431  34.487  1.00  0.00     0.064 A 
ATOM     82  C   UNL A   1      44.406  26.295  35.290  1.00  0.00     0.173 A 
ATOM     83  C   UNL A   1      45.807  28.103  34.547  1.00  0.00     0.173 A 
ATOM     84  F   UNL A   1      43.242  25.629  35.276  1.00  0.00    -0.203 F 
ATOM     85  C   UNL A   1      45.423  25.857  36.133  1.00  0.00     0.198 A 
ATOM     86  C   UNL A   1      46.829  27.652  35.376  1.00  0.00     0.198 A 
ATOM     87  F   UNL A   1      46.019  29.194  33.795  1.00  0.00    -0.203 F 
ATOM     88  F   UNL A   1      45.228  24.788  36.918  1.00  0.00    -0.200 F 
ATOM     89  C   UNL A   1      46.634  26.532  36.171  1.00  0.00     0.200 A 
ATOM     90  F   UNL A   1      48.001  28.301  35.407  1.00  0.00    -0.200 F 
ATOM     91  F   UNL A   1      47.615  26.106  36.980  1.00  0.00    -0.200 F 
ENDBRANCH  58  81
ENDBRANCH  32  33
ENDBRANCH  25  27
ENDBRANCH  24  25
ENDBRANCH  23  24
ENDBRANCH   1  23
TORSDOF 16
ENDMDL
MODEL 3
REMARK VINA RESULT:     -11.5      2.137      3.986
REMARK SMILES C[C@]([NH2+]Cc1noc(C2CC2)n1)(C(=O)OCCOC(=O)c1ccc(-c2c3nc(c(-c4c(F)c(F)c(F)c(F)c4F)c4ccc([nH]4)c(-c4c(F)c(F)c(F)c(F)c4F)c4nc(c(-c5c(F)c(F)c(F)c(F)c5F)c5ccc2[nH]5)C=C4)C=C3)cc1)C(F)(F)F
REMARK SMILES IDX 16 1 15 2 13 3 14 4 2 5 1 6 84 7 85 8 86 9 87 10 3 11 4 14
REMARK SMILES IDX 5 15 6 16 12 17 7 18 8 19 9 20 10 21 11 22 17 23 18 24 19 25
REMARK SMILES IDX 20 26 21 27 22 28 83 29 23 30 82 31 24 32 25 33 26 34 76 35
REMARK SMILES IDX 27 36 81 37 75 38 77 39 28 40 80 41 74 42 73 43 29 45 61 46
REMARK SMILES IDX 41 47 60 48 42 49 45 50 59 51 78 52 43 53 44 54 58 56 79 57
REMARK SMILES IDX 46 58 30 59 31 60 39 61 32 62 33 63 37 64 40 65 34 66 35 67
REMARK SMILES IDX 38 68 36 69 62 70 63 71 71 72 64 73 65 74 69 75 72 76 66 77
REMARK SMILES IDX 67 78 70 79 68 80 47 81 48 82 56 83 49 84 50 85 54 86 57 87
REMARK SMILES IDX 51 88 52 89 55 90 53 91
REMARK H PARENT 3 12 3 13 77 44 45 55
REMARK Flexibility Score: inf
ROOT
ATOM      1  C   UNL A   1      32.058  27.932  26.339  1.00  0.00     0.274 C 
ENDROOT
BRANCH   1   2
ATOM      2  O   UNL A   1      31.799  27.383  25.030  1.00  0.00    -0.457 OA
BRANCH   2   3
ATOM      3  C   UNL A   1      32.824  26.688  24.446  1.00  0.00     0.377 C 
ATOM      4  O   UNL A   1      33.615  26.002  25.082  1.00  0.00    -0.244 OA
BRANCH   3   5
ATOM      5  C   UNL A   1      32.941  26.983  22.938  1.00  0.00     0.287 C 
ATOM      6  C   UNL A   1      31.497  27.069  22.415  1.00  0.00     0.103 C 
BRANCH   5   7
ATOM      7  C   UNL A   1      33.597  28.385  22.818  1.00  0.00     0.455 C 
ATOM      8  F   UNL A   1      32.687  29.382  22.886  1.00  0.00    -0.164 F 
ATOM      9  F   UNL A   1      34.458  28.592  23.852  1.00  0.00    -0.164 F 
ATOM     10  F   UNL A   1      34.325  28.561  21.696  1.00  0.00    -0.164 F 
ENDBRANCH   5   7
BRANCH   5  11
ATOM     11  N   UNL A   1      33.652  25.835  22.257  1.00  0.00    -0.318 N 
ATOM     12  H   UNL A   1      34.377  25.489  22.885  1.00  0.00     0.347 HD
ATOM     13  H   UNL A   1      34.031  26.199  21.382  1.00  0.00     0.347 HD
BRANCH  11  14
ATOM     14  C   UNL A   1      32.773  24.710  21.903  1.00  0.00     0.344 C 
BRANCH  14  15
ATOM     15  C   UNL A   1      33.157  23.456  22.624  1.00  0.00     0.226 A 
ATOM     16  N   UNL A   1      34.407  23.255  23.064  1.00  0.00    -0.056 NA
ATOM     17  N   UNL A   1      32.263  22.468  22.955  1.00  0.00    -0.190 NA
ATOM     18  O   UNL A   1      34.308  22.052  23.761  1.00  0.00    -0.339 OA
ATOM     19  C   UNL A   1      33.009  21.638  23.654  1.00  0.00     0.229 A 
BRANCH  19  20
ATOM     20  C   UNL A   1      32.509  20.354  24.300  1.00  0.00     0.079 C 
ATOM     21  C   UNL A   1      32.547  19.067  23.501  1.00  0.00     0.014 C 
ATOM     22  C   UNL A   1      33.510  19.263  24.620  1.00  0.00     0.014 C 
ENDBRANCH  19  20
ENDBRANCH  14  15
ENDBRANCH  11  14
ENDBRANCH   5  11
ENDBRANCH   3   5
ENDBRANCH   2   3
ENDBRANCH   1   2
BRANCH   1  23
ATOM     23  C   UNL A   1      31.782  29.432  26.365  1.00  0.00     0.275 C 
BRANCH  23  24
ATOM     24  O   UNL A   1      32.998  30.140  26.074  1.00  0.00    -0.458 OA
BRANCH  24  25
ATOM     25  C   UNL A   1      33.335  31.113  26.948  1.00  0.00     0.338 C 
ATOM     26  O   UNL A   1      32.679  32.099  27.249  1.00  0.00    -0.246 OA
BRANCH  25  27
ATOM     27  C   UNL A   1      34.673  30.843  27.499  1.00  0.00     0.060 A 
ATOM     28  C   UNL A   1      35.090  29.536  27.749  1.00  0.00     0.016 A 
ATOM     29  C   UNL A   1      35.479  31.915  27.873  1.00  0.00     0.016 A 
ATOM     30  C   UNL A   1      36.263  29.297  28.465  1.00  0.00     0.010 A 
ATOM     31  C   UNL A   1      36.702  31.672  28.502  1.00  0.00     0.010 A 
ATOM     32  C   UNL A   1      37.086  30.363  28.846  1.00  0.00    -0.014 A 
BRANCH  32  33
ATOM     33  C   UNL A   1      38.314  30.147  29.657  1.00  0.00     0.031 A 
ATOM     34  C   UNL A   1      39.417  29.283  29.110  1.00  0.00     0.074 A 
ATOM     35  C   UNL A   1      38.448  30.691  30.882  1.00  0.00     0.049 A 
ATOM     36  N   UNL A   1      40.417  28.715  29.732  1.00  0.00    -0.248 NA
ATOM     37  C   UNL A   1      39.371  29.004  27.665  1.00  0.00     0.031 C 
ATOM     38  C   UNL A   1      37.501  31.607  31.514  1.00  0.00     0.029 A 
ATOM     39  N   UNL A   1      39.437  30.532  31.822  1.00  0.00    -0.354 N 
ATOM     40  C   UNL A   1      41.071  27.950  28.774  1.00  0.00     0.074 A 
ATOM     41  C   UNL A   1      40.366  28.140  27.524  1.00  0.00     0.031 C 
ATOM     42  C   UNL A   1      37.960  31.945  32.728  1.00  0.00     0.029 A 
ATOM     43  C   UNL A   1      39.183  31.195  32.997  1.00  0.00     0.049 A 
ATOM     44  H   UNL A   1      40.248  29.997  31.668  1.00  0.00     0.167 HD
ATOM     45  C   UNL A   1      42.154  27.151  28.933  1.00  0.00     0.037 A 
ATOM     46  C   UNL A   1      39.829  31.160  34.178  1.00  0.00     0.037 A 
ATOM     47  C   UNL A   1      42.890  27.022  30.163  1.00  0.00     0.049 A 
ATOM     48  C   UNL A   1      41.023  30.263  34.340  1.00  0.00     0.074 A 
ATOM     49  C   UNL A   1      44.002  26.244  30.430  1.00  0.00     0.029 A 
ATOM     50  N   UNL A   1      42.597  27.715  31.329  1.00  0.00    -0.354 N 
ATOM     51  N   UNL A   1      41.580  29.464  33.462  1.00  0.00    -0.248 NA
ATOM     52  C   UNL A   1      41.663  30.241  35.662  1.00  0.00     0.031 C 
ATOM     53  C   UNL A   1      44.370  26.450  31.765  1.00  0.00     0.029 A 
ATOM     54  C   UNL A   1      43.507  27.382  32.318  1.00  0.00     0.049 A 
ATOM     55  H   UNL A   1      41.852  28.349  31.438  1.00  0.00     0.167 HD
ATOM     56  C   UNL A   1      42.637  28.853  34.119  1.00  0.00     0.074 A 
ATOM     57  C   UNL A   1      42.655  29.384  35.467  1.00  0.00     0.031 C 
ATOM     58  C   UNL A   1      43.512  27.930  33.650  1.00  0.00     0.037 A 
BRANCH  45  59
ATOM     59  C   UNL A   1      42.577  26.316  27.761  1.00  0.00     0.064 A 
ATOM     60  C   UNL A   1      42.009  25.063  27.494  1.00  0.00     0.173 A 
ATOM     61  C   UNL A   1      43.558  26.795  26.879  1.00  0.00     0.173 A 
ATOM     62  F   UNL A   1      41.079  24.554  28.316  1.00  0.00    -0.203 F 
ATOM     63  C   UNL A   1      42.425  24.308  26.400  1.00  0.00     0.198 A 
ATOM     64  C   UNL A   1      43.954  26.050  25.771  1.00  0.00     0.198 A 
ATOM     65  F   UNL A   1      44.131  27.990  27.087  1.00  0.00    -0.203 F 
ATOM     66  F   UNL A   1      41.902  23.093  26.187  1.00  0.00    -0.200 F 
ATOM     67  C   UNL A   1      43.393  24.804  25.537  1.00  0.00     0.200 A 
ATOM     68  F   UNL A   1      44.881  26.535  24.934  1.00  0.00    -0.200 F 
ATOM     69  F   UNL A   1      43.790  24.077  24.483  1.00  0.00    -0.200 F 
ENDBRANCH  45  59
BRANCH  46  70
ATOM     70  C   UNL A   1      39.319  31.971  35.313  1.00  0.00     0.064 A 
ATOM     71  C   UNL A   1      38.509  31.395  36.301  1.00  0.00     0.173 A 
ATOM     72  C   UNL A   1      39.660  33.324  35.454  1.00  0.00     0.173 A 
ATOM     73  F   UNL A   1      38.134  30.112  36.195  1.00  0.00    -0.203 F 
ATOM     74  C   UNL A   1      38.061  32.143  37.387  1.00  0.00     0.198 A 
ATOM     75  C   UNL A   1      39.234  34.064  36.554  1.00  0.00     0.198 A 
ATOM     76  F   UNL A   1      40.432  33.921  34.532  1.00  0.00    -0.203 F 
ATOM     77  F   UNL A   1      37.266  31.577  38.305  1.00  0.00    -0.200 F 
ATOM     78  C   UNL A   1      38.432  33.473  37.518  1.00  0.00     0.200 A 
ATOM     79  F   UNL A   1      39.606  35.344  36.683  1.00  0.00    -0.200 F 
ATOM     80  F   UNL A   1      38.015  34.187  38.574  1.00  0.00    -0.200 F 
ENDBRANCH  46  70
BRANCH  58  81
ATOM     81  C   UNL A   1      44.580  27.462  34.589  1.00  0.00     0.064 A 
ATOM     82  C   UNL A   1      45.798  28.145  34.711  1.00  0.00     0.173 A 
ATOM     83  C   UNL A   1      44.364  26.345  35.408  1.00  0.00     0.173 A 
ATOM     84  F   UNL A   1      46.055  29.210  33.937  1.00  0.00    -0.203 F 
ATOM     85  C   UNL A   1      46.770  27.715  35.611  1.00  0.00     0.198 A 
ATOM     86  C   UNL A   1      45.328  25.929  36.321  1.00  0.00     0.198 A 
ATOM     87  F   UNL A   1      43.212  25.662  35.329  1.00  0.00    -0.203 F 
ATOM     88  F   UNL A   1      47.941  28.362  35.690  1.00  0.00    -0.200 F 
ATOM     89  C   UNL A   1      46.531  26.613  36.419  1.00  0.00     0.200 A 
ATOM     90  F   UNL A   1      45.094  24.868  37.106  1.00  0.00    -0.200 F 
ATOM     91  F   UNL A   1      47.466  26.204  37.288  1.00  0.00    -0.200 F 
ENDBRANCH  58  81
ENDBRANCH  32  33
ENDBRANCH  25  27
ENDBRANCH  24  25
ENDBRANCH  23  24
ENDBRANCH   1  23
TORSDOF 16
ENDMDL
