MODEL 1
REMARK VINA RESULT:     -12.5      0.000      0.000
REMARK SMILES CN1C=C/C(=C\C=C/C=N\c2ccc(C(=O)OCCOC(=O)c3ccc(-c4c5nc(c(-c6c(F)c(F)c(F)c(F)c6F)c6ccc([nH]6)c(-c6c(F)c(F)c(F)c(F)c6F)c6nc(c(-c7c(F)c(F)c(F)c(F)c7F)c7ccc4[nH]7)C=C6)C=C5)cc3)cc2)c2ccccc21
REMARK SMILES IDX 18 1 17 2 15 3 16 4 14 5 11 6 12 7 87 8 13 9 86 10 10 11
REMARK SMILES IDX 9 12 8 13 7 14 6 15 1 16 2 17 3 18 93 19 4 20 88 21 92 22
REMARK SMILES IDX 5 23 89 24 91 25 90 26 19 27 20 28 21 29 22 30 23 31 24 32
REMARK SMILES IDX 85 33 25 34 84 35 26 36 27 37 28 38 78 39 29 40 83 41 77 42
REMARK SMILES IDX 79 43 30 44 82 45 76 46 75 47 31 49 63 50 43 51 62 52 44 53
REMARK SMILES IDX 47 54 61 55 80 56 45 57 46 58 60 60 81 61 48 62 32 63 33 64
REMARK SMILES IDX 41 65 34 66 35 67 39 68 42 69 36 70 37 71 40 72 38 73 64 74
REMARK SMILES IDX 65 75 73 76 66 77 67 78 71 79 74 80 68 81 69 82 72 83 70 84
REMARK SMILES IDX 49 85 50 86 58 87 51 88 52 89 56 90 59 91 53 92 54 93 57 94
REMARK SMILES IDX 55 95
REMARK H PARENT 79 48 47 59
REMARK Flexibility Score: inf
ROOT
ATOM      1  C   UNL A   1      36.045  20.304  25.075  1.00  0.00     0.275 C 
ENDROOT
BRANCH   1   2
ATOM      2  O   UNL A   1      35.510  21.247  26.025  1.00  0.00    -0.458 OA
BRANCH   2   3
ATOM      3  C   UNL A   1      34.238  21.662  25.815  1.00  0.00     0.338 C 
ATOM      4  O   UNL A   1      33.253  21.316  26.446  1.00  0.00    -0.246 OA
BRANCH   3   5
ATOM      5  C   UNL A   1      34.193  22.720  24.767  1.00  0.00     0.060 A 
ATOM      6  C   UNL A   1      33.846  24.698  22.793  1.00  0.00     0.063 A 
ATOM      7  C   UNL A   1      33.421  23.387  22.561  1.00  0.00     0.029 A 
ATOM      8  C   UNL A   1      34.509  24.991  23.989  1.00  0.00     0.029 A 
ATOM      9  C   UNL A   1      33.598  22.403  23.537  1.00  0.00     0.018 A 
ATOM     10  C   UNL A   1      34.676  24.015  24.979  1.00  0.00     0.018 A 
BRANCH   6  11
ATOM     11  N   UNL A   1      33.717  25.692  21.820  1.00  0.00    -0.257 NA
ATOM     12  C   UNL A   1      32.609  26.343  21.651  1.00  0.00     0.111 C 
BRANCH  12  13
ATOM     13  C   UNL A   1      31.315  26.239  22.381  1.00  0.00     0.020 C 
ATOM     14  C   UNL A   1      31.076  26.705  23.620  1.00  0.00     0.002 C 
BRANCH  14  15
ATOM     15  C   UNL A   1      32.005  27.385  24.511  1.00  0.00     0.009 C 
ATOM     16  C   UNL A   1      31.541  32.597  26.718  1.00  0.00     0.149 C 
ATOM     17  N   UNL A   1      31.700  31.268  26.131  1.00  0.00    -0.351 N 
ATOM     18  C   UNL A   1      30.802  30.774  25.203  1.00  0.00     0.086 C 
ATOM     19  C   UNL A   1      32.816  30.473  26.524  1.00  0.00     0.048 A 
ATOM     20  C   UNL A   1      30.862  29.562  24.638  1.00  0.00     0.026 C 
ATOM     21  C   UNL A   1      32.992  29.165  25.972  1.00  0.00     0.005 A 
ATOM     22  C   UNL A   1      33.771  30.942  27.452  1.00  0.00     0.027 A 
ATOM     23  C   UNL A   1      31.942  28.646  25.000  1.00  0.00    -0.015 C 
ATOM     24  C   UNL A   1      34.123  28.416  26.357  1.00  0.00     0.011 A 
ATOM     25  C   UNL A   1      34.874  30.173  27.824  1.00  0.00     0.002 A 
ATOM     26  C   UNL A   1      35.051  28.914  27.274  1.00  0.00     0.001 A 
ENDBRANCH  14  15
ENDBRANCH  12  13
ENDBRANCH   6  11
ENDBRANCH   3   5
ENDBRANCH   2   3
ENDBRANCH   1   2
BRANCH   1  27
ATOM     27  C   UNL A   1      37.553  20.505  24.897  1.00  0.00     0.275 C 
BRANCH  27  28
ATOM     28  O   UNL A   1      38.060  21.483  25.826  1.00  0.00    -0.458 OA
BRANCH  28  29
ATOM     29  C   UNL A   1      39.292  21.234  26.324  1.00  0.00     0.338 C 
ATOM     30  O   UNL A   1      39.892  20.171  26.344  1.00  0.00    -0.246 OA
BRANCH  29  31
ATOM     31  C   UNL A   1      39.895  22.504  26.750  1.00  0.00     0.060 A 
ATOM     32  C   UNL A   1      40.941  22.546  27.670  1.00  0.00     0.016 A 
ATOM     33  C   UNL A   1      39.430  23.676  26.157  1.00  0.00     0.016 A 
ATOM     34  C   UNL A   1      41.501  23.783  28.012  1.00  0.00     0.010 A 
ATOM     35  C   UNL A   1      40.002  24.904  26.477  1.00  0.00     0.010 A 
ATOM     36  C   UNL A   1      41.036  24.973  27.417  1.00  0.00    -0.014 A 
BRANCH  36  37
ATOM     37  C   UNL A   1      41.637  26.291  27.750  1.00  0.00     0.031 A 
ATOM     38  C   UNL A   1      43.033  26.634  27.307  1.00  0.00     0.074 A 
ATOM     39  C   UNL A   1      40.940  27.164  28.502  1.00  0.00     0.049 A 
ATOM     40  N   UNL A   1      43.721  27.730  27.513  1.00  0.00    -0.248 NA
ATOM     41  C   UNL A   1      43.763  25.602  26.555  1.00  0.00     0.031 C 
ATOM     42  C   UNL A   1      39.605  26.925  29.051  1.00  0.00     0.029 A 
ATOM     43  N   UNL A   1      41.256  28.429  28.933  1.00  0.00    -0.354 N 
ATOM     44  C   UNL A   1      44.959  27.519  26.920  1.00  0.00     0.074 A 
ATOM     45  C   UNL A   1      44.950  26.170  26.394  1.00  0.00     0.031 C 
ATOM     46  C   UNL A   1      39.198  28.023  29.708  1.00  0.00     0.029 A 
ATOM     47  C   UNL A   1      40.251  29.032  29.650  1.00  0.00     0.049 A 
ATOM     48  H   UNL A   1      42.120  28.862  28.745  1.00  0.00     0.167 HD
ATOM     49  C   UNL A   1      45.998  28.380  26.802  1.00  0.00     0.037 A 
ATOM     50  C   UNL A   1      40.183  30.265  30.188  1.00  0.00     0.037 A 
ATOM     51  C   UNL A   1      45.998  29.730  27.304  1.00  0.00     0.049 A 
ATOM     52  C   UNL A   1      41.342  31.208  30.025  1.00  0.00     0.074 A 
ATOM     53  C   UNL A   1      46.986  30.694  27.189  1.00  0.00     0.029 A 
ATOM     54  N   UNL A   1      44.956  30.309  28.014  1.00  0.00    -0.354 N 
ATOM     55  N   UNL A   1      42.483  31.018  29.410  1.00  0.00    -0.248 NA
ATOM     56  C   UNL A   1      41.200  32.543  30.627  1.00  0.00     0.031 C 
ATOM     57  C   UNL A   1      46.555  31.844  27.857  1.00  0.00     0.029 A 
ATOM     58  C   UNL A   1      45.281  31.613  28.350  1.00  0.00     0.049 A 
ATOM     59  H   UNL A   1      44.112  29.859  28.244  1.00  0.00     0.167 HD
ATOM     60  C   UNL A   1      43.184  32.210  29.529  1.00  0.00     0.074 A 
ATOM     61  C   UNL A   1      42.334  33.125  30.262  1.00  0.00     0.031 C 
ATOM     62  C   UNL A   1      44.423  32.516  29.074  1.00  0.00     0.037 A 
BRANCH  49  63
ATOM     63  C   UNL A   1      47.221  27.905  26.070  1.00  0.00     0.064 A 
ATOM     64  C   UNL A   1      48.341  27.420  26.761  1.00  0.00     0.173 A 
ATOM     65  C   UNL A   1      47.247  27.863  24.667  1.00  0.00     0.173 A 
ATOM     66  F   UNL A   1      48.368  27.444  28.102  1.00  0.00    -0.203 F 
ATOM     67  C   UNL A   1      49.449  26.927  26.077  1.00  0.00     0.198 A 
ATOM     68  C   UNL A   1      48.345  27.343  23.986  1.00  0.00     0.198 A 
ATOM     69  F   UNL A   1      46.198  28.303  23.957  1.00  0.00    -0.203 F 
ATOM     70  F   UNL A   1      50.519  26.500  26.760  1.00  0.00    -0.200 F 
ATOM     71  C   UNL A   1      49.447  26.881  24.692  1.00  0.00     0.200 A 
ATOM     72  F   UNL A   1      48.336  27.283  22.648  1.00  0.00    -0.200 F 
ATOM     73  F   UNL A   1      50.507  26.389  24.035  1.00  0.00    -0.200 F 
ENDBRANCH  49  63
BRANCH  50  74
ATOM     74  C   UNL A   1      38.940  30.696  30.877  1.00  0.00     0.064 A 
ATOM     75  C   UNL A   1      37.881  31.256  30.149  1.00  0.00     0.173 A 
ATOM     76  C   UNL A   1      38.770  30.535  32.259  1.00  0.00     0.173 A 
ATOM     77  F   UNL A   1      38.004  31.446  28.828  1.00  0.00    -0.203 F 
ATOM     78  C   UNL A   1      36.702  31.649  30.779  1.00  0.00     0.198 A 
ATOM     79  C   UNL A   1      37.582  30.906  32.885  1.00  0.00     0.198 A 
ATOM     80  F   UNL A   1      39.751  29.997  32.998  1.00  0.00    -0.203 F 
ATOM     81  F   UNL A   1      35.718  32.212  30.064  1.00  0.00    -0.200 F 
ATOM     82  C   UNL A   1      36.551  31.467  32.145  1.00  0.00     0.200 A 
ATOM     83  F   UNL A   1      37.433  30.715  34.203  1.00  0.00    -0.200 F 
ATOM     84  F   UNL A   1      35.414  31.835  32.750  1.00  0.00    -0.200 F 
ENDBRANCH  50  74
BRANCH  62  85
ATOM     85  C   UNL A   1      44.934  33.902  29.332  1.00  0.00     0.064 A 
ATOM     86  C   UNL A   1      45.686  34.206  30.476  1.00  0.00     0.173 A 
ATOM     87  C   UNL A   1      44.721  34.926  28.395  1.00  0.00     0.173 A 
ATOM     88  F   UNL A   1      45.906  33.265  31.407  1.00  0.00    -0.203 F 
ATOM     89  C   UNL A   1      46.191  35.487  30.682  1.00  0.00     0.198 A 
ATOM     90  C   UNL A   1      45.249  36.198  28.591  1.00  0.00     0.198 A 
ATOM     91  F   UNL A   1      44.013  34.685  27.280  1.00  0.00    -0.203 F 
ATOM     92  F   UNL A   1      46.875  35.763  31.800  1.00  0.00    -0.200 F 
ATOM     93  C   UNL A   1      45.979  36.479  29.735  1.00  0.00     0.200 A 
ATOM     94  F   UNL A   1      45.055  37.152  27.670  1.00  0.00    -0.200 F 
ATOM     95  F   UNL A   1      46.476  37.709  29.930  1.00  0.00    -0.200 F 
ENDBRANCH  62  85
ENDBRANCH  36  37
ENDBRANCH  29  31
ENDBRANCH  28  29
ENDBRANCH  27  28
ENDBRANCH   1  27
TORSDOF 14
ENDMDL
MODEL 2
REMARK VINA RESULT:     -12.5      4.783      9.946
REMARK SMILES CN1C=C/C(=C\C=C/C=N\c2ccc(C(=O)OCCOC(=O)c3ccc(-c4c5nc(c(-c6c(F)c(F)c(F)c(F)c6F)c6ccc([nH]6)c(-c6c(F)c(F)c(F)c(F)c6F)c6nc(c(-c7c(F)c(F)c(F)c(F)c7F)c7ccc4[nH]7)C=C6)C=C5)cc3)cc2)c2ccccc21
REMARK SMILES IDX 18 1 17 2 15 3 16 4 14 5 11 6 12 7 87 8 13 9 86 10 10 11
REMARK SMILES IDX 9 12 8 13 7 14 6 15 1 16 2 17 3 18 93 19 4 20 88 21 92 22
REMARK SMILES IDX 5 23 89 24 91 25 90 26 19 27 20 28 21 29 22 30 23 31 24 32
REMARK SMILES IDX 85 33 25 34 84 35 26 36 27 37 28 38 78 39 29 40 83 41 77 42
REMARK SMILES IDX 79 43 30 44 82 45 76 46 75 47 31 49 63 50 43 51 62 52 44 53
REMARK SMILES IDX 47 54 61 55 80 56 45 57 46 58 60 60 81 61 48 62 32 63 33 64
REMARK SMILES IDX 41 65 34 66 35 67 39 68 42 69 36 70 37 71 40 72 38 73 64 74
REMARK SMILES IDX 65 75 73 76 66 77 67 78 71 79 74 80 68 81 69 82 72 83 70 84
REMARK SMILES IDX 49 85 50 86 58 87 51 88 52 89 56 90 59 91 53 92 54 93 57 94
REMARK SMILES IDX 55 95
REMARK H PARENT 79 48 47 59
REMARK Flexibility Score: inf
ROOT
ATOM      1  C   UNL A   1      31.630  31.576  26.418  1.00  0.00     0.275 C 
ENDROOT
BRANCH   1   2
ATOM      2  O   UNL A   1      32.015  30.439  27.216  1.00  0.00    -0.458 OA
BRANCH   2   3
ATOM      3  C   UNL A   1      33.173  29.823  26.875  1.00  0.00     0.338 C 
ATOM      4  O   UNL A   1      34.288  30.315  26.909  1.00  0.00    -0.246 OA
BRANCH   3   5
ATOM      5  C   UNL A   1      32.934  28.388  26.558  1.00  0.00     0.060 A 
ATOM      6  C   UNL A   1      32.664  25.616  26.144  1.00  0.00     0.063 A 
ATOM      7  C   UNL A   1      33.886  26.248  25.905  1.00  0.00     0.029 A 
ATOM      8  C   UNL A   1      31.563  26.392  26.522  1.00  0.00     0.029 A 
ATOM      9  C   UNL A   1      34.020  27.625  26.104  1.00  0.00     0.018 A 
ATOM     10  C   UNL A   1      31.694  27.769  26.739  1.00  0.00     0.018 A 
BRANCH   6  11
ATOM     11  N   UNL A   1      32.491  24.248  25.916  1.00  0.00    -0.257 NA
ATOM     12  C   UNL A   1      32.691  23.718  24.750  1.00  0.00     0.111 C 
BRANCH  12  13
ATOM     13  C   UNL A   1      33.134  24.347  23.475  1.00  0.00     0.020 C 
ATOM     14  C   UNL A   1      32.436  25.249  22.762  1.00  0.00     0.002 C 
BRANCH  14  15
ATOM     15  C   UNL A   1      31.118  25.792  23.059  1.00  0.00     0.009 C 
ATOM     16  C   UNL A   1      29.196  31.040  22.052  1.00  0.00     0.149 C 
ATOM     17  N   UNL A   1      29.681  29.695  22.356  1.00  0.00    -0.351 N 
ATOM     18  C   UNL A   1      30.996  29.332  22.129  1.00  0.00     0.086 C 
ATOM     19  C   UNL A   1      28.773  28.745  22.906  1.00  0.00     0.048 A 
ATOM     20  C   UNL A   1      31.513  28.118  22.356  1.00  0.00     0.026 C 
ATOM     21  C   UNL A   1      29.219  27.419  23.205  1.00  0.00     0.005 A 
ATOM     22  C   UNL A   1      27.427  29.076  23.175  1.00  0.00     0.027 A 
ATOM     23  C   UNL A   1      30.659  27.054  22.881  1.00  0.00    -0.015 C 
ATOM     24  C   UNL A   1      28.304  26.512  23.779  1.00  0.00     0.011 A 
ATOM     25  C   UNL A   1      26.540  28.153  23.731  1.00  0.00     0.002 A 
ATOM     26  C   UNL A   1      26.979  26.874  24.036  1.00  0.00     0.001 A 
ENDBRANCH  14  15
ENDBRANCH  12  13
ENDBRANCH   6  11
ENDBRANCH   3   5
ENDBRANCH   2   3
ENDBRANCH   1   2
BRANCH   1  27
ATOM     27  C   UNL A   1      31.665  32.862  27.249  1.00  0.00     0.275 C 
BRANCH  27  28
ATOM     28  O   UNL A   1      32.959  33.492  27.177  1.00  0.00    -0.458 OA
BRANCH  28  29
ATOM     29  C   UNL A   1      33.334  34.187  28.274  1.00  0.00     0.338 C 
ATOM     30  O   UNL A   1      32.750  35.116  28.809  1.00  0.00    -0.246 OA
BRANCH  29  31
ATOM     31  C   UNL A   1      34.537  33.563  28.840  1.00  0.00     0.060 A 
ATOM     32  C   UNL A   1      35.790  34.169  28.745  1.00  0.00     0.016 A 
ATOM     33  C   UNL A   1      34.384  32.365  29.535  1.00  0.00     0.016 A 
ATOM     34  C   UNL A   1      36.896  33.545  29.335  1.00  0.00     0.010 A 
ATOM     35  C   UNL A   1      35.479  31.756  30.142  1.00  0.00     0.010 A 
ATOM     36  C   UNL A   1      36.750  32.334  30.039  1.00  0.00    -0.014 A 
BRANCH  36  37
ATOM     37  C   UNL A   1      37.910  31.673  30.691  1.00  0.00     0.031 A 
ATOM     38  C   UNL A   1      38.302  32.023  32.101  1.00  0.00     0.074 A 
ATOM     39  C   UNL A   1      38.648  30.790  29.991  1.00  0.00     0.049 A 
ATOM     40  N   UNL A   1      39.288  31.556  32.827  1.00  0.00    -0.248 NA
ATOM     41  C   UNL A   1      37.497  33.052  32.778  1.00  0.00     0.031 C 
ATOM     42  C   UNL A   1      38.414  30.416  28.597  1.00  0.00     0.029 A 
ATOM     43  N   UNL A   1      39.743  30.046  30.357  1.00  0.00    -0.354 N 
ATOM     44  C   UNL A   1      39.223  32.231  34.038  1.00  0.00     0.074 A 
ATOM     45  C   UNL A   1      38.136  33.182  33.932  1.00  0.00     0.031 C 
ATOM     46  C   UNL A   1      39.309  29.481  28.238  1.00  0.00     0.029 A 
ATOM     47  C   UNL A   1      40.194  29.210  29.366  1.00  0.00     0.049 A 
ATOM     48  H   UNL A   1      40.163  30.107  31.246  1.00  0.00     0.167 HD
ATOM     49  C   UNL A   1      39.982  32.057  35.146  1.00  0.00     0.037 A 
ATOM     50  C   UNL A   1      41.202  28.316  29.371  1.00  0.00     0.037 A 
ATOM     51  C   UNL A   1      41.048  31.095  35.259  1.00  0.00     0.049 A 
ATOM     52  C   UNL A   1      42.017  28.127  30.620  1.00  0.00     0.074 A 
ATOM     53  C   UNL A   1      41.841  30.811  36.358  1.00  0.00     0.029 A 
ATOM     54  N   UNL A   1      41.467  30.256  34.238  1.00  0.00    -0.354 N 
ATOM     55  N   UNL A   1      41.905  28.728  31.779  1.00  0.00    -0.248 NA
ATOM     56  C   UNL A   1      43.094  27.127  30.564  1.00  0.00     0.031 C 
ATOM     57  C   UNL A   1      42.761  29.824  35.992  1.00  0.00     0.029 A 
ATOM     58  C   UNL A   1      42.513  29.460  34.678  1.00  0.00     0.049 A 
ATOM     59  H   UNL A   1      41.079  30.230  33.333  1.00  0.00     0.167 HD
ATOM     60  C   UNL A   1      42.878  28.168  32.595  1.00  0.00     0.074 A 
ATOM     61  C   UNL A   1      43.562  27.165  31.804  1.00  0.00     0.031 C 
ATOM     62  C   UNL A   1      43.180  28.461  33.883  1.00  0.00     0.037 A 
BRANCH  49  63
ATOM     63  C   UNL A   1      39.671  32.902  36.349  1.00  0.00     0.064 A 
ATOM     64  C   UNL A   1      40.331  34.119  36.574  1.00  0.00     0.173 A 
ATOM     65  C   UNL A   1      38.653  32.533  37.242  1.00  0.00     0.173 A 
ATOM     66  F   UNL A   1      41.315  34.514  35.752  1.00  0.00    -0.203 F 
ATOM     67  C   UNL A   1      39.998  34.926  37.658  1.00  0.00     0.198 A 
ATOM     68  C   UNL A   1      38.303  33.356  38.309  1.00  0.00     0.198 A 
ATOM     69  F   UNL A   1      37.981  31.385  37.066  1.00  0.00    -0.203 F 
ATOM     70  F   UNL A   1      40.667  36.068  37.870  1.00  0.00    -0.200 F 
ATOM     71  C   UNL A   1      38.980  34.549  38.519  1.00  0.00     0.200 A 
ATOM     72  F   UNL A   1      37.307  33.000  39.131  1.00  0.00    -0.200 F 
ATOM     73  F   UNL A   1      38.648  35.337  39.553  1.00  0.00    -0.200 F 
ENDBRANCH  49  63
BRANCH  50  74
ATOM     74  C   UNL A   1      41.449  27.484  28.166  1.00  0.00     0.064 A 
ATOM     75  C   UNL A   1      42.380  27.892  27.199  1.00  0.00     0.173 A 
ATOM     76  C   UNL A   1      40.791  26.263  27.966  1.00  0.00     0.173 A 
ATOM     77  F   UNL A   1      43.021  29.061  27.339  1.00  0.00    -0.203 F 
ATOM     78  C   UNL A   1      42.635  27.113  26.072  1.00  0.00     0.198 A 
ATOM     79  C   UNL A   1      41.064  25.474  26.850  1.00  0.00     0.198 A 
ATOM     80  F   UNL A   1      39.897  25.827  28.865  1.00  0.00    -0.203 F 
ATOM     81  F   UNL A   1      43.505  27.542  25.148  1.00  0.00    -0.200 F 
ATOM     82  C   UNL A   1      41.982  25.902  25.902  1.00  0.00     0.200 A 
ATOM     83  F   UNL A   1      40.442  24.297  26.696  1.00  0.00    -0.200 F 
ATOM     84  F   UNL A   1      42.235  25.148  24.824  1.00  0.00    -0.200 F 
ENDBRANCH  50  74
BRANCH  62  85
ATOM     85  C   UNL A   1      44.281  27.678  34.534  1.00  0.00     0.064 A 
ATOM     86  C   UNL A   1      45.600  28.154  34.563  1.00  0.00     0.173 A 
ATOM     87  C   UNL A   1      44.004  26.467  35.187  1.00  0.00     0.173 A 
ATOM     88  F   UNL A   1      45.918  29.299  33.942  1.00  0.00    -0.203 F 
ATOM     89  C   UNL A   1      46.605  27.437  35.208  1.00  0.00     0.198 A 
ATOM     90  C   UNL A   1      45.005  25.767  35.853  1.00  0.00     0.198 A 
ATOM     91  F   UNL A   1      42.756  25.973  35.193  1.00  0.00    -0.203 F 
ATOM     92  F   UNL A   1      47.865  27.893  35.192  1.00  0.00    -0.200 F 
ATOM     93  C   UNL A   1      46.305  26.250  35.859  1.00  0.00     0.200 A 
ATOM     94  F   UNL A   1      44.712  24.627  36.493  1.00  0.00    -0.200 F 
ATOM     95  F   UNL A   1      47.272  25.568  36.489  1.00  0.00    -0.200 F 
ENDBRANCH  62  85
ENDBRANCH  36  37
ENDBRANCH  29  31
ENDBRANCH  28  29
ENDBRANCH  27  28
ENDBRANCH   1  27
TORSDOF 14
ENDMDL
MODEL 3
REMARK VINA RESULT:     -12.4      4.499      8.491
REMARK SMILES CN1C=C/C(=C\C=C/C=N\c2ccc(C(=O)OCCOC(=O)c3ccc(-c4c5nc(c(-c6c(F)c(F)c(F)c(F)c6F)c6ccc([nH]6)c(-c6c(F)c(F)c(F)c(F)c6F)c6nc(c(-c7c(F)c(F)c(F)c(F)c7F)c7ccc4[nH]7)C=C6)C=C5)cc3)cc2)c2ccccc21
REMARK SMILES IDX 18 1 17 2 15 3 16 4 14 5 11 6 12 7 87 8 13 9 86 10 10 11
REMARK SMILES IDX 9 12 8 13 7 14 6 15 1 16 2 17 3 18 93 19 4 20 88 21 92 22
REMARK SMILES IDX 5 23 89 24 91 25 90 26 19 27 20 28 21 29 22 30 23 31 24 32
REMARK SMILES IDX 85 33 25 34 84 35 26 36 27 37 28 38 78 39 29 40 83 41 77 42
REMARK SMILES IDX 79 43 30 44 82 45 76 46 75 47 31 49 63 50 43 51 62 52 44 53
REMARK SMILES IDX 47 54 61 55 80 56 45 57 46 58 60 60 81 61 48 62 32 63 33 64
REMARK SMILES IDX 41 65 34 66 35 67 39 68 42 69 36 70 37 71 40 72 38 73 64 74
REMARK SMILES IDX 65 75 73 76 66 77 67 78 71 79 74 80 68 81 69 82 72 83 70 84
REMARK SMILES IDX 49 85 50 86 58 87 51 88 52 89 56 90 59 91 53 92 54 93 57 94
REMARK SMILES IDX 55 95
REMARK H PARENT 79 48 47 59
REMARK Flexibility Score: inf
ROOT
ATOM      1  C   UNL A   1      42.753  21.143  26.384  1.00  0.00     0.275 C 
ENDROOT
BRANCH   1   2
ATOM      2  O   UNL A   1      41.397  20.762  26.078  1.00  0.00    -0.458 OA
BRANCH   2   3
ATOM      3  C   UNL A   1      40.428  21.290  26.865  1.00  0.00     0.338 C 
ATOM      4  O   UNL A   1      40.518  21.531  28.057  1.00  0.00    -0.246 OA
BRANCH   3   5
ATOM      5  C   UNL A   1      39.238  21.669  26.054  1.00  0.00     0.060 A 
ATOM      6  C   UNL A   1      36.854  22.202  24.652  1.00  0.00     0.063 A 
ATOM      7  C   UNL A   1      37.458  20.945  24.565  1.00  0.00     0.029 A 
ATOM      8  C   UNL A   1      37.490  23.208  25.387  1.00  0.00     0.029 A 
ATOM      9  C   UNL A   1      38.644  20.681  25.254  1.00  0.00     0.018 A 
ATOM     10  C   UNL A   1      38.671  22.947  26.094  1.00  0.00     0.018 A 
BRANCH   6  11
ATOM     11  N   UNL A   1      35.689  22.506  23.942  1.00  0.00    -0.257 NA
ATOM     12  C   UNL A   1      34.543  22.635  24.533  1.00  0.00     0.111 C 
BRANCH  12  13
ATOM     13  C   UNL A   1      34.191  22.530  25.976  1.00  0.00     0.020 C 
ATOM     14  C   UNL A   1      33.170  23.163  26.581  1.00  0.00     0.002 C 
BRANCH  14  15
ATOM     15  C   UNL A   1      32.209  24.078  25.982  1.00  0.00     0.009 C 
ATOM     16  C   UNL A   1      33.005  29.507  24.517  1.00  0.00     0.149 C 
ATOM     17  N   UNL A   1      32.766  28.123  24.922  1.00  0.00    -0.351 N 
ATOM     18  C   UNL A   1      33.727  27.388  25.589  1.00  0.00     0.086 C 
ATOM     19  C   UNL A   1      31.505  27.529  24.624  1.00  0.00     0.048 A 
ATOM     20  C   UNL A   1      33.597  26.111  25.972  1.00  0.00     0.026 C 
ATOM     21  C   UNL A   1      31.247  26.173  25.001  1.00  0.00     0.005 A 
ATOM     22  C   UNL A   1      30.484  28.246  23.964  1.00  0.00     0.027 A 
ATOM     23  C   UNL A   1      32.360  25.390  25.680  1.00  0.00    -0.015 C 
ATOM     24  C   UNL A   1      29.978  25.625  24.721  1.00  0.00     0.011 A 
ATOM     25  C   UNL A   1      29.243  27.672  23.688  1.00  0.00     0.002 A 
ATOM     26  C   UNL A   1      28.989  26.365  24.070  1.00  0.00     0.001 A 
ENDBRANCH  14  15
ENDBRANCH  12  13
ENDBRANCH   6  11
ENDBRANCH   3   5
ENDBRANCH   2   3
ENDBRANCH   1   2
BRANCH   1  27
ATOM     27  C   UNL A   1      43.384  21.900  25.213  1.00  0.00     0.275 C 
BRANCH  27  28
ATOM     28  O   UNL A   1      42.782  23.199  25.048  1.00  0.00    -0.458 OA
BRANCH  28  29
ATOM     29  C   UNL A   1      43.608  24.255  25.226  1.00  0.00     0.338 C 
ATOM     30  O   UNL A   1      44.578  24.569  24.556  1.00  0.00    -0.246 OA
BRANCH  29  31
ATOM     31  C   UNL A   1      43.083  25.085  26.318  1.00  0.00     0.060 A 
ATOM     32  C   UNL A   1      42.125  24.604  27.209  1.00  0.00     0.016 A 
ATOM     33  C   UNL A   1      43.618  26.362  26.479  1.00  0.00     0.016 A 
ATOM     34  C   UNL A   1      41.688  25.429  28.253  1.00  0.00     0.010 A 
ATOM     35  C   UNL A   1      43.202  27.174  27.530  1.00  0.00     0.010 A 
ATOM     36  C   UNL A   1      42.223  26.721  28.423  1.00  0.00    -0.014 A 
BRANCH  36  37
ATOM     37  C   UNL A   1      41.788  27.599  29.540  1.00  0.00     0.031 A 
ATOM     38  C   UNL A   1      40.563  28.462  29.409  1.00  0.00     0.074 A 
ATOM     39  C   UNL A   1      42.533  27.660  30.661  1.00  0.00     0.049 A 
ATOM     40  N   UNL A   1      40.040  29.295  30.275  1.00  0.00    -0.248 NA
ATOM     41  C   UNL A   1      39.842  28.402  28.128  1.00  0.00     0.031 C 
ATOM     42  C   UNL A   1      43.778  26.926  30.885  1.00  0.00     0.029 A 
ATOM     43  N   UNL A   1      42.350  28.370  31.822  1.00  0.00    -0.354 N 
ATOM     44  C   UNL A   1      38.936  29.855  29.646  1.00  0.00     0.074 A 
ATOM     45  C   UNL A   1      38.895  29.311  28.305  1.00  0.00     0.031 C 
ATOM     46  C   UNL A   1      44.225  27.189  32.124  1.00  0.00     0.029 A 
ATOM     47  C   UNL A   1      43.313  28.128  32.770  1.00  0.00     0.049 A 
ATOM     48  H   UNL A   1      41.599  28.992  31.961  1.00  0.00     0.167 HD
ATOM     49  C   UNL A   1      38.026  30.723  30.149  1.00  0.00     0.037 A 
ATOM     50  C   UNL A   1      43.440  28.602  34.025  1.00  0.00     0.037 A 
ATOM     51  C   UNL A   1      38.054  31.245  31.491  1.00  0.00     0.049 A 
ATOM     52  C   UNL A   1      42.405  29.548  34.567  1.00  0.00     0.074 A 
ATOM     53  C   UNL A   1      37.148  32.092  32.107  1.00  0.00     0.029 A 
ATOM     54  N   UNL A   1      39.039  30.967  32.427  1.00  0.00    -0.354 N 
ATOM     55  N   UNL A   1      41.332  30.023  33.983  1.00  0.00    -0.248 NA
ATOM     56  C   UNL A   1      42.594  30.019  35.947  1.00  0.00     0.031 C 
ATOM     57  C   UNL A   1      37.601  32.351  33.403  1.00  0.00     0.029 A 
ATOM     58  C   UNL A   1      38.766  31.631  33.612  1.00  0.00     0.049 A 
ATOM     59  H   UNL A   1      39.817  30.384  32.272  1.00  0.00     0.167 HD
ATOM     60  C   UNL A   1      40.708  30.827  34.925  1.00  0.00     0.074 A 
ATOM     61  C   UNL A   1      41.513  30.765  36.128  1.00  0.00     0.031 C 
ATOM     62  C   UNL A   1      39.572  31.555  34.804  1.00  0.00     0.037 A 
BRANCH  49  63
ATOM     63  C   UNL A   1      36.893  31.144  29.257  1.00  0.00     0.064 A 
ATOM     64  C   UNL A   1      35.830  30.275  28.969  1.00  0.00     0.173 A 
ATOM     65  C   UNL A   1      36.828  32.451  28.747  1.00  0.00     0.173 A 
ATOM     66  F   UNL A   1      35.848  29.015  29.429  1.00  0.00    -0.203 F 
ATOM     67  C   UNL A   1      34.755  30.690  28.189  1.00  0.00     0.198 A 
ATOM     68  C   UNL A   1      35.737  32.871  27.990  1.00  0.00     0.198 A 
ATOM     69  F   UNL A   1      37.811  33.326  29.001  1.00  0.00    -0.203 F 
ATOM     70  F   UNL A   1      33.768  29.830  27.902  1.00  0.00    -0.200 F 
ATOM     71  C   UNL A   1      34.704  31.988  27.708  1.00  0.00     0.200 A 
ATOM     72  F   UNL A   1      35.680  34.131  27.540  1.00  0.00    -0.200 F 
ATOM     73  F   UNL A   1      33.658  32.392  26.972  1.00  0.00    -0.200 F 
ENDBRANCH  49  63
BRANCH  50  74
ATOM     74  C   UNL A   1      44.562  28.131  34.876  1.00  0.00     0.064 A 
ATOM     75  C   UNL A   1      45.771  28.839  34.915  1.00  0.00     0.173 A 
ATOM     76  C   UNL A   1      44.446  26.991  35.683  1.00  0.00     0.173 A 
ATOM     77  F   UNL A   1      45.935  29.925  34.147  1.00  0.00    -0.203 F 
ATOM     78  C   UNL A   1      46.827  28.419  35.722  1.00  0.00     0.198 A 
ATOM     79  C   UNL A   1      45.493  26.584  36.508  1.00  0.00     0.198 A 
ATOM     80  F   UNL A   1      43.307  26.283  35.686  1.00  0.00    -0.203 F 
ATOM     81  F   UNL A   1      47.983  29.096  35.715  1.00  0.00    -0.200 F 
ATOM     82  C   UNL A   1      46.684  27.296  36.523  1.00  0.00     0.200 A 
ATOM     83  F   UNL A   1      45.347  25.507  37.292  1.00  0.00    -0.200 F 
ATOM     84  F   UNL A   1      47.695  26.897  37.306  1.00  0.00    -0.200 F 
ENDBRANCH  50  74
BRANCH  62  85
ATOM     85  C   UNL A   1      39.111  32.329  36.003  1.00  0.00     0.064 A 
ATOM     86  C   UNL A   1      38.294  31.747  36.982  1.00  0.00     0.173 A 
ATOM     87  C   UNL A   1      39.542  33.650  36.206  1.00  0.00     0.173 A 
ATOM     88  F   UNL A   1      37.846  30.492  36.827  1.00  0.00    -0.203 F 
ATOM     89  C   UNL A   1      37.910  32.463  38.113  1.00  0.00     0.198 A 
ATOM     90  C   UNL A   1      39.177  34.354  37.350  1.00  0.00     0.198 A 
ATOM     91  F   UNL A   1      40.331  34.250  35.302  1.00  0.00    -0.203 F 
ATOM     92  F   UNL A   1      37.099  31.898  39.018  1.00  0.00    -0.200 F 
ATOM     93  C   UNL A   1      38.359  33.762  38.299  1.00  0.00     0.200 A 
ATOM     94  F   UNL A   1      39.622  35.604  37.535  1.00  0.00    -0.200 F 
ATOM     95  F   UNL A   1      37.997  34.446  39.394  1.00  0.00    -0.200 F 
ENDBRANCH  62  85
ENDBRANCH  36  37
ENDBRANCH  29  31
ENDBRANCH  28  29
ENDBRANCH  27  28
ENDBRANCH   1  27
TORSDOF 14
ENDMDL
