MODEL 1
REMARK VINA RESULT:     -12.9      0.000      0.000
REMARK SMILES C[C@@H]1CCCN(C(=O)CSc2nnc3c4ccccc4n(CC(=O)OCCOC(=O)c4ccc(-c5c6nc(c(-c7c(F)c(F)c(F)c(F)c7F)c7ccc([nH]7)c(-c7c(F)c(F)c(F)c(F)c7F)c7nc(c(-c8c(F)c(F)c(F)c(F)c8F)c8ccc5[nH]8)C=C7)C=C6)cc4)c3n2)C1
REMARK SMILES IDX 25 1 23 2 24 3 22 4 21 5 11 6 12 7 95 8 13 9 94 10 14 11
REMARK SMILES IDX 15 12 20 13 16 14 19 15 17 16 18 17 10 18 9 19 7 20 8 21
REMARK SMILES IDX 6 22 1 23 2 24 3 25 96 26 4 27 5 28 26 29 27 30 28 31 29 32
REMARK SMILES IDX 30 33 31 34 32 35 93 36 33 37 92 38 34 39 35 40 36 41 86 42
REMARK SMILES IDX 37 43 91 44 85 45 87 46 38 47 90 48 84 49 83 50 39 52 71 53
REMARK SMILES IDX 51 54 70 55 52 56 55 57 69 58 88 59 53 60 54 61 68 63 89 64
REMARK SMILES IDX 56 65 40 66 41 67 49 68 42 69 43 70 47 71 50 72 44 73 45 74
REMARK SMILES IDX 48 75 46 76 72 77 73 78 81 79 74 80 75 81 79 82 82 83 76 84
REMARK SMILES IDX 77 85 80 86 78 87 57 88 58 89 66 90 59 91 60 92 64 93 67 94
REMARK SMILES IDX 61 95 62 96 65 97 63 98
REMARK H PARENT 87 51 55 62
REMARK Flexibility Score: inf
ROOT
ATOM      1  O   UNL A   1      38.046  21.244  25.099  1.00  0.00    -0.461 OA
ENDROOT
BRANCH   1   2
ATOM      2  C   UNL A   1      36.924  21.812  24.595  1.00  0.00     0.326 C 
ATOM      3  O   UNL A   1      36.872  22.378  23.504  1.00  0.00    -0.250 OA
BRANCH   2   4
ATOM      4  C   UNL A   1      35.698  21.692  25.452  1.00  0.00     0.246 C 
BRANCH   4   5
ATOM      5  N   UNL A   1      34.450  21.211  24.871  1.00  0.00    -0.313 N 
ATOM      6  C   UNL A   1      32.571  24.033  23.863  1.00  0.00     0.211 A 
ATOM      7  N   UNL A   1      31.561  23.406  23.209  1.00  0.00    -0.122 NA
ATOM      8  N   UNL A   1      33.611  23.443  24.477  1.00  0.00    -0.201 NA
ATOM      9  N   UNL A   1      31.537  22.072  23.106  1.00  0.00    -0.144 NA
ATOM     10  C   UNL A   1      33.541  22.106  24.364  1.00  0.00     0.165 A 
ATOM     11  C   UNL A   1      32.557  21.405  23.701  1.00  0.00     0.138 A 
ATOM     12  C   UNL A   1      32.881  20.029  23.774  1.00  0.00     0.030 A 
ATOM     13  C   UNL A   1      34.101  19.927  24.469  1.00  0.00     0.053 A 
ATOM     14  C   UNL A   1      32.258  18.857  23.292  1.00  0.00     0.013 A 
ATOM     15  C   UNL A   1      34.705  18.671  24.637  1.00  0.00     0.027 A 
ATOM     16  C   UNL A   1      32.881  17.618  23.444  1.00  0.00     0.001 A 
ATOM     17  C   UNL A   1      34.105  17.532  24.087  1.00  0.00     0.002 A 
BRANCH   6  18
ATOM     18  S   UNL A   1      32.471  25.786  24.106  1.00  0.00    -0.074 SA
BRANCH  18  19
ATOM     19  C   UNL A   1      32.578  25.859  25.911  1.00  0.00     0.178 C 
BRANCH  19  20
ATOM     20  C   UNL A   1      32.132  27.180  26.508  1.00  0.00     0.233 C 
ATOM     21  O   UNL A   1      31.147  27.197  27.252  1.00  0.00    -0.274 OA
BRANCH  20  22
ATOM     22  N   UNL A   1      32.875  28.326  26.268  1.00  0.00    -0.342 N 
ATOM     23  C   UNL A   1      31.402  31.803  26.501  1.00  0.00     0.009 C 
ATOM     24  C   UNL A   1      32.211  30.576  26.907  1.00  0.00     0.005 C 
ATOM     25  C   UNL A   1      33.678  30.893  27.242  1.00  0.00     0.007 C 
ATOM     26  C   UNL A   1      32.176  29.520  25.798  1.00  0.00     0.122 C 
ATOM     27  C   UNL A   1      34.452  29.631  27.628  1.00  0.00     0.022 C 
ATOM     28  C   UNL A   1      34.289  28.536  26.577  1.00  0.00     0.119 C 
ENDBRANCH  20  22
ENDBRANCH  19  20
ENDBRANCH  18  19
ENDBRANCH   6  18
ENDBRANCH   4   5
ENDBRANCH   2   4
ENDBRANCH   1   2
BRANCH   1  29
ATOM     29  C   UNL A   1      38.726  21.987  26.141  1.00  0.00     0.274 C 
BRANCH  29  30
ATOM     30  C   UNL A   1      40.154  21.469  26.335  1.00  0.00     0.275 C 
BRANCH  30  31
ATOM     31  O   UNL A   1      41.075  22.541  26.070  1.00  0.00    -0.458 OA
BRANCH  31  32
ATOM     32  C   UNL A   1      41.892  22.901  27.095  1.00  0.00     0.338 C 
ATOM     33  O   UNL A   1      42.960  22.422  27.395  1.00  0.00    -0.246 OA
BRANCH  32  34
ATOM     34  C   UNL A   1      41.429  24.242  27.511  1.00  0.00     0.060 A 
ATOM     35  C   UNL A   1      40.567  25.011  26.734  1.00  0.00     0.016 A 
ATOM     36  C   UNL A   1      42.074  24.805  28.613  1.00  0.00     0.016 A 
ATOM     37  C   UNL A   1      40.472  26.376  26.996  1.00  0.00     0.010 A 
ATOM     38  C   UNL A   1      42.048  26.172  28.819  1.00  0.00     0.010 A 
ATOM     39  C   UNL A   1      41.282  26.965  27.983  1.00  0.00    -0.014 A 
BRANCH  39  40
ATOM     40  C   UNL A   1      41.070  28.351  28.371  1.00  0.00     0.031 A 
ATOM     41  C   UNL A   1      42.224  29.200  27.986  1.00  0.00     0.074 A 
ATOM     42  C   UNL A   1      39.969  28.949  28.864  1.00  0.00     0.049 A 
ATOM     43  N   UNL A   1      43.155  29.635  28.765  1.00  0.00    -0.248 NA
ATOM     44  C   UNL A   1      42.443  29.475  26.559  1.00  0.00     0.031 C 
ATOM     45  C   UNL A   1      38.587  28.488  28.984  1.00  0.00     0.029 A 
ATOM     46  N   UNL A   1      39.918  30.210  29.387  1.00  0.00    -0.354 N 
ATOM     47  C   UNL A   1      44.018  30.361  27.956  1.00  0.00     0.074 A 
ATOM     48  C   UNL A   1      43.612  30.115  26.597  1.00  0.00     0.031 C 
ATOM     49  C   UNL A   1      37.806  29.512  29.429  1.00  0.00     0.029 A 
ATOM     50  C   UNL A   1      38.660  30.639  29.787  1.00  0.00     0.049 A 
ATOM     51  H   UNL A   1      40.718  30.776  29.473  1.00  0.00     0.167 HD
ATOM     52  C   UNL A   1      44.891  31.256  28.489  1.00  0.00     0.037 A 
ATOM     53  C   UNL A   1      38.388  31.829  30.383  1.00  0.00     0.037 A 
ATOM     54  C   UNL A   1      45.089  31.020  29.897  1.00  0.00     0.049 A 
ATOM     55  C   UNL A   1      39.650  32.381  30.917  1.00  0.00     0.074 A 
ATOM     56  C   UNL A   1      45.538  29.940  30.639  1.00  0.00     0.029 A 
ATOM     57  N   UNL A   1      44.443  31.828  30.799  1.00  0.00    -0.354 N 
ATOM     58  N   UNL A   1      40.253  31.924  31.973  1.00  0.00    -0.248 NA
ATOM     59  C   UNL A   1      40.452  33.215  30.035  1.00  0.00     0.031 C 
ATOM     60  C   UNL A   1      44.702  29.910  31.797  1.00  0.00     0.029 A 
ATOM     61  C   UNL A   1      43.830  30.994  31.701  1.00  0.00     0.049 A 
ATOM     62  H   UNL A   1      44.421  32.813  30.800  1.00  0.00     0.167 HD
ATOM     63  C   UNL A   1      41.600  32.064  31.688  1.00  0.00     0.074 A 
ATOM     64  C   UNL A   1      41.662  32.945  30.526  1.00  0.00     0.031 C 
ATOM     65  C   UNL A   1      42.523  31.238  32.253  1.00  0.00     0.037 A 
BRANCH  52  66
ATOM     66  C   UNL A   1      45.311  32.527  27.803  1.00  0.00     0.064 A 
ATOM     67  C   UNL A   1      44.334  33.488  27.485  1.00  0.00     0.173 A 
ATOM     68  C   UNL A   1      46.574  32.716  27.201  1.00  0.00     0.173 A 
ATOM     69  F   UNL A   1      43.091  33.391  27.981  1.00  0.00    -0.203 F 
ATOM     70  C   UNL A   1      44.584  34.520  26.578  1.00  0.00     0.198 A 
ATOM     71  C   UNL A   1      46.837  33.781  26.341  1.00  0.00     0.198 A 
ATOM     72  F   UNL A   1      47.567  31.827  27.324  1.00  0.00    -0.203 F 
ATOM     73  F   UNL A   1      43.587  35.335  26.210  1.00  0.00    -0.200 F 
ATOM     74  C   UNL A   1      45.834  34.664  26.004  1.00  0.00     0.200 A 
ATOM     75  F   UNL A   1      48.049  33.890  25.780  1.00  0.00    -0.200 F 
ATOM     76  F   UNL A   1      46.058  35.616  25.091  1.00  0.00    -0.200 F 
ENDBRANCH  52  66
BRANCH  53  77
ATOM     77  C   UNL A   1      37.205  32.704  30.357  1.00  0.00     0.064 A 
ATOM     78  C   UNL A   1      36.659  33.222  29.176  1.00  0.00     0.173 A 
ATOM     79  C   UNL A   1      36.380  32.714  31.488  1.00  0.00     0.173 A 
ATOM     80  F   UNL A   1      37.339  33.134  28.025  1.00  0.00    -0.203 F 
ATOM     81  C   UNL A   1      35.366  33.761  29.146  1.00  0.00     0.198 A 
ATOM     82  C   UNL A   1      35.096  33.258  31.464  1.00  0.00     0.198 A 
ATOM     83  F   UNL A   1      36.790  32.088  32.599  1.00  0.00    -0.203 F 
ATOM     84  F   UNL A   1      34.846  34.197  27.990  1.00  0.00    -0.200 F 
ATOM     85  C   UNL A   1      34.589  33.787  30.293  1.00  0.00     0.200 A 
ATOM     86  F   UNL A   1      34.330  33.219  32.561  1.00  0.00    -0.200 F 
ATOM     87  F   UNL A   1      33.340  34.268  30.262  1.00  0.00    -0.200 F 
ENDBRANCH  53  77
BRANCH  65  88
ATOM     88  C   UNL A   1      42.062  30.334  33.359  1.00  0.00     0.064 A 
ATOM     89  C   UNL A   1      41.547  29.041  33.149  1.00  0.00     0.173 A 
ATOM     90  C   UNL A   1      42.283  30.738  34.681  1.00  0.00     0.173 A 
ATOM     91  F   UNL A   1      41.383  28.556  31.912  1.00  0.00    -0.203 F 
ATOM     92  C   UNL A   1      41.246  28.204  34.223  1.00  0.00     0.198 A 
ATOM     93  C   UNL A   1      42.011  29.887  35.748  1.00  0.00     0.198 A 
ATOM     94  F   UNL A   1      42.810  31.946  34.934  1.00  0.00    -0.203 F 
ATOM     95  F   UNL A   1      40.754  26.976  34.001  1.00  0.00    -0.200 F 
ATOM     96  C   UNL A   1      41.489  28.625  35.520  1.00  0.00     0.200 A 
ATOM     97  F   UNL A   1      42.287  30.283  36.999  1.00  0.00    -0.200 F 
ATOM     98  F   UNL A   1      41.248  27.803  36.551  1.00  0.00    -0.200 F 
ENDBRANCH  65  88
ENDBRANCH  39  40
ENDBRANCH  32  34
ENDBRANCH  31  32
ENDBRANCH  30  31
ENDBRANCH  29  30
ENDBRANCH   1  29
TORSDOF 16
ENDMDL
MODEL 2
REMARK VINA RESULT:     -12.8      1.292      1.845
REMARK SMILES C[C@@H]1CCCN(C(=O)CSc2nnc3c4ccccc4n(CC(=O)OCCOC(=O)c4ccc(-c5c6nc(c(-c7c(F)c(F)c(F)c(F)c7F)c7ccc([nH]7)c(-c7c(F)c(F)c(F)c(F)c7F)c7nc(c(-c8c(F)c(F)c(F)c(F)c8F)c8ccc5[nH]8)C=C7)C=C6)cc4)c3n2)C1
REMARK SMILES IDX 25 1 23 2 24 3 22 4 21 5 11 6 12 7 95 8 13 9 94 10 14 11
REMARK SMILES IDX 15 12 20 13 16 14 19 15 17 16 18 17 10 18 9 19 7 20 8 21
REMARK SMILES IDX 6 22 1 23 2 24 3 25 96 26 4 27 5 28 26 29 27 30 28 31 29 32
REMARK SMILES IDX 30 33 31 34 32 35 93 36 33 37 92 38 34 39 35 40 36 41 86 42
REMARK SMILES IDX 37 43 91 44 85 45 87 46 38 47 90 48 84 49 83 50 39 52 71 53
REMARK SMILES IDX 51 54 70 55 52 56 55 57 69 58 88 59 53 60 54 61 68 63 89 64
REMARK SMILES IDX 56 65 40 66 41 67 49 68 42 69 43 70 47 71 50 72 44 73 45 74
REMARK SMILES IDX 48 75 46 76 72 77 73 78 81 79 74 80 75 81 79 82 82 83 76 84
REMARK SMILES IDX 77 85 80 86 78 87 57 88 58 89 66 90 59 91 60 92 64 93 67 94
REMARK SMILES IDX 61 95 62 96 65 97 63 98
REMARK H PARENT 87 51 55 62
REMARK Flexibility Score: inf
ROOT
ATOM      1  O   UNL A   1      37.554  22.107  26.150  1.00  0.00    -0.461 OA
ENDROOT
BRANCH   1   2
ATOM      2  C   UNL A   1      36.669  22.855  25.449  1.00  0.00     0.326 C 
ATOM      3  O   UNL A   1      36.532  24.068  25.590  1.00  0.00    -0.250 OA
BRANCH   2   4
ATOM      4  C   UNL A   1      35.850  22.107  24.438  1.00  0.00     0.246 C 
BRANCH   4   5
ATOM      5  N   UNL A   1      34.690  21.336  24.869  1.00  0.00    -0.313 N 
ATOM      6  C   UNL A   1      32.045  23.607  25.465  1.00  0.00     0.211 A 
ATOM      7  N   UNL A   1      31.037  22.724  25.677  1.00  0.00    -0.122 NA
ATOM      8  N   UNL A   1      33.324  23.304  25.187  1.00  0.00    -0.201 NA
ATOM      9  N   UNL A   1      31.255  21.406  25.603  1.00  0.00    -0.144 NA
ATOM     10  C   UNL A   1      33.504  21.974  25.137  1.00  0.00     0.165 A 
ATOM     11  C   UNL A   1      32.526  21.022  25.325  1.00  0.00     0.138 A 
ATOM     12  C   UNL A   1      33.117  19.750  25.138  1.00  0.00     0.030 A 
ATOM     13  C   UNL A   1      34.467  19.965  24.802  1.00  0.00     0.053 A 
ATOM     14  C   UNL A   1      32.621  18.429  25.204  1.00  0.00     0.013 A 
ATOM     15  C   UNL A   1      35.292  18.872  24.493  1.00  0.00     0.027 A 
ATOM     16  C   UNL A   1      33.446  17.353  24.869  1.00  0.00     0.001 A 
ATOM     17  C   UNL A   1      34.760  17.577  24.493  1.00  0.00     0.002 A 
BRANCH   6  18
ATOM     18  S   UNL A   1      31.738  25.332  25.731  1.00  0.00    -0.074 SA
BRANCH  18  19
ATOM     19  C   UNL A   1      33.319  26.020  25.187  1.00  0.00     0.178 C 
BRANCH  19  20
ATOM     20  C   UNL A   1      33.283  26.651  23.808  1.00  0.00     0.233 C 
ATOM     21  O   UNL A   1      33.661  25.988  22.838  1.00  0.00    -0.274 OA
BRANCH  20  22
ATOM     22  N   UNL A   1      32.766  27.928  23.652  1.00  0.00    -0.342 N 
ATOM     23  C   UNL A   1      29.139  28.572  22.792  1.00  0.00     0.009 C 
ATOM     24  C   UNL A   1      30.398  28.480  23.646  1.00  0.00     0.005 C 
ATOM     25  C   UNL A   1      30.718  29.778  24.407  1.00  0.00     0.007 C 
ATOM     26  C   UNL A   1      31.606  28.105  22.782  1.00  0.00     0.122 C 
ATOM     27  C   UNL A   1      31.997  29.641  25.237  1.00  0.00     0.022 C 
ATOM     28  C   UNL A   1      33.158  29.130  24.389  1.00  0.00     0.119 C 
ENDBRANCH  20  22
ENDBRANCH  19  20
ENDBRANCH  18  19
ENDBRANCH   6  18
ENDBRANCH   4   5
ENDBRANCH   2   4
ENDBRANCH   1   2
BRANCH   1  29
ATOM     29  C   UNL A   1      38.485  21.319  25.368  1.00  0.00     0.274 C 
BRANCH  29  30
ATOM     30  C   UNL A   1      39.744  20.998  26.181  1.00  0.00     0.275 C 
BRANCH  30  31
ATOM     31  O   UNL A   1      39.889  21.984  27.218  1.00  0.00    -0.458 OA
BRANCH  31  32
ATOM     32  C   UNL A   1      41.088  22.620  27.280  1.00  0.00     0.338 C 
ATOM     33  O   UNL A   1      42.117  22.319  26.722  1.00  0.00    -0.246 OA
BRANCH  32  34
ATOM     34  C   UNL A   1      40.789  23.965  27.818  1.00  0.00     0.060 A 
ATOM     35  C   UNL A   1      39.613  24.646  27.520  1.00  0.00     0.016 A 
ATOM     36  C   UNL A   1      41.841  24.624  28.456  1.00  0.00     0.016 A 
ATOM     37  C   UNL A   1      39.561  26.020  27.747  1.00  0.00     0.010 A 
ATOM     38  C   UNL A   1      41.824  25.999  28.600  1.00  0.00     0.010 A 
ATOM     39  C   UNL A   1      40.702  26.704  28.205  1.00  0.00    -0.014 A 
BRANCH  39  40
ATOM     40  C   UNL A   1      40.607  28.101  28.597  1.00  0.00     0.031 A 
ATOM     41  C   UNL A   1      41.758  28.883  28.083  1.00  0.00     0.074 A 
ATOM     42  C   UNL A   1      39.597  28.762  29.194  1.00  0.00     0.049 A 
ATOM     43  N   UNL A   1      42.788  29.272  28.755  1.00  0.00    -0.248 NA
ATOM     44  C   UNL A   1      41.842  29.137  26.638  1.00  0.00     0.031 C 
ATOM     45  C   UNL A   1      38.213  28.379  29.464  1.00  0.00     0.029 A 
ATOM     46  N   UNL A   1      39.670  30.027  29.705  1.00  0.00    -0.354 N 
ATOM     47  C   UNL A   1      43.600  29.944  27.852  1.00  0.00     0.074 A 
ATOM     48  C   UNL A   1      43.041  29.712  26.546  1.00  0.00     0.031 C 
ATOM     49  C   UNL A   1      37.540  29.447  29.976  1.00  0.00     0.029 A 
ATOM     50  C   UNL A   1      38.487  30.527  30.229  1.00  0.00     0.049 A 
ATOM     51  H   UNL A   1      40.504  30.549  29.700  1.00  0.00     0.167 HD
ATOM     52  C   UNL A   1      44.571  30.792  28.281  1.00  0.00     0.037 A 
ATOM     53  C   UNL A   1      38.343  31.734  30.837  1.00  0.00     0.037 A 
ATOM     54  C   UNL A   1      44.902  30.554  29.663  1.00  0.00     0.049 A 
ATOM     55  C   UNL A   1      39.682  32.219  31.229  1.00  0.00     0.074 A 
ATOM     56  C   UNL A   1      45.367  29.456  30.367  1.00  0.00     0.029 A 
ATOM     57  N   UNL A   1      44.399  31.402  30.619  1.00  0.00    -0.354 N 
ATOM     58  N   UNL A   1      40.367  31.735  32.222  1.00  0.00    -0.248 NA
ATOM     59  C   UNL A   1      40.431  33.003  30.259  1.00  0.00     0.031 C 
ATOM     60  C   UNL A   1      44.657  29.479  31.606  1.00  0.00     0.029 A 
ATOM     61  C   UNL A   1      43.840  30.608  31.589  1.00  0.00     0.049 A 
ATOM     62  H   UNL A   1      44.431  32.387  30.610  1.00  0.00     0.167 HD
ATOM     63  C   UNL A   1      41.683  31.800  31.797  1.00  0.00     0.074 A 
ATOM     64  C   UNL A   1      41.669  32.669  30.624  1.00  0.00     0.031 C 
ATOM     65  C   UNL A   1      42.613  30.928  32.271  1.00  0.00     0.037 A 
BRANCH  52  66
ATOM     66  C   UNL A   1      44.984  32.034  27.540  1.00  0.00     0.064 A 
ATOM     67  C   UNL A   1      46.265  32.092  26.961  1.00  0.00     0.173 A 
ATOM     68  C   UNL A   1      44.291  33.262  27.613  1.00  0.00     0.173 A 
ATOM     69  F   UNL A   1      47.023  30.989  26.865  1.00  0.00    -0.203 F 
ATOM     70  C   UNL A   1      46.835  33.299  26.551  1.00  0.00     0.198 A 
ATOM     71  C   UNL A   1      44.839  34.457  27.149  1.00  0.00     0.198 A 
ATOM     72  F   UNL A   1      43.111  33.383  28.233  1.00  0.00    -0.203 F 
ATOM     73  F   UNL A   1      48.104  33.323  26.124  1.00  0.00    -0.200 F 
ATOM     74  C   UNL A   1      46.123  34.481  26.648  1.00  0.00     0.200 A 
ATOM     75  F   UNL A   1      44.140  35.593  27.271  1.00  0.00    -0.200 F 
ATOM     76  F   UNL A   1      46.688  35.646  26.311  1.00  0.00    -0.200 F 
ENDBRANCH  52  66
BRANCH  53  77
ATOM     77  C   UNL A   1      37.212  32.673  30.924  1.00  0.00     0.064 A 
ATOM     78  C   UNL A   1      36.798  33.477  29.855  1.00  0.00     0.173 A 
ATOM     79  C   UNL A   1      36.294  32.488  31.965  1.00  0.00     0.173 A 
ATOM     80  F   UNL A   1      37.570  33.600  28.767  1.00  0.00    -0.203 F 
ATOM     81  C   UNL A   1      35.541  34.097  29.854  1.00  0.00     0.198 A 
ATOM     82  C   UNL A   1      35.047  33.111  31.971  1.00  0.00     0.198 A 
ATOM     83  F   UNL A   1      36.574  31.604  32.931  1.00  0.00    -0.203 F 
ATOM     84  F   UNL A   1      35.146  34.814  28.793  1.00  0.00    -0.200 F 
ATOM     85  C   UNL A   1      34.671  33.921  30.917  1.00  0.00     0.200 A 
ATOM     86  F   UNL A   1      34.187  32.882  32.972  1.00  0.00    -0.200 F 
ATOM     87  F   UNL A   1      33.455  34.482  30.906  1.00  0.00    -0.200 F 
ENDBRANCH  53  77
BRANCH  65  88
ATOM     88  C   UNL A   1      42.223  30.057  33.430  1.00  0.00     0.064 A 
ATOM     89  C   UNL A   1      41.676  28.767  33.290  1.00  0.00     0.173 A 
ATOM     90  C   UNL A   1      42.545  30.488  34.722  1.00  0.00     0.173 A 
ATOM     91  F   UNL A   1      41.416  28.256  32.080  1.00  0.00    -0.203 F 
ATOM     92  C   UNL A   1      41.443  27.960  34.403  1.00  0.00     0.198 A 
ATOM     93  C   UNL A   1      42.341  29.667  35.827  1.00  0.00     0.198 A 
ATOM     94  F   UNL A   1      43.105  31.694  34.906  1.00  0.00    -0.203 F 
ATOM     95  F   UNL A   1      40.920  26.735  34.248  1.00  0.00    -0.200 F 
ATOM     96  C   UNL A   1      41.786  28.407  35.668  1.00  0.00     0.200 A 
ATOM     97  F   UNL A   1      42.713  30.088  37.044  1.00  0.00    -0.200 F 
ATOM     98  F   UNL A   1      41.611  27.614  36.734  1.00  0.00    -0.200 F 
ENDBRANCH  65  88
ENDBRANCH  39  40
ENDBRANCH  32  34
ENDBRANCH  31  32
ENDBRANCH  30  31
ENDBRANCH  29  30
ENDBRANCH   1  29
TORSDOF 16
ENDMDL
MODEL 3
REMARK VINA RESULT:     -12.7      3.287      9.434
REMARK SMILES C[C@@H]1CCCN(C(=O)CSc2nnc3c4ccccc4n(CC(=O)OCCOC(=O)c4ccc(-c5c6nc(c(-c7c(F)c(F)c(F)c(F)c7F)c7ccc([nH]7)c(-c7c(F)c(F)c(F)c(F)c7F)c7nc(c(-c8c(F)c(F)c(F)c(F)c8F)c8ccc5[nH]8)C=C7)C=C6)cc4)c3n2)C1
REMARK SMILES IDX 25 1 23 2 24 3 22 4 21 5 11 6 12 7 95 8 13 9 94 10 14 11
REMARK SMILES IDX 15 12 20 13 16 14 19 15 17 16 18 17 10 18 9 19 7 20 8 21
REMARK SMILES IDX 6 22 1 23 2 24 3 25 96 26 4 27 5 28 26 29 27 30 28 31 29 32
REMARK SMILES IDX 30 33 31 34 32 35 93 36 33 37 92 38 34 39 35 40 36 41 86 42
REMARK SMILES IDX 37 43 91 44 85 45 87 46 38 47 90 48 84 49 83 50 39 52 71 53
REMARK SMILES IDX 51 54 70 55 52 56 55 57 69 58 88 59 53 60 54 61 68 63 89 64
REMARK SMILES IDX 56 65 40 66 41 67 49 68 42 69 43 70 47 71 50 72 44 73 45 74
REMARK SMILES IDX 48 75 46 76 72 77 73 78 81 79 74 80 75 81 79 82 82 83 76 84
REMARK SMILES IDX 77 85 80 86 78 87 57 88 58 89 66 90 59 91 60 92 64 93 67 94
REMARK SMILES IDX 61 95 62 96 65 97 63 98
REMARK H PARENT 87 51 55 62
REMARK Flexibility Score: inf
ROOT
ATOM      1  O   UNL A   1      32.704  31.195  26.899  1.00  0.00    -0.461 OA
ENDROOT
BRANCH   1   2
ATOM      2  C   UNL A   1      32.258  29.957  26.579  1.00  0.00     0.326 C 
ATOM      3  O   UNL A   1      31.723  29.192  27.379  1.00  0.00    -0.250 OA
BRANCH   2   4
ATOM      4  C   UNL A   1      32.432  29.559  25.142  1.00  0.00     0.246 C 
BRANCH   4   5
ATOM      5  N   UNL A   1      31.328  28.934  24.422  1.00  0.00    -0.313 N 
ATOM      6  C   UNL A   1      31.708  25.428  24.698  1.00  0.00     0.211 A 
ATOM      7  N   UNL A   1      30.536  25.033  24.140  1.00  0.00    -0.122 NA
ATOM      8  N   UNL A   1      32.125  26.695  24.862  1.00  0.00    -0.201 NA
ATOM      9  N   UNL A   1      29.648  25.933  23.703  1.00  0.00    -0.144 NA
ATOM     10  C   UNL A   1      31.214  27.566  24.398  1.00  0.00     0.165 A 
ATOM     11  C   UNL A   1      29.999  27.236  23.837  1.00  0.00     0.138 A 
ATOM     12  C   UNL A   1      29.323  28.442  23.530  1.00  0.00     0.030 A 
ATOM     13  C   UNL A   1      30.150  29.500  23.951  1.00  0.00     0.053 A 
ATOM     14  C   UNL A   1      28.068  28.731  22.950  1.00  0.00     0.013 A 
ATOM     15  C   UNL A   1      29.702  30.825  23.830  1.00  0.00     0.027 A 
ATOM     16  C   UNL A   1      27.624  30.051  22.859  1.00  0.00     0.001 A 
ATOM     17  C   UNL A   1      28.425  31.084  23.319  1.00  0.00     0.002 A 
BRANCH   6  18
ATOM     18  S   UNL A   1      32.913  24.197  25.112  1.00  0.00    -0.074 SA
BRANCH  18  19
ATOM     19  C   UNL A   1      34.257  24.687  24.004  1.00  0.00     0.178 C 
BRANCH  19  20
ATOM     20  C   UNL A   1      35.326  23.628  23.814  1.00  0.00     0.233 C 
ATOM     21  O   UNL A   1      35.640  23.297  22.667  1.00  0.00    -0.274 OA
BRANCH  20  22
ATOM     22  N   UNL A   1      35.977  23.105  24.920  1.00  0.00    -0.342 N 
ATOM     23  C   UNL A   1      37.800  19.791  24.841  1.00  0.00     0.009 C 
ATOM     24  C   UNL A   1      37.609  21.304  24.854  1.00  0.00     0.005 C 
ATOM     25  C   UNL A   1      38.409  22.013  25.959  1.00  0.00     0.007 C 
ATOM     26  C   UNL A   1      36.126  21.655  25.016  1.00  0.00     0.122 C 
ATOM     27  C   UNL A   1      38.173  23.525  25.941  1.00  0.00     0.022 C 
ATOM     28  C   UNL A   1      36.682  23.855  25.959  1.00  0.00     0.119 C 
ENDBRANCH  20  22
ENDBRANCH  19  20
ENDBRANCH  18  19
ENDBRANCH   6  18
ENDBRANCH   4   5
ENDBRANCH   2   4
ENDBRANCH   1   2
BRANCH   1  29
ATOM     29  C   UNL A   1      33.965  31.255  27.612  1.00  0.00     0.274 C 
BRANCH  29  30
ATOM     30  C   UNL A   1      34.282  32.693  28.035  1.00  0.00     0.275 C 
BRANCH  30  31
ATOM     31  O   UNL A   1      35.663  32.766  28.426  1.00  0.00    -0.458 OA
BRANCH  31  32
ATOM     32  C   UNL A   1      35.911  32.781  29.763  1.00  0.00     0.338 C 
ATOM     33  O   UNL A   1      35.203  33.209  30.643  1.00  0.00    -0.246 OA
BRANCH  32  34
ATOM     34  C   UNL A   1      37.009  31.812  29.967  1.00  0.00     0.060 A 
ATOM     35  C   UNL A   1      38.341  32.200  30.071  1.00  0.00     0.016 A 
ATOM     36  C   UNL A   1      36.678  30.463  29.823  1.00  0.00     0.016 A 
ATOM     37  C   UNL A   1      39.333  31.238  29.891  1.00  0.00     0.010 A 
ATOM     38  C   UNL A   1      37.658  29.525  29.558  1.00  0.00     0.010 A 
ATOM     39  C   UNL A   1      38.985  29.919  29.547  1.00  0.00    -0.014 A 
BRANCH  39  40
ATOM     40  C   UNL A   1      40.000  28.879  29.519  1.00  0.00     0.031 A 
ATOM     41  C   UNL A   1      40.452  28.530  30.888  1.00  0.00     0.074 A 
ATOM     42  C   UNL A   1      40.442  28.134  28.488  1.00  0.00     0.049 A 
ATOM     43  N   UNL A   1      41.547  28.902  31.458  1.00  0.00    -0.248 NA
ATOM     44  C   UNL A   1      39.521  27.808  31.768  1.00  0.00     0.031 C 
ATOM     45  C   UNL A   1      39.934  27.963  27.128  1.00  0.00     0.029 A 
ATOM     46  N   UNL A   1      41.537  27.318  28.511  1.00  0.00    -0.354 N 
ATOM     47  C   UNL A   1      41.519  28.352  32.731  1.00  0.00     0.074 A 
ATOM     48  C   UNL A   1      40.199  27.810  32.916  1.00  0.00     0.031 C 
ATOM     49  C   UNL A   1      40.653  26.994  26.496  1.00  0.00     0.029 A 
ATOM     50  C   UNL A   1      41.773  26.604  27.345  1.00  0.00     0.049 A 
ATOM     51  H   UNL A   1      42.119  27.241  29.300  1.00  0.00     0.167 HD
ATOM     52  C   UNL A   1      42.656  28.229  33.465  1.00  0.00     0.037 A 
ATOM     53  C   UNL A   1      42.832  25.781  27.126  1.00  0.00     0.037 A 
ATOM     54  C   UNL A   1      43.699  29.090  32.965  1.00  0.00     0.049 A 
ATOM     55  C   UNL A   1      43.879  26.099  28.118  1.00  0.00     0.074 A 
ATOM     56  C   UNL A   1      43.811  30.457  32.777  1.00  0.00     0.029 A 
ATOM     57  N   UNL A   1      44.697  28.541  32.199  1.00  0.00    -0.354 N 
ATOM     58  N   UNL A   1      44.623  27.164  28.072  1.00  0.00    -0.248 NA
ATOM     59  C   UNL A   1      43.838  25.405  29.395  1.00  0.00     0.031 C 
ATOM     60  C   UNL A   1      44.505  30.606  31.537  1.00  0.00     0.029 A 
ATOM     61  C   UNL A   1      44.803  29.325  31.077  1.00  0.00     0.049 A 
ATOM     62  H   UNL A   1      45.233  27.742  32.412  1.00  0.00     0.167 HD
ATOM     63  C   UNL A   1      44.815  27.508  29.399  1.00  0.00     0.074 A 
ATOM     64  C   UNL A   1      44.388  26.343  30.167  1.00  0.00     0.031 C 
ATOM     65  C   UNL A   1      45.045  28.800  29.759  1.00  0.00     0.037 A 
BRANCH  52  66
ATOM     66  C   UNL A   1      42.914  27.102  34.428  1.00  0.00     0.064 A 
ATOM     67  C   UNL A   1      42.839  27.352  35.811  1.00  0.00     0.173 A 
ATOM     68  C   UNL A   1      43.497  25.870  34.060  1.00  0.00     0.173 A 
ATOM     69  F   UNL A   1      42.328  28.504  36.271  1.00  0.00    -0.203 F 
ATOM     70  C   UNL A   1      43.373  26.466  36.749  1.00  0.00     0.198 A 
ATOM     71  C   UNL A   1      43.976  24.961  35.002  1.00  0.00     0.198 A 
ATOM     72  F   UNL A   1      43.732  25.541  32.784  1.00  0.00    -0.203 F 
ATOM     73  F   UNL A   1      43.394  26.806  38.044  1.00  0.00    -0.200 F 
ATOM     74  C   UNL A   1      43.944  25.274  36.344  1.00  0.00     0.200 A 
ATOM     75  F   UNL A   1      44.543  23.820  34.587  1.00  0.00    -0.200 F 
ATOM     76  F   UNL A   1      44.508  24.451  37.237  1.00  0.00    -0.200 F 
ENDBRANCH  52  66
BRANCH  53  77
ATOM     77  C   UNL A   1      42.991  24.562  26.316  1.00  0.00     0.064 A 
ATOM     78  C   UNL A   1      43.995  24.406  25.352  1.00  0.00     0.173 A 
ATOM     79  C   UNL A   1      42.374  23.393  26.777  1.00  0.00     0.173 A 
ATOM     80  F   UNL A   1      44.715  25.463  24.954  1.00  0.00    -0.203 F 
ATOM     81  C   UNL A   1      44.329  23.143  24.846  1.00  0.00     0.198 A 
ATOM     82  C   UNL A   1      42.699  22.135  26.269  1.00  0.00     0.198 A 
ATOM     83  F   UNL A   1      41.525  23.467  27.809  1.00  0.00    -0.203 F 
ATOM     84  F   UNL A   1      45.333  23.015  23.967  1.00  0.00    -0.200 F 
ATOM     85  C   UNL A   1      43.674  22.009  25.299  1.00  0.00     0.200 A 
ATOM     86  F   UNL A   1      42.106  21.039  26.760  1.00  0.00    -0.200 F 
ATOM     87  F   UNL A   1      44.014  20.796  24.846  1.00  0.00    -0.200 F 
ENDBRANCH  53  77
BRANCH  65  88
ATOM     88  C   UNL A   1      45.313  29.790  28.662  1.00  0.00     0.064 A 
ATOM     89  C   UNL A   1      44.303  30.485  27.971  1.00  0.00     0.173 A 
ATOM     90  C   UNL A   1      46.641  30.148  28.403  1.00  0.00     0.173 A 
ATOM     91  F   UNL A   1      43.009  30.252  28.224  1.00  0.00    -0.203 F 
ATOM     92  C   UNL A   1      44.618  31.478  27.045  1.00  0.00     0.198 A 
ATOM     93  C   UNL A   1      46.950  31.162  27.501  1.00  0.00     0.198 A 
ATOM     94  F   UNL A   1      47.640  29.543  29.064  1.00  0.00    -0.203 F 
ATOM     95  F   UNL A   1      43.641  32.128  26.396  1.00  0.00    -0.200 F 
ATOM     96  C   UNL A   1      45.941  31.823  26.819  1.00  0.00     0.200 A 
ATOM     97  F   UNL A   1      48.229  31.521  27.318  1.00  0.00    -0.200 F 
ATOM     98  F   UNL A   1      46.244  32.812  25.967  1.00  0.00    -0.200 F 
ENDBRANCH  65  88
ENDBRANCH  39  40
ENDBRANCH  32  34
ENDBRANCH  31  32
ENDBRANCH  30  31
ENDBRANCH  29  30
ENDBRANCH   1  29
TORSDOF 16
ENDMDL
