MODEL 1
REMARK VINA RESULT:     -13.1      0.000      0.000
REMARK SMILES Cc1ccc(Nc2nc(C(=O)OCCOC(=O)c3ccc(-c4c5nc(c(-c6c(F)c(F)c(F)c(F)c6F)c6ccc([nH]6)c(-c6c(F)c(F)c(F)c(F)c6F)c6nc(c(-c7c(F)c(F)c(F)c(F)c7F)c7ccc4[nH]7)C=C6)C=C5)cc3)cs2)cc1
REMARK SMILES IDX 13 1 12 2 10 3 11 4 9 5 7 6 8 7 82 8 81 9 6 10 5 12 1 13
REMARK SMILES IDX 2 14 3 15 84 16 4 17 83 18 14 19 15 20 16 21 17 22 18 23
REMARK SMILES IDX 19 24 80 25 20 26 79 27 21 28 22 29 23 30 73 31 24 32 78 33
REMARK SMILES IDX 72 34 74 35 25 36 77 37 71 38 70 39 26 41 58 42 38 43 57 44
REMARK SMILES IDX 39 45 42 46 56 47 75 48 40 49 41 50 55 52 76 53 43 54 27 55
REMARK SMILES IDX 28 56 36 57 29 58 30 59 34 60 37 61 31 62 32 63 35 64 33 65
REMARK SMILES IDX 59 66 60 67 68 68 61 69 62 70 66 71 69 72 63 73 64 74 67 75
REMARK SMILES IDX 65 76 44 77 45 78 53 79 46 80 47 81 51 82 54 83 48 84 49 85
REMARK SMILES IDX 52 86 50 87
REMARK H PARENT 6 11 74 40 42 51
REMARK Flexibility Score: inf
ROOT
ATOM      1  C   UNL A   1      32.194  30.051  26.963  1.00  0.00     0.275 C 
ENDROOT
BRANCH   1   2
ATOM      2  O   UNL A   1      32.015  28.927  26.103  1.00  0.00    -0.457 OA
BRANCH   2   3
ATOM      3  C   UNL A   1      31.640  27.791  26.763  1.00  0.00     0.358 C 
ATOM      4  O   UNL A   1      31.214  27.782  27.912  1.00  0.00    -0.244 OA
BRANCH   3   5
ATOM      5  C   UNL A   1      31.836  26.587  25.964  1.00  0.00     0.161 A 
ATOM      6  C   UNL A   1      33.030  25.319  24.568  1.00  0.00     0.187 A 
ATOM      7  N   UNL A   1      33.046  26.386  25.331  1.00  0.00    -0.213 NA
ATOM      8  S   UNL A   1      31.548  24.446  24.614  1.00  0.00    -0.104 S 
ATOM      9  C   UNL A   1      30.919  25.574  25.749  1.00  0.00     0.104 A 
BRANCH   6  10
ATOM     10  N   UNL A   1      34.070  24.933  23.796  1.00  0.00    -0.332 N 
ATOM     11  H   UNL A   1      34.109  25.257  22.867  1.00  0.00     0.169 HD
BRANCH  10  12
ATOM     12  C   UNL A   1      35.100  24.090  24.255  1.00  0.00     0.040 A 
ATOM     13  C   UNL A   1      38.438  21.696  25.605  1.00  0.00     0.044 C 
ATOM     14  C   UNL A   1      37.277  22.512  25.123  1.00  0.00    -0.051 A 
ATOM     15  C   UNL A   1      36.695  23.442  25.984  1.00  0.00     0.005 A 
ATOM     16  C   UNL A   1      36.774  22.382  23.822  1.00  0.00     0.005 A 
ATOM     17  C   UNL A   1      35.628  24.224  25.549  1.00  0.00     0.026 A 
ATOM     18  C   UNL A   1      35.691  23.161  23.394  1.00  0.00     0.026 A 
ENDBRANCH  10  12
ENDBRANCH   6  10
ENDBRANCH   3   5
ENDBRANCH   2   3
ENDBRANCH   1   2
BRANCH   1  19
ATOM     19  C   UNL A   1      33.647  30.525  26.949  1.00  0.00     0.275 C 
BRANCH  19  20
ATOM     20  O   UNL A   1      34.517  30.099  28.040  1.00  0.00    -0.458 OA
BRANCH  20  21
ATOM     21  C   UNL A   1      35.579  30.727  28.602  1.00  0.00     0.338 C 
ATOM     22  O   UNL A   1      35.502  31.867  29.038  1.00  0.00    -0.246 OA
BRANCH  21  23
ATOM     23  C   UNL A   1      36.845  29.981  28.723  1.00  0.00     0.060 A 
ATOM     24  C   UNL A   1      37.047  29.129  29.823  1.00  0.00     0.016 A 
ATOM     25  C   UNL A   1      37.796  30.076  27.716  1.00  0.00     0.016 A 
ATOM     26  C   UNL A   1      38.156  28.280  29.853  1.00  0.00     0.010 A 
ATOM     27  C   UNL A   1      38.833  29.168  27.695  1.00  0.00     0.010 A 
ATOM     28  C   UNL A   1      39.034  28.281  28.767  1.00  0.00    -0.014 A 
BRANCH  28  29
ATOM     29  C   UNL A   1      40.317  27.582  28.752  1.00  0.00     0.031 A 
ATOM     30  C   UNL A   1      40.514  26.166  28.382  1.00  0.00     0.074 A 
ATOM     31  C   UNL A   1      41.372  28.352  29.096  1.00  0.00     0.049 A 
ATOM     32  N   UNL A   1      41.479  25.440  28.849  1.00  0.00    -0.248 NA
ATOM     33  C   UNL A   1      39.655  25.448  27.448  1.00  0.00     0.031 C 
ATOM     34  C   UNL A   1      42.795  28.071  29.010  1.00  0.00     0.029 A 
ATOM     35  N   UNL A   1      41.295  29.562  29.804  1.00  0.00    -0.354 N 
ATOM     36  C   UNL A   1      41.527  24.280  28.108  1.00  0.00     0.074 A 
ATOM     37  C   UNL A   1      40.322  24.294  27.306  1.00  0.00     0.031 C 
ATOM     38  C   UNL A   1      43.434  28.887  29.870  1.00  0.00     0.029 A 
ATOM     39  C   UNL A   1      42.412  29.579  30.648  1.00  0.00     0.049 A 
ATOM     40  H   UNL A   1      40.599  30.254  29.725  1.00  0.00     0.167 HD
ATOM     41  C   UNL A   1      42.650  23.503  28.128  1.00  0.00     0.037 A 
ATOM     42  C   UNL A   1      42.229  29.491  31.997  1.00  0.00     0.037 A 
ATOM     43  C   UNL A   1      43.692  24.086  28.965  1.00  0.00     0.049 A 
ATOM     44  C   UNL A   1      42.918  28.300  32.612  1.00  0.00     0.074 A 
ATOM     45  C   UNL A   1      44.769  24.906  28.673  1.00  0.00     0.029 A 
ATOM     46  N   UNL A   1      43.536  24.122  30.340  1.00  0.00    -0.354 N 
ATOM     47  N   UNL A   1      43.280  27.249  31.935  1.00  0.00    -0.248 NA
ATOM     48  C   UNL A   1      43.174  28.166  34.044  1.00  0.00     0.031 C 
ATOM     49  C   UNL A   1      45.249  25.459  29.886  1.00  0.00     0.029 A 
ATOM     50  C   UNL A   1      44.464  24.971  30.913  1.00  0.00     0.049 A 
ATOM     51  H   UNL A   1      42.857  23.614  30.840  1.00  0.00     0.167 HD
ATOM     52  C   UNL A   1      43.867  26.358  32.781  1.00  0.00     0.074 A 
ATOM     53  C   UNL A   1      43.734  26.946  34.100  1.00  0.00     0.031 C 
ATOM     54  C   UNL A   1      44.443  25.209  32.341  1.00  0.00     0.037 A 
BRANCH  41  55
ATOM     55  C   UNL A   1      42.910  22.381  27.152  1.00  0.00     0.064 A 
ATOM     56  C   UNL A   1      42.189  21.167  27.228  1.00  0.00     0.173 A 
ATOM     57  C   UNL A   1      43.877  22.437  26.134  1.00  0.00     0.173 A 
ATOM     58  F   UNL A   1      41.172  21.006  28.083  1.00  0.00    -0.203 F 
ATOM     59  C   UNL A   1      42.492  20.062  26.431  1.00  0.00     0.198 A 
ATOM     60  C   UNL A   1      44.206  21.317  25.358  1.00  0.00     0.198 A 
ATOM     61  F   UNL A   1      44.509  23.585  25.848  1.00  0.00    -0.203 F 
ATOM     62  F   UNL A   1      41.786  18.930  26.566  1.00  0.00    -0.200 F 
ATOM     63  C   UNL A   1      43.524  20.125  25.519  1.00  0.00     0.200 A 
ATOM     64  F   UNL A   1      45.193  21.399  24.454  1.00  0.00    -0.200 F 
ATOM     65  F   UNL A   1      43.848  19.050  24.788  1.00  0.00    -0.200 F 
ENDBRANCH  41  55
BRANCH  42  66
ATOM     66  C   UNL A   1      40.925  30.034  32.486  1.00  0.00     0.064 A 
ATOM     67  C   UNL A   1      40.662  31.414  32.376  1.00  0.00     0.173 A 
ATOM     68  C   UNL A   1      39.843  29.201  32.800  1.00  0.00     0.173 A 
ATOM     69  F   UNL A   1      41.654  32.267  32.072  1.00  0.00    -0.203 F 
ATOM     70  C   UNL A   1      39.367  31.921  32.482  1.00  0.00     0.198 A 
ATOM     71  C   UNL A   1      38.550  29.715  32.927  1.00  0.00     0.198 A 
ATOM     72  F   UNL A   1      40.013  27.877  32.923  1.00  0.00    -0.203 F 
ATOM     73  F   UNL A   1      39.143  33.228  32.278  1.00  0.00    -0.200 F 
ATOM     74  C   UNL A   1      38.310  31.069  32.744  1.00  0.00     0.200 A 
ATOM     75  F   UNL A   1      37.526  28.887  33.177  1.00  0.00    -0.200 F 
ATOM     76  F   UNL A   1      37.059  31.544  32.803  1.00  0.00    -0.200 F 
ENDBRANCH  42  66
BRANCH  54  77
ATOM     77  C   UNL A   1      45.135  24.255  33.242  1.00  0.00     0.064 A 
ATOM     78  C   UNL A   1      46.472  24.431  33.622  1.00  0.00     0.173 A 
ATOM     79  C   UNL A   1      44.503  23.061  33.629  1.00  0.00     0.173 A 
ATOM     80  F   UNL A   1      47.151  25.525  33.247  1.00  0.00    -0.203 F 
ATOM     81  C   UNL A   1      47.137  23.469  34.378  1.00  0.00     0.198 A 
ATOM     82  C   UNL A   1      45.182  22.084  34.350  1.00  0.00     0.198 A 
ATOM     83  F   UNL A   1      43.218  22.830  33.319  1.00  0.00    -0.203 F 
ATOM     84  F   UNL A   1      48.404  23.681  34.757  1.00  0.00    -0.200 F 
ATOM     85  C   UNL A   1      46.496  22.293  34.732  1.00  0.00     0.200 A 
ATOM     86  F   UNL A   1      44.561  20.941  34.670  1.00  0.00    -0.200 F 
ATOM     87  F   UNL A   1      47.145  21.359  35.439  1.00  0.00    -0.200 F 
ENDBRANCH  54  77
ENDBRANCH  28  29
ENDBRANCH  21  23
ENDBRANCH  20  21
ENDBRANCH  19  20
ENDBRANCH   1  19
TORSDOF 13
ENDMDL
MODEL 2
REMARK VINA RESULT:     -13.0      0.418      1.285
REMARK SMILES Cc1ccc(Nc2nc(C(=O)OCCOC(=O)c3ccc(-c4c5nc(c(-c6c(F)c(F)c(F)c(F)c6F)c6ccc([nH]6)c(-c6c(F)c(F)c(F)c(F)c6F)c6nc(c(-c7c(F)c(F)c(F)c(F)c7F)c7ccc4[nH]7)C=C6)C=C5)cc3)cs2)cc1
REMARK SMILES IDX 13 1 12 2 10 3 11 4 9 5 7 6 8 7 82 8 81 9 6 10 5 12 1 13
REMARK SMILES IDX 2 14 3 15 84 16 4 17 83 18 14 19 15 20 16 21 17 22 18 23
REMARK SMILES IDX 19 24 80 25 20 26 79 27 21 28 22 29 23 30 73 31 24 32 78 33
REMARK SMILES IDX 72 34 74 35 25 36 77 37 71 38 70 39 26 41 58 42 38 43 57 44
REMARK SMILES IDX 39 45 42 46 56 47 75 48 40 49 41 50 55 52 76 53 43 54 27 55
REMARK SMILES IDX 28 56 36 57 29 58 30 59 34 60 37 61 31 62 32 63 35 64 33 65
REMARK SMILES IDX 59 66 60 67 68 68 61 69 62 70 66 71 69 72 63 73 64 74 67 75
REMARK SMILES IDX 65 76 44 77 45 78 53 79 46 80 47 81 51 82 54 83 48 84 49 85
REMARK SMILES IDX 52 86 50 87
REMARK H PARENT 6 11 74 40 42 51
REMARK Flexibility Score: inf
ROOT
ATOM      1  C   UNL A   1      32.569  30.040  26.669  1.00  0.00     0.275 C 
ENDROOT
BRANCH   1   2
ATOM      2  O   UNL A   1      31.668  28.942  26.530  1.00  0.00    -0.457 OA
BRANCH   2   3
ATOM      3  C   UNL A   1      31.565  28.482  25.247  1.00  0.00     0.358 C 
ATOM      4  O   UNL A   1      31.223  29.180  24.300  1.00  0.00    -0.244 OA
BRANCH   3   5
ATOM      5  C   UNL A   1      31.872  27.060  25.135  1.00  0.00     0.161 A 
ATOM      6  C   UNL A   1      33.023  25.353  24.273  1.00  0.00     0.187 A 
ATOM      7  N   UNL A   1      32.944  26.660  24.362  1.00  0.00    -0.213 NA
ATOM      8  S   UNL A   1      31.825  24.515  25.180  1.00  0.00    -0.104 S 
ATOM      9  C   UNL A   1      31.192  26.015  25.732  1.00  0.00     0.104 A 
BRANCH   6  10
ATOM     10  N   UNL A   1      33.947  24.707  23.529  1.00  0.00    -0.332 N 
ATOM     11  H   UNL A   1      33.884  24.767  22.549  1.00  0.00     0.169 HD
BRANCH  10  12
ATOM     12  C   UNL A   1      34.996  23.952  24.087  1.00  0.00     0.040 A 
ATOM     13  C   UNL A   1      38.390  21.820  25.712  1.00  0.00     0.044 C 
ATOM     14  C   UNL A   1      37.209  22.543  25.137  1.00  0.00    -0.051 A 
ATOM     15  C   UNL A   1      36.626  23.580  25.864  1.00  0.00     0.005 A 
ATOM     16  C   UNL A   1      36.690  22.221  23.877  1.00  0.00     0.005 A 
ATOM     17  C   UNL A   1      35.541  24.278  25.339  1.00  0.00     0.026 A 
ATOM     18  C   UNL A   1      35.589  22.916  23.360  1.00  0.00     0.026 A 
ENDBRANCH  10  12
ENDBRANCH   6  10
ENDBRANCH   3   5
ENDBRANCH   2   3
ENDBRANCH   1   2
BRANCH   1  19
ATOM     19  C   UNL A   1      33.895  29.584  27.277  1.00  0.00     0.275 C 
BRANCH  19  20
ATOM     20  O   UNL A   1      34.920  30.593  27.522  1.00  0.00    -0.458 OA
BRANCH  20  21
ATOM     21  C   UNL A   1      35.707  30.790  28.608  1.00  0.00     0.338 C 
ATOM     22  O   UNL A   1      35.391  31.555  29.508  1.00  0.00    -0.246 OA
BRANCH  21  23
ATOM     23  C   UNL A   1      36.957  30.016  28.711  1.00  0.00     0.060 A 
ATOM     24  C   UNL A   1      37.137  29.126  29.785  1.00  0.00     0.016 A 
ATOM     25  C   UNL A   1      37.915  30.124  27.711  1.00  0.00     0.016 A 
ATOM     26  C   UNL A   1      38.229  28.255  29.792  1.00  0.00     0.010 A 
ATOM     27  C   UNL A   1      38.934  29.197  27.667  1.00  0.00     0.010 A 
ATOM     28  C   UNL A   1      39.112  28.273  28.711  1.00  0.00    -0.014 A 
BRANCH  28  29
ATOM     29  C   UNL A   1      40.382  27.549  28.679  1.00  0.00     0.031 A 
ATOM     30  C   UNL A   1      40.548  26.132  28.300  1.00  0.00     0.074 A 
ATOM     31  C   UNL A   1      41.455  28.297  29.017  1.00  0.00     0.049 A 
ATOM     32  N   UNL A   1      41.503  25.385  28.754  1.00  0.00    -0.248 NA
ATOM     33  C   UNL A   1      39.666  25.436  27.371  1.00  0.00     0.031 C 
ATOM     34  C   UNL A   1      42.871  27.989  28.916  1.00  0.00     0.029 A 
ATOM     35  N   UNL A   1      41.408  29.505  29.733  1.00  0.00    -0.354 N 
ATOM     36  C   UNL A   1      41.522  24.228  28.006  1.00  0.00     0.074 A 
ATOM     37  C   UNL A   1      40.310  24.269  27.216  1.00  0.00     0.031 C 
ATOM     38  C   UNL A   1      43.534  28.788  29.774  1.00  0.00     0.029 A 
ATOM     39  C   UNL A   1      42.533  29.496  30.565  1.00  0.00     0.049 A 
ATOM     40  H   UNL A   1      40.724  30.209  29.664  1.00  0.00     0.167 HD
ATOM     41  C   UNL A   1      42.630  23.430  28.011  1.00  0.00     0.037 A 
ATOM     42  C   UNL A   1      42.362  29.403  31.916  1.00  0.00     0.037 A 
ATOM     43  C   UNL A   1      43.691  23.988  28.841  1.00  0.00     0.049 A 
ATOM     44  C   UNL A   1      43.033  28.196  32.518  1.00  0.00     0.074 A 
ATOM     45  C   UNL A   1      44.781  24.789  28.543  1.00  0.00     0.029 A 
ATOM     46  N   UNL A   1      43.549  24.019  30.217  1.00  0.00    -0.354 N 
ATOM     47  N   UNL A   1      43.369  27.142  31.831  1.00  0.00    -0.248 NA
ATOM     48  C   UNL A   1      43.300  28.049  33.947  1.00  0.00     0.031 C 
ATOM     49  C   UNL A   1      45.283  25.325  29.754  1.00  0.00     0.029 A 
ATOM     50  C   UNL A   1      44.498  24.847  30.786  1.00  0.00     0.049 A 
ATOM     51  H   UNL A   1      42.865  23.522  30.722  1.00  0.00     0.167 HD
ATOM     52  C   UNL A   1      43.947  26.235  32.667  1.00  0.00     0.074 A 
ATOM     53  C   UNL A   1      43.837  26.818  33.990  1.00  0.00     0.031 C 
ATOM     54  C   UNL A   1      44.496  25.078  32.215  1.00  0.00     0.037 A 
BRANCH  41  55
ATOM     55  C   UNL A   1      42.859  22.308  27.027  1.00  0.00     0.064 A 
ATOM     56  C   UNL A   1      42.110  21.111  27.098  1.00  0.00     0.173 A 
ATOM     57  C   UNL A   1      43.823  22.348  26.004  1.00  0.00     0.173 A 
ATOM     58  F   UNL A   1      41.093  20.968  27.957  1.00  0.00    -0.203 F 
ATOM     59  C   UNL A   1      42.383  20.005  26.292  1.00  0.00     0.198 A 
ATOM     60  C   UNL A   1      44.121  21.226  25.219  1.00  0.00     0.198 A 
ATOM     61  F   UNL A   1      44.479  23.483  25.722  1.00  0.00    -0.203 F 
ATOM     62  F   UNL A   1      41.650  18.889  26.423  1.00  0.00    -0.200 F 
ATOM     63  C   UNL A   1      43.412  20.050  25.376  1.00  0.00     0.200 A 
ATOM     64  F   UNL A   1      45.105  21.291  24.311  1.00  0.00    -0.200 F 
ATOM     65  F   UNL A   1      43.707  18.971  24.636  1.00  0.00    -0.200 F 
ENDBRANCH  41  55
BRANCH  42  66
ATOM     66  C   UNL A   1      41.073  29.968  32.421  1.00  0.00     0.064 A 
ATOM     67  C   UNL A   1      40.846  31.357  32.345  1.00  0.00     0.173 A 
ATOM     68  C   UNL A   1      39.970  29.156  32.716  1.00  0.00     0.173 A 
ATOM     69  F   UNL A   1      41.860  32.191  32.059  1.00  0.00    -0.203 F 
ATOM     70  C   UNL A   1      39.565  31.896  32.465  1.00  0.00     0.198 A 
ATOM     71  C   UNL A   1      38.691  29.701  32.858  1.00  0.00     0.198 A 
ATOM     72  F   UNL A   1      40.105  27.826  32.807  1.00  0.00    -0.203 F 
ATOM     73  F   UNL A   1      39.375  33.212  32.293  1.00  0.00    -0.200 F 
ATOM     74  C   UNL A   1      38.486  31.065  32.708  1.00  0.00     0.200 A 
ATOM     75  F   UNL A   1      37.646  28.895  33.091  1.00  0.00    -0.200 F 
ATOM     76  F   UNL A   1      37.248  31.572  32.782  1.00  0.00    -0.200 F 
ENDBRANCH  42  66
BRANCH  54  77
ATOM     77  C   UNL A   1      45.178  24.106  33.105  1.00  0.00     0.064 A 
ATOM     78  C   UNL A   1      44.536  22.953  33.574  1.00  0.00     0.173 A 
ATOM     79  C   UNL A   1      46.453  24.393  33.621  1.00  0.00     0.173 A 
ATOM     80  F   UNL A   1      43.298  22.643  33.161  1.00  0.00    -0.203 F 
ATOM     81  C   UNL A   1      45.153  22.111  34.495  1.00  0.00     0.198 A 
ATOM     82  C   UNL A   1      47.051  23.572  34.570  1.00  0.00     0.198 A 
ATOM     83  F   UNL A   1      47.139  25.469  33.204  1.00  0.00    -0.203 F 
ATOM     84  F   UNL A   1      44.530  20.996  34.899  1.00  0.00    -0.200 F 
ATOM     85  C   UNL A   1      46.404  22.426  35.001  1.00  0.00     0.200 A 
ATOM     86  F   UNL A   1      48.252  23.895  35.070  1.00  0.00    -0.200 F 
ATOM     87  F   UNL A   1      46.986  21.627  35.905  1.00  0.00    -0.200 F 
ENDBRANCH  54  77
ENDBRANCH  28  29
ENDBRANCH  21  23
ENDBRANCH  20  21
ENDBRANCH  19  20
ENDBRANCH   1  19
TORSDOF 13
ENDMDL
MODEL 3
REMARK VINA RESULT:     -12.9      0.535      1.796
REMARK SMILES Cc1ccc(Nc2nc(C(=O)OCCOC(=O)c3ccc(-c4c5nc(c(-c6c(F)c(F)c(F)c(F)c6F)c6ccc([nH]6)c(-c6c(F)c(F)c(F)c(F)c6F)c6nc(c(-c7c(F)c(F)c(F)c(F)c7F)c7ccc4[nH]7)C=C6)C=C5)cc3)cs2)cc1
REMARK SMILES IDX 13 1 12 2 10 3 11 4 9 5 7 6 8 7 82 8 81 9 6 10 5 12 1 13
REMARK SMILES IDX 2 14 3 15 84 16 4 17 83 18 14 19 15 20 16 21 17 22 18 23
REMARK SMILES IDX 19 24 80 25 20 26 79 27 21 28 22 29 23 30 73 31 24 32 78 33
REMARK SMILES IDX 72 34 74 35 25 36 77 37 71 38 70 39 26 41 58 42 38 43 57 44
REMARK SMILES IDX 39 45 42 46 56 47 75 48 40 49 41 50 55 52 76 53 43 54 27 55
REMARK SMILES IDX 28 56 36 57 29 58 30 59 34 60 37 61 31 62 32 63 35 64 33 65
REMARK SMILES IDX 59 66 60 67 68 68 61 69 62 70 66 71 69 72 63 73 64 74 67 75
REMARK SMILES IDX 65 76 44 77 45 78 53 79 46 80 47 81 51 82 54 83 48 84 49 85
REMARK SMILES IDX 52 86 50 87
REMARK H PARENT 6 11 74 40 42 51
REMARK Flexibility Score: inf
ROOT
ATOM      1  C   UNL A   1      32.218  30.206  26.858  1.00  0.00     0.275 C 
ENDROOT
BRANCH   1   2
ATOM      2  O   UNL A   1      32.347  28.974  26.151  1.00  0.00    -0.457 OA
BRANCH   2   3
ATOM      3  C   UNL A   1      31.864  27.897  26.841  1.00  0.00     0.358 C 
ATOM      4  O   UNL A   1      31.383  27.971  27.965  1.00  0.00    -0.244 OA
BRANCH   3   5
ATOM      5  C   UNL A   1      32.018  26.645  26.108  1.00  0.00     0.161 A 
ATOM      6  C   UNL A   1      33.127  25.299  24.715  1.00  0.00     0.187 A 
ATOM      7  N   UNL A   1      33.185  26.412  25.407  1.00  0.00    -0.213 NA
ATOM      8  S   UNL A   1      31.661  24.422  24.919  1.00  0.00    -0.104 S 
ATOM      9  C   UNL A   1      31.100  25.616  26.021  1.00  0.00     0.104 A 
BRANCH   6  10
ATOM     10  N   UNL A   1      34.116  24.870  23.900  1.00  0.00    -0.332 N 
ATOM     11  H   UNL A   1      34.107  25.162  22.960  1.00  0.00     0.169 HD
BRANCH  10  12
ATOM     12  C   UNL A   1      35.160  24.028  24.329  1.00  0.00     0.040 A 
ATOM     13  C   UNL A   1      38.535  21.644  25.601  1.00  0.00     0.044 C 
ATOM     14  C   UNL A   1      37.362  22.457  25.146  1.00  0.00    -0.051 A 
ATOM     15  C   UNL A   1      36.745  23.326  26.045  1.00  0.00     0.005 A 
ATOM     16  C   UNL A   1      36.881  22.386  23.832  1.00  0.00     0.005 A 
ATOM     17  C   UNL A   1      35.666  24.105  25.636  1.00  0.00     0.026 A 
ATOM     18  C   UNL A   1      35.785  23.161  23.430  1.00  0.00     0.026 A 
ENDBRANCH  10  12
ENDBRANCH   6  10
ENDBRANCH   3   5
ENDBRANCH   2   3
ENDBRANCH   1   2
BRANCH   1  19
ATOM     19  C   UNL A   1      33.589  30.818  27.145  1.00  0.00     0.275 C 
BRANCH  19  20
ATOM     20  O   UNL A   1      34.537  30.038  27.933  1.00  0.00    -0.458 OA
BRANCH  20  21
ATOM     21  C   UNL A   1      35.607  30.444  28.660  1.00  0.00     0.338 C 
ATOM     22  O   UNL A   1      35.544  31.387  29.436  1.00  0.00    -0.246 OA
BRANCH  21  23
ATOM     23  C   UNL A   1      36.865  29.686  28.529  1.00  0.00     0.060 A 
ATOM     24  C   UNL A   1      37.667  29.862  27.388  1.00  0.00     0.016 A 
ATOM     25  C   UNL A   1      37.277  28.858  29.565  1.00  0.00     0.016 A 
ATOM     26  C   UNL A   1      38.944  29.296  27.339  1.00  0.00     0.010 A 
ATOM     27  C   UNL A   1      38.572  28.386  29.561  1.00  0.00     0.010 A 
ATOM     28  C   UNL A   1      39.406  28.581  28.446  1.00  0.00    -0.014 A 
BRANCH  28  29
ATOM     29  C   UNL A   1      40.636  27.793  28.455  1.00  0.00     0.031 A 
ATOM     30  C   UNL A   1      40.731  26.354  28.137  1.00  0.00     0.074 A 
ATOM     31  C   UNL A   1      41.744  28.497  28.769  1.00  0.00     0.049 A 
ATOM     32  N   UNL A   1      41.643  25.579  28.630  1.00  0.00    -0.248 NA
ATOM     33  C   UNL A   1      39.819  25.665  27.231  1.00  0.00     0.031 C 
ATOM     34  C   UNL A   1      43.143  28.113  28.692  1.00  0.00     0.029 A 
ATOM     35  N   UNL A   1      41.756  29.736  29.433  1.00  0.00    -0.354 N 
ATOM     36  C   UNL A   1      41.606  24.392  27.932  1.00  0.00     0.074 A 
ATOM     37  C   UNL A   1      40.402  24.461  27.131  1.00  0.00     0.031 C 
ATOM     38  C   UNL A   1      43.842  28.913  29.521  1.00  0.00     0.029 A 
ATOM     39  C   UNL A   1      42.875  29.704  30.273  1.00  0.00     0.049 A 
ATOM     40  H   UNL A   1      41.110  30.471  29.328  1.00  0.00     0.167 HD
ATOM     41  C   UNL A   1      42.672  23.538  27.979  1.00  0.00     0.037 A 
ATOM     42  C   UNL A   1      42.691  29.678  31.626  1.00  0.00     0.037 A 
ATOM     43  C   UNL A   1      43.755  24.076  28.793  1.00  0.00     0.049 A 
ATOM     44  C   UNL A   1      43.296  28.465  32.283  1.00  0.00     0.074 A 
ATOM     45  C   UNL A   1      44.887  24.806  28.470  1.00  0.00     0.029 A 
ATOM     46  N   UNL A   1      43.608  24.173  30.166  1.00  0.00    -0.354 N 
ATOM     47  N   UNL A   1      43.580  27.367  31.645  1.00  0.00    -0.248 NA
ATOM     48  C   UNL A   1      43.547  28.366  33.719  1.00  0.00     0.031 C 
ATOM     49  C   UNL A   1      45.409  25.367  29.661  1.00  0.00     0.029 A 
ATOM     50  C   UNL A   1      44.595  24.974  30.707  1.00  0.00     0.049 A 
ATOM     51  H   UNL A   1      42.896  23.734  30.685  1.00  0.00     0.167 HD
ATOM     52  C   UNL A   1      44.106  26.468  32.523  1.00  0.00     0.074 A 
ATOM     53  C   UNL A   1      44.019  27.112  33.819  1.00  0.00     0.031 C 
ATOM     54  C   UNL A   1      44.596  25.266  32.124  1.00  0.00     0.037 A 
BRANCH  41  55
ATOM     55  C   UNL A   1      42.847  22.365  27.046  1.00  0.00     0.064 A 
ATOM     56  C   UNL A   1      42.070  21.193  27.192  1.00  0.00     0.173 A 
ATOM     57  C   UNL A   1      43.786  22.330  25.999  1.00  0.00     0.173 A 
ATOM     58  F   UNL A   1      41.072  21.118  28.080  1.00  0.00    -0.203 F 
ATOM     59  C   UNL A   1      42.296  20.042  26.434  1.00  0.00     0.198 A 
ATOM     60  C   UNL A   1      44.037  21.165  25.263  1.00  0.00     0.198 A 
ATOM     61  F   UNL A   1      44.465  23.433  25.648  1.00  0.00    -0.203 F 
ATOM     62  F   UNL A   1      41.538  18.954  26.636  1.00  0.00    -0.200 F 
ATOM     63  C   UNL A   1      43.302  20.016  25.493  1.00  0.00     0.200 A 
ATOM     64  F   UNL A   1      45.000  21.160  24.330  1.00  0.00    -0.200 F 
ATOM     65  F   UNL A   1      43.552  18.897  24.800  1.00  0.00    -0.200 F 
ENDBRANCH  41  55
BRANCH  42  66
ATOM     66  C   UNL A   1      41.431  30.330  32.096  1.00  0.00     0.064 A 
ATOM     67  C   UNL A   1      40.326  29.531  32.454  1.00  0.00     0.173 A 
ATOM     68  C   UNL A   1      41.383  31.683  32.458  1.00  0.00     0.173 A 
ATOM     69  F   UNL A   1      40.311  28.224  32.143  1.00  0.00    -0.203 F 
ATOM     70  C   UNL A   1      39.273  30.038  33.215  1.00  0.00     0.198 A 
ATOM     71  C   UNL A   1      40.317  32.194  33.201  1.00  0.00     0.198 A 
ATOM     72  F   UNL A   1      42.394  32.508  32.151  1.00  0.00    -0.203 F 
ATOM     73  F   UNL A   1      38.286  29.224  33.616  1.00  0.00    -0.200 F 
ATOM     74  C   UNL A   1      39.276  31.367  33.600  1.00  0.00     0.200 A 
ATOM     75  F   UNL A   1      40.322  33.481  33.576  1.00  0.00    -0.200 F 
ATOM     76  F   UNL A   1      38.290  31.849  34.367  1.00  0.00    -0.200 F 
ENDBRANCH  42  66
BRANCH  54  77
ATOM     77  C   UNL A   1      45.222  24.299  33.060  1.00  0.00     0.064 A 
ATOM     78  C   UNL A   1      44.530  23.180  33.542  1.00  0.00     0.173 A 
ATOM     79  C   UNL A   1      46.491  24.560  33.604  1.00  0.00     0.173 A 
ATOM     80  F   UNL A   1      43.295  22.898  33.102  1.00  0.00    -0.203 F 
ATOM     81  C   UNL A   1      45.095  22.346  34.504  1.00  0.00     0.198 A 
ATOM     82  C   UNL A   1      47.036  23.749  34.593  1.00  0.00     0.198 A 
ATOM     83  F   UNL A   1      47.222  25.602  33.178  1.00  0.00    -0.203 F 
ATOM     84  F   UNL A   1      44.425  21.264  34.920  1.00  0.00    -0.200 F 
ATOM     85  C   UNL A   1      46.341  22.637  35.036  1.00  0.00     0.200 A 
ATOM     86  F   UNL A   1      48.232  24.049  35.117  1.00  0.00    -0.200 F 
ATOM     87  F   UNL A   1      46.871  21.846  35.978  1.00  0.00    -0.200 F 
ENDBRANCH  54  77
ENDBRANCH  28  29
ENDBRANCH  21  23
ENDBRANCH  20  21
ENDBRANCH  19  20
ENDBRANCH   1  19
TORSDOF 13
ENDMDL
