MODEL 1
REMARK VINA RESULT:     -11.1      0.000      0.000
REMARK SMILES O=C(OCCOC(=O)c1ccc(-c2c3nc(c(-c4c(F)c(F)c(F)c(F)c4F)c4ccc([nH]4)c(-c4c(F)c(F)c(F)c(F)c4F)c4nc(c(-c5c(F)c(F)c(F)c(F)c5F)c5ccc2[nH]5)C=C4)C=C3)cc1)C1=Cc2cc(Cl)c(Cl)c(Cl)c2O[C@@H]1C(F)(F)F
REMARK SMILES IDX 5 1 4 2 3 3 2 4 1 5 72 6 73 7 84 8 74 9 83 10 75 11 82 12
REMARK SMILES IDX 76 13 80 14 77 15 78 16 81 17 79 18 85 19 86 20 87 21 88 22
REMARK SMILES IDX 6 23 7 24 8 25 9 26 10 27 71 28 11 29 70 30 12 31 13 32
REMARK SMILES IDX 14 33 64 34 15 35 69 36 63 37 65 38 16 39 68 40 62 41 61 42
REMARK SMILES IDX 17 44 49 45 29 46 48 47 30 48 33 49 47 50 66 51 31 52 32 53
REMARK SMILES IDX 46 55 67 56 34 57 18 58 19 59 27 60 20 61 21 62 25 63 28 64
REMARK SMILES IDX 22 65 23 66 26 67 24 68 50 69 51 70 59 71 52 72 53 73 57 74
REMARK SMILES IDX 60 75 54 76 55 77 58 78 56 79 35 80 36 81 44 82 37 83 38 84
REMARK SMILES IDX 42 85 45 86 39 87 40 88 43 89 41 90
REMARK H PARENT 65 43 33 54
REMARK Flexibility Score: inf
ROOT
ATOM      1  C   UNL A   1      34.017  33.227  28.329  1.00  0.00     0.275 C 
ENDROOT
BRANCH   1   2
ATOM      2  C   UNL A   1      34.492  34.571  28.932  1.00  0.00     0.275 C 
BRANCH   2   3
ATOM      3  O   UNL A   1      34.147  34.726  30.338  1.00  0.00    -0.459 OA
BRANCH   3   4
ATOM      4  C   UNL A   1      34.643  33.838  31.251  1.00  0.00     0.338 C 
ATOM      5  O   UNL A   1      33.931  33.077  31.886  1.00  0.00    -0.246 OA
BRANCH   4   6
ATOM      6  C   UNL A   1      36.112  33.925  31.440  1.00  0.00     0.087 C 
ATOM      7  C   UNL A   1      36.612  34.578  32.500  1.00  0.00     0.027 C 
ATOM      8  C   UNL A   1      36.999  32.913  30.805  1.00  0.00     0.316 C 
ATOM      9  C   UNL A   1      37.321  33.688  33.438  1.00  0.00     0.020 A 
ATOM     10  O   UNL A   1      37.441  31.932  31.763  1.00  0.00    -0.474 OA
ATOM     11  C   UNL A   1      37.538  34.077  34.761  1.00  0.00     0.034 A 
ATOM     12  C   UNL A   1      37.557  32.351  33.070  1.00  0.00     0.148 A 
ATOM     13  C   UNL A   1      37.867  33.122  35.731  1.00  0.00     0.062 A 
ATOM     14  C   UNL A   1      37.823  31.380  34.051  1.00  0.00     0.103 A 
ATOM     15  Cl  UNL A   1      38.108  33.692  37.348  1.00  0.00    -0.083 Cl
ATOM     16  C   UNL A   1      37.944  31.761  35.397  1.00  0.00     0.082 A 
ATOM     17  Cl  UNL A   1      37.887  29.710  33.574  1.00  0.00    -0.079 Cl
ATOM     18  Cl  UNL A   1      38.112  30.560  36.641  1.00  0.00    -0.081 Cl
BRANCH   8  19
ATOM     19  C   UNL A   1      38.138  33.581  30.010  1.00  0.00     0.430 C 
ATOM     20  F   UNL A   1      38.509  32.795  28.966  1.00  0.00    -0.167 F 
ATOM     21  F   UNL A   1      37.798  34.783  29.495  1.00  0.00    -0.167 F 
ATOM     22  F   UNL A   1      39.235  33.764  30.777  1.00  0.00    -0.167 F 
ENDBRANCH   8  19
ENDBRANCH   4   6
ENDBRANCH   3   4
ENDBRANCH   2   3
ENDBRANCH   1   2
BRANCH   1  23
ATOM     23  O   UNL A   1      35.110  32.434  27.845  1.00  0.00    -0.458 OA
BRANCH  23  24
ATOM     24  C   UNL A   1      34.893  31.098  27.912  1.00  0.00     0.338 C 
ATOM     25  O   UNL A   1      33.855  30.518  27.620  1.00  0.00    -0.246 OA
BRANCH  24  26
ATOM     26  C   UNL A   1      36.174  30.396  28.153  1.00  0.00     0.060 A 
ATOM     27  C   UNL A   1      36.266  29.637  29.323  1.00  0.00     0.016 A 
ATOM     28  C   UNL A   1      37.246  30.420  27.251  1.00  0.00     0.016 A 
ATOM     29  C   UNL A   1      37.441  28.953  29.624  1.00  0.00     0.010 A 
ATOM     30  C   UNL A   1      38.417  29.703  27.542  1.00  0.00     0.010 A 
ATOM     31  C   UNL A   1      38.540  29.002  28.754  1.00  0.00    -0.014 A 
BRANCH  31  32
ATOM     32  C   UNL A   1      39.838  28.455  29.235  1.00  0.00     0.031 A 
ATOM     33  C   UNL A   1      40.533  29.136  30.386  1.00  0.00     0.074 A 
ATOM     34  C   UNL A   1      40.325  27.293  28.758  1.00  0.00     0.049 A 
ATOM     35  N   UNL A   1      41.529  28.714  31.123  1.00  0.00    -0.248 NA
ATOM     36  C   UNL A   1      40.034  30.469  30.760  1.00  0.00     0.031 C 
ATOM     37  C   UNL A   1      39.767  26.535  27.640  1.00  0.00     0.029 A 
ATOM     38  N   UNL A   1      41.391  26.532  29.179  1.00  0.00    -0.354 N 
ATOM     39  C   UNL A   1      41.741  29.705  32.072  1.00  0.00     0.074 A 
ATOM     40  C   UNL A   1      40.836  30.789  31.763  1.00  0.00     0.031 C 
ATOM     41  C   UNL A   1      40.484  25.409  27.473  1.00  0.00     0.029 A 
ATOM     42  C   UNL A   1      41.548  25.363  28.473  1.00  0.00     0.049 A 
ATOM     43  H   UNL A   1      41.986  26.800  29.916  1.00  0.00     0.167 HD
ATOM     44  C   UNL A   1      42.579  29.700  33.135  1.00  0.00     0.037 A 
ATOM     45  C   UNL A   1      42.439  24.363  28.631  1.00  0.00     0.037 A 
ATOM     46  C   UNL A   1      43.507  28.645  33.434  1.00  0.00     0.049 A 
ATOM     47  C   UNL A   1      43.415  24.415  29.783  1.00  0.00     0.074 A 
ATOM     48  C   UNL A   1      44.407  28.554  34.480  1.00  0.00     0.029 A 
ATOM     49  N   UNL A   1      43.662  27.497  32.670  1.00  0.00    -0.354 N 
ATOM     50  N   UNL A   1      43.543  25.315  30.729  1.00  0.00    -0.248 NA
ATOM     51  C   UNL A   1      44.357  23.291  29.904  1.00  0.00     0.031 C 
ATOM     52  C   UNL A   1      45.144  27.375  34.321  1.00  0.00     0.029 A 
ATOM     53  C   UNL A   1      44.661  26.702  33.211  1.00  0.00     0.049 A 
ATOM     54  H   UNL A   1      43.141  27.279  31.864  1.00  0.00     0.167 HD
ATOM     55  C   UNL A   1      44.549  24.851  31.569  1.00  0.00     0.074 A 
ATOM     56  C   UNL A   1      44.978  23.575  31.039  1.00  0.00     0.031 C 
ATOM     57  C   UNL A   1      45.073  25.429  32.678  1.00  0.00     0.037 A 
BRANCH  44  58
ATOM     58  C   UNL A   1      42.515  30.885  34.056  1.00  0.00     0.064 A 
ATOM     59  C   UNL A   1      41.716  30.864  35.211  1.00  0.00     0.173 A 
ATOM     60  C   UNL A   1      43.253  32.046  33.789  1.00  0.00     0.173 A 
ATOM     61  F   UNL A   1      40.977  29.783  35.502  1.00  0.00    -0.203 F 
ATOM     62  C   UNL A   1      41.634  31.976  36.045  1.00  0.00     0.198 A 
ATOM     63  C   UNL A   1      43.192  33.144  34.641  1.00  0.00     0.198 A 
ATOM     64  F   UNL A   1      44.032  32.116  32.699  1.00  0.00    -0.203 F 
ATOM     65  F   UNL A   1      40.819  31.953  37.109  1.00  0.00    -0.200 F 
ATOM     66  C   UNL A   1      42.375  33.113  35.762  1.00  0.00     0.200 A 
ATOM     67  F   UNL A   1      43.915  34.239  34.373  1.00  0.00    -0.200 F 
ATOM     68  F   UNL A   1      42.294  34.183  36.565  1.00  0.00    -0.200 F 
ENDBRANCH  44  58
BRANCH  45  69
ATOM     69  C   UNL A   1      42.457  23.209  27.689  1.00  0.00     0.064 A 
ATOM     70  C   UNL A   1      41.639  22.086  27.886  1.00  0.00     0.173 A 
ATOM     71  C   UNL A   1      43.359  23.172  26.614  1.00  0.00     0.173 A 
ATOM     72  F   UNL A   1      40.778  22.057  28.915  1.00  0.00    -0.203 F 
ATOM     73  C   UNL A   1      41.753  20.958  27.074  1.00  0.00     0.198 A 
ATOM     74  C   UNL A   1      43.447  22.057  25.783  1.00  0.00     0.198 A 
ATOM     75  F   UNL A   1      44.167  24.216  26.380  1.00  0.00    -0.203 F 
ATOM     76  F   UNL A   1      41.013  19.871  27.335  1.00  0.00    -0.200 F 
ATOM     77  C   UNL A   1      42.656  20.945  26.023  1.00  0.00     0.200 A 
ATOM     78  F   UNL A   1      44.316  22.054  24.762  1.00  0.00    -0.200 F 
ATOM     79  F   UNL A   1      42.776  19.855  25.252  1.00  0.00    -0.200 F 
ENDBRANCH  45  69
BRANCH  57  80
ATOM     80  C   UNL A   1      46.148  24.674  33.412  1.00  0.00     0.064 A 
ATOM     81  C   UNL A   1      47.509  24.973  33.244  1.00  0.00     0.173 A 
ATOM     82  C   UNL A   1      45.810  23.653  34.313  1.00  0.00     0.173 A 
ATOM     83  F   UNL A   1      47.889  25.933  32.387  1.00  0.00    -0.203 F 
ATOM     84  C   UNL A   1      48.490  24.252  33.920  1.00  0.00     0.198 A 
ATOM     85  C   UNL A   1      46.792  22.960  35.016  1.00  0.00     0.198 A 
ATOM     86  F   UNL A   1      44.524  23.332  34.522  1.00  0.00    -0.203 F 
ATOM     87  F   UNL A   1      49.786  24.514  33.694  1.00  0.00    -0.200 F 
ATOM     88  C   UNL A   1      48.132  23.252  34.810  1.00  0.00     0.200 A 
ATOM     89  F   UNL A   1      46.442  22.007  35.891  1.00  0.00    -0.200 F 
ATOM     90  F   UNL A   1      49.078  22.562  35.462  1.00  0.00    -0.200 F 
ENDBRANCH  57  80
ENDBRANCH  31  32
ENDBRANCH  24  26
ENDBRANCH  23  24
ENDBRANCH   1  23
TORSDOF 12
ENDMDL
MODEL 2
REMARK VINA RESULT:     -11.0      4.293      6.668
REMARK SMILES O=C(OCCOC(=O)c1ccc(-c2c3nc(c(-c4c(F)c(F)c(F)c(F)c4F)c4ccc([nH]4)c(-c4c(F)c(F)c(F)c(F)c4F)c4nc(c(-c5c(F)c(F)c(F)c(F)c5F)c5ccc2[nH]5)C=C4)C=C3)cc1)C1=Cc2cc(Cl)c(Cl)c(Cl)c2O[C@@H]1C(F)(F)F
REMARK SMILES IDX 5 1 4 2 3 3 2 4 1 5 72 6 73 7 84 8 74 9 83 10 75 11 82 12
REMARK SMILES IDX 76 13 80 14 77 15 78 16 81 17 79 18 85 19 86 20 87 21 88 22
REMARK SMILES IDX 6 23 7 24 8 25 9 26 10 27 71 28 11 29 70 30 12 31 13 32
REMARK SMILES IDX 14 33 64 34 15 35 69 36 63 37 65 38 16 39 68 40 62 41 61 42
REMARK SMILES IDX 17 44 49 45 29 46 48 47 30 48 33 49 47 50 66 51 31 52 32 53
REMARK SMILES IDX 46 55 67 56 34 57 18 58 19 59 27 60 20 61 21 62 25 63 28 64
REMARK SMILES IDX 22 65 23 66 26 67 24 68 50 69 51 70 59 71 52 72 53 73 57 74
REMARK SMILES IDX 60 75 54 76 55 77 58 78 56 79 35 80 36 81 44 82 37 83 38 84
REMARK SMILES IDX 42 85 45 86 39 87 40 88 43 89 41 90
REMARK H PARENT 65 43 33 54
REMARK Flexibility Score: inf
ROOT
ATOM      1  C   UNL A   1      31.839  31.404  26.438  1.00  0.00     0.275 C 
ENDROOT
BRANCH   1   2
ATOM      2  C   UNL A   1      31.615  29.967  25.911  1.00  0.00     0.275 C 
BRANCH   2   3
ATOM      3  O   UNL A   1      32.144  28.939  26.795  1.00  0.00    -0.459 OA
BRANCH   3   4
ATOM      4  C   UNL A   1      33.065  28.051  26.314  1.00  0.00     0.338 C 
ATOM      5  O   UNL A   1      34.267  28.190  26.480  1.00  0.00    -0.246 OA
BRANCH   4   6
ATOM      6  C   UNL A   1      32.477  26.940  25.526  1.00  0.00     0.087 C 
ATOM      7  C   UNL A   1      33.120  26.474  24.444  1.00  0.00     0.027 C 
ATOM      8  C   UNL A   1      31.502  26.017  26.167  1.00  0.00     0.316 C 
ATOM      9  C   UNL A   1      33.585  25.085  24.608  1.00  0.00     0.020 A 
ATOM     10  O   UNL A   1      32.122  24.766  26.523  1.00  0.00    -0.474 OA
ATOM     11  C   UNL A   1      34.603  24.575  23.801  1.00  0.00     0.034 A 
ATOM     12  C   UNL A   1      33.178  24.353  25.740  1.00  0.00     0.148 A 
ATOM     13  C   UNL A   1      35.292  23.417  24.182  1.00  0.00     0.062 A 
ATOM     14  C   UNL A   1      33.908  23.228  26.159  1.00  0.00     0.103 A 
ATOM     15  Cl  UNL A   1      36.547  22.863  23.126  1.00  0.00    -0.083 Cl
ATOM     16  C   UNL A   1      34.995  22.775  25.395  1.00  0.00     0.082 A 
ATOM     17  Cl  UNL A   1      33.503  22.491  27.680  1.00  0.00    -0.079 Cl
ATOM     18  Cl  UNL A   1      36.006  21.488  25.977  1.00  0.00    -0.081 Cl
BRANCH   8  19
ATOM     19  C   UNL A   1      30.222  25.872  25.320  1.00  0.00     0.430 C 
ATOM     20  F   UNL A   1      29.945  27.036  24.681  1.00  0.00    -0.167 F 
ATOM     21  F   UNL A   1      30.314  24.914  24.371  1.00  0.00    -0.167 F 
ATOM     22  F   UNL A   1      29.151  25.578  26.090  1.00  0.00    -0.167 F 
ENDBRANCH   8  19
ENDBRANCH   4   6
ENDBRANCH   3   4
ENDBRANCH   2   3
ENDBRANCH   1   2
BRANCH   1  23
ATOM     23  O   UNL A   1      32.670  31.429  27.609  1.00  0.00    -0.458 OA
BRANCH  23  24
ATOM     24  C   UNL A   1      33.471  32.519  27.692  1.00  0.00     0.338 C 
ATOM     25  O   UNL A   1      33.112  33.687  27.638  1.00  0.00    -0.246 OA
BRANCH  24  26
ATOM     26  C   UNL A   1      34.830  32.106  28.111  1.00  0.00     0.060 A 
ATOM     27  C   UNL A   1      35.001  30.764  28.460  1.00  0.00     0.016 A 
ATOM     28  C   UNL A   1      35.929  32.974  28.117  1.00  0.00     0.016 A 
ATOM     29  C   UNL A   1      36.249  30.300  28.872  1.00  0.00     0.010 A 
ATOM     30  C   UNL A   1      37.192  32.496  28.501  1.00  0.00     0.010 A 
ATOM     31  C   UNL A   1      37.350  31.166  28.927  1.00  0.00    -0.014 A 
BRANCH  31  32
ATOM     32  C   UNL A   1      38.589  30.680  29.594  1.00  0.00     0.031 A 
ATOM     33  C   UNL A   1      38.848  31.077  31.024  1.00  0.00     0.074 A 
ATOM     34  C   UNL A   1      39.401  29.788  28.994  1.00  0.00     0.049 A 
ATOM     35  N   UNL A   1      39.716  30.593  31.878  1.00  0.00    -0.248 NA
ATOM     36  C   UNL A   1      38.013  32.159  31.568  1.00  0.00     0.031 C 
ATOM     37  C   UNL A   1      39.281  29.327  27.612  1.00  0.00     0.029 A 
ATOM     38  N   UNL A   1      40.477  29.087  29.488  1.00  0.00    -0.354 N 
ATOM     39  C   UNL A   1      39.496  31.278  33.065  1.00  0.00     0.074 A 
ATOM     40  C   UNL A   1      38.481  32.273  32.801  1.00  0.00     0.031 C 
ATOM     41  C   UNL A   1      40.234  28.408  27.373  1.00  0.00     0.029 A 
ATOM     42  C   UNL A   1      41.029  28.212  28.583  1.00  0.00     0.049 A 
ATOM     43  H   UNL A   1      40.821  29.203  30.403  1.00  0.00     0.167 HD
ATOM     44  C   UNL A   1      40.053  31.071  34.282  1.00  0.00     0.037 A 
ATOM     45  C   UNL A   1      42.047  27.339  28.724  1.00  0.00     0.037 A 
ATOM     46  C   UNL A   1      41.086  30.110  34.550  1.00  0.00     0.049 A 
ATOM     47  C   UNL A   1      42.703  27.178  30.076  1.00  0.00     0.074 A 
ATOM     48  C   UNL A   1      41.723  29.835  35.747  1.00  0.00     0.029 A 
ATOM     49  N   UNL A   1      41.644  29.271  33.597  1.00  0.00    -0.354 N 
ATOM     50  N   UNL A   1      42.423  27.767  31.214  1.00  0.00    -0.248 NA
ATOM     51  C   UNL A   1      43.804  26.206  30.166  1.00  0.00     0.031 C 
ATOM     52  C   UNL A   1      42.703  28.865  35.507  1.00  0.00     0.029 A 
ATOM     53  C   UNL A   1      42.636  28.493  34.174  1.00  0.00     0.049 A 
ATOM     54  H   UNL A   1      41.376  29.233  32.650  1.00  0.00     0.167 HD
ATOM     55  C   UNL A   1      43.285  27.214  32.155  1.00  0.00     0.074 A 
ATOM     56  C   UNL A   1      44.078  26.222  31.462  1.00  0.00     0.031 C 
ATOM     57  C   UNL A   1      43.413  27.503  33.474  1.00  0.00     0.037 A 
BRANCH  44  58
ATOM     58  C   UNL A   1      39.538  31.910  35.416  1.00  0.00     0.064 A 
ATOM     59  C   UNL A   1      40.040  33.201  35.650  1.00  0.00     0.173 A 
ATOM     60  C   UNL A   1      38.539  31.429  36.273  1.00  0.00     0.173 A 
ATOM     61  F   UNL A   1      41.009  33.701  34.869  1.00  0.00    -0.203 F 
ATOM     62  C   UNL A   1      39.583  33.964  36.721  1.00  0.00     0.198 A 
ATOM     63  C   UNL A   1      38.063  32.207  37.324  1.00  0.00     0.198 A 
ATOM     64  F   UNL A   1      38.025  30.204  36.092  1.00  0.00    -0.203 F 
ATOM     65  F   UNL A   1      40.119  35.170  36.959  1.00  0.00    -0.200 F 
ATOM     66  C   UNL A   1      38.593  33.469  37.554  1.00  0.00     0.200 A 
ATOM     67  F   UNL A   1      37.098  31.732  38.124  1.00  0.00    -0.200 F 
ATOM     68  F   UNL A   1      38.155  34.203  38.586  1.00  0.00    -0.200 F 
ENDBRANCH  44  58
BRANCH  45  69
ATOM     69  C   UNL A   1      42.517  26.529  27.566  1.00  0.00     0.064 A 
ATOM     70  C   UNL A   1      42.014  25.243  27.315  1.00  0.00     0.173 A 
ATOM     71  C   UNL A   1      43.544  26.996  26.732  1.00  0.00     0.173 A 
ATOM     72  F   UNL A   1      41.049  24.737  28.099  1.00  0.00    -0.203 F 
ATOM     73  C   UNL A   1      42.548  24.443  26.307  1.00  0.00     0.198 A 
ATOM     74  C   UNL A   1      44.053  26.207  25.702  1.00  0.00     0.198 A 
ATOM     75  F   UNL A   1      44.065  28.216  26.926  1.00  0.00    -0.203 F 
ATOM     76  F   UNL A   1      42.100  23.190  26.141  1.00  0.00    -0.200 F 
ATOM     77  C   UNL A   1      43.567  24.926  25.500  1.00  0.00     0.200 A 
ATOM     78  F   UNL A   1      45.033  26.683  24.919  1.00  0.00    -0.200 F 
ATOM     79  F   UNL A   1      44.091  24.150  24.541  1.00  0.00    -0.200 F 
ENDBRANCH  45  69
BRANCH  57  80
ATOM     80  C   UNL A   1      44.424  26.716  34.262  1.00  0.00     0.064 A 
ATOM     81  C   UNL A   1      44.101  25.492  34.868  1.00  0.00     0.173 A 
ATOM     82  C   UNL A   1      45.742  27.182  34.394  1.00  0.00     0.173 A 
ATOM     83  F   UNL A   1      42.854  25.004  34.782  1.00  0.00    -0.203 F 
ATOM     84  C   UNL A   1      45.047  24.785  35.607  1.00  0.00     0.198 A 
ATOM     85  C   UNL A   1      46.695  26.454  35.102  1.00  0.00     0.198 A 
ATOM     86  F   UNL A   1      46.110  28.341  33.826  1.00  0.00    -0.203 F 
ATOM     87  F   UNL A   1      44.696  23.651  36.229  1.00  0.00    -0.200 F 
ATOM     88  C   UNL A   1      46.343  25.263  35.718  1.00  0.00     0.200 A 
ATOM     89  F   UNL A   1      47.953  26.908  35.190  1.00  0.00    -0.200 F 
ATOM     90  F   UNL A   1      47.253  24.580  36.427  1.00  0.00    -0.200 F 
ENDBRANCH  57  80
ENDBRANCH  31  32
ENDBRANCH  24  26
ENDBRANCH  23  24
ENDBRANCH   1  23
TORSDOF 12
ENDMDL
MODEL 3
REMARK VINA RESULT:     -11.0      4.461      6.843
REMARK SMILES O=C(OCCOC(=O)c1ccc(-c2c3nc(c(-c4c(F)c(F)c(F)c(F)c4F)c4ccc([nH]4)c(-c4c(F)c(F)c(F)c(F)c4F)c4nc(c(-c5c(F)c(F)c(F)c(F)c5F)c5ccc2[nH]5)C=C4)C=C3)cc1)C1=Cc2cc(Cl)c(Cl)c(Cl)c2O[C@@H]1C(F)(F)F
REMARK SMILES IDX 5 1 4 2 3 3 2 4 1 5 72 6 73 7 84 8 74 9 83 10 75 11 82 12
REMARK SMILES IDX 76 13 80 14 77 15 78 16 81 17 79 18 85 19 86 20 87 21 88 22
REMARK SMILES IDX 6 23 7 24 8 25 9 26 10 27 71 28 11 29 70 30 12 31 13 32
REMARK SMILES IDX 14 33 64 34 15 35 69 36 63 37 65 38 16 39 68 40 62 41 61 42
REMARK SMILES IDX 17 44 49 45 29 46 48 47 30 48 33 49 47 50 66 51 31 52 32 53
REMARK SMILES IDX 46 55 67 56 34 57 18 58 19 59 27 60 20 61 21 62 25 63 28 64
REMARK SMILES IDX 22 65 23 66 26 67 24 68 50 69 51 70 59 71 52 72 53 73 57 74
REMARK SMILES IDX 60 75 54 76 55 77 58 78 56 79 35 80 36 81 44 82 37 83 38 84
REMARK SMILES IDX 42 85 45 86 39 87 40 88 43 89 41 90
REMARK H PARENT 65 43 33 54
REMARK Flexibility Score: inf
ROOT
ATOM      1  C   UNL A   1      31.926  30.500  26.116  1.00  0.00     0.275 C 
ENDROOT
BRANCH   1   2
ATOM      2  C   UNL A   1      31.716  29.073  25.554  1.00  0.00     0.275 C 
BRANCH   2   3
ATOM      3  O   UNL A   1      32.090  28.024  26.491  1.00  0.00    -0.459 OA
BRANCH   3   4
ATOM      4  C   UNL A   1      31.994  26.717  26.105  1.00  0.00     0.338 C 
ATOM      5  O   UNL A   1      31.355  25.887  26.733  1.00  0.00    -0.246 OA
BRANCH   4   6
ATOM      6  C   UNL A   1      32.782  26.387  24.892  1.00  0.00     0.087 C 
ATOM      7  C   UNL A   1      34.095  26.129  24.996  1.00  0.00     0.027 C 
ATOM      8  C   UNL A   1      32.093  25.844  23.690  1.00  0.00     0.316 C 
ATOM      9  C   UNL A   1      34.433  24.736  24.654  1.00  0.00     0.020 A 
ATOM     10  O   UNL A   1      32.276  24.419  23.581  1.00  0.00    -0.474 OA
ATOM     11  C   UNL A   1      35.632  24.168  25.089  1.00  0.00     0.034 A 
ATOM     12  C   UNL A   1      33.442  23.903  24.104  1.00  0.00     0.148 A 
ATOM     13  C   UNL A   1      35.793  22.777  25.091  1.00  0.00     0.062 A 
ATOM     14  C   UNL A   1      33.573  22.505  24.164  1.00  0.00     0.103 A 
ATOM     15  Cl  UNL A   1      37.308  22.160  25.657  1.00  0.00    -0.083 Cl
ATOM     16  C   UNL A   1      34.742  21.935  24.694  1.00  0.00     0.082 A 
ATOM     17  Cl  UNL A   1      32.228  21.519  23.675  1.00  0.00    -0.079 Cl
ATOM     18  Cl  UNL A   1      34.858  20.218  24.924  1.00  0.00    -0.081 Cl
BRANCH   8  19
ATOM     19  C   UNL A   1      32.471  26.630  22.420  1.00  0.00     0.430 C 
ATOM     20  F   UNL A   1      31.404  26.721  21.585  1.00  0.00    -0.167 F 
ATOM     21  F   UNL A   1      32.880  27.892  22.673  1.00  0.00    -0.167 F 
ATOM     22  F   UNL A   1      33.459  26.014  21.733  1.00  0.00    -0.167 F 
ENDBRANCH   8  19
ENDBRANCH   4   6
ENDBRANCH   3   4
ENDBRANCH   2   3
ENDBRANCH   1   2
BRANCH   1  23
ATOM     23  O   UNL A   1      32.762  30.506  27.283  1.00  0.00    -0.458 OA
BRANCH  23  24
ATOM     24  C   UNL A   1      33.421  31.673  27.482  1.00  0.00     0.338 C 
ATOM     25  O   UNL A   1      32.925  32.791  27.499  1.00  0.00    -0.246 OA
BRANCH  24  26
ATOM     26  C   UNL A   1      34.806  31.392  27.928  1.00  0.00     0.060 A 
ATOM     27  C   UNL A   1      35.118  30.060  28.211  1.00  0.00     0.016 A 
ATOM     28  C   UNL A   1      35.798  32.377  28.020  1.00  0.00     0.016 A 
ATOM     29  C   UNL A   1      36.398  29.716  28.642  1.00  0.00     0.010 A 
ATOM     30  C   UNL A   1      37.095  32.023  28.423  1.00  0.00     0.010 A 
ATOM     31  C   UNL A   1      37.391  30.696  28.783  1.00  0.00    -0.014 A 
BRANCH  31  32
ATOM     32  C   UNL A   1      38.657  30.315  29.468  1.00  0.00     0.031 A 
ATOM     33  C   UNL A   1      38.901  30.808  30.871  1.00  0.00     0.074 A 
ATOM     34  C   UNL A   1      39.511  29.432  28.916  1.00  0.00     0.049 A 
ATOM     35  N   UNL A   1      39.796  30.422  31.745  1.00  0.00    -0.248 NA
ATOM     36  C   UNL A   1      38.014  31.877  31.357  1.00  0.00     0.031 C 
ATOM     37  C   UNL A   1      39.409  28.885  27.564  1.00  0.00     0.029 A 
ATOM     38  N   UNL A   1      40.624  28.818  29.441  1.00  0.00    -0.354 N 
ATOM     39  C   UNL A   1      39.547  31.163  32.892  1.00  0.00     0.074 A 
ATOM     40  C   UNL A   1      38.481  32.087  32.577  1.00  0.00     0.031 C 
ATOM     41  C   UNL A   1      40.407  28.004  27.372  1.00  0.00     0.029 A 
ATOM     42  C   UNL A   1      41.217  27.921  28.586  1.00  0.00     0.049 A 
ATOM     43  H   UNL A   1      40.966  29.006  30.346  1.00  0.00     0.167 HD
ATOM     44  C   UNL A   1      40.120  31.057  34.114  1.00  0.00     0.037 A 
ATOM     45  C   UNL A   1      42.279  27.112  28.770  1.00  0.00     0.037 A 
ATOM     46  C   UNL A   1      41.202  30.168  34.430  1.00  0.00     0.049 A 
ATOM     47  C   UNL A   1      42.949  27.065  30.124  1.00  0.00     0.074 A 
ATOM     48  C   UNL A   1      41.858  29.998  35.636  1.00  0.00     0.029 A 
ATOM     49  N   UNL A   1      41.799  29.305  33.524  1.00  0.00    -0.354 N 
ATOM     50  N   UNL A   1      42.644  27.705  31.228  1.00  0.00    -0.248 NA
ATOM     51  C   UNL A   1      44.100  26.158  30.262  1.00  0.00     0.031 C 
ATOM     52  C   UNL A   1      42.887  29.068  35.446  1.00  0.00     0.029 A 
ATOM     53  C   UNL A   1      42.833  28.615  34.138  1.00  0.00     0.049 A 
ATOM     54  H   UNL A   1      41.529  29.198  32.583  1.00  0.00     0.167 HD
ATOM     55  C   UNL A   1      43.539  27.254  32.193  1.00  0.00     0.074 A 
ATOM     56  C   UNL A   1      44.379  26.265  31.553  1.00  0.00     0.031 C 
ATOM     57  C   UNL A   1      43.657  27.626  33.491  1.00  0.00     0.037 A 
BRANCH  44  58
ATOM     58  C   UNL A   1      39.567  31.934  35.201  1.00  0.00     0.064 A 
ATOM     59  C   UNL A   1      39.994  33.265  35.347  1.00  0.00     0.173 A 
ATOM     60  C   UNL A   1      38.606  31.450  36.099  1.00  0.00     0.173 A 
ATOM     61  F   UNL A   1      40.924  33.771  34.524  1.00  0.00    -0.203 F 
ATOM     62  C   UNL A   1      39.503  34.065  36.375  1.00  0.00     0.198 A 
ATOM     63  C   UNL A   1      38.095  32.263  37.106  1.00  0.00     0.198 A 
ATOM     64  F   UNL A   1      38.164  30.188  36.001  1.00  0.00    -0.203 F 
ATOM     65  F   UNL A   1      39.969  35.312  36.531  1.00  0.00    -0.200 F 
ATOM     66  C   UNL A   1      38.552  33.566  37.251  1.00  0.00     0.200 A 
ATOM     67  F   UNL A   1      37.169  31.784  37.947  1.00  0.00    -0.200 F 
ATOM     68  F   UNL A   1      38.081  34.337  38.241  1.00  0.00    -0.200 F 
ENDBRANCH  44  58
BRANCH  45  69
ATOM     69  C   UNL A   1      42.786  26.260  27.657  1.00  0.00     0.064 A 
ATOM     70  C   UNL A   1      43.760  26.725  26.761  1.00  0.00     0.173 A 
ATOM     71  C   UNL A   1      42.243  24.989  27.420  1.00  0.00     0.173 A 
ATOM     72  F   UNL A   1      44.294  27.945  26.926  1.00  0.00    -0.203 F 
ATOM     73  C   UNL A   1      44.137  25.973  25.650  1.00  0.00     0.198 A 
ATOM     74  C   UNL A   1      42.645  24.223  26.328  1.00  0.00     0.198 A 
ATOM     75  F   UNL A   1      41.307  24.494  28.243  1.00  0.00    -0.203 F 
ATOM     76  F   UNL A   1      45.012  26.476  24.767  1.00  0.00    -0.200 F 
ATOM     77  C   UNL A   1      43.580  24.722  25.435  1.00  0.00     0.200 A 
ATOM     78  F   UNL A   1      42.110  23.010  26.130  1.00  0.00    -0.200 F 
ATOM     79  F   UNL A   1      43.930  24.005  24.357  1.00  0.00    -0.200 F 
ENDBRANCH  45  69
BRANCH  57  80
ATOM     80  C   UNL A   1      44.712  26.941  34.317  1.00  0.00     0.064 A 
ATOM     81  C   UNL A   1      46.007  27.465  34.446  1.00  0.00     0.173 A 
ATOM     82  C   UNL A   1      44.415  25.755  35.007  1.00  0.00     0.173 A 
ATOM     83  F   UNL A   1      46.348  28.590  33.800  1.00  0.00    -0.203 F 
ATOM     84  C   UNL A   1      46.975  26.807  35.202  1.00  0.00     0.198 A 
ATOM     85  C   UNL A   1      45.374  25.121  35.792  1.00  0.00     0.198 A 
ATOM     86  F   UNL A   1      43.189  25.215  34.929  1.00  0.00    -0.203 F 
ATOM     87  F   UNL A   1      48.223  27.294  35.257  1.00  0.00    -0.200 F 
ATOM     88  C   UNL A   1      46.656  25.641  35.879  1.00  0.00     0.200 A 
ATOM     89  F   UNL A   1      45.058  24.004  36.462  1.00  0.00    -0.200 F 
ATOM     90  F   UNL A   1      47.588  25.012  36.609  1.00  0.00    -0.200 F 
ENDBRANCH  57  80
ENDBRANCH  31  32
ENDBRANCH  24  26
ENDBRANCH  23  24
ENDBRANCH   1  23
TORSDOF 12
ENDMDL
