MODEL 1
REMARK VINA RESULT:     -10.8      0.000      0.000
REMARK SMILES Cc1cscc1CNC(=O)CC(C)(C)C(=O)OCCOC(=O)c1ccc(-c2c3nc(c(-c4c(F)c(F)c(F)c(F)c4F)c4ccc([nH]4)c(-c4c(F)c(F)c(F)c(F)c4F)c4nc(c(-c5c(F)c(F)c(F)c(F)c5F)c5ccc2[nH]5)C=C4)C=C3)cc1
REMARK SMILES IDX 18 1 17 2 15 3 16 4 12 5 13 6 14 7 11 8 9 9 8 10 10 12 7 13
REMARK SMILES IDX 6 14 1 15 2 16 3 17 4 18 5 19 19 20 20 21 21 22 22 23 23 24
REMARK SMILES IDX 24 25 85 26 25 27 84 28 26 29 27 30 28 31 78 32 29 33 83 34
REMARK SMILES IDX 77 35 79 36 30 37 82 38 76 39 75 40 31 42 63 43 43 44 62 45
REMARK SMILES IDX 44 46 47 47 61 48 80 49 45 50 46 51 60 53 81 54 48 55 32 56
REMARK SMILES IDX 33 57 41 58 34 59 35 60 39 61 42 62 36 63 37 64 40 65 38 66
REMARK SMILES IDX 64 67 65 68 73 69 66 70 67 71 71 72 74 73 68 74 69 75 72 76
REMARK SMILES IDX 70 77 49 78 50 79 58 80 51 81 52 82 56 83 59 84 53 85 54 86
REMARK SMILES IDX 57 87 55 88
REMARK H PARENT 8 11 79 41 47 52
REMARK Flexibility Score: inf
ROOT
ATOM      1  C   UNL A   1      31.303  29.703  24.958  1.00  0.00     0.274 C 
ENDROOT
BRANCH   1   2
ATOM      2  O   UNL A   1      32.312  28.673  24.923  1.00  0.00    -0.462 OA
BRANCH   2   3
ATOM      3  C   UNL A   1      31.867  27.389  24.803  1.00  0.00     0.312 C 
ATOM      4  O   UNL A   1      30.704  27.099  24.568  1.00  0.00    -0.252 OA
BRANCH   3   5
ATOM      5  C   UNL A   1      32.992  26.375  25.082  1.00  0.00     0.071 C 
ATOM      6  C   UNL A   1      32.335  25.138  25.718  1.00  0.00     0.024 C 
ATOM      7  C   UNL A   1      33.981  26.962  26.115  1.00  0.00     0.024 C 
BRANCH   5   8
ATOM      8  C   UNL A   1      33.820  25.962  23.826  1.00  0.00     0.118 C 
BRANCH   8   9
ATOM      9  C   UNL A   1      33.190  25.056  22.779  1.00  0.00     0.221 C 
ATOM     10  N   UNL A   1      33.622  23.786  22.596  1.00  0.00    -0.352 N 
ATOM     11  H   UNL A   1      33.034  23.218  22.047  1.00  0.00     0.163 HD
ATOM     12  O   UNL A   1      32.295  25.475  22.041  1.00  0.00    -0.275 OA
BRANCH  10  13
ATOM     13  C   UNL A   1      34.813  23.141  23.083  1.00  0.00     0.152 C 
BRANCH  13  14
ATOM     14  C   UNL A   1      34.563  22.456  24.395  1.00  0.00    -0.015 A 
ATOM     15  C   UNL A   1      36.312  23.850  25.727  1.00  0.00     0.045 C 
ATOM     16  C   UNL A   1      35.238  22.816  25.624  1.00  0.00    -0.035 A 
ATOM     17  C   UNL A   1      34.759  22.089  26.698  1.00  0.00     0.068 A 
ATOM     18  S   UNL A   1      33.553  20.970  26.257  1.00  0.00    -0.152 S 
ATOM     19  C   UNL A   1      33.651  21.437  24.620  1.00  0.00     0.070 A 
ENDBRANCH  13  14
ENDBRANCH  10  13
ENDBRANCH   8   9
ENDBRANCH   5   8
ENDBRANCH   3   5
ENDBRANCH   2   3
ENDBRANCH   1   2
BRANCH   1  20
ATOM     20  C   UNL A   1      31.564  30.677  26.103  1.00  0.00     0.275 C 
BRANCH  20  21
ATOM     21  O   UNL A   1      32.947  30.616  26.495  1.00  0.00    -0.458 OA
BRANCH  21  22
ATOM     22  C   UNL A   1      33.414  31.681  27.181  1.00  0.00     0.338 C 
ATOM     23  O   UNL A   1      32.862  32.751  27.381  1.00  0.00    -0.246 OA
BRANCH  22  24
ATOM     24  C   UNL A   1      34.715  31.335  27.760  1.00  0.00     0.060 A 
ATOM     25  C   UNL A   1      34.906  30.034  28.220  1.00  0.00     0.016 A 
ATOM     26  C   UNL A   1      35.703  32.302  27.940  1.00  0.00     0.016 A 
ATOM     27  C   UNL A   1      36.077  29.687  28.885  1.00  0.00     0.010 A 
ATOM     28  C   UNL A   1      36.892  31.948  28.587  1.00  0.00     0.010 A 
ATOM     29  C   UNL A   1      37.077  30.642  29.080  1.00  0.00    -0.014 A 
BRANCH  29  30
ATOM     30  C   UNL A   1      38.268  30.309  29.895  1.00  0.00     0.031 A 
ATOM     31  C   UNL A   1      39.320  29.418  29.309  1.00  0.00     0.074 A 
ATOM     32  C   UNL A   1      38.430  30.822  31.127  1.00  0.00     0.049 A 
ATOM     33  N   UNL A   1      40.341  28.842  29.888  1.00  0.00    -0.248 NA
ATOM     34  C   UNL A   1      39.210  29.145  27.867  1.00  0.00     0.031 C 
ATOM     35  C   UNL A   1      37.551  31.804  31.759  1.00  0.00     0.029 A 
ATOM     36  N   UNL A   1      39.399  30.582  32.069  1.00  0.00    -0.354 N 
ATOM     37  C   UNL A   1      40.965  28.102  28.895  1.00  0.00     0.074 A 
ATOM     38  C   UNL A   1      40.222  28.312  27.672  1.00  0.00     0.031 C 
ATOM     39  C   UNL A   1      38.020  32.080  32.988  1.00  0.00     0.029 A 
ATOM     40  C   UNL A   1      39.190  31.247  33.251  1.00  0.00     0.049 A 
ATOM     41  H   UNL A   1      40.170  29.988  31.911  1.00  0.00     0.167 HD
ATOM     42  C   UNL A   1      42.056  27.306  29.003  1.00  0.00     0.037 A 
ATOM     43  C   UNL A   1      39.847  31.156  34.422  1.00  0.00     0.037 A 
ATOM     44  C   UNL A   1      42.807  27.126  30.216  1.00  0.00     0.049 A 
ATOM     45  C   UNL A   1      40.993  30.188  34.549  1.00  0.00     0.074 A 
ATOM     46  C   UNL A   1      43.915  26.329  30.438  1.00  0.00     0.029 A 
ATOM     47  N   UNL A   1      42.524  27.765  31.414  1.00  0.00    -0.354 N 
ATOM     48  N   UNL A   1      41.539  29.426  33.633  1.00  0.00    -0.248 NA
ATOM     49  C   UNL A   1      41.596  30.047  35.882  1.00  0.00     0.031 C 
ATOM     50  C   UNL A   1      44.282  26.458  31.782  1.00  0.00     0.029 A 
ATOM     51  C   UNL A   1      43.426  27.365  32.387  1.00  0.00     0.049 A 
ATOM     52  H   UNL A   1      41.792  28.407  31.554  1.00  0.00     0.167 HD
ATOM     53  C   UNL A   1      42.563  28.737  34.268  1.00  0.00     0.074 A 
ATOM     54  C   UNL A   1      42.565  29.170  35.650  1.00  0.00     0.031 C 
ATOM     55  C   UNL A   1      43.424  27.826  33.751  1.00  0.00     0.037 A 
BRANCH  42  56
ATOM     56  C   UNL A   1      42.451  26.523  27.790  1.00  0.00     0.064 A 
ATOM     57  C   UNL A   1      43.424  26.982  26.892  1.00  0.00     0.173 A 
ATOM     58  C   UNL A   1      41.837  25.289  27.524  1.00  0.00     0.173 A 
ATOM     59  F   UNL A   1      44.025  28.164  27.093  1.00  0.00    -0.203 F 
ATOM     60  C   UNL A   1      43.748  26.246  25.754  1.00  0.00     0.198 A 
ATOM     61  C   UNL A   1      42.180  24.547  26.399  1.00  0.00     0.198 A 
ATOM     62  F   UNL A   1      40.899  24.809  28.356  1.00  0.00    -0.203 F 
ATOM     63  F   UNL A   1      44.645  26.724  24.882  1.00  0.00    -0.200 F 
ATOM     64  C   UNL A   1      43.128  25.028  25.512  1.00  0.00     0.200 A 
ATOM     65  F   UNL A   1      41.584  23.368  26.170  1.00  0.00    -0.200 F 
ATOM     66  F   UNL A   1      43.438  24.324  24.414  1.00  0.00    -0.200 F 
ENDBRANCH  42  56
BRANCH  43  67
ATOM     67  C   UNL A   1      39.410  31.973  35.583  1.00  0.00     0.064 A 
ATOM     68  C   UNL A   1      39.941  33.251  35.802  1.00  0.00     0.173 A 
ATOM     69  C   UNL A   1      38.463  31.492  36.500  1.00  0.00     0.173 A 
ATOM     70  F   UNL A   1      40.872  33.741  34.971  1.00  0.00    -0.203 F 
ATOM     71  C   UNL A   1      39.545  34.015  36.898  1.00  0.00     0.198 A 
ATOM     72  C   UNL A   1      38.051  32.267  37.582  1.00  0.00     0.198 A 
ATOM     73  F   UNL A   1      37.936  30.269  36.343  1.00  0.00    -0.203 F 
ATOM     74  F   UNL A   1      40.095  35.219  37.107  1.00  0.00    -0.200 F 
ATOM     75  C   UNL A   1      38.595  33.526  37.783  1.00  0.00     0.200 A 
ATOM     76  F   UNL A   1      37.131  31.792  38.431  1.00  0.00    -0.200 F 
ATOM     77  F   UNL A   1      38.214  34.263  38.835  1.00  0.00    -0.200 F 
ENDBRANCH  43  67
BRANCH  55  78
ATOM     78  C   UNL A   1      44.473  27.272  34.666  1.00  0.00     0.064 A 
ATOM     79  C   UNL A   1      44.277  26.072  35.365  1.00  0.00     0.173 A 
ATOM     80  C   UNL A   1      45.713  27.916  34.791  1.00  0.00     0.173 A 
ATOM     81  F   UNL A   1      43.102  25.431  35.288  1.00  0.00    -0.203 F 
ATOM     82  C   UNL A   1      45.286  25.542  36.164  1.00  0.00     0.198 A 
ATOM     83  C   UNL A   1      46.726  27.371  35.574  1.00  0.00     0.198 A 
ATOM     84  F   UNL A   1      45.947  29.063  34.137  1.00  0.00    -0.203 F 
ATOM     85  F   UNL A   1      45.071  24.407  36.844  1.00  0.00    -0.200 F 
ATOM     86  C   UNL A   1      46.511  26.185  36.261  1.00  0.00     0.200 A 
ATOM     87  F   UNL A   1      47.912  27.988  35.658  1.00  0.00    -0.200 F 
ATOM     88  F   UNL A   1      47.484  25.665  37.020  1.00  0.00    -0.200 F 
ENDBRANCH  55  78
ENDBRANCH  29  30
ENDBRANCH  22  24
ENDBRANCH  21  22
ENDBRANCH  20  21
ENDBRANCH   1  20
TORSDOF 15
ENDMDL
MODEL 2
REMARK VINA RESULT:     -10.8      4.691      9.941
REMARK SMILES Cc1cscc1CNC(=O)CC(C)(C)C(=O)OCCOC(=O)c1ccc(-c2c3nc(c(-c4c(F)c(F)c(F)c(F)c4F)c4ccc([nH]4)c(-c4c(F)c(F)c(F)c(F)c4F)c4nc(c(-c5c(F)c(F)c(F)c(F)c5F)c5ccc2[nH]5)C=C4)C=C3)cc1
REMARK SMILES IDX 18 1 17 2 15 3 16 4 12 5 13 6 14 7 11 8 9 9 8 10 10 12 7 13
REMARK SMILES IDX 6 14 1 15 2 16 3 17 4 18 5 19 19 20 20 21 21 22 22 23 23 24
REMARK SMILES IDX 24 25 85 26 25 27 84 28 26 29 27 30 28 31 78 32 29 33 83 34
REMARK SMILES IDX 77 35 79 36 30 37 82 38 76 39 75 40 31 42 63 43 43 44 62 45
REMARK SMILES IDX 44 46 47 47 61 48 80 49 45 50 46 51 60 53 81 54 48 55 32 56
REMARK SMILES IDX 33 57 41 58 34 59 35 60 39 61 42 62 36 63 37 64 40 65 38 66
REMARK SMILES IDX 64 67 65 68 73 69 66 70 67 71 71 72 74 73 68 74 69 75 72 76
REMARK SMILES IDX 70 77 49 78 50 79 58 80 51 81 52 82 56 83 59 84 53 85 54 86
REMARK SMILES IDX 57 87 55 88
REMARK H PARENT 8 11 79 41 47 52
REMARK Flexibility Score: inf
ROOT
ATOM      1  C   UNL A   1      35.956  20.479  24.930  1.00  0.00     0.274 C 
ENDROOT
BRANCH   1   2
ATOM      2  O   UNL A   1      35.121  21.490  25.532  1.00  0.00    -0.462 OA
BRANCH   2   3
ATOM      3  C   UNL A   1      33.860  21.106  25.884  1.00  0.00     0.312 C 
ATOM      4  O   UNL A   1      33.438  19.968  25.740  1.00  0.00    -0.252 OA
BRANCH   3   5
ATOM      5  C   UNL A   1      33.033  22.297  26.399  1.00  0.00     0.071 C 
ATOM      6  C   UNL A   1      33.744  23.577  25.928  1.00  0.00     0.024 C 
ATOM      7  C   UNL A   1      33.032  22.305  27.946  1.00  0.00     0.024 C 
BRANCH   5   8
ATOM      8  C   UNL A   1      31.544  22.304  25.933  1.00  0.00     0.118 C 
BRANCH   8   9
ATOM      9  C   UNL A   1      30.724  23.578  26.064  1.00  0.00     0.221 C 
ATOM     10  N   UNL A   1      30.224  24.209  24.976  1.00  0.00    -0.352 N 
ATOM     11  H   UNL A   1      29.549  24.900  25.165  1.00  0.00     0.163 HD
ATOM     12  O   UNL A   1      30.532  24.091  27.169  1.00  0.00    -0.275 OA
BRANCH  10  13
ATOM     13  C   UNL A   1      30.532  24.020  23.582  1.00  0.00     0.152 C 
BRANCH  13  14
ATOM     14  C   UNL A   1      31.560  25.007  23.114  1.00  0.00    -0.015 A 
ATOM     15  C   UNL A   1      33.264  23.210  22.310  1.00  0.00     0.045 C 
ATOM     16  C   UNL A   1      32.810  24.622  22.492  1.00  0.00    -0.035 A 
ATOM     17  C   UNL A   1      33.532  25.725  22.077  1.00  0.00     0.068 A 
ATOM     18  S   UNL A   1      32.764  27.199  22.449  1.00  0.00    -0.152 S 
ATOM     19  C   UNL A   1      31.451  26.387  23.172  1.00  0.00     0.070 A 
ENDBRANCH  13  14
ENDBRANCH  10  13
ENDBRANCH   8   9
ENDBRANCH   5   8
ENDBRANCH   3   5
ENDBRANCH   2   3
ENDBRANCH   1   2
BRANCH   1  20
ATOM     20  C   UNL A   1      37.351  21.030  24.646  1.00  0.00     0.275 C 
BRANCH  20  21
ATOM     21  O   UNL A   1      37.826  21.777  25.780  1.00  0.00    -0.458 OA
BRANCH  21  22
ATOM     22  C   UNL A   1      39.075  21.483  26.199  1.00  0.00     0.338 C 
ATOM     23  O   UNL A   1      39.669  20.420  26.116  1.00  0.00    -0.246 OA
BRANCH  22  24
ATOM     24  C   UNL A   1      39.695  22.703  26.725  1.00  0.00     0.060 A 
ATOM     25  C   UNL A   1      39.295  23.927  26.194  1.00  0.00     0.016 A 
ATOM     26  C   UNL A   1      40.727  22.640  27.660  1.00  0.00     0.016 A 
ATOM     27  C   UNL A   1      39.935  25.102  26.572  1.00  0.00     0.010 A 
ATOM     28  C   UNL A   1      41.356  23.824  28.060  1.00  0.00     0.010 A 
ATOM     29  C   UNL A   1      40.975  25.060  27.503  1.00  0.00    -0.014 A 
BRANCH  29  30
ATOM     30  C   UNL A   1      41.739  26.291  27.812  1.00  0.00     0.031 A 
ATOM     31  C   UNL A   1      41.096  27.350  28.655  1.00  0.00     0.074 A 
ATOM     32  C   UNL A   1      43.001  26.449  27.380  1.00  0.00     0.049 A 
ATOM     33  N   UNL A   1      41.487  28.573  28.897  1.00  0.00    -0.248 NA
ATOM     34  C   UNL A   1      39.841  26.973  29.325  1.00  0.00     0.031 C 
ATOM     35  C   UNL A   1      43.787  25.443  26.668  1.00  0.00     0.029 A 
ATOM     36  N   UNL A   1      43.846  27.527  27.479  1.00  0.00    -0.354 N 
ATOM     37  C   UNL A   1      40.505  29.126  29.706  1.00  0.00     0.074 A 
ATOM     38  C   UNL A   1      39.508  28.103  29.929  1.00  0.00     0.031 C 
ATOM     39  C   UNL A   1      44.999  25.952  26.391  1.00  0.00     0.029 A 
ATOM     40  C   UNL A   1      45.050  27.339  26.847  1.00  0.00     0.049 A 
ATOM     41  H   UNL A   1      43.610  28.355  27.958  1.00  0.00     0.167 HD
ATOM     42  C   UNL A   1      40.440  30.384  30.204  1.00  0.00     0.037 A 
ATOM     43  C   UNL A   1      46.056  28.206  26.627  1.00  0.00     0.037 A 
ATOM     44  C   UNL A   1      41.452  31.386  30.002  1.00  0.00     0.049 A 
ATOM     45  C   UNL A   1      45.917  29.629  27.100  1.00  0.00     0.074 A 
ATOM     46  C   UNL A   1      41.474  32.696  30.446  1.00  0.00     0.029 A 
ATOM     47  N   UNL A   1      42.629  31.180  29.296  1.00  0.00    -0.354 N 
ATOM     48  N   UNL A   1      44.954  30.179  27.799  1.00  0.00    -0.248 NA
ATOM     49  C   UNL A   1      46.994  30.558  26.730  1.00  0.00     0.031 C 
ATOM     50  C   UNL A   1      42.650  33.294  29.979  1.00  0.00     0.029 A 
ATOM     51  C   UNL A   1      43.377  32.345  29.277  1.00  0.00     0.049 A 
ATOM     52  H   UNL A   1      42.893  30.332  28.873  1.00  0.00     0.167 HD
ATOM     53  C   UNL A   1      45.318  31.507  27.975  1.00  0.00     0.074 A 
ATOM     54  C   UNL A   1      46.593  31.682  27.310  1.00  0.00     0.031 C 
ATOM     55  C   UNL A   1      44.655  32.491  28.628  1.00  0.00     0.037 A 
BRANCH  42  56
ATOM     56  C   UNL A   1      39.200  30.757  30.955  1.00  0.00     0.064 A 
ATOM     57  C   UNL A   1      39.108  30.631  32.348  1.00  0.00     0.173 A 
ATOM     58  C   UNL A   1      38.082  31.244  30.261  1.00  0.00     0.173 A 
ATOM     59  F   UNL A   1      40.143  30.152  33.053  1.00  0.00    -0.203 F 
ATOM     60  C   UNL A   1      37.930  30.956  33.017  1.00  0.00     0.198 A 
ATOM     61  C   UNL A   1      36.915  31.588  30.935  1.00  0.00     0.198 A 
ATOM     62  F   UNL A   1      38.123  31.381  28.927  1.00  0.00    -0.203 F 
ATOM     63  F   UNL A   1      37.845  30.784  34.343  1.00  0.00    -0.200 F 
ATOM     64  C   UNL A   1      36.836  31.437  32.310  1.00  0.00     0.200 A 
ATOM     65  F   UNL A   1      35.863  32.058  30.250  1.00  0.00    -0.200 F 
ATOM     66  F   UNL A   1      35.702  31.744  32.955  1.00  0.00    -0.200 F 
ENDBRANCH  42  56
BRANCH  43  67
ATOM     67  C   UNL A   1      47.265  27.767  25.885  1.00  0.00     0.064 A 
ATOM     68  C   UNL A   1      47.283  27.756  24.484  1.00  0.00     0.173 A 
ATOM     69  C   UNL A   1      48.421  27.343  26.558  1.00  0.00     0.173 A 
ATOM     70  F   UNL A   1      46.191  28.121  23.797  1.00  0.00    -0.203 F 
ATOM     71  C   UNL A   1      48.411  27.331  23.784  1.00  0.00     0.198 A 
ATOM     72  C   UNL A   1      49.556  26.942  25.856  1.00  0.00     0.198 A 
ATOM     73  F   UNL A   1      48.450  27.323  27.898  1.00  0.00    -0.203 F 
ATOM     74  F   UNL A   1      48.390  27.294  22.444  1.00  0.00    -0.200 F 
ATOM     75  C   UNL A   1      49.548  26.932  24.470  1.00  0.00     0.200 A 
ATOM     76  F   UNL A   1      50.654  26.561  26.522  1.00  0.00    -0.200 F 
ATOM     77  F   UNL A   1      50.632  26.526  23.795  1.00  0.00    -0.200 F 
ENDBRANCH  43  67
BRANCH  55  78
ATOM     78  C   UNL A   1      45.313  33.835  28.702  1.00  0.00     0.064 A 
ATOM     79  C   UNL A   1      46.229  34.149  29.717  1.00  0.00     0.173 A 
ATOM     80  C   UNL A   1      45.072  34.795  27.708  1.00  0.00     0.173 A 
ATOM     81  F   UNL A   1      46.478  33.267  30.697  1.00  0.00    -0.203 F 
ATOM     82  C   UNL A   1      46.875  35.381  29.736  1.00  0.00     0.198 A 
ATOM     83  C   UNL A   1      45.737  36.018  27.719  1.00  0.00     0.198 A 
ATOM     84  F   UNL A   1      44.208  34.538  26.715  1.00  0.00    -0.203 F 
ATOM     85  F   UNL A   1      47.729  35.672  30.727  1.00  0.00    -0.200 F 
ATOM     86  C   UNL A   1      46.637  36.310  28.733  1.00  0.00     0.200 A 
ATOM     87  F   UNL A   1      45.512  36.910  26.745  1.00  0.00    -0.200 F 
ATOM     88  F   UNL A   1      47.270  37.491  28.748  1.00  0.00    -0.200 F 
ENDBRANCH  55  78
ENDBRANCH  29  30
ENDBRANCH  22  24
ENDBRANCH  21  22
ENDBRANCH  20  21
ENDBRANCH   1  20
TORSDOF 15
ENDMDL
MODEL 3
REMARK VINA RESULT:     -10.8      4.629      9.839
REMARK SMILES Cc1cscc1CNC(=O)CC(C)(C)C(=O)OCCOC(=O)c1ccc(-c2c3nc(c(-c4c(F)c(F)c(F)c(F)c4F)c4ccc([nH]4)c(-c4c(F)c(F)c(F)c(F)c4F)c4nc(c(-c5c(F)c(F)c(F)c(F)c5F)c5ccc2[nH]5)C=C4)C=C3)cc1
REMARK SMILES IDX 18 1 17 2 15 3 16 4 12 5 13 6 14 7 11 8 9 9 8 10 10 12 7 13
REMARK SMILES IDX 6 14 1 15 2 16 3 17 4 18 5 19 19 20 20 21 21 22 22 23 23 24
REMARK SMILES IDX 24 25 85 26 25 27 84 28 26 29 27 30 28 31 78 32 29 33 83 34
REMARK SMILES IDX 77 35 79 36 30 37 82 38 76 39 75 40 31 42 63 43 43 44 62 45
REMARK SMILES IDX 44 46 47 47 61 48 80 49 45 50 46 51 60 53 81 54 48 55 32 56
REMARK SMILES IDX 33 57 41 58 34 59 35 60 39 61 42 62 36 63 37 64 40 65 38 66
REMARK SMILES IDX 64 67 65 68 73 69 66 70 67 71 71 72 74 73 68 74 69 75 72 76
REMARK SMILES IDX 70 77 49 78 50 79 58 80 51 81 52 82 56 83 59 84 53 85 54 86
REMARK SMILES IDX 57 87 55 88
REMARK H PARENT 8 11 79 41 47 52
REMARK Flexibility Score: inf
ROOT
ATOM      1  C   UNL A   1      36.621  22.371  23.839  1.00  0.00     0.274 C 
ENDROOT
BRANCH   1   2
ATOM      2  O   UNL A   1      35.191  22.431  24.016  1.00  0.00    -0.462 OA
BRANCH   2   3
ATOM      3  C   UNL A   1      34.705  23.519  24.681  1.00  0.00     0.312 C 
ATOM      4  O   UNL A   1      35.296  24.064  25.600  1.00  0.00    -0.252 OA
BRANCH   3   5
ATOM      5  C   UNL A   1      33.302  23.904  24.180  1.00  0.00     0.071 C 
ATOM      6  C   UNL A   1      33.191  23.413  22.726  1.00  0.00     0.024 C 
ATOM      7  C   UNL A   1      33.156  25.444  24.165  1.00  0.00     0.024 C 
BRANCH   5   8
ATOM      8  C   UNL A   1      32.128  23.333  25.033  1.00  0.00     0.118 C 
BRANCH   8   9
ATOM      9  C   UNL A   1      32.417  22.288  26.099  1.00  0.00     0.221 C 
ATOM     10  N   UNL A   1      32.544  20.977  25.784  1.00  0.00    -0.352 N 
ATOM     11  H   UNL A   1      32.923  20.410  26.493  1.00  0.00     0.163 HD
ATOM     12  O   UNL A   1      32.500  22.608  27.287  1.00  0.00    -0.275 OA
BRANCH  10  13
ATOM     13  C   UNL A   1      32.206  20.289  24.566  1.00  0.00     0.152 C 
BRANCH  13  14
ATOM     14  C   UNL A   1      32.568  18.835  24.644  1.00  0.00    -0.015 A 
ATOM     15  C   UNL A   1      32.465  18.427  22.075  1.00  0.00     0.045 C 
ATOM     16  C   UNL A   1      32.722  17.987  23.480  1.00  0.00    -0.035 A 
ATOM     17  C   UNL A   1      33.144  16.718  23.828  1.00  0.00     0.068 A 
ATOM     18  S   UNL A   1      33.323  16.516  25.510  1.00  0.00    -0.152 S 
ATOM     19  C   UNL A   1      32.838  18.124  25.802  1.00  0.00     0.070 A 
ENDBRANCH  13  14
ENDBRANCH  10  13
ENDBRANCH   8   9
ENDBRANCH   5   8
ENDBRANCH   3   5
ENDBRANCH   2   3
ENDBRANCH   1   2
BRANCH   1  20
ATOM     20  C   UNL A   1      37.215  21.210  24.632  1.00  0.00     0.275 C 
BRANCH  20  21
ATOM     21  O   UNL A   1      37.712  21.681  25.897  1.00  0.00    -0.458 OA
BRANCH  21  22
ATOM     22  C   UNL A   1      39.013  21.429  26.151  1.00  0.00     0.338 C 
ATOM     23  O   UNL A   1      39.642  20.407  25.927  1.00  0.00    -0.246 OA
BRANCH  22  24
ATOM     24  C   UNL A   1      39.632  22.644  26.689  1.00  0.00     0.060 A 
ATOM     25  C   UNL A   1      39.230  23.873  26.171  1.00  0.00     0.016 A 
ATOM     26  C   UNL A   1      40.665  22.573  27.622  1.00  0.00     0.016 A 
ATOM     27  C   UNL A   1      39.870  25.045  26.561  1.00  0.00     0.010 A 
ATOM     28  C   UNL A   1      41.293  23.753  28.034  1.00  0.00     0.010 A 
ATOM     29  C   UNL A   1      40.910  24.995  27.490  1.00  0.00    -0.014 A 
BRANCH  29  30
ATOM     30  C   UNL A   1      41.673  26.223  27.812  1.00  0.00     0.031 A 
ATOM     31  C   UNL A   1      41.022  27.281  28.649  1.00  0.00     0.074 A 
ATOM     32  C   UNL A   1      42.941  26.379  27.395  1.00  0.00     0.049 A 
ATOM     33  N   UNL A   1      41.413  28.503  28.899  1.00  0.00    -0.248 NA
ATOM     34  C   UNL A   1      39.758  26.906  29.303  1.00  0.00     0.031 C 
ATOM     35  C   UNL A   1      43.734  25.373  26.691  1.00  0.00     0.029 A 
ATOM     36  N   UNL A   1      43.787  27.455  27.508  1.00  0.00    -0.354 N 
ATOM     37  C   UNL A   1      40.423  29.057  29.697  1.00  0.00     0.074 A 
ATOM     38  C   UNL A   1      39.420  28.036  29.905  1.00  0.00     0.031 C 
ATOM     39  C   UNL A   1      44.950  25.880  26.430  1.00  0.00     0.029 A 
ATOM     40  C   UNL A   1      44.998  27.266  26.890  1.00  0.00     0.049 A 
ATOM     41  H   UNL A   1      43.547  28.283  27.985  1.00  0.00     0.167 HD
ATOM     42  C   UNL A   1      40.354  30.314  30.196  1.00  0.00     0.037 A 
ATOM     43  C   UNL A   1      46.009  28.131  26.684  1.00  0.00     0.037 A 
ATOM     44  C   UNL A   1      41.370  31.313  30.009  1.00  0.00     0.049 A 
ATOM     45  C   UNL A   1      45.867  29.553  27.159  1.00  0.00     0.074 A 
ATOM     46  C   UNL A   1      41.391  32.622  30.456  1.00  0.00     0.029 A 
ATOM     47  N   UNL A   1      42.555  31.106  29.318  1.00  0.00    -0.354 N 
ATOM     48  N   UNL A   1      44.897  30.103  27.847  1.00  0.00    -0.248 NA
ATOM     49  C   UNL A   1      46.951  30.480  26.804  1.00  0.00     0.031 C 
ATOM     50  C   UNL A   1      42.574  33.219  30.005  1.00  0.00     0.029 A 
ATOM     51  C   UNL A   1      43.307  32.270  29.310  1.00  0.00     0.049 A 
ATOM     52  H   UNL A   1      42.823  30.259  28.895  1.00  0.00     0.167 HD
ATOM     53  C   UNL A   1      45.262  31.430  28.030  1.00  0.00     0.074 A 
ATOM     54  C   UNL A   1      46.545  31.604  27.381  1.00  0.00     0.031 C 
ATOM     55  C   UNL A   1      44.593  32.415  28.677  1.00  0.00     0.037 A 
BRANCH  42  56
ATOM     56  C   UNL A   1      39.106  30.688  30.933  1.00  0.00     0.064 A 
ATOM     57  C   UNL A   1      37.995  31.241  30.283  1.00  0.00     0.173 A 
ATOM     58  C   UNL A   1      39.029  30.492  32.321  1.00  0.00     0.173 A 
ATOM     59  F   UNL A   1      38.028  31.465  28.961  1.00  0.00    -0.203 F 
ATOM     60  C   UNL A   1      36.859  31.609  31.001  1.00  0.00     0.198 A 
ATOM     61  C   UNL A   1      37.885  30.840  33.030  1.00  0.00     0.198 A 
ATOM     62  F   UNL A   1      40.069  29.966  32.987  1.00  0.00    -0.203 F 
ATOM     63  F   UNL A   1      35.825  32.180  30.368  1.00  0.00    -0.200 F 
ATOM     64  C   UNL A   1      36.804  31.405  32.372  1.00  0.00     0.200 A 
ATOM     65  F   UNL A   1      37.832  30.637  34.355  1.00  0.00    -0.200 F 
ATOM     66  F   UNL A   1      35.712  31.765  33.061  1.00  0.00    -0.200 F 
ENDBRANCH  42  56
BRANCH  43  67
ATOM     67  C   UNL A   1      47.226  27.690  25.956  1.00  0.00     0.064 A 
ATOM     68  C   UNL A   1      48.344  27.210  26.652  1.00  0.00     0.173 A 
ATOM     69  C   UNL A   1      47.302  27.748  24.557  1.00  0.00     0.173 A 
ATOM     70  F   UNL A   1      48.331  27.166  27.992  1.00  0.00    -0.203 F 
ATOM     71  C   UNL A   1      49.493  26.809  25.975  1.00  0.00     0.198 A 
ATOM     72  C   UNL A   1      48.443  27.324  23.880  1.00  0.00     0.198 A 
ATOM     73  F   UNL A   1      46.264  28.213  23.846  1.00  0.00    -0.203 F 
ATOM     74  F   UNL A   1      50.563  26.389  26.664  1.00  0.00    -0.200 F 
ATOM     75  C   UNL A   1      49.540  26.859  24.589  1.00  0.00     0.200 A 
ATOM     76  F   UNL A   1      48.482  27.370  22.542  1.00  0.00    -0.200 F 
ATOM     77  F   UNL A   1      50.646  26.472  23.939  1.00  0.00    -0.200 F 
ENDBRANCH  43  67
BRANCH  55  78
ATOM     78  C   UNL A   1      45.253  33.757  28.763  1.00  0.00     0.064 A 
ATOM     79  C   UNL A   1      44.999  34.761  27.818  1.00  0.00     0.173 A 
ATOM     80  C   UNL A   1      46.099  34.060  29.840  1.00  0.00     0.173 A 
ATOM     81  F   UNL A   1      44.210  34.511  26.763  1.00  0.00    -0.203 F 
ATOM     82  C   UNL A   1      45.576  36.022  27.947  1.00  0.00     0.198 A 
ATOM     83  C   UNL A   1      46.656  35.328  29.977  1.00  0.00     0.198 A 
ATOM     84  F   UNL A   1      46.367  33.132  30.771  1.00  0.00    -0.203 F 
ATOM     85  F   UNL A   1      45.340  36.961  27.020  1.00  0.00    -0.200 F 
ATOM     86  C   UNL A   1      46.396  36.307  29.029  1.00  0.00     0.200 A 
ATOM     87  F   UNL A   1      47.440  35.605  31.027  1.00  0.00    -0.200 F 
ATOM     88  F   UNL A   1      46.939  37.525  29.157  1.00  0.00    -0.200 F 
ENDBRANCH  55  78
ENDBRANCH  29  30
ENDBRANCH  22  24
ENDBRANCH  21  22
ENDBRANCH  20  21
ENDBRANCH   1  20
TORSDOF 15
ENDMDL
