MODEL 1
REMARK VINA RESULT:     -13.4      0.000      0.000
REMARK SMILES O=C(OCCOC(=O)[C@@H]1CC2(CC[NH2+]CC2)C[N@@H+]1Cc1cccc2nonc12)c1ccc(-c2c3nc(c(-c4c(F)c(F)c(F)c(F)c4F)c4ccc([nH]4)c(-c4c(F)c(F)c(F)c(F)c4F)c4nc(c(-c5c(F)c(F)c(F)c(F)c5F)c5ccc2[nH]5)C=C4)C=C3)cc1
REMARK SMILES IDX 4 1 3 2 2 3 1 4 29 5 30 6 91 7 31 8 90 9 32 10 33 11 34 12
REMARK SMILES IDX 84 13 35 14 89 15 83 16 85 17 36 18 88 19 82 20 81 21 37 23
REMARK SMILES IDX 69 24 49 25 68 26 50 27 53 28 67 29 86 30 51 31 52 32 66 34
REMARK SMILES IDX 87 35 54 36 38 37 39 38 47 39 40 40 41 41 45 42 48 43 42 44
REMARK SMILES IDX 43 45 46 46 44 47 70 48 71 49 79 50 72 51 73 52 77 53 80 54
REMARK SMILES IDX 74 55 75 56 78 57 76 58 55 59 56 60 64 61 57 62 58 63 62 64
REMARK SMILES IDX 65 65 59 66 60 67 63 68 61 69 5 70 6 71 7 72 8 73 9 74 10 75
REMARK SMILES IDX 18 76 11 77 17 78 12 80 16 81 13 82 15 83 14 84 19 87 20 88
REMARK SMILES IDX 21 89 28 90 22 91 24 92 27 93 23 94 25 95 26 96
REMARK H PARENT 85 22 53 33 18 79 14 85 14 86
REMARK Flexibility Score: inf
ROOT
ATOM      1  C   UNL A   1      44.963  29.709  27.310  1.00  0.00     0.275 C 
ENDROOT
BRANCH   1   2
ATOM      2  O   UNL A   1      43.937  30.691  27.220  1.00  0.00    -0.458 OA
BRANCH   2   3
ATOM      3  C   UNL A   1      44.440  31.731  26.584  1.00  0.00     0.338 C 
ATOM      4  O   UNL A   1      45.331  31.682  25.759  1.00  0.00    -0.246 OA
BRANCH   3   5
ATOM      5  C   UNL A   1      44.154  32.920  27.387  1.00  0.00     0.060 A 
ATOM      6  C   UNL A   1      43.990  34.223  26.433  1.00  0.00     0.016 A 
ATOM      7  C   UNL A   1      44.227  33.182  28.978  1.00  0.00     0.016 A 
ATOM      8  C   UNL A   1      43.963  36.120  27.113  1.00  0.00     0.010 A 
ATOM      9  C   UNL A   1      44.150  34.751  29.680  1.00  0.00     0.010 A 
ATOM     10  C   UNL A   1      44.060  36.286  28.854  1.00  0.00    -0.014 A 
BRANCH  10  11
ATOM     11  C   UNL A   1      44.293  37.593  29.589  1.00  0.00     0.031 A 
ATOM     12  C   UNL A   1      45.771  37.926  29.443  1.00  0.00     0.074 A 
ATOM     13  C   UNL A   1      43.468  38.684  29.560  1.00  0.00     0.049 A 
ATOM     14  N   UNL A   1      46.301  38.346  28.327  1.00  0.00    -0.248 NA
ATOM     15  C   UNL A   1      46.755  37.327  30.349  1.00  0.00     0.031 C 
ATOM     16  C   UNL A   1      42.827  39.288  28.381  1.00  0.00     0.029 A 
ATOM     17  N   UNL A   1      43.289  39.657  30.572  1.00  0.00    -0.354 N 
ATOM     18  C   UNL A   1      47.620  37.887  28.290  1.00  0.00     0.074 A 
ATOM     19  C   UNL A   1      47.853  37.270  29.575  1.00  0.00     0.031 C 
ATOM     20  C   UNL A   1      42.492  40.565  28.655  1.00  0.00     0.029 A 
ATOM     21  C   UNL A   1      42.848  40.892  30.035  1.00  0.00     0.049 A 
ATOM     22  H   UNL A   1      43.449  39.495  31.530  1.00  0.00     0.167 HD
ATOM     23  C   UNL A   1      48.399  37.978  27.167  1.00  0.00     0.037 A 
ATOM     24  C   UNL A   1      43.328  42.105  30.462  1.00  0.00     0.037 A 
ATOM     25  C   UNL A   1      47.844  38.791  26.117  1.00  0.00     0.049 A 
ATOM     26  C   UNL A   1      44.525  42.268  29.563  1.00  0.00     0.074 A 
ATOM     27  C   UNL A   1      47.574  38.827  24.768  1.00  0.00     0.029 A 
ATOM     28  N   UNL A   1      47.544  40.056  26.543  1.00  0.00    -0.354 N 
ATOM     29  N   UNL A   1      44.518  42.584  28.295  1.00  0.00    -0.248 NA
ATOM     30  C   UNL A   1      45.755  41.638  30.027  1.00  0.00     0.031 C 
ATOM     31  C   UNL A   1      46.727  39.984  24.572  1.00  0.00     0.029 A 
ATOM     32  C   UNL A   1      46.560  40.618  25.803  1.00  0.00     0.049 A 
ATOM     33  H   UNL A   1      47.990  40.502  27.298  1.00  0.00     0.167 HD
ATOM     34  C   UNL A   1      45.606  41.897  27.736  1.00  0.00     0.074 A 
ATOM     35  C   UNL A   1      46.366  41.413  28.875  1.00  0.00     0.031 C 
ATOM     36  C   UNL A   1      45.691  41.620  26.394  1.00  0.00     0.037 A 
BRANCH  23  37
ATOM     37  C   UNL A   1      49.852  37.701  27.175  1.00  0.00     0.064 A 
ATOM     38  C   UNL A   1      50.666  38.728  27.680  1.00  0.00     0.173 A 
ATOM     39  C   UNL A   1      50.476  36.606  26.572  1.00  0.00     0.173 A 
ATOM     40  F   UNL A   1      50.098  39.802  28.255  1.00  0.00    -0.203 F 
ATOM     41  C   UNL A   1      52.047  38.685  27.564  1.00  0.00     0.198 A 
ATOM     42  C   UNL A   1      51.872  36.555  26.471  1.00  0.00     0.198 A 
ATOM     43  F   UNL A   1      49.749  35.605  26.051  1.00  0.00    -0.203 F 
ATOM     44  F   UNL A   1      52.782  39.706  28.022  1.00  0.00    -0.200 F 
ATOM     45  C   UNL A   1      52.652  37.599  26.956  1.00  0.00     0.200 A 
ATOM     46  F   UNL A   1      52.468  35.508  25.883  1.00  0.00    -0.200 F 
ATOM     47  F   UNL A   1      53.986  37.565  26.831  1.00  0.00    -0.200 F 
ENDBRANCH  23  37
BRANCH  24  48
ATOM     48  C   UNL A   1      43.353  42.316  31.951  1.00  0.00     0.064 A 
ATOM     49  C   UNL A   1      42.705  43.466  32.442  1.00  0.00     0.173 A 
ATOM     50  C   UNL A   1      43.873  41.446  32.924  1.00  0.00     0.173 A 
ATOM     51  F   UNL A   1      42.331  44.436  31.593  1.00  0.00    -0.203 F 
ATOM     52  C   UNL A   1      42.381  43.612  33.789  1.00  0.00     0.198 A 
ATOM     53  C   UNL A   1      43.531  41.579  34.274  1.00  0.00     0.198 A 
ATOM     54  F   UNL A   1      44.691  40.438  32.597  1.00  0.00    -0.203 F 
ATOM     55  F   UNL A   1      41.662  44.670  34.189  1.00  0.00    -0.200 F 
ATOM     56  C   UNL A   1      42.746  42.638  34.698  1.00  0.00     0.200 A 
ATOM     57  F   UNL A   1      43.923  40.649  35.156  1.00  0.00    -0.200 F 
ATOM     58  F   UNL A   1      42.339  42.714  35.972  1.00  0.00    -0.200 F 
ENDBRANCH  24  48
BRANCH  36  59
ATOM     59  C   UNL A   1      44.722  42.352  25.525  1.00  0.00     0.064 A 
ATOM     60  C   UNL A   1      45.036  43.647  25.085  1.00  0.00     0.173 A 
ATOM     61  C   UNL A   1      43.533  41.771  25.054  1.00  0.00     0.173 A 
ATOM     62  F   UNL A   1      46.183  44.232  25.466  1.00  0.00    -0.203 F 
ATOM     63  C   UNL A   1      44.196  44.337  24.222  1.00  0.00     0.198 A 
ATOM     64  C   UNL A   1      42.720  42.448  24.147  1.00  0.00     0.198 A 
ATOM     65  F   UNL A   1      43.162  40.541  25.445  1.00  0.00    -0.203 F 
ATOM     66  F   UNL A   1      44.516  45.578  23.833  1.00  0.00    -0.200 F 
ATOM     67  C   UNL A   1      43.049  43.731  23.738  1.00  0.00     0.200 A 
ATOM     68  F   UNL A   1      41.629  41.848  23.649  1.00  0.00    -0.200 F 
ATOM     69  F   UNL A   1      42.271  44.377  22.859  1.00  0.00    -0.200 F 
ENDBRANCH  36  59
ENDBRANCH  10  11
ENDBRANCH   3   5
ENDBRANCH   2   3
ENDBRANCH   1   2
BRANCH   1  70
ATOM     70  C   UNL A   1      44.600  28.194  26.949  1.00  0.00     0.274 C 
BRANCH  70  71
ATOM     71  O   UNL A   1      43.167  27.850  26.712  1.00  0.00    -0.458 OA
BRANCH  71  72
ATOM     72  C   UNL A   1      42.201  27.771  25.733  1.00  0.00     0.365 C 
ATOM     73  O   UNL A   1      42.359  28.225  24.612  1.00  0.00    -0.245 OA
BRANCH  72  74
ATOM     74  C   UNL A   1      40.779  27.238  26.365  1.00  0.00     0.296 C 
ATOM     75  C   UNL A   1      39.977  28.978  26.871  1.00  0.00     0.091 C 
ATOM     76  N   UNL A   1      40.546  26.022  27.793  1.00  0.00    -0.319 N 
ATOM     77  C   UNL A   1      39.411  28.817  29.046  1.00  0.00     0.036 C 
ATOM     78  C   UNL A   1      39.815  26.829  29.351  1.00  0.00     0.270 C 
ATOM     79  H   UNL A   1      39.835  25.394  27.419  1.00  0.00     0.349 HD
ATOM     80  C   UNL A   1      37.929  28.883  29.891  1.00  0.00     0.074 C 
ATOM     81  C   UNL A   1      40.232  29.531  30.448  1.00  0.00     0.074 C 
ATOM     82  C   UNL A   1      37.508  30.254  30.487  1.00  0.00     0.261 C 
ATOM     83  C   UNL A   1      39.768  30.957  30.830  1.00  0.00     0.261 C 
ATOM     84  N   UNL A   1      38.438  30.907  31.401  1.00  0.00    -0.346 N 
ATOM     85  H   UNL A   1      38.469  30.385  32.277  1.00  0.00     0.346 HD
ATOM     86  H   UNL A   1      38.117  31.861  31.569  1.00  0.00     0.346 HD
BRANCH  76  87
ATOM     87  C   UNL A   1      41.659  25.060  28.075  1.00  0.00     0.302 C 
BRANCH  87  88
ATOM     88  C   UNL A   1      41.683  23.688  27.422  1.00  0.00     0.038 A 
ATOM     89  C   UNL A   1      41.077  22.520  27.984  1.00  0.00     0.012 A 
ATOM     90  C   UNL A   1      42.390  23.389  26.229  1.00  0.00     0.144 A 
ATOM     91  C   UNL A   1      41.283  21.187  27.503  1.00  0.00     0.003 A 
ATOM     92  C   UNL A   1      42.608  22.026  25.739  1.00  0.00     0.135 A 
ATOM     93  N   UNL A   1      42.988  24.227  25.372  1.00  0.00    -0.049 NA
ATOM     94  C   UNL A   1      42.074  20.892  26.377  1.00  0.00     0.034 A 
ATOM     95  N   UNL A   1      43.414  22.084  24.671  1.00  0.00    -0.050 NA
ATOM     96  O   UNL A   1      43.675  23.430  24.474  1.00  0.00    -0.243 OA
ENDBRANCH  87  88
ENDBRANCH  76  87
ENDBRANCH  72  74
ENDBRANCH  71  72
ENDBRANCH  70  71
ENDBRANCH   1  70
TORSDOF 13
ENDMDL
MODEL 2
REMARK VINA RESULT:     -13.1      1.865      3.678
REMARK SMILES O=C(OCCOC(=O)[C@@H]1CC2(CC[NH2+]CC2)C[N@@H+]1Cc1cccc2nonc12)c1ccc(-c2c3nc(c(-c4c(F)c(F)c(F)c(F)c4F)c4ccc([nH]4)c(-c4c(F)c(F)c(F)c(F)c4F)c4nc(c(-c5c(F)c(F)c(F)c(F)c5F)c5ccc2[nH]5)C=C4)C=C3)cc1
REMARK SMILES IDX 4 1 3 2 2 3 1 4 29 5 30 6 91 7 31 8 90 9 32 10 33 11 34 12
REMARK SMILES IDX 84 13 35 14 89 15 83 16 85 17 36 18 88 19 82 20 81 21 37 23
REMARK SMILES IDX 69 24 49 25 68 26 50 27 53 28 67 29 86 30 51 31 52 32 66 34
REMARK SMILES IDX 87 35 54 36 38 37 39 38 47 39 40 40 41 41 45 42 48 43 42 44
REMARK SMILES IDX 43 45 46 46 44 47 70 48 71 49 79 50 72 51 73 52 77 53 80 54
REMARK SMILES IDX 74 55 75 56 78 57 76 58 55 59 56 60 64 61 57 62 58 63 62 64
REMARK SMILES IDX 65 65 59 66 60 67 63 68 61 69 5 70 6 71 7 72 8 73 9 74 10 75
REMARK SMILES IDX 18 76 11 77 17 78 12 80 16 81 13 82 15 83 14 84 19 87 20 88
REMARK SMILES IDX 21 89 28 90 22 91 24 92 27 93 23 94 25 95 26 96
REMARK H PARENT 85 22 53 33 18 79 14 85 14 86
REMARK Flexibility Score: inf
ROOT
ATOM      1  C   UNL A   1      43.715  29.835  26.968  1.00  0.00     0.275 C 
ENDROOT
BRANCH   1   2
ATOM      2  O   UNL A   1      43.403  31.078  26.350  1.00  0.00    -0.458 OA
BRANCH   2   3
ATOM      3  C   UNL A   1      44.494  31.820  26.383  1.00  0.00     0.338 C 
ATOM      4  O   UNL A   1      45.617  31.423  26.139  1.00  0.00    -0.246 OA
BRANCH   3   5
ATOM      5  C   UNL A   1      44.218  32.972  27.242  1.00  0.00     0.060 A 
ATOM      6  C   UNL A   1      43.861  34.276  26.343  1.00  0.00     0.016 A 
ATOM      7  C   UNL A   1      44.449  33.212  28.821  1.00  0.00     0.016 A 
ATOM      8  C   UNL A   1      43.779  36.155  27.068  1.00  0.00     0.010 A 
ATOM      9  C   UNL A   1      44.343  34.760  29.565  1.00  0.00     0.010 A 
ATOM     10  C   UNL A   1      44.057  36.298  28.791  1.00  0.00    -0.014 A 
BRANCH  10  11
ATOM     11  C   UNL A   1      44.280  37.606  29.528  1.00  0.00     0.031 A 
ATOM     12  C   UNL A   1      45.756  37.948  29.386  1.00  0.00     0.074 A 
ATOM     13  C   UNL A   1      43.448  38.692  29.498  1.00  0.00     0.049 A 
ATOM     14  N   UNL A   1      46.286  38.372  28.272  1.00  0.00    -0.248 NA
ATOM     15  C   UNL A   1      46.741  37.354  30.294  1.00  0.00     0.031 C 
ATOM     16  C   UNL A   1      42.807  39.292  28.318  1.00  0.00     0.029 A 
ATOM     17  N   UNL A   1      43.260  39.662  30.511  1.00  0.00    -0.354 N 
ATOM     18  C   UNL A   1      47.608  37.922  28.238  1.00  0.00     0.074 A 
ATOM     19  C   UNL A   1      47.842  37.305  29.523  1.00  0.00     0.031 C 
ATOM     20  C   UNL A   1      42.463  40.568  28.593  1.00  0.00     0.029 A 
ATOM     21  C   UNL A   1      42.813  40.895  29.973  1.00  0.00     0.049 A 
ATOM     22  H   UNL A   1      43.419  39.501  31.469  1.00  0.00     0.167 HD
ATOM     23  C   UNL A   1      48.389  38.019  27.117  1.00  0.00     0.037 A 
ATOM     24  C   UNL A   1      43.285  42.111  30.403  1.00  0.00     0.037 A 
ATOM     25  C   UNL A   1      47.832  38.829  26.066  1.00  0.00     0.049 A 
ATOM     26  C   UNL A   1      44.483  42.282  29.507  1.00  0.00     0.074 A 
ATOM     27  C   UNL A   1      47.565  38.865  24.716  1.00  0.00     0.029 A 
ATOM     28  N   UNL A   1      47.523  40.092  26.493  1.00  0.00    -0.354 N 
ATOM     29  N   UNL A   1      44.476  42.599  28.240  1.00  0.00    -0.248 NA
ATOM     30  C   UNL A   1      45.715  41.660  29.973  1.00  0.00     0.031 C 
ATOM     31  C   UNL A   1      46.711  40.017  24.520  1.00  0.00     0.029 A 
ATOM     32  C   UNL A   1      46.537  40.649  25.751  1.00  0.00     0.049 A 
ATOM     33  H   UNL A   1      47.965  40.541  27.250  1.00  0.00     0.167 HD
ATOM     34  C   UNL A   1      45.571  41.920  27.683  1.00  0.00     0.074 A 
ATOM     35  C   UNL A   1      46.330  41.440  28.823  1.00  0.00     0.031 C 
ATOM     36  C   UNL A   1      45.660  41.644  26.340  1.00  0.00     0.037 A 
BRANCH  23  37
ATOM     37  C   UNL A   1      49.844  37.751  27.128  1.00  0.00     0.064 A 
ATOM     38  C   UNL A   1      50.227  36.448  26.773  1.00  0.00     0.173 A 
ATOM     39  C   UNL A   1      50.827  38.612  27.625  1.00  0.00     0.173 A 
ATOM     40  F   UNL A   1      49.305  35.591  26.304  1.00  0.00    -0.203 F 
ATOM     41  C   UNL A   1      51.532  36.005  26.931  1.00  0.00     0.198 A 
ATOM     42  C   UNL A   1      52.148  38.169  27.768  1.00  0.00     0.198 A 
ATOM     43  F   UNL A   1      50.515  39.862  28.002  1.00  0.00    -0.203 F 
ATOM     44  F   UNL A   1      51.844  34.741  26.619  1.00  0.00    -0.200 F 
ATOM     45  C   UNL A   1      52.493  36.865  27.432  1.00  0.00     0.200 A 
ATOM     46  F   UNL A   1      53.087  38.994  28.253  1.00  0.00    -0.200 F 
ATOM     47  F   UNL A   1      53.750  36.431  27.600  1.00  0.00    -0.200 F 
ENDBRANCH  23  37
BRANCH  24  48
ATOM     48  C   UNL A   1      43.305  42.321  31.892  1.00  0.00     0.064 A 
ATOM     49  C   UNL A   1      42.655  43.470  32.382  1.00  0.00     0.173 A 
ATOM     50  C   UNL A   1      43.820  41.450  32.866  1.00  0.00     0.173 A 
ATOM     51  F   UNL A   1      42.284  44.441  31.533  1.00  0.00    -0.203 F 
ATOM     52  C   UNL A   1      42.327  43.616  33.728  1.00  0.00     0.198 A 
ATOM     53  C   UNL A   1      43.474  41.582  34.215  1.00  0.00     0.198 A 
ATOM     54  F   UNL A   1      44.639  40.442  32.541  1.00  0.00    -0.203 F 
ATOM     55  F   UNL A   1      41.606  44.673  34.126  1.00  0.00    -0.200 F 
ATOM     56  C   UNL A   1      42.688  42.640  34.637  1.00  0.00     0.200 A 
ATOM     57  F   UNL A   1      43.863  40.651  35.098  1.00  0.00    -0.200 F 
ATOM     58  F   UNL A   1      42.276  42.715  35.910  1.00  0.00    -0.200 F 
ENDBRANCH  24  48
BRANCH  36  59
ATOM     59  C   UNL A   1      44.689  42.371  25.470  1.00  0.00     0.064 A 
ATOM     60  C   UNL A   1      44.998  43.666  25.027  1.00  0.00     0.173 A 
ATOM     61  C   UNL A   1      43.502  41.785  25.000  1.00  0.00     0.173 A 
ATOM     62  F   UNL A   1      46.143  44.256  25.406  1.00  0.00    -0.203 F 
ATOM     63  C   UNL A   1      44.156  44.352  24.162  1.00  0.00     0.198 A 
ATOM     64  C   UNL A   1      42.686  42.458  24.092  1.00  0.00     0.198 A 
ATOM     65  F   UNL A   1      43.136  40.555  25.394  1.00  0.00    -0.203 F 
ATOM     66  F   UNL A   1      44.472  45.593  23.770  1.00  0.00    -0.200 F 
ATOM     67  C   UNL A   1      43.011  43.740  23.679  1.00  0.00     0.200 A 
ATOM     68  F   UNL A   1      41.598  41.852  23.595  1.00  0.00    -0.200 F 
ATOM     69  F   UNL A   1      42.231  44.381  22.799  1.00  0.00    -0.200 F 
ENDBRANCH  36  59
ENDBRANCH  10  11
ENDBRANCH   3   5
ENDBRANCH   2   3
ENDBRANCH   1   2
BRANCH   1  70
ATOM     70  C   UNL A   1      42.511  28.929  27.504  1.00  0.00     0.274 C 
BRANCH  70  71
ATOM     71  O   UNL A   1      42.307  27.588  26.881  1.00  0.00    -0.458 OA
BRANCH  71  72
ATOM     72  C   UNL A   1      42.887  26.665  26.040  1.00  0.00     0.365 C 
ATOM     73  O   UNL A   1      42.563  26.541  24.871  1.00  0.00    -0.245 OA
BRANCH  72  74
ATOM     74  C   UNL A   1      43.843  25.629  26.890  1.00  0.00     0.296 C 
ATOM     75  C   UNL A   1      45.485  26.731  27.013  1.00  0.00     0.091 C 
ATOM     76  N   UNL A   1      44.327  23.866  26.410  1.00  0.00    -0.319 N 
ATOM     77  C   UNL A   1      47.173  25.460  26.231  1.00  0.00     0.036 C 
ATOM     78  C   UNL A   1      46.172  23.685  25.991  1.00  0.00     0.270 C 
ATOM     79  H   UNL A   1      44.167  23.360  27.281  1.00  0.00     0.349 HD
ATOM     80  C   UNL A   1      48.599  24.828  26.925  1.00  0.00     0.074 C 
ATOM     81  C   UNL A   1      47.999  25.578  24.665  1.00  0.00     0.074 C 
ATOM     82  C   UNL A   1      49.907  25.644  26.739  1.00  0.00     0.261 C 
ATOM     83  C   UNL A   1      49.215  26.534  24.630  1.00  0.00     0.261 C 
ATOM     84  N   UNL A   1      50.316  25.961  25.375  1.00  0.00    -0.346 N 
ATOM     85  H   UNL A   1      50.626  25.107  24.912  1.00  0.00     0.346 HD
ATOM     86  H   UNL A   1      51.077  26.640  25.411  1.00  0.00     0.346 HD
BRANCH  76  87
ATOM     87  C   UNL A   1      43.419  23.125  25.478  1.00  0.00     0.302 C 
BRANCH  87  88
ATOM     88  C   UNL A   1      43.009  21.691  25.770  1.00  0.00     0.038 A 
ATOM     89  C   UNL A   1      42.012  21.319  26.726  1.00  0.00     0.012 A 
ATOM     90  C   UNL A   1      43.636  20.555  25.196  1.00  0.00     0.144 A 
ATOM     91  C   UNL A   1      41.777  19.979  27.174  1.00  0.00     0.003 A 
ATOM     92  C   UNL A   1      43.402  19.184  25.657  1.00  0.00     0.135 A 
ATOM     93  N   UNL A   1      44.528  20.498  24.199  1.00  0.00    -0.049 NA
ATOM     94  C   UNL A   1      42.480  18.868  26.671  1.00  0.00     0.034 A 
ATOM     95  N   UNL A   1      44.235  18.368  25.000  1.00  0.00    -0.050 NA
ATOM     96  O   UNL A   1      44.950  19.182  24.137  1.00  0.00    -0.243 OA
ENDBRANCH  87  88
ENDBRANCH  76  87
ENDBRANCH  72  74
ENDBRANCH  71  72
ENDBRANCH  70  71
ENDBRANCH   1  70
TORSDOF 13
ENDMDL
MODEL 3
REMARK VINA RESULT:     -12.9      6.217     10.671
REMARK SMILES O=C(OCCOC(=O)[C@@H]1CC2(CC[NH2+]CC2)C[N@@H+]1Cc1cccc2nonc12)c1ccc(-c2c3nc(c(-c4c(F)c(F)c(F)c(F)c4F)c4ccc([nH]4)c(-c4c(F)c(F)c(F)c(F)c4F)c4nc(c(-c5c(F)c(F)c(F)c(F)c5F)c5ccc2[nH]5)C=C4)C=C3)cc1
REMARK SMILES IDX 4 1 3 2 2 3 1 4 29 5 30 6 91 7 31 8 90 9 32 10 33 11 34 12
REMARK SMILES IDX 84 13 35 14 89 15 83 16 85 17 36 18 88 19 82 20 81 21 37 23
REMARK SMILES IDX 69 24 49 25 68 26 50 27 53 28 67 29 86 30 51 31 52 32 66 34
REMARK SMILES IDX 87 35 54 36 38 37 39 38 47 39 40 40 41 41 45 42 48 43 42 44
REMARK SMILES IDX 43 45 46 46 44 47 70 48 71 49 79 50 72 51 73 52 77 53 80 54
REMARK SMILES IDX 74 55 75 56 78 57 76 58 55 59 56 60 64 61 57 62 58 63 62 64
REMARK SMILES IDX 65 65 59 66 60 67 63 68 61 69 5 70 6 71 7 72 8 73 9 74 10 75
REMARK SMILES IDX 18 76 11 77 17 78 12 80 16 81 13 82 15 83 14 84 19 87 20 88
REMARK SMILES IDX 21 89 28 90 22 91 24 92 27 93 23 94 25 95 26 96
REMARK H PARENT 85 22 53 33 18 79 14 85 14 86
REMARK Flexibility Score: inf
ROOT
ATOM      1  C   UNL A   1      43.458  23.237  33.299  1.00  0.00     0.275 C 
ENDROOT
BRANCH   1   2
ATOM      2  O   UNL A   1      43.845  23.514  34.641  1.00  0.00    -0.458 OA
BRANCH   2   3
ATOM      3  C   UNL A   1      42.845  24.155  35.215  1.00  0.00     0.338 C 
ATOM      4  O   UNL A   1      41.745  23.686  35.433  1.00  0.00    -0.246 OA
BRANCH   3   5
ATOM      5  C   UNL A   1      43.087  25.589  35.046  1.00  0.00     0.060 A 
ATOM      6  C   UNL A   1      41.681  26.389  34.910  1.00  0.00     0.016 A 
ATOM      7  C   UNL A   1      44.435  26.419  34.732  1.00  0.00     0.016 A 
ATOM      8  C   UNL A   1      41.529  28.303  34.297  1.00  0.00     0.010 A 
ATOM      9  C   UNL A   1      44.435  28.075  34.262  1.00  0.00     0.010 A 
ATOM     10  C   UNL A   1      43.054  29.102  33.974  1.00  0.00    -0.014 A 
BRANCH  10  11
ATOM     11  C   UNL A   1      43.200  30.446  33.285  1.00  0.00     0.031 A 
ATOM     12  C   UNL A   1      42.868  30.228  31.816  1.00  0.00     0.074 A 
ATOM     13  C   UNL A   1      42.779  31.649  33.782  1.00  0.00     0.049 A 
ATOM     14  N   UNL A   1      41.654  30.027  31.381  1.00  0.00    -0.248 NA
ATOM     15  C   UNL A   1      43.891  29.728  30.894  1.00  0.00     0.031 C 
ATOM     16  C   UNL A   1      41.487  31.948  34.421  1.00  0.00     0.029 A 
ATOM     17  N   UNL A   1      43.330  32.927  33.529  1.00  0.00    -0.354 N 
ATOM     18  C   UNL A   1      41.742  29.204  30.256  1.00  0.00     0.074 A 
ATOM     19  C   UNL A   1      43.154  29.057  29.991  1.00  0.00     0.031 C 
ATOM     20  C   UNL A   1      41.248  33.274  34.354  1.00  0.00     0.029 A 
ATOM     21  C   UNL A   1      42.368  33.953  33.705  1.00  0.00     0.049 A 
ATOM     22  H   UNL A   1      44.265  33.084  33.264  1.00  0.00     0.167 HD
ATOM     23  C   UNL A   1      40.641  28.634  29.674  1.00  0.00     0.037 A 
ATOM     24  C   UNL A   1      42.258  35.026  32.856  1.00  0.00     0.037 A 
ATOM     25  C   UNL A   1      39.381  29.137  30.154  1.00  0.00     0.049 A 
ATOM     26  C   UNL A   1      41.315  34.472  31.821  1.00  0.00     0.074 A 
ATOM     27  C   UNL A   1      38.141  28.761  30.620  1.00  0.00     0.029 A 
ATOM     28  N   UNL A   1      39.284  30.497  30.033  1.00  0.00    -0.354 N 
ATOM     29  N   UNL A   1      40.027  34.290  31.949  1.00  0.00    -0.248 NA
ATOM     30  C   UNL A   1      41.934  33.708  30.746  1.00  0.00     0.031 C 
ATOM     31  C   UNL A   1      37.542  29.968  31.147  1.00  0.00     0.029 A 
ATOM     32  C   UNL A   1      38.428  31.026  30.938  1.00  0.00     0.049 A 
ATOM     33  H   UNL A   1      39.780  31.026  29.367  1.00  0.00     0.167 HD
ATOM     34  C   UNL A   1      39.737  33.147  31.189  1.00  0.00     0.074 A 
ATOM     35  C   UNL A   1      40.939  32.902  30.412  1.00  0.00     0.031 C 
ATOM     36  C   UNL A   1      38.612  32.389  31.400  1.00  0.00     0.037 A 
BRANCH  23  37
ATOM     37  C   UNL A   1      40.692  27.945  28.366  1.00  0.00     0.064 A 
ATOM     38  C   UNL A   1      40.302  26.596  28.371  1.00  0.00     0.173 A 
ATOM     39  C   UNL A   1      41.252  28.461  27.194  1.00  0.00     0.173 A 
ATOM     40  F   UNL A   1      39.771  26.064  29.485  1.00  0.00    -0.203 F 
ATOM     41  C   UNL A   1      40.489  25.781  27.265  1.00  0.00     0.198 A 
ATOM     42  C   UNL A   1      41.424  27.641  26.072  1.00  0.00     0.198 A 
ATOM     43  F   UNL A   1      41.664  29.737  27.137  1.00  0.00    -0.203 F 
ATOM     44  F   UNL A   1      40.141  24.489  27.329  1.00  0.00    -0.200 F 
ATOM     45  C   UNL A   1      41.053  26.302  26.115  1.00  0.00     0.200 A 
ATOM     46  F   UNL A   1      41.971  28.137  24.952  1.00  0.00    -0.200 F 
ATOM     47  F   UNL A   1      41.248  25.510  25.051  1.00  0.00    -0.200 F 
ENDBRANCH  23  37
BRANCH  24  48
ATOM     48  C   UNL A   1      43.539  35.746  32.534  1.00  0.00     0.064 A 
ATOM     49  C   UNL A   1      43.719  37.015  33.117  1.00  0.00     0.173 A 
ATOM     50  C   UNL A   1      44.624  35.257  31.789  1.00  0.00     0.173 A 
ATOM     51  F   UNL A   1      42.682  37.637  33.699  1.00  0.00    -0.203 F 
ATOM     52  C   UNL A   1      44.965  37.636  33.163  1.00  0.00     0.198 A 
ATOM     53  C   UNL A   1      45.882  35.867  31.851  1.00  0.00     0.198 A 
ATOM     54  F   UNL A   1      44.509  34.172  31.013  1.00  0.00    -0.203 F 
ATOM     55  F   UNL A   1      45.109  38.790  33.829  1.00  0.00    -0.200 F 
ATOM     56  C   UNL A   1      46.061  37.032  32.578  1.00  0.00     0.200 A 
ATOM     57  F   UNL A   1      46.932  35.294  31.247  1.00  0.00    -0.200 F 
ATOM     58  F   UNL A   1      47.283  37.564  32.717  1.00  0.00    -0.200 F 
ENDBRANCH  24  48
BRANCH  36  59
ATOM     59  C   UNL A   1      37.569  33.015  32.266  1.00  0.00     0.064 A 
ATOM     60  C   UNL A   1      37.561  32.736  33.642  1.00  0.00     0.173 A 
ATOM     61  C   UNL A   1      36.634  33.943  31.782  1.00  0.00     0.173 A 
ATOM     62  F   UNL A   1      38.464  31.893  34.168  1.00  0.00    -0.203 F 
ATOM     63  C   UNL A   1      36.654  33.349  34.495  1.00  0.00     0.198 A 
ATOM     64  C   UNL A   1      35.759  34.593  32.650  1.00  0.00     0.198 A 
ATOM     65  F   UNL A   1      36.575  34.246  30.475  1.00  0.00    -0.203 F 
ATOM     66  F   UNL A   1      36.661  33.050  35.801  1.00  0.00    -0.200 F 
ATOM     67  C   UNL A   1      35.766  34.291  34.003  1.00  0.00     0.200 A 
ATOM     68  F   UNL A   1      34.926  35.533  32.180  1.00  0.00    -0.200 F 
ATOM     69  F   UNL A   1      34.932  34.925  34.838  1.00  0.00    -0.200 F 
ENDBRANCH  36  59
ENDBRANCH  10  11
ENDBRANCH   3   5
ENDBRANCH   2   3
ENDBRANCH   1   2
BRANCH   1  70
ATOM     70  C   UNL A   1      44.386  23.776  32.114  1.00  0.00     0.274 C 
BRANCH  70  71
ATOM     71  O   UNL A   1      44.190  23.203  30.749  1.00  0.00    -0.458 OA
BRANCH  71  72
ATOM     72  C   UNL A   1      43.731  23.502  29.485  1.00  0.00     0.365 C 
ATOM     73  O   UNL A   1      42.544  23.553  29.209  1.00  0.00    -0.245 OA
BRANCH  72  74
ATOM     74  C   UNL A   1      44.972  23.510  28.405  1.00  0.00     0.296 C 
ATOM     75  C   UNL A   1      45.813  25.236  28.892  1.00  0.00     0.091 C 
ATOM     76  N   UNL A   1      44.850  23.401  26.522  1.00  0.00    -0.319 N 
ATOM     77  C   UNL A   1      45.975  26.432  26.989  1.00  0.00     0.036 C 
ATOM     78  C   UNL A   1      45.361  25.008  25.646  1.00  0.00     0.270 C 
ATOM     79  H   UNL A   1      45.562  22.703  26.306  1.00  0.00     0.349 HD
ATOM     80  C   UNL A   1      47.286  27.050  26.087  1.00  0.00     0.074 C 
ATOM     81  C   UNL A   1      44.983  27.810  26.472  1.00  0.00     0.074 C 
ATOM     82  C   UNL A   1      47.708  28.520  26.355  1.00  0.00     0.261 C 
ATOM     83  C   UNL A   1      45.489  29.198  26.933  1.00  0.00     0.261 C 
ATOM     84  N   UNL A   1      46.690  29.552  26.205  1.00  0.00    -0.346 N 
ATOM     85  H   UNL A   1      46.463  29.658  25.217  1.00  0.00     0.346 HD
ATOM     86  H   UNL A   1      47.053  30.429  26.580  1.00  0.00     0.346 HD
BRANCH  76  87
ATOM     87  C   UNL A   1      43.630  22.756  25.941  1.00  0.00     0.302 C 
BRANCH  87  88
ATOM     88  C   UNL A   1      43.583  21.256  25.703  1.00  0.00     0.038 A 
ATOM     89  C   UNL A   1      42.459  20.428  26.014  1.00  0.00     0.012 A 
ATOM     90  C   UNL A   1      44.683  20.493  25.233  1.00  0.00     0.144 A 
ATOM     91  C   UNL A   1      42.480  18.996  26.010  1.00  0.00     0.003 A 
ATOM     92  C   UNL A   1      44.709  19.028  25.234  1.00  0.00     0.135 A 
ATOM     93  N   UNL A   1      45.856  20.917  24.747  1.00  0.00    -0.049 NA
ATOM     94  C   UNL A   1      43.612  18.246  25.641  1.00  0.00     0.034 A 
ATOM     95  N   UNL A   1      45.927  18.626  24.853  1.00  0.00    -0.050 NA
ATOM     96  O   UNL A   1      46.638  19.786  24.593  1.00  0.00    -0.243 OA
ENDBRANCH  87  88
ENDBRANCH  76  87
ENDBRANCH  72  74
ENDBRANCH  71  72
ENDBRANCH  70  71
ENDBRANCH   1  70
TORSDOF 13
ENDMDL
