MODEL 1
REMARK VINA RESULT:     -12.5      0.000      0.000
REMARK SMILES O=C(Cc1ccccc1F)NC[C@@H]1CC[C@@H](C(=O)OCCOC(=O)c2ccc(-c3c4nc(c(-c5c(F)c(F)c(F)c(F)c5F)c5ccc([nH]5)c(-c5c(F)c(F)c(F)c(F)c5F)c5nc(c(-c6c(F)c(F)c(F)c(F)c6F)c6ccc3[nH]6)C=C5)C=C4)cc2)O1
REMARK SMILES IDX 20 1 19 2 17 3 18 4 16 5 13 6 14 7 88 8 15 9 12 10 11 11
REMARK SMILES IDX 1 12 2 13 3 15 4 16 5 17 9 18 6 19 8 20 10 21 7 22 21 23
REMARK SMILES IDX 22 24 23 25 24 26 25 27 26 28 87 29 27 30 86 31 28 32 29 33
REMARK SMILES IDX 30 34 80 35 31 36 85 37 79 38 81 39 32 40 84 41 78 42 77 43
REMARK SMILES IDX 33 45 65 46 45 47 64 48 46 49 49 50 63 51 82 52 47 53 48 54
REMARK SMILES IDX 62 56 83 57 50 58 34 59 35 60 43 61 36 62 37 63 41 64 44 65
REMARK SMILES IDX 38 66 39 67 42 68 40 69 66 70 67 71 75 72 68 73 69 74 73 75
REMARK SMILES IDX 76 76 70 77 71 78 74 79 72 80 51 81 52 82 60 83 53 84 54 85
REMARK SMILES IDX 58 86 61 87 55 88 56 89 59 90 57 91
REMARK H PARENT 11 14 81 44 49 55
REMARK Flexibility Score: inf
ROOT
ATOM      1  C   UNL A   1      46.079  21.597  38.027  1.00  0.00     0.274 C 
ENDROOT
BRANCH   1   2
ATOM      2  O   UNL A   1      46.288  20.291  37.462  1.00  0.00    -0.460 OA
BRANCH   2   3
ATOM      3  C   UNL A   1      46.861  19.365  38.273  1.00  0.00     0.335 C 
ATOM      4  O   UNL A   1      48.064  19.268  38.491  1.00  0.00    -0.249 OA
BRANCH   3   5
ATOM      5  C   UNL A   1      45.823  18.471  38.955  1.00  0.00     0.228 C 
ATOM      6  C   UNL A   1      44.500  16.567  38.907  1.00  0.00     0.138 C 
ATOM      7  C   UNL A   1      45.300  16.579  40.207  1.00  0.00     0.037 C 
ATOM      8  O   UNL A   1      44.923  17.715  38.145  1.00  0.00    -0.361 OA
ATOM      9  C   UNL A   1      46.482  17.448  39.857  1.00  0.00     0.047 C 
BRANCH   6  10
ATOM     10  C   UNL A   1      42.983  16.614  39.120  1.00  0.00     0.147 C 
BRANCH  10  11
ATOM     11  N   UNL A   1      42.602  16.212  40.461  1.00  0.00    -0.353 N 
ATOM     12  O   UNL A   1      41.903  14.114  39.868  1.00  0.00    -0.275 OA
ATOM     13  C   UNL A   1      42.122  14.951  40.742  1.00  0.00     0.224 C 
ATOM     14  H   UNL A   1      42.689  16.862  41.196  1.00  0.00     0.163 HD
BRANCH  13  15
ATOM     15  C   UNL A   1      41.730  14.703  42.188  1.00  0.00     0.138 C 
BRANCH  15  16
ATOM     16  C   UNL A   1      42.170  13.404  42.825  1.00  0.00    -0.003 A 
ATOM     17  C   UNL A   1      43.269  13.415  43.700  1.00  0.00     0.007 A 
ATOM     18  C   UNL A   1      41.478  12.201  42.653  1.00  0.00     0.126 A 
ATOM     19  C   UNL A   1      43.682  12.243  44.342  1.00  0.00     0.001 A 
ATOM     20  C   UNL A   1      41.896  11.028  43.277  1.00  0.00     0.039 A 
ATOM     21  F   UNL A   1      40.391  12.149  41.872  1.00  0.00    -0.207 F 
ATOM     22  C   UNL A   1      43.002  11.047  44.122  1.00  0.00     0.003 A 
ENDBRANCH  15  16
ENDBRANCH  13  15
ENDBRANCH  10  11
ENDBRANCH   6  10
ENDBRANCH   3   5
ENDBRANCH   2   3
ENDBRANCH   1   2
BRANCH   1  23
ATOM     23  C   UNL A   1      46.327  22.688  36.983  1.00  0.00     0.275 C 
BRANCH  23  24
ATOM     24  O   UNL A   1      45.633  23.908  37.312  1.00  0.00    -0.458 OA
BRANCH  24  25
ATOM     25  C   UNL A   1      46.258  25.049  36.935  1.00  0.00     0.338 C 
ATOM     26  O   UNL A   1      47.428  25.346  37.092  1.00  0.00    -0.246 OA
BRANCH  25  27
ATOM     27  C   UNL A   1      45.321  25.893  36.180  1.00  0.00     0.060 A 
ATOM     28  C   UNL A   1      44.023  25.419  35.974  1.00  0.00     0.016 A 
ATOM     29  C   UNL A   1      45.736  27.095  35.607  1.00  0.00     0.016 A 
ATOM     30  C   UNL A   1      43.131  26.140  35.189  1.00  0.00     0.010 A 
ATOM     31  C   UNL A   1      44.833  27.829  34.832  1.00  0.00     0.010 A 
ATOM     32  C   UNL A   1      43.526  27.354  34.615  1.00  0.00    -0.014 A 
BRANCH  32  33
ATOM     33  C   UNL A   1      42.566  28.130  33.795  1.00  0.00     0.031 A 
ATOM     34  C   UNL A   1      41.666  29.138  34.442  1.00  0.00     0.074 A 
ATOM     35  C   UNL A   1      42.509  27.919  32.467  1.00  0.00     0.049 A 
ATOM     36  N   UNL A   1      40.665  29.803  33.924  1.00  0.00    -0.248 NA
ATOM     37  C   UNL A   1      41.920  29.440  35.860  1.00  0.00     0.031 C 
ATOM     38  C   UNL A   1      43.370  27.000  31.722  1.00  0.00     0.029 A 
ATOM     39  N   UNL A   1      41.684  28.455  31.510  1.00  0.00    -0.354 N 
ATOM     40  C   UNL A   1      40.153  30.578  34.955  1.00  0.00     0.074 A 
ATOM     41  C   UNL A   1      40.951  30.304  36.130  1.00  0.00     0.031 C 
ATOM     42  C   UNL A   1      43.024  27.029  30.426  1.00  0.00     0.029 A 
ATOM     43  C   UNL A   1      41.882  27.923  30.260  1.00  0.00     0.049 A 
ATOM     44  H   UNL A   1      41.016  29.152  31.702  1.00  0.00     0.167 HD
ATOM     45  C   UNL A   1      39.108  31.436  34.914  1.00  0.00     0.037 A 
ATOM     46  C   UNL A   1      41.191  28.101  29.118  1.00  0.00     0.037 A 
ATOM     47  C   UNL A   1      38.343  31.729  33.729  1.00  0.00     0.049 A 
ATOM     48  C   UNL A   1      40.006  29.027  29.112  1.00  0.00     0.074 A 
ATOM     49  C   UNL A   1      37.283  32.607  33.586  1.00  0.00     0.029 A 
ATOM     50  N   UNL A   1      38.562  31.157  32.487  1.00  0.00    -0.354 N 
ATOM     51  N   UNL A   1      39.513  29.739  30.096  1.00  0.00    -0.248 NA
ATOM     52  C   UNL A   1      39.275  29.167  27.845  1.00  0.00     0.031 C 
ATOM     53  C   UNL A   1      36.835  32.537  32.264  1.00  0.00     0.029 A 
ATOM     54  C   UNL A   1      37.642  31.646  31.575  1.00  0.00     0.049 A 
ATOM     55  H   UNL A   1      39.266  30.499  32.282  1.00  0.00     0.167 HD
ATOM     56  C   UNL A   1      38.423  30.415  29.568  1.00  0.00     0.074 A 
ATOM     57  C   UNL A   1      38.334  30.043  28.172  1.00  0.00     0.031 C 
ATOM     58  C   UNL A   1      37.571  31.266  30.189  1.00  0.00     0.037 A 
BRANCH  45  59
ATOM     59  C   UNL A   1      38.700  32.115  36.185  1.00  0.00     0.064 A 
ATOM     60  C   UNL A   1      39.131  33.425  36.449  1.00  0.00     0.173 A 
ATOM     61  C   UNL A   1      37.977  31.444  37.179  1.00  0.00     0.173 A 
ATOM     62  F   UNL A   1      39.831  34.106  35.530  1.00  0.00    -0.203 F 
ATOM     63  C   UNL A   1      38.869  34.030  37.675  1.00  0.00     0.198 A 
ATOM     64  C   UNL A   1      37.701  32.060  38.398  1.00  0.00     0.198 A 
ATOM     65  F   UNL A   1      37.539  30.194  36.968  1.00  0.00    -0.203 F 
ATOM     66  F   UNL A   1      39.320  35.267  37.920  1.00  0.00    -0.200 F 
ATOM     67  C   UNL A   1      38.156  33.346  38.649  1.00  0.00     0.200 A 
ATOM     68  F   UNL A   1      36.999  31.405  39.334  1.00  0.00    -0.200 F 
ATOM     69  F   UNL A   1      37.909  33.928  39.831  1.00  0.00    -0.200 F 
ENDBRANCH  45  59
BRANCH  46  70
ATOM     70  C   UNL A   1      41.585  27.347  27.900  1.00  0.00     0.064 A 
ATOM     71  C   UNL A   1      41.072  26.066  27.646  1.00  0.00     0.173 A 
ATOM     72  C   UNL A   1      42.493  27.882  26.979  1.00  0.00     0.173 A 
ATOM     73  F   UNL A   1      40.197  25.511  28.497  1.00  0.00    -0.203 F 
ATOM     74  C   UNL A   1      41.474  25.339  26.528  1.00  0.00     0.198 A 
ATOM     75  C   UNL A   1      42.873  27.165  25.846  1.00  0.00     0.198 A 
ATOM     76  F   UNL A   1      42.988  29.115  27.166  1.00  0.00    -0.203 F 
ATOM     77  F   UNL A   1      40.995  24.103  26.327  1.00  0.00    -0.200 F 
ATOM     78  C   UNL A   1      42.371  25.890  25.627  1.00  0.00     0.200 A 
ATOM     79  F   UNL A   1      43.720  27.711  24.963  1.00  0.00    -0.200 F 
ATOM     80  F   UNL A   1      42.746  25.197  24.544  1.00  0.00    -0.200 F 
ENDBRANCH  46  70
BRANCH  58  81
ATOM     81  C   UNL A   1      36.470  31.866  29.367  1.00  0.00     0.064 A 
ATOM     82  C   UNL A   1      36.470  33.238  29.074  1.00  0.00     0.173 A 
ATOM     83  C   UNL A   1      35.375  31.100  28.948  1.00  0.00     0.173 A 
ATOM     84  F   UNL A   1      37.495  34.012  29.462  1.00  0.00    -0.203 F 
ATOM     85  C   UNL A   1      35.401  33.825  28.405  1.00  0.00     0.198 A 
ATOM     86  C   UNL A   1      34.316  31.686  28.260  1.00  0.00     0.198 A 
ATOM     87  F   UNL A   1      35.338  29.782  29.197  1.00  0.00    -0.203 F 
ATOM     88  F   UNL A   1      35.405  35.142  28.164  1.00  0.00    -0.200 F 
ATOM     89  C   UNL A   1      34.325  33.048  27.999  1.00  0.00     0.200 A 
ATOM     90  F   UNL A   1      33.286  30.932  27.850  1.00  0.00    -0.200 F 
ATOM     91  F   UNL A   1      33.297  33.614  27.352  1.00  0.00    -0.200 F 
ENDBRANCH  58  81
ENDBRANCH  32  33
ENDBRANCH  25  27
ENDBRANCH  24  25
ENDBRANCH  23  24
ENDBRANCH   1  23
TORSDOF 15
ENDMDL
MODEL 2
REMARK VINA RESULT:     -12.4      7.886     14.543
REMARK SMILES O=C(Cc1ccccc1F)NC[C@@H]1CC[C@@H](C(=O)OCCOC(=O)c2ccc(-c3c4nc(c(-c5c(F)c(F)c(F)c(F)c5F)c5ccc([nH]5)c(-c5c(F)c(F)c(F)c(F)c5F)c5nc(c(-c6c(F)c(F)c(F)c(F)c6F)c6ccc3[nH]6)C=C5)C=C4)cc2)O1
REMARK SMILES IDX 20 1 19 2 17 3 18 4 16 5 13 6 14 7 88 8 15 9 12 10 11 11
REMARK SMILES IDX 1 12 2 13 3 15 4 16 5 17 9 18 6 19 8 20 10 21 7 22 21 23
REMARK SMILES IDX 22 24 23 25 24 26 25 27 26 28 87 29 27 30 86 31 28 32 29 33
REMARK SMILES IDX 30 34 80 35 31 36 85 37 79 38 81 39 32 40 84 41 78 42 77 43
REMARK SMILES IDX 33 45 65 46 45 47 64 48 46 49 49 50 63 51 82 52 47 53 48 54
REMARK SMILES IDX 62 56 83 57 50 58 34 59 35 60 43 61 36 62 37 63 41 64 44 65
REMARK SMILES IDX 38 66 39 67 42 68 40 69 66 70 67 71 75 72 68 73 69 74 73 75
REMARK SMILES IDX 76 76 70 77 71 78 74 79 72 80 51 81 52 82 60 83 53 84 54 85
REMARK SMILES IDX 58 86 61 87 55 88 56 89 59 90 57 91
REMARK H PARENT 11 14 81 44 49 55
REMARK Flexibility Score: inf
ROOT
ATOM      1  C   UNL A   1      31.882  28.355  24.585  1.00  0.00     0.274 C 
ENDROOT
BRANCH   1   2
ATOM      2  O   UNL A   1      30.850  27.483  25.077  1.00  0.00    -0.460 OA
BRANCH   2   3
ATOM      3  C   UNL A   1      31.143  26.768  26.194  1.00  0.00     0.335 C 
ATOM      4  O   UNL A   1      31.031  27.182  27.344  1.00  0.00    -0.249 OA
BRANCH   3   5
ATOM      5  C   UNL A   1      31.579  25.339  25.870  1.00  0.00     0.228 C 
ATOM      6  C   UNL A   1      31.462  23.070  26.335  1.00  0.00     0.138 C 
ATOM      7  C   UNL A   1      31.166  23.284  24.854  1.00  0.00     0.037 C 
ATOM      8  O   UNL A   1      31.631  24.376  26.922  1.00  0.00    -0.361 OA
ATOM      9  C   UNL A   1      30.685  24.713  24.819  1.00  0.00     0.047 C 
BRANCH   6  10
ATOM     10  C   UNL A   1      32.709  22.218  26.594  1.00  0.00     0.147 C 
BRANCH  10  11
ATOM     11  N   UNL A   1      33.860  22.682  25.843  1.00  0.00    -0.353 N 
ATOM     12  O   UNL A   1      34.254  20.685  24.794  1.00  0.00    -0.275 OA
ATOM     13  C   UNL A   1      34.530  21.873  24.950  1.00  0.00     0.224 C 
ATOM     14  H   UNL A   1      34.174  23.606  25.975  1.00  0.00     0.163 HD
BRANCH  13  15
ATOM     15  C   UNL A   1      35.738  22.497  24.274  1.00  0.00     0.138 C 
BRANCH  15  16
ATOM     16  C   UNL A   1      36.999  22.660  25.092  1.00  0.00    -0.003 A 
ATOM     17  C   UNL A   1      37.258  23.898  25.701  1.00  0.00     0.007 A 
ATOM     18  C   UNL A   1      37.881  21.605  25.346  1.00  0.00     0.126 A 
ATOM     19  C   UNL A   1      38.391  24.079  26.500  1.00  0.00     0.001 A 
ATOM     20  C   UNL A   1      39.021  21.784  26.126  1.00  0.00     0.039 A 
ATOM     21  F   UNL A   1      37.651  20.390  24.833  1.00  0.00    -0.207 F 
ATOM     22  C   UNL A   1      39.279  23.025  26.704  1.00  0.00     0.003 A 
ENDBRANCH  15  16
ENDBRANCH  13  15
ENDBRANCH  10  11
ENDBRANCH   6  10
ENDBRANCH   3   5
ENDBRANCH   2   3
ENDBRANCH   1   2
BRANCH   1  23
ATOM     23  C   UNL A   1      31.870  29.691  25.331  1.00  0.00     0.275 C 
BRANCH  23  24
ATOM     24  O   UNL A   1      33.199  30.107  25.702  1.00  0.00    -0.458 OA
BRANCH  24  25
ATOM     25  C   UNL A   1      33.269  30.936  26.770  1.00  0.00     0.338 C 
ATOM     26  O   UNL A   1      32.404  31.679  27.197  1.00  0.00    -0.246 OA
BRANCH  25  27
ATOM     27  C   UNL A   1      34.557  30.746  27.452  1.00  0.00     0.060 A 
ATOM     28  C   UNL A   1      34.871  29.472  27.929  1.00  0.00     0.016 A 
ATOM     29  C   UNL A   1      35.407  31.824  27.698  1.00  0.00     0.016 A 
ATOM     30  C   UNL A   1      36.035  29.265  28.662  1.00  0.00     0.010 A 
ATOM     31  C   UNL A   1      36.586  31.613  28.420  1.00  0.00     0.010 A 
ATOM     32  C   UNL A   1      36.905  30.333  28.909  1.00  0.00    -0.014 A 
BRANCH  32  33
ATOM     33  C   UNL A   1      38.155  30.105  29.672  1.00  0.00     0.031 A 
ATOM     34  C   UNL A   1      39.247  29.257  29.093  1.00  0.00     0.074 A 
ATOM     35  C   UNL A   1      38.299  30.664  30.888  1.00  0.00     0.049 A 
ATOM     36  N   UNL A   1      40.342  28.822  29.662  1.00  0.00    -0.248 NA
ATOM     37  C   UNL A   1      39.089  28.840  27.691  1.00  0.00     0.031 C 
ATOM     38  C   UNL A   1      37.325  31.548  31.529  1.00  0.00     0.029 A 
ATOM     39  N   UNL A   1      39.314  30.563  31.805  1.00  0.00    -0.354 N 
ATOM     40  C   UNL A   1      40.988  28.057  28.701  1.00  0.00     0.074 A 
ATOM     41  C   UNL A   1      40.166  28.087  27.510  1.00  0.00     0.031 C 
ATOM     42  C   UNL A   1      37.785  31.902  32.738  1.00  0.00     0.029 A 
ATOM     43  C   UNL A   1      39.056  31.226  32.980  1.00  0.00     0.049 A 
ATOM     44  H   UNL A   1      40.146  30.064  31.637  1.00  0.00     0.167 HD
ATOM     45  C   UNL A   1      42.161  27.393  28.813  1.00  0.00     0.037 A 
ATOM     46  C   UNL A   1      39.743  31.248  34.137  1.00  0.00     0.037 A 
ATOM     47  C   UNL A   1      42.990  27.400  29.991  1.00  0.00     0.049 A 
ATOM     48  C   UNL A   1      41.022  30.465  34.248  1.00  0.00     0.074 A 
ATOM     49  C   UNL A   1      44.210  26.778  30.187  1.00  0.00     0.029 A 
ATOM     50  N   UNL A   1      42.685  28.068  31.166  1.00  0.00    -0.354 N 
ATOM     51  N   UNL A   1      41.615  29.726  33.343  1.00  0.00    -0.248 NA
ATOM     52  C   UNL A   1      41.720  30.506  35.541  1.00  0.00     0.031 C 
ATOM     53  C   UNL A   1      44.626  27.037  31.496  1.00  0.00     0.029 A 
ATOM     54  C   UNL A   1      43.685  27.854  32.100  1.00  0.00     0.049 A 
ATOM     55  H   UNL A   1      41.878  28.612  31.315  1.00  0.00     0.167 HD
ATOM     56  C   UNL A   1      42.757  29.222  33.950  1.00  0.00     0.074 A 
ATOM     57  C   UNL A   1      42.783  29.751  35.297  1.00  0.00     0.031 C 
ATOM     58  C   UNL A   1      43.695  28.392  33.435  1.00  0.00     0.037 A 
BRANCH  45  59
ATOM     59  C   UNL A   1      42.626  26.577  27.646  1.00  0.00     0.064 A 
ATOM     60  C   UNL A   1      42.302  25.214  27.569  1.00  0.00     0.173 A 
ATOM     61  C   UNL A   1      43.471  27.112  26.665  1.00  0.00     0.173 A 
ATOM     62  F   UNL A   1      41.501  24.656  28.489  1.00  0.00    -0.203 F 
ATOM     63  C   UNL A   1      42.826  24.410  26.561  1.00  0.00     0.198 A 
ATOM     64  C   UNL A   1      43.978  26.308  25.646  1.00  0.00     0.198 A 
ATOM     65  F   UNL A   1      43.801  28.412  26.693  1.00  0.00    -0.203 F 
ATOM     66  F   UNL A   1      42.532  23.103  26.527  1.00  0.00    -0.200 F 
ATOM     67  C   UNL A   1      43.664  24.958  25.601  1.00  0.00     0.200 A 
ATOM     68  F   UNL A   1      44.777  26.840  24.710  1.00  0.00    -0.200 F 
ATOM     69  F   UNL A   1      44.172  24.181  24.634  1.00  0.00    -0.200 F 
ENDBRANCH  45  59
BRANCH  46  70
ATOM     70  C   UNL A   1      39.205  32.009  35.293  1.00  0.00     0.064 A 
ATOM     71  C   UNL A   1      39.467  33.380  35.441  1.00  0.00     0.173 A 
ATOM     72  C   UNL A   1      38.437  31.381  36.281  1.00  0.00     0.173 A 
ATOM     73  F   UNL A   1      40.196  34.028  34.521  1.00  0.00    -0.203 F 
ATOM     74  C   UNL A   1      39.002  34.087  36.547  1.00  0.00     0.198 A 
ATOM     75  C   UNL A   1      37.948  32.095  37.373  1.00  0.00     0.198 A 
ATOM     76  F   UNL A   1      38.138  30.078  36.168  1.00  0.00    -0.203 F 
ATOM     77  F   UNL A   1      39.295  35.388  36.681  1.00  0.00    -0.200 F 
ATOM     78  C   UNL A   1      38.239  33.445  37.510  1.00  0.00     0.200 A 
ATOM     79  F   UNL A   1      37.189  31.478  38.289  1.00  0.00    -0.200 F 
ATOM     80  F   UNL A   1      37.779  34.128  38.566  1.00  0.00    -0.200 F 
ENDBRANCH  46  70
BRANCH  58  81
ATOM     81  C   UNL A   1      44.841  28.007  34.321  1.00  0.00     0.064 A 
ATOM     82  C   UNL A   1      46.018  28.770  34.333  1.00  0.00     0.173 A 
ATOM     83  C   UNL A   1      44.805  26.836  35.089  1.00  0.00     0.173 A 
ATOM     84  F   UNL A   1      46.100  29.896  33.607  1.00  0.00    -0.203 F 
ATOM     85  C   UNL A   1      47.126  28.364  35.069  1.00  0.00     0.198 A 
ATOM     86  C   UNL A   1      45.907  26.443  35.842  1.00  0.00     0.198 A 
ATOM     87  F   UNL A   1      43.696  26.081  35.118  1.00  0.00    -0.203 F 
ATOM     88  F   UNL A   1      48.251  29.089  35.041  1.00  0.00    -0.200 F 
ATOM     89  C   UNL A   1      47.069  27.200  35.823  1.00  0.00     0.200 A 
ATOM     90  F   UNL A   1      45.847  25.329  36.586  1.00  0.00    -0.200 F 
ATOM     91  F   UNL A   1      48.136  26.810  36.534  1.00  0.00    -0.200 F 
ENDBRANCH  58  81
ENDBRANCH  32  33
ENDBRANCH  25  27
ENDBRANCH  24  25
ENDBRANCH  23  24
ENDBRANCH   1  23
TORSDOF 15
ENDMDL
MODEL 3
REMARK VINA RESULT:     -12.4      8.217     14.396
REMARK SMILES O=C(Cc1ccccc1F)NC[C@@H]1CC[C@@H](C(=O)OCCOC(=O)c2ccc(-c3c4nc(c(-c5c(F)c(F)c(F)c(F)c5F)c5ccc([nH]5)c(-c5c(F)c(F)c(F)c(F)c5F)c5nc(c(-c6c(F)c(F)c(F)c(F)c6F)c6ccc3[nH]6)C=C5)C=C4)cc2)O1
REMARK SMILES IDX 20 1 19 2 17 3 18 4 16 5 13 6 14 7 88 8 15 9 12 10 11 11
REMARK SMILES IDX 1 12 2 13 3 15 4 16 5 17 9 18 6 19 8 20 10 21 7 22 21 23
REMARK SMILES IDX 22 24 23 25 24 26 25 27 26 28 87 29 27 30 86 31 28 32 29 33
REMARK SMILES IDX 30 34 80 35 31 36 85 37 79 38 81 39 32 40 84 41 78 42 77 43
REMARK SMILES IDX 33 45 65 46 45 47 64 48 46 49 49 50 63 51 82 52 47 53 48 54
REMARK SMILES IDX 62 56 83 57 50 58 34 59 35 60 43 61 36 62 37 63 41 64 44 65
REMARK SMILES IDX 38 66 39 67 42 68 40 69 66 70 67 71 75 72 68 73 69 74 73 75
REMARK SMILES IDX 76 76 70 77 71 78 74 79 72 80 51 81 52 82 60 83 53 84 54 85
REMARK SMILES IDX 58 86 61 87 55 88 56 89 59 90 57 91
REMARK H PARENT 11 14 81 44 49 55
REMARK Flexibility Score: inf
ROOT
ATOM      1  C   UNL A   1      33.738  35.478  28.776  1.00  0.00     0.274 C 
ENDROOT
BRANCH   1   2
ATOM      2  O   UNL A   1      33.516  34.069  28.949  1.00  0.00    -0.460 OA
BRANCH   2   3
ATOM      3  C   UNL A   1      34.622  33.295  29.102  1.00  0.00     0.335 C 
ATOM      4  O   UNL A   1      35.678  33.669  29.604  1.00  0.00    -0.249 OA
BRANCH   3   5
ATOM      5  C   UNL A   1      34.394  31.858  28.632  1.00  0.00     0.228 C 
ATOM      6  C   UNL A   1      33.789  30.391  26.941  1.00  0.00     0.138 C 
ATOM      7  C   UNL A   1      35.139  29.960  27.507  1.00  0.00     0.037 C 
ATOM      8  O   UNL A   1      33.420  31.609  27.619  1.00  0.00    -0.361 OA
ATOM      9  C   UNL A   1      35.671  31.241  28.098  1.00  0.00     0.047 C 
BRANCH   6  10
ATOM     10  C   UNL A   1      32.687  29.342  27.117  1.00  0.00     0.147 C 
BRANCH  10  11
ATOM     11  N   UNL A   1      32.210  28.824  25.849  1.00  0.00    -0.353 N 
ATOM     12  O   UNL A   1      31.069  27.056  26.752  1.00  0.00    -0.275 OA
ATOM     13  C   UNL A   1      31.385  27.723  25.768  1.00  0.00     0.224 C 
ATOM     14  H   UNL A   1      32.484  29.275  25.017  1.00  0.00     0.163 HD
BRANCH  13  15
ATOM     15  C   UNL A   1      31.007  27.285  24.364  1.00  0.00     0.138 C 
BRANCH  15  16
ATOM     16  C   UNL A   1      29.984  28.110  23.618  1.00  0.00    -0.003 A 
ATOM     17  C   UNL A   1      30.417  29.228  22.887  1.00  0.00     0.007 A 
ATOM     18  C   UNL A   1      28.632  27.763  23.549  1.00  0.00     0.126 A 
ATOM     19  C   UNL A   1      29.509  29.995  22.149  1.00  0.00     0.001 A 
ATOM     20  C   UNL A   1      27.720  28.533  22.831  1.00  0.00     0.039 A 
ATOM     21  F   UNL A   1      28.177  26.675  24.185  1.00  0.00    -0.207 F 
ATOM     22  C   UNL A   1      28.159  29.654  22.130  1.00  0.00     0.003 A 
ENDBRANCH  15  16
ENDBRANCH  13  15
ENDBRANCH  10  11
ENDBRANCH   6  10
ENDBRANCH   3   5
ENDBRANCH   2   3
ENDBRANCH   1   2
BRANCH   1  23
ATOM     23  C   UNL A   1      32.884  36.289  29.753  1.00  0.00     0.275 C 
BRANCH  23  24
ATOM     24  O   UNL A   1      32.393  35.474  30.835  1.00  0.00    -0.458 OA
BRANCH  24  25
ATOM     25  C   UNL A   1      32.748  35.883  32.076  1.00  0.00     0.338 C 
ATOM     26  O   UNL A   1      32.198  36.715  32.774  1.00  0.00    -0.246 OA
BRANCH  25  27
ATOM     27  C   UNL A   1      33.890  35.085  32.546  1.00  0.00     0.060 A 
ATOM     28  C   UNL A   1      35.162  35.657  32.494  1.00  0.00     0.016 A 
ATOM     29  C   UNL A   1      33.724  33.760  32.950  1.00  0.00     0.016 A 
ATOM     30  C   UNL A   1      36.282  34.908  32.840  1.00  0.00     0.010 A 
ATOM     31  C   UNL A   1      34.848  33.012  33.315  1.00  0.00     0.010 A 
ATOM     32  C   UNL A   1      36.134  33.581  33.259  1.00  0.00    -0.014 A 
BRANCH  32  33
ATOM     33  C   UNL A   1      37.326  32.792  33.647  1.00  0.00     0.031 A 
ATOM     34  C   UNL A   1      38.016  33.061  34.950  1.00  0.00     0.074 A 
ATOM     35  C   UNL A   1      37.785  31.836  32.818  1.00  0.00     0.049 A 
ATOM     36  N   UNL A   1      39.151  32.586  35.396  1.00  0.00    -0.248 NA
ATOM     37  C   UNL A   1      37.346  33.989  35.875  1.00  0.00     0.031 C 
ATOM     38  C   UNL A   1      37.166  31.453  31.550  1.00  0.00     0.029 A 
ATOM     39  N   UNL A   1      38.884  31.019  32.915  1.00  0.00    -0.354 N 
ATOM     40  C   UNL A   1      39.345  33.176  36.637  1.00  0.00     0.074 A 
ATOM     41  C   UNL A   1      38.213  34.044  36.878  1.00  0.00     0.031 C 
ATOM     42  C   UNL A   1      37.897  30.482  30.980  1.00  0.00     0.029 A 
ATOM     43  C   UNL A   1      39.065  30.217  31.816  1.00  0.00     0.049 A 
ATOM     44  H   UNL A   1      39.483  31.010  33.695  1.00  0.00     0.167 HD
ATOM     45  C   UNL A   1      40.381  33.002  37.490  1.00  0.00     0.037 A 
ATOM     46  C   UNL A   1      40.081  29.393  31.495  1.00  0.00     0.037 A 
ATOM     47  C   UNL A   1      41.484  32.107  37.258  1.00  0.00     0.049 A 
ATOM     48  C   UNL A   1      41.240  29.254  32.442  1.00  0.00     0.074 A 
ATOM     49  C   UNL A   1      42.566  31.845  38.080  1.00  0.00     0.029 A 
ATOM     50  N   UNL A   1      41.641  31.325  36.125  1.00  0.00    -0.354 N 
ATOM     51  N   UNL A   1      41.429  29.832  33.603  1.00  0.00    -0.248 NA
ATOM     52  C   UNL A   1      42.333  28.360  32.033  1.00  0.00     0.031 C 
ATOM     53  C   UNL A   1      43.399  30.932  37.426  1.00  0.00     0.029 A 
ATOM     54  C   UNL A   1      42.815  30.596  36.216  1.00  0.00     0.049 A 
ATOM     55  H   UNL A   1      41.012  31.294  35.367  1.00  0.00     0.167 HD
ATOM     56  C   UNL A   1      42.651  29.368  34.066  1.00  0.00     0.074 A 
ATOM     57  C   UNL A   1      43.156  28.447  33.070  1.00  0.00     0.031 C 
ATOM     58  C   UNL A   1      43.299  29.682  35.214  1.00  0.00     0.037 A 
BRANCH  45  59
ATOM     59  C   UNL A   1      40.397  33.806  38.754  1.00  0.00     0.064 A 
ATOM     60  C   UNL A   1      39.645  33.387  39.862  1.00  0.00     0.173 A 
ATOM     61  C   UNL A   1      41.068  35.033  38.837  1.00  0.00     0.173 A 
ATOM     62  F   UNL A   1      38.981  32.222  39.828  1.00  0.00    -0.203 F 
ATOM     63  C   UNL A   1      39.547  34.180  41.001  1.00  0.00     0.198 A 
ATOM     64  C   UNL A   1      40.983  35.816  39.987  1.00  0.00     0.198 A 
ATOM     65  F   UNL A   1      41.805  35.471  37.805  1.00  0.00    -0.203 F 
ATOM     66  F   UNL A   1      38.795  33.777  42.034  1.00  0.00    -0.200 F 
ATOM     67  C   UNL A   1      40.215  35.394  41.062  1.00  0.00     0.200 A 
ATOM     68  F   UNL A   1      41.639  36.983  40.051  1.00  0.00    -0.200 F 
ATOM     69  F   UNL A   1      40.115  36.160  42.158  1.00  0.00    -0.200 F 
ENDBRANCH  45  59
BRANCH  46  70
ATOM     70  C   UNL A   1      40.058  28.674  30.196  1.00  0.00     0.064 A 
ATOM     71  C   UNL A   1      39.465  27.407  30.081  1.00  0.00     0.173 A 
ATOM     72  C   UNL A   1      40.644  29.227  29.051  1.00  0.00     0.173 A 
ATOM     73  F   UNL A   1      38.889  26.836  31.149  1.00  0.00    -0.203 F 
ATOM     74  C   UNL A   1      39.482  26.711  28.876  1.00  0.00     0.198 A 
ATOM     75  C   UNL A   1      40.636  28.542  27.837  1.00  0.00     0.198 A 
ATOM     76  F   UNL A   1      41.199  30.447  29.105  1.00  0.00    -0.203 F 
ATOM     77  F   UNL A   1      38.938  25.488  28.802  1.00  0.00    -0.200 F 
ATOM     78  C   UNL A   1      40.063  27.280  27.754  1.00  0.00     0.200 A 
ATOM     79  F   UNL A   1      41.175  29.105  26.748  1.00  0.00    -0.200 F 
ATOM     80  F   UNL A   1      40.066  26.617  26.590  1.00  0.00    -0.200 F 
ENDBRANCH  46  70
BRANCH  58  81
ATOM     81  C   UNL A   1      44.619  29.021  35.469  1.00  0.00     0.064 A 
ATOM     82  C   UNL A   1      44.685  27.814  36.179  1.00  0.00     0.173 A 
ATOM     83  C   UNL A   1      45.822  29.630  35.087  1.00  0.00     0.173 A 
ATOM     84  F   UNL A   1      43.558  27.199  36.572  1.00  0.00    -0.203 F 
ATOM     85  C   UNL A   1      45.910  27.247  36.513  1.00  0.00     0.198 A 
ATOM     86  C   UNL A   1      47.047  29.049  35.404  1.00  0.00     0.198 A 
ATOM     87  F   UNL A   1      45.808  30.780  34.395  1.00  0.00    -0.203 F 
ATOM     88  F   UNL A   1      45.951  26.110  37.220  1.00  0.00    -0.200 F 
ATOM     89  C   UNL A   1      47.090  27.865  36.125  1.00  0.00     0.200 A 
ATOM     90  F   UNL A   1      48.187  29.636  35.012  1.00  0.00    -0.200 F 
ATOM     91  F   UNL A   1      48.270  27.318  36.446  1.00  0.00    -0.200 F 
ENDBRANCH  58  81
ENDBRANCH  32  33
ENDBRANCH  25  27
ENDBRANCH  24  25
ENDBRANCH  23  24
ENDBRANCH   1  23
TORSDOF 15
ENDMDL
