MODEL 1
REMARK VINA RESULT:     -13.1      0.000      0.000
REMARK SMILES Cc1cc(/C=C2/C(=O)NC(=S)N=C2OCCOC(=O)c2ccc(-c3c4nc(c(-c5c(F)c(F)c(F)c(F)c5F)c5ccc([nH]5)c(-c5c(F)c(F)c(F)c(F)c5F)c5nc(c(-c6c(F)c(F)c(F)c(F)c6F)c6ccc3[nH]6)C=C5)C=C4)cc2)c(C)n1-c1cccc(C(=O)[O-])c1
REMARK SMILES IDX 15 1 14 2 13 3 5 4 6 5 7 6 8 7 9 8 12 9 10 10 11 12 4 13
REMARK SMILES IDX 1 14 2 15 3 16 85 17 83 18 84 19 86 20 87 21 94 22 88 23
REMARK SMILES IDX 90 24 89 25 91 26 92 27 93 28 16 29 17 30 18 31 19 32 20 33
REMARK SMILES IDX 21 34 82 35 22 36 81 37 23 38 24 39 25 40 75 41 26 42 80 43
REMARK SMILES IDX 74 44 76 45 27 46 79 47 73 48 72 49 28 51 60 52 40 53 59 54
REMARK SMILES IDX 41 55 44 56 58 57 77 58 42 59 43 60 57 62 78 63 45 64 29 65
REMARK SMILES IDX 30 66 38 67 31 68 32 69 36 70 39 71 33 72 34 73 37 74 35 75
REMARK SMILES IDX 61 76 62 77 70 78 63 79 64 80 68 81 71 82 65 83 66 84 69 85
REMARK SMILES IDX 67 86 46 87 47 88 55 89 48 90 49 91 53 92 56 93 50 94 51 95
REMARK SMILES IDX 54 96 52 97
REMARK H PARENT 9 11 76 50 44 61
REMARK Flexibility Score: inf
ROOT
ATOM      1  C   UNL A   1      33.650  28.852  25.044  1.00  0.00     0.273 C 
ENDROOT
BRANCH   1   2
ATOM      2  O   UNL A   1      32.921  27.746  24.409  1.00  0.00    -0.473 OA
BRANCH   2   3
ATOM      3  C   UNL A   1      31.604  27.937  24.167  1.00  0.00     0.229 C 
ATOM      4  C   UNL A   1      30.833  25.454  24.627  1.00  0.00     0.029 C 
ATOM      5  C   UNL A   1      30.726  26.734  24.201  1.00  0.00     0.103 C 
ATOM      6  C   UNL A   1      29.339  27.020  23.684  1.00  0.00     0.262 C 
ATOM      7  O   UNL A   1      28.471  26.170  23.501  1.00  0.00    -0.269 OA
ATOM      8  N   UNL A   1      29.061  28.330  23.436  1.00  0.00    -0.297 N 
ATOM      9  N   UNL A   1      31.214  29.131  23.876  1.00  0.00    -0.184 NA
ATOM     10  C   UNL A   1      29.922  29.380  23.548  1.00  0.00     0.203 C 
ATOM     11  H   UNL A   1      28.143  28.539  23.145  1.00  0.00     0.172 HD
ATOM     12  S   UNL A   1      29.339  30.918  23.234  1.00  0.00    -0.038 S 
BRANCH   4  13
ATOM     13  C   UNL A   1      31.824  24.644  25.266  1.00  0.00    -0.003 A 
ATOM     14  C   UNL A   1      32.914  22.331  28.012  1.00  0.00     0.065 C 
ATOM     15  C   UNL A   1      32.692  23.232  26.848  1.00  0.00     0.020 A 
ATOM     16  C   UNL A   1      31.617  24.053  26.556  1.00  0.00     0.031 A 
ATOM     17  N   UNL A   1      33.609  23.439  25.840  1.00  0.00    -0.318 N 
ATOM     18  C   UNL A   1      32.983  24.081  24.778  1.00  0.00     0.027 A 
ATOM     19  C   UNL A   1      33.551  23.991  23.407  1.00  0.00     0.065 C 
BRANCH  17  20
ATOM     20  C   UNL A   1      34.963  23.052  25.831  1.00  0.00     0.046 A 
ATOM     21  C   UNL A   1      35.928  24.063  25.751  1.00  0.00     0.026 A 
ATOM     22  C   UNL A   1      35.289  21.709  25.651  1.00  0.00     0.036 A 
ATOM     23  C   UNL A   1      37.251  23.723  25.486  1.00  0.00     0.003 A 
ATOM     24  C   UNL A   1      36.613  21.378  25.342  1.00  0.00    -0.001 A 
ATOM     25  C   UNL A   1      37.591  22.386  25.268  1.00  0.00     0.010 A 
BRANCH  24  26
ATOM     26  C   UNL A   1      37.001  19.996  25.000  1.00  0.00     0.072 C 
ATOM     27  O   UNL A   1      38.156  19.573  24.929  1.00  0.00    -0.545 OA
ATOM     28  O   UNL A   1      35.957  19.208  24.716  1.00  0.00    -0.545 OA
ENDBRANCH  24  26
ENDBRANCH  17  20
ENDBRANCH   4  13
ENDBRANCH   2   3
ENDBRANCH   1   2
BRANCH   1  29
ATOM     29  C   UNL A   1      34.145  28.459  26.457  1.00  0.00     0.274 C 
BRANCH  29  30
ATOM     30  O   UNL A   1      33.827  29.425  27.509  1.00  0.00    -0.458 OA
BRANCH  30  31
ATOM     31  C   UNL A   1      34.691  30.481  27.610  1.00  0.00     0.338 C 
ATOM     32  O   UNL A   1      34.413  31.643  27.339  1.00  0.00    -0.246 OA
BRANCH  31  33
ATOM     33  C   UNL A   1      36.048  30.149  28.162  1.00  0.00     0.060 A 
ATOM     34  C   UNL A   1      37.079  29.983  27.251  1.00  0.00     0.016 A 
ATOM     35  C   UNL A   1      36.281  29.703  29.479  1.00  0.00     0.016 A 
ATOM     36  C   UNL A   1      38.297  29.393  27.654  1.00  0.00     0.010 A 
ATOM     37  C   UNL A   1      37.511  29.049  29.869  1.00  0.00     0.010 A 
ATOM     38  C   UNL A   1      38.548  28.837  28.952  1.00  0.00    -0.014 A 
BRANCH  38  39
ATOM     39  C   UNL A   1      39.726  27.826  29.059  1.00  0.00     0.031 A 
ATOM     40  C   UNL A   1      40.606  28.285  30.174  1.00  0.00     0.074 A 
ATOM     41  C   UNL A   1      40.223  26.695  28.446  1.00  0.00     0.049 A 
ATOM     42  N   UNL A   1      41.176  29.459  30.211  1.00  0.00    -0.248 NA
ATOM     43  C   UNL A   1      40.632  27.537  31.435  1.00  0.00     0.031 C 
ATOM     44  C   UNL A   1      39.698  25.967  27.286  1.00  0.00     0.029 A 
ATOM     45  N   UNL A   1      41.353  25.904  28.768  1.00  0.00    -0.354 N 
ATOM     46  C   UNL A   1      41.858  29.481  31.404  1.00  0.00     0.074 A 
ATOM     47  C   UNL A   1      41.333  28.382  32.188  1.00  0.00     0.031 C 
ATOM     48  C   UNL A   1      40.415  24.829  27.063  1.00  0.00     0.029 A 
ATOM     49  C   UNL A   1      41.515  24.716  28.017  1.00  0.00     0.049 A 
ATOM     50  H   UNL A   1      41.989  26.165  29.473  1.00  0.00     0.167 HD
ATOM     51  C   UNL A   1      43.088  30.056  31.472  1.00  0.00     0.037 A 
ATOM     52  C   UNL A   1      42.467  23.728  28.114  1.00  0.00     0.037 A 
ATOM     53  C   UNL A   1      44.114  29.139  31.876  1.00  0.00     0.049 A 
ATOM     54  C   UNL A   1      43.593  24.181  28.954  1.00  0.00     0.074 A 
ATOM     55  C   UNL A   1      44.260  28.202  32.878  1.00  0.00     0.029 A 
ATOM     56  N   UNL A   1      45.016  28.780  30.897  1.00  0.00    -0.354 N 
ATOM     57  N   UNL A   1      44.540  24.940  28.501  1.00  0.00    -0.248 NA
ATOM     58  C   UNL A   1      43.779  23.715  30.328  1.00  0.00     0.031 C 
ATOM     59  C   UNL A   1      44.832  27.062  32.241  1.00  0.00     0.029 A 
ATOM     60  C   UNL A   1      45.174  27.411  30.940  1.00  0.00     0.049 A 
ATOM     61  H   UNL A   1      45.469  29.395  30.276  1.00  0.00     0.167 HD
ATOM     62  C   UNL A   1      45.147  25.413  29.622  1.00  0.00     0.074 A 
ATOM     63  C   UNL A   1      44.839  24.455  30.662  1.00  0.00     0.031 C 
ATOM     64  C   UNL A   1      45.425  26.736  29.687  1.00  0.00     0.037 A 
BRANCH  51  65
ATOM     65  C   UNL A   1      43.313  31.210  30.549  1.00  0.00     0.064 A 
ATOM     66  C   UNL A   1      43.190  32.513  31.042  1.00  0.00     0.173 A 
ATOM     67  C   UNL A   1      43.560  31.052  29.174  1.00  0.00     0.173 A 
ATOM     68  F   UNL A   1      43.019  32.722  32.356  1.00  0.00    -0.203 F 
ATOM     69  C   UNL A   1      43.249  33.610  30.184  1.00  0.00     0.198 A 
ATOM     70  C   UNL A   1      43.572  32.143  28.313  1.00  0.00     0.198 A 
ATOM     71  F   UNL A   1      43.819  29.835  28.667  1.00  0.00    -0.203 F 
ATOM     72  F   UNL A   1      43.151  34.851  30.680  1.00  0.00    -0.200 F 
ATOM     73  C   UNL A   1      43.408  33.422  28.818  1.00  0.00     0.200 A 
ATOM     74  F   UNL A   1      43.756  31.954  26.999  1.00  0.00    -0.200 F 
ATOM     75  F   UNL A   1      43.429  34.477  27.991  1.00  0.00    -0.200 F 
ENDBRANCH  51  65
BRANCH  52  76
ATOM     76  C   UNL A   1      42.733  22.349  27.549  1.00  0.00     0.064 A 
ATOM     77  C   UNL A   1      41.754  21.317  27.668  1.00  0.00     0.173 A 
ATOM     78  C   UNL A   1      43.721  22.121  26.586  1.00  0.00     0.173 A 
ATOM     79  F   UNL A   1      40.774  21.391  28.579  1.00  0.00    -0.203 F 
ATOM     80  C   UNL A   1      41.702  20.214  26.811  1.00  0.00     0.198 A 
ATOM     81  C   UNL A   1      43.690  20.987  25.750  1.00  0.00     0.198 A 
ATOM     82  F   UNL A   1      44.673  23.039  26.372  1.00  0.00    -0.203 F 
ATOM     83  F   UNL A   1      40.679  19.347  26.892  1.00  0.00    -0.200 F 
ATOM     84  C   UNL A   1      42.663  20.056  25.839  1.00  0.00     0.200 A 
ATOM     85  F   UNL A   1      44.623  20.834  24.801  1.00  0.00    -0.200 F 
ATOM     86  F   UNL A   1      42.585  19.035  24.973  1.00  0.00    -0.200 F 
ENDBRANCH  52  76
BRANCH  64  87
ATOM     87  C   UNL A   1      45.723  27.443  28.367  1.00  0.00     0.064 A 
ATOM     88  C   UNL A   1      44.829  27.621  27.282  1.00  0.00     0.173 A 
ATOM     89  C   UNL A   1      47.022  27.938  28.171  1.00  0.00     0.173 A 
ATOM     90  F   UNL A   1      43.519  27.366  27.391  1.00  0.00    -0.203 F 
ATOM     91  C   UNL A   1      45.252  28.124  26.048  1.00  0.00     0.198 A 
ATOM     92  C   UNL A   1      47.420  28.514  26.963  1.00  0.00     0.198 A 
ATOM     93  F   UNL A   1      47.911  27.897  29.175  1.00  0.00    -0.203 F 
ATOM     94  F   UNL A   1      44.396  28.184  25.018  1.00  0.00    -0.200 F 
ATOM     95  C   UNL A   1      46.549  28.571  25.891  1.00  0.00     0.200 A 
ATOM     96  F   UNL A   1      48.656  29.018  26.847  1.00  0.00    -0.200 F 
ATOM     97  F   UNL A   1      46.950  29.084  24.719  1.00  0.00    -0.200 F 
ENDBRANCH  64  87
ENDBRANCH  38  39
ENDBRANCH  31  33
ENDBRANCH  30  31
ENDBRANCH  29  30
ENDBRANCH   1  29
TORSDOF 13
ENDMDL
MODEL 2
REMARK VINA RESULT:     -13.0      3.593      8.919
REMARK SMILES Cc1cc(/C=C2/C(=O)NC(=S)N=C2OCCOC(=O)c2ccc(-c3c4nc(c(-c5c(F)c(F)c(F)c(F)c5F)c5ccc([nH]5)c(-c5c(F)c(F)c(F)c(F)c5F)c5nc(c(-c6c(F)c(F)c(F)c(F)c6F)c6ccc3[nH]6)C=C5)C=C4)cc2)c(C)n1-c1cccc(C(=O)[O-])c1
REMARK SMILES IDX 15 1 14 2 13 3 5 4 6 5 7 6 8 7 9 8 12 9 10 10 11 12 4 13
REMARK SMILES IDX 1 14 2 15 3 16 85 17 83 18 84 19 86 20 87 21 94 22 88 23
REMARK SMILES IDX 90 24 89 25 91 26 92 27 93 28 16 29 17 30 18 31 19 32 20 33
REMARK SMILES IDX 21 34 82 35 22 36 81 37 23 38 24 39 25 40 75 41 26 42 80 43
REMARK SMILES IDX 74 44 76 45 27 46 79 47 73 48 72 49 28 51 60 52 40 53 59 54
REMARK SMILES IDX 41 55 44 56 58 57 77 58 42 59 43 60 57 62 78 63 45 64 29 65
REMARK SMILES IDX 30 66 38 67 31 68 32 69 36 70 39 71 33 72 34 73 37 74 35 75
REMARK SMILES IDX 61 76 62 77 70 78 63 79 64 80 68 81 71 82 65 83 66 84 69 85
REMARK SMILES IDX 67 86 46 87 47 88 55 89 48 90 49 91 53 92 56 93 50 94 51 95
REMARK SMILES IDX 54 96 52 97
REMARK H PARENT 9 11 76 50 44 61
REMARK Flexibility Score: inf
ROOT
ATOM      1  C   UNL A   1      35.786  23.154  24.021  1.00  0.00     0.273 C 
ENDROOT
BRANCH   1   2
ATOM      2  O   UNL A   1      34.931  23.213  25.215  1.00  0.00    -0.473 OA
BRANCH   2   3
ATOM      3  C   UNL A   1      33.851  22.400  25.238  1.00  0.00     0.229 C 
ATOM      4  C   UNL A   1      32.033  24.295  25.507  1.00  0.00     0.029 C 
ATOM      5  C   UNL A   1      32.528  23.036  25.491  1.00  0.00     0.103 C 
ATOM      6  C   UNL A   1      31.440  22.022  25.735  1.00  0.00     0.262 C 
ATOM      7  O   UNL A   1      30.293  22.294  26.082  1.00  0.00    -0.269 OA
ATOM      8  N   UNL A   1      31.787  20.722  25.523  1.00  0.00    -0.297 N 
ATOM      9  N   UNL A   1      34.048  21.135  25.090  1.00  0.00    -0.184 NA
ATOM     10  C   UNL A   1      33.019  20.255  25.179  1.00  0.00     0.203 C 
ATOM     11  H   UNL A   1      31.074  20.051  25.630  1.00  0.00     0.172 HD
ATOM     12  S   UNL A   1      33.199  18.610  24.923  1.00  0.00    -0.038 S 
BRANCH   4  13
ATOM     13  C   UNL A   1      32.527  25.616  25.270  1.00  0.00    -0.003 A 
ATOM     14  C   UNL A   1      34.028  28.215  23.017  1.00  0.00     0.065 C 
ATOM     15  C   UNL A   1      33.444  27.341  24.072  1.00  0.00     0.020 A 
ATOM     16  C   UNL A   1      33.201  25.978  24.057  1.00  0.00     0.031 A 
ATOM     17  N   UNL A   1      33.077  27.776  25.326  1.00  0.00    -0.318 N 
ATOM     18  C   UNL A   1      32.301  26.799  25.940  1.00  0.00     0.027 A 
ATOM     19  C   UNL A   1      31.374  27.162  27.045  1.00  0.00     0.065 C 
BRANCH  17  20
ATOM     20  C   UNL A   1      33.389  29.013  25.921  1.00  0.00     0.046 A 
ATOM     21  C   UNL A   1      34.434  29.044  26.851  1.00  0.00     0.026 A 
ATOM     22  C   UNL A   1      32.515  30.088  25.764  1.00  0.00     0.036 A 
ATOM     23  C   UNL A   1      34.610  30.174  27.643  1.00  0.00     0.003 A 
ATOM     24  C   UNL A   1      32.671  31.204  26.593  1.00  0.00    -0.001 A 
ATOM     25  C   UNL A   1      33.723  31.246  27.524  1.00  0.00     0.010 A 
BRANCH  24  26
ATOM     26  C   UNL A   1      31.699  32.314  26.579  1.00  0.00     0.072 C 
ATOM     27  O   UNL A   1      31.778  33.344  27.252  1.00  0.00    -0.545 OA
ATOM     28  O   UNL A   1      30.651  32.090  25.777  1.00  0.00    -0.545 OA
ENDBRANCH  24  26
ENDBRANCH  17  20
ENDBRANCH   4  13
ENDBRANCH   2   3
ENDBRANCH   1   2
BRANCH   1  29
ATOM     29  C   UNL A   1      37.256  22.848  24.398  1.00  0.00     0.274 C 
BRANCH  29  30
ATOM     30  O   UNL A   1      37.580  23.043  25.811  1.00  0.00    -0.458 OA
BRANCH  30  31
ATOM     31  C   UNL A   1      38.888  22.823  26.144  1.00  0.00     0.338 C 
ATOM     32  O   UNL A   1      39.497  21.779  25.942  1.00  0.00    -0.246 OA
BRANCH  31  33
ATOM     33  C   UNL A   1      39.605  24.000  26.741  1.00  0.00     0.060 A 
ATOM     34  C   UNL A   1      39.243  24.379  28.024  1.00  0.00     0.016 A 
ATOM     35  C   UNL A   1      40.382  24.914  26.000  1.00  0.00     0.016 A 
ATOM     36  C   UNL A   1      39.650  25.629  28.538  1.00  0.00     0.010 A 
ATOM     37  C   UNL A   1      40.747  26.216  26.515  1.00  0.00     0.010 A 
ATOM     38  C   UNL A   1      40.356  26.632  27.794  1.00  0.00    -0.014 A 
BRANCH  38  39
ATOM     39  C   UNL A   1      40.290  28.084  28.348  1.00  0.00     0.031 A 
ATOM     40  C   UNL A   1      41.656  28.672  28.216  1.00  0.00     0.074 A 
ATOM     41  C   UNL A   1      39.407  28.963  28.939  1.00  0.00     0.049 A 
ATOM     42  N   UNL A   1      42.722  28.159  28.767  1.00  0.00    -0.248 NA
ATOM     43  C   UNL A   1      41.909  29.704  27.205  1.00  0.00     0.031 C 
ATOM     44  C   UNL A   1      38.001  28.758  29.299  1.00  0.00     0.029 A 
ATOM     45  N   UNL A   1      39.592  30.309  29.342  1.00  0.00    -0.354 N 
ATOM     46  C   UNL A   1      43.751  28.980  28.375  1.00  0.00     0.074 A 
ATOM     47  C   UNL A   1      43.237  29.773  27.276  1.00  0.00     0.031 C 
ATOM     48  C   UNL A   1      37.443  29.915  29.757  1.00  0.00     0.029 A 
ATOM     49  C   UNL A   1      38.436  30.986  29.796  1.00  0.00     0.049 A 
ATOM     50  H   UNL A   1      40.473  30.747  29.308  1.00  0.00     0.167 HD
ATOM     51  C   UNL A   1      44.742  29.293  29.251  1.00  0.00     0.037 A 
ATOM     52  C   UNL A   1      38.275  32.289  30.209  1.00  0.00     0.037 A 
ATOM     53  C   UNL A   1      44.842  30.701  29.505  1.00  0.00     0.049 A 
ATOM     54  C   UNL A   1      39.589  32.919  30.440  1.00  0.00     0.074 A 
ATOM     55  C   UNL A   1      44.874  31.842  28.729  1.00  0.00     0.029 A 
ATOM     56  N   UNL A   1      44.446  31.115  30.758  1.00  0.00    -0.354 N 
ATOM     57  N   UNL A   1      40.267  32.741  31.531  1.00  0.00    -0.248 NA
ATOM     58  C   UNL A   1      40.170  33.879  29.502  1.00  0.00     0.031 C 
ATOM     59  C   UNL A   1      44.006  32.763  29.387  1.00  0.00     0.029 A 
ATOM     60  C   UNL A   1      43.633  32.218  30.611  1.00  0.00     0.049 A 
ATOM     61  H   UNL A   1      44.701  30.695  31.612  1.00  0.00     0.167 HD
ATOM     62  C   UNL A   1      41.518  33.164  31.212  1.00  0.00     0.074 A 
ATOM     63  C   UNL A   1      41.348  34.074  30.100  1.00  0.00     0.031 C 
ATOM     64  C   UNL A   1      42.566  32.385  31.570  1.00  0.00     0.037 A 
BRANCH  51  65
ATOM     65  C   UNL A   1      45.073  28.237  30.255  1.00  0.00     0.064 A 
ATOM     66  C   UNL A   1      46.265  27.518  30.123  1.00  0.00     0.173 A 
ATOM     67  C   UNL A   1      44.196  27.864  31.289  1.00  0.00     0.173 A 
ATOM     68  F   UNL A   1      47.166  27.875  29.195  1.00  0.00    -0.203 F 
ATOM     69  C   UNL A   1      46.540  26.431  30.951  1.00  0.00     0.198 A 
ATOM     70  C   UNL A   1      44.449  26.752  32.083  1.00  0.00     0.198 A 
ATOM     71  F   UNL A   1      43.102  28.599  31.549  1.00  0.00    -0.203 F 
ATOM     72  F   UNL A   1      47.699  25.770  30.823  1.00  0.00    -0.200 F 
ATOM     73  C   UNL A   1      45.619  26.031  31.909  1.00  0.00     0.200 A 
ATOM     74  F   UNL A   1      43.567  26.390  33.025  1.00  0.00    -0.200 F 
ATOM     75  F   UNL A   1      45.870  24.963  32.680  1.00  0.00    -0.200 F 
ENDBRANCH  51  65
BRANCH  52  76
ATOM     76  C   UNL A   1      37.149  33.234  30.568  1.00  0.00     0.064 A 
ATOM     77  C   UNL A   1      36.233  33.683  29.570  1.00  0.00     0.173 A 
ATOM     78  C   UNL A   1      36.716  33.402  31.888  1.00  0.00     0.173 A 
ATOM     79  F   UNL A   1      36.540  33.615  28.267  1.00  0.00    -0.203 F 
ATOM     80  C   UNL A   1      34.948  34.145  29.866  1.00  0.00     0.198 A 
ATOM     81  C   UNL A   1      35.435  33.907  32.186  1.00  0.00     0.198 A 
ATOM     82  F   UNL A   1      37.486  32.989  32.903  1.00  0.00    -0.203 F 
ATOM     83  F   UNL A   1      34.090  34.429  28.873  1.00  0.00    -0.200 F 
ATOM     84  C   UNL A   1      34.542  34.244  31.177  1.00  0.00     0.200 A 
ATOM     85  F   UNL A   1      35.037  34.000  33.462  1.00  0.00    -0.200 F 
ATOM     86  F   UNL A   1      33.290  34.626  31.468  1.00  0.00    -0.200 F 
ENDBRANCH  52  76
BRANCH  64  87
ATOM     87  C   UNL A   1      42.400  31.547  32.836  1.00  0.00     0.064 A 
ATOM     88  C   UNL A   1      41.523  30.449  33.015  1.00  0.00     0.173 A 
ATOM     89  C   UNL A   1      43.154  31.912  33.962  1.00  0.00     0.173 A 
ATOM     90  F   UNL A   1      40.881  29.878  31.987  1.00  0.00    -0.203 F 
ATOM     91  C   UNL A   1      41.316  29.862  34.266  1.00  0.00     0.198 A 
ATOM     92  C   UNL A   1      43.003  31.270  35.192  1.00  0.00     0.198 A 
ATOM     93  F   UNL A   1      44.077  32.880  33.863  1.00  0.00    -0.203 F 
ATOM     94  F   UNL A   1      40.404  28.889  34.410  1.00  0.00    -0.200 F 
ATOM     95  C   UNL A   1      42.059  30.273  35.355  1.00  0.00     0.200 A 
ATOM     96  F   UNL A   1      43.786  31.622  36.222  1.00  0.00    -0.200 F 
ATOM     97  F   UNL A   1      41.887  29.691  36.550  1.00  0.00    -0.200 F 
ENDBRANCH  64  87
ENDBRANCH  38  39
ENDBRANCH  31  33
ENDBRANCH  30  31
ENDBRANCH  29  30
ENDBRANCH   1  29
TORSDOF 13
ENDMDL
MODEL 3
REMARK VINA RESULT:     -12.9      1.351      2.065
REMARK SMILES Cc1cc(/C=C2/C(=O)NC(=S)N=C2OCCOC(=O)c2ccc(-c3c4nc(c(-c5c(F)c(F)c(F)c(F)c5F)c5ccc([nH]5)c(-c5c(F)c(F)c(F)c(F)c5F)c5nc(c(-c6c(F)c(F)c(F)c(F)c6F)c6ccc3[nH]6)C=C5)C=C4)cc2)c(C)n1-c1cccc(C(=O)[O-])c1
REMARK SMILES IDX 15 1 14 2 13 3 5 4 6 5 7 6 8 7 9 8 12 9 10 10 11 12 4 13
REMARK SMILES IDX 1 14 2 15 3 16 85 17 83 18 84 19 86 20 87 21 94 22 88 23
REMARK SMILES IDX 90 24 89 25 91 26 92 27 93 28 16 29 17 30 18 31 19 32 20 33
REMARK SMILES IDX 21 34 82 35 22 36 81 37 23 38 24 39 25 40 75 41 26 42 80 43
REMARK SMILES IDX 74 44 76 45 27 46 79 47 73 48 72 49 28 51 60 52 40 53 59 54
REMARK SMILES IDX 41 55 44 56 58 57 77 58 42 59 43 60 57 62 78 63 45 64 29 65
REMARK SMILES IDX 30 66 38 67 31 68 32 69 36 70 39 71 33 72 34 73 37 74 35 75
REMARK SMILES IDX 61 76 62 77 70 78 63 79 64 80 68 81 71 82 65 83 66 84 69 85
REMARK SMILES IDX 67 86 46 87 47 88 55 89 48 90 49 91 53 92 56 93 50 94 51 95
REMARK SMILES IDX 54 96 52 97
REMARK H PARENT 9 11 76 50 44 61
REMARK Flexibility Score: inf
ROOT
ATOM      1  C   UNL A   1      32.018  27.781  26.973  1.00  0.00     0.273 C 
ENDROOT
BRANCH   1   2
ATOM      2  O   UNL A   1      31.741  26.900  25.829  1.00  0.00    -0.473 OA
BRANCH   2   3
ATOM      3  C   UNL A   1      31.804  27.455  24.598  1.00  0.00     0.229 C 
ATOM      4  C   UNL A   1      33.606  25.805  23.598  1.00  0.00     0.029 C 
ATOM      5  C   UNL A   1      32.816  26.903  23.656  1.00  0.00     0.103 C 
ATOM      6  C   UNL A   1      32.966  27.745  22.414  1.00  0.00     0.262 C 
ATOM      7  O   UNL A   1      33.816  27.566  21.545  1.00  0.00    -0.269 OA
ATOM      8  N   UNL A   1      32.060  28.752  22.272  1.00  0.00    -0.297 N 
ATOM      9  N   UNL A   1      31.024  28.451  24.347  1.00  0.00    -0.184 NA
ATOM     10  C   UNL A   1      31.089  29.103  23.160  1.00  0.00     0.203 C 
ATOM     11  H   UNL A   1      32.114  29.280  21.442  1.00  0.00     0.172 HD
ATOM     12  S   UNL A   1      30.054  30.353  22.746  1.00  0.00    -0.038 S 
BRANCH   4  13
ATOM     13  C   UNL A   1      33.835  24.640  24.395  1.00  0.00    -0.003 A 
ATOM     14  C   UNL A   1      34.168  22.940  27.723  1.00  0.00     0.065 C 
ATOM     15  C   UNL A   1      34.083  23.414  26.314  1.00  0.00     0.020 A 
ATOM     16  C   UNL A   1      34.006  24.703  25.817  1.00  0.00     0.031 A 
ATOM     17  N   UNL A   1      34.121  22.586  25.213  1.00  0.00    -0.318 N 
ATOM     18  C   UNL A   1      33.719  23.301  24.090  1.00  0.00     0.027 A 
ATOM     19  C   UNL A   1      33.192  22.587  22.897  1.00  0.00     0.065 C 
BRANCH  17  20
ATOM     20  C   UNL A   1      34.475  21.224  25.187  1.00  0.00     0.046 A 
ATOM     21  C   UNL A   1      35.837  20.905  25.126  1.00  0.00     0.026 A 
ATOM     22  C   UNL A   1      33.487  20.264  24.971  1.00  0.00     0.036 A 
ATOM     23  C   UNL A   1      36.220  19.598  24.844  1.00  0.00     0.003 A 
ATOM     24  C   UNL A   1      33.879  18.961  24.646  1.00  0.00    -0.001 A 
ATOM     25  C   UNL A   1      35.245  18.631  24.592  1.00  0.00     0.010 A 
BRANCH  24  26
ATOM     26  C   UNL A   1      32.891  17.932  24.268  1.00  0.00     0.072 C 
ATOM     27  O   UNL A   1      32.769  17.433  23.148  1.00  0.00    -0.545 OA
ATOM     28  O   UNL A   1      32.068  17.597  25.268  1.00  0.00    -0.545 OA
ENDBRANCH  24  26
ENDBRANCH  17  20
ENDBRANCH   4  13
ENDBRANCH   2   3
ENDBRANCH   1   2
BRANCH   1  29
ATOM     29  C   UNL A   1      33.522  28.132  27.060  1.00  0.00     0.274 C 
BRANCH  29  30
ATOM     30  O   UNL A   1      33.874  29.456  26.547  1.00  0.00    -0.458 OA
BRANCH  30  31
ATOM     31  C   UNL A   1      34.289  30.355  27.491  1.00  0.00     0.338 C 
ATOM     32  O   UNL A   1      33.619  31.292  27.910  1.00  0.00    -0.246 OA
BRANCH  31  33
ATOM     33  C   UNL A   1      35.649  30.092  28.073  1.00  0.00     0.060 A 
ATOM     34  C   UNL A   1      36.696  29.919  27.182  1.00  0.00     0.016 A 
ATOM     35  C   UNL A   1      35.878  29.713  29.412  1.00  0.00     0.016 A 
ATOM     36  C   UNL A   1      37.926  29.388  27.625  1.00  0.00     0.010 A 
ATOM     37  C   UNL A   1      37.124  29.118  29.845  1.00  0.00     0.010 A 
ATOM     38  C   UNL A   1      38.179  28.899  28.950  1.00  0.00    -0.014 A 
BRANCH  38  39
ATOM     39  C   UNL A   1      39.386  27.932  29.116  1.00  0.00     0.031 A 
ATOM     40  C   UNL A   1      40.146  28.374  30.323  1.00  0.00     0.074 A 
ATOM     41  C   UNL A   1      39.984  26.853  28.501  1.00  0.00     0.049 A 
ATOM     42  N   UNL A   1      40.659  29.567  30.461  1.00  0.00    -0.248 NA
ATOM     43  C   UNL A   1      40.097  27.569  31.548  1.00  0.00     0.031 C 
ATOM     44  C   UNL A   1      39.594  26.159  27.269  1.00  0.00     0.029 A 
ATOM     45  N   UNL A   1      41.117  26.093  28.887  1.00  0.00    -0.354 N 
ATOM     46  C   UNL A   1      41.234  29.561  31.709  1.00  0.00     0.074 A 
ATOM     47  C   UNL A   1      40.692  28.406  32.396  1.00  0.00     0.031 C 
ATOM     48  C   UNL A   1      40.377  25.063  27.061  1.00  0.00     0.029 A 
ATOM     49  C   UNL A   1      41.394  24.950  28.102  1.00  0.00     0.049 A 
ATOM     50  H   UNL A   1      41.677  26.347  29.655  1.00  0.00     0.167 HD
ATOM     51  C   UNL A   1      42.426  30.181  31.910  1.00  0.00     0.037 A 
ATOM     52  C   UNL A   1      42.378  23.997  28.240  1.00  0.00     0.037 A 
ATOM     53  C   UNL A   1      43.454  29.288  32.362  1.00  0.00     0.049 A 
ATOM     54  C   UNL A   1      43.406  24.456  29.194  1.00  0.00     0.074 A 
ATOM     55  C   UNL A   1      43.554  28.312  33.332  1.00  0.00     0.029 A 
ATOM     56  N   UNL A   1      44.451  29.012  31.452  1.00  0.00    -0.354 N 
ATOM     57  N   UNL A   1      44.355  25.274  28.859  1.00  0.00    -0.248 NA
ATOM     58  C   UNL A   1      43.494  23.934  30.557  1.00  0.00     0.031 C 
ATOM     59  C   UNL A   1      44.229  27.227  32.699  1.00  0.00     0.029 A 
ATOM     60  C   UNL A   1      44.666  27.650  31.449  1.00  0.00     0.049 A 
ATOM     61  H   UNL A   1      44.929  29.674  30.901  1.00  0.00     0.167 HD
ATOM     62  C   UNL A   1      44.841  25.717  30.049  1.00  0.00     0.074 A 
ATOM     63  C   UNL A   1      44.487  24.700  31.015  1.00  0.00     0.031 C 
ATOM     64  C   UNL A   1      45.054  27.046  30.195  1.00  0.00     0.037 A 
BRANCH  51  65
ATOM     65  C   UNL A   1      42.679  31.385  31.062  1.00  0.00     0.064 A 
ATOM     66  C   UNL A   1      43.058  31.213  29.727  1.00  0.00     0.173 A 
ATOM     67  C   UNL A   1      42.639  32.697  31.566  1.00  0.00     0.173 A 
ATOM     68  F   UNL A   1      43.049  29.989  29.178  1.00  0.00    -0.203 F 
ATOM     69  C   UNL A   1      43.441  32.303  28.947  1.00  0.00     0.198 A 
ATOM     70  C   UNL A   1      43.066  33.777  30.802  1.00  0.00     0.198 A 
ATOM     71  F   UNL A   1      42.156  32.937  32.797  1.00  0.00    -0.203 F 
ATOM     72  F   UNL A   1      43.779  32.119  27.663  1.00  0.00    -0.200 F 
ATOM     73  C   UNL A   1      43.475  33.578  29.494  1.00  0.00     0.200 A 
ATOM     74  F   UNL A   1      43.067  35.009  31.330  1.00  0.00    -0.200 F 
ATOM     75  F   UNL A   1      43.877  34.620  28.752  1.00  0.00    -0.200 F 
ENDBRANCH  51  65
BRANCH  52  76
ATOM     76  C   UNL A   1      42.752  22.658  27.641  1.00  0.00     0.064 A 
ATOM     77  C   UNL A   1      41.859  21.550  27.732  1.00  0.00     0.173 A 
ATOM     78  C   UNL A   1      43.755  22.534  26.673  1.00  0.00     0.173 A 
ATOM     79  F   UNL A   1      40.877  21.523  28.644  1.00  0.00    -0.203 F 
ATOM     80  C   UNL A   1      41.894  20.467  26.849  1.00  0.00     0.198 A 
ATOM     81  C   UNL A   1      43.813  21.422  25.810  1.00  0.00     0.198 A 
ATOM     82  F   UNL A   1      44.630  23.530  26.484  1.00  0.00    -0.203 F 
ATOM     83  F   UNL A   1      40.944  19.520  26.907  1.00  0.00    -0.200 F 
ATOM     84  C   UNL A   1      42.865  20.410  25.875  1.00  0.00     0.200 A 
ATOM     85  F   UNL A   1      44.756  21.367  24.858  1.00  0.00    -0.200 F 
ATOM     86  F   UNL A   1      42.867  19.409  24.983  1.00  0.00    -0.200 F 
ENDBRANCH  52  76
BRANCH  64  87
ATOM     87  C   UNL A   1      45.432  27.826  28.938  1.00  0.00     0.064 A 
ATOM     88  C   UNL A   1      44.620  28.035  27.796  1.00  0.00     0.173 A 
ATOM     89  C   UNL A   1      46.727  28.362  28.870  1.00  0.00     0.173 A 
ATOM     90  F   UNL A   1      43.313  27.742  27.790  1.00  0.00    -0.203 F 
ATOM     91  C   UNL A   1      45.122  28.610  26.625  1.00  0.00     0.198 A 
ATOM     92  C   UNL A   1      47.201  29.008  27.726  1.00  0.00     0.198 A 
ATOM     93  F   UNL A   1      47.537  28.293  29.937  1.00  0.00    -0.203 F 
ATOM     94  F   UNL A   1      44.347  28.700  25.534  1.00  0.00    -0.200 F 
ATOM     95  C   UNL A   1      46.414  29.097  26.592  1.00  0.00     0.200 A 
ATOM     96  F   UNL A   1      48.427  29.548  27.732  1.00  0.00    -0.200 F 
ATOM     97  F   UNL A   1      46.890  29.678  25.482  1.00  0.00    -0.200 F 
ENDBRANCH  64  87
ENDBRANCH  38  39
ENDBRANCH  31  33
ENDBRANCH  30  31
ENDBRANCH  29  30
ENDBRANCH   1  29
TORSDOF 13
ENDMDL
