MODEL 1
REMARK VINA RESULT:     -11.8      0.000      0.000
REMARK SMILES C[C@H]1[C@H](C(=O)OCCOC(=O)c2ccc(-c3c4nc(c(-c5c(F)c(F)c(F)c(F)c5F)c5ccc([nH]5)c(-c5c(F)c(F)c(F)c(F)c5F)c5nc(c(-c6c(F)c(F)c(F)c(F)c6F)c6ccc3[nH]6)C=C5)C=C4)cc2)CCN1C(=O)COc1ccccc1F
REMARK SMILES IDX 7 1 6 2 4 3 5 4 3 5 1 6 2 7 77 8 75 9 76 10 78 11 79 12
REMARK SMILES IDX 80 13 81 14 82 15 83 16 87 17 84 18 86 19 88 20 85 21 8 22
REMARK SMILES IDX 9 23 10 24 11 25 12 26 13 27 74 28 14 29 73 30 15 31 16 32
REMARK SMILES IDX 17 33 67 34 18 35 72 36 66 37 68 38 19 39 71 40 65 41 64 42
REMARK SMILES IDX 20 44 52 45 32 46 51 47 33 48 36 49 50 50 69 51 34 52 35 53
REMARK SMILES IDX 49 55 70 56 37 57 21 58 22 59 30 60 23 61 24 62 28 63 31 64
REMARK SMILES IDX 25 65 26 66 29 67 27 68 53 69 54 70 62 71 55 72 56 73 60 74
REMARK SMILES IDX 63 75 57 76 58 77 61 78 59 79 38 80 39 81 47 82 40 83 41 84
REMARK SMILES IDX 45 85 48 86 42 87 43 88 46 89 44 90
REMARK H PARENT 68 43 36 54
REMARK Flexibility Score: inf
ROOT
ATOM      1  C   UNL A   1      31.364  29.634  24.183  1.00  0.00     0.274 C 
ENDROOT
BRANCH   1   2
ATOM      2  O   UNL A   1      30.264  28.727  23.972  1.00  0.00    -0.462 OA
BRANCH   2   3
ATOM      3  C   UNL A   1      30.542  27.407  24.105  1.00  0.00     0.311 C 
ATOM      4  O   UNL A   1      29.816  26.594  24.667  1.00  0.00    -0.252 OA
BRANCH   3   5
ATOM      5  C   UNL A   1      31.887  27.016  23.543  1.00  0.00     0.123 C 
ATOM      6  C   UNL A   1      33.735  26.422  25.133  1.00  0.00     0.032 C 
ATOM      7  C   UNL A   1      32.621  25.853  24.253  1.00  0.00     0.096 C 
ATOM      8  N   UNL A   1      33.119  25.022  23.143  1.00  0.00    -0.336 N 
ATOM      9  C   UNL A   1      31.738  26.583  22.088  1.00  0.00     0.039 C 
ATOM     10  C   UNL A   1      32.938  25.693  21.871  1.00  0.00     0.121 C 
BRANCH   8  11
ATOM     11  C   UNL A   1      33.612  23.732  23.157  1.00  0.00     0.260 C 
ATOM     12  O   UNL A   1      34.393  23.334  22.284  1.00  0.00    -0.271 OA
BRANCH  11  13
ATOM     13  C   UNL A   1      33.175  22.761  24.260  1.00  0.00     0.329 C 
BRANCH  13  14
ATOM     14  O   UNL A   1      33.853  22.650  25.496  1.00  0.00    -0.481 OA
BRANCH  14  15
ATOM     15  C   UNL A   1      35.188  22.364  25.506  1.00  0.00     0.155 A 
ATOM     16  C   UNL A   1      36.011  23.449  25.830  1.00  0.00     0.049 A 
ATOM     17  C   UNL A   1      35.793  21.178  25.088  1.00  0.00     0.165 A 
ATOM     18  C   UNL A   1      37.404  23.339  25.761  1.00  0.00     0.004 A 
ATOM     19  C   UNL A   1      37.182  21.061  25.019  1.00  0.00     0.043 A 
ATOM     20  F   UNL A   1      35.084  20.135  24.652  1.00  0.00    -0.203 F 
ATOM     21  C   UNL A   1      37.990  22.142  25.356  1.00  0.00     0.003 A 
ENDBRANCH  14  15
ENDBRANCH  13  14
ENDBRANCH  11  13
ENDBRANCH   8  11
ENDBRANCH   3   5
ENDBRANCH   2   3
ENDBRANCH   1   2
BRANCH   1  22
ATOM     22  C   UNL A   1      31.557  29.962  25.667  1.00  0.00     0.275 C 
BRANCH  22  23
ATOM     23  O   UNL A   1      32.948  30.097  26.012  1.00  0.00    -0.458 OA
BRANCH  23  24
ATOM     24  C   UNL A   1      33.223  31.079  26.899  1.00  0.00     0.338 C 
ATOM     25  O   UNL A   1      32.489  31.987  27.250  1.00  0.00    -0.246 OA
BRANCH  24  26
ATOM     26  C   UNL A   1      34.541  30.847  27.505  1.00  0.00     0.060 A 
ATOM     27  C   UNL A   1      34.894  29.540  27.855  1.00  0.00     0.016 A 
ATOM     28  C   UNL A   1      35.375  31.917  27.821  1.00  0.00     0.016 A 
ATOM     29  C   UNL A   1      36.068  29.296  28.559  1.00  0.00     0.010 A 
ATOM     30  C   UNL A   1      36.568  31.669  28.503  1.00  0.00     0.010 A 
ATOM     31  C   UNL A   1      36.913  30.360  28.888  1.00  0.00    -0.014 A 
BRANCH  31  32
ATOM     32  C   UNL A   1      38.149  30.120  29.665  1.00  0.00     0.031 A 
ATOM     33  C   UNL A   1      39.205  29.214  29.112  1.00  0.00     0.074 A 
ATOM     34  C   UNL A   1      38.304  30.696  30.870  1.00  0.00     0.049 A 
ATOM     35  N   UNL A   1      40.250  28.699  29.707  1.00  0.00    -0.248 NA
ATOM     36  C   UNL A   1      39.065  28.831  27.698  1.00  0.00     0.031 C 
ATOM     37  C   UNL A   1      37.376  31.651  31.475  1.00  0.00     0.029 A 
ATOM     38  N   UNL A   1      39.290  30.541  31.810  1.00  0.00    -0.354 N 
ATOM     39  C   UNL A   1      40.870  27.903  28.755  1.00  0.00     0.074 A 
ATOM     40  C   UNL A   1      40.089  28.004  27.540  1.00  0.00     0.031 C 
ATOM     41  C   UNL A   1      37.828  31.984  32.695  1.00  0.00     0.029 A 
ATOM     42  C   UNL A   1      39.037  31.217  32.978  1.00  0.00     0.049 A 
ATOM     43  H   UNL A   1      40.100  30.000  31.662  1.00  0.00     0.167 HD
ATOM     44  C   UNL A   1      41.988  27.151  28.894  1.00  0.00     0.037 A 
ATOM     45  C   UNL A   1      39.679  31.177  34.161  1.00  0.00     0.037 A 
ATOM     46  C   UNL A   1      42.766  27.080  30.102  1.00  0.00     0.049 A 
ATOM     47  C   UNL A   1      40.878  30.282  34.312  1.00  0.00     0.074 A 
ATOM     48  C   UNL A   1      43.915  26.350  30.347  1.00  0.00     0.029 A 
ATOM     49  N   UNL A   1      42.472  27.770  31.269  1.00  0.00    -0.354 N 
ATOM     50  N   UNL A   1      41.441  29.499  33.423  1.00  0.00    -0.248 NA
ATOM     51  C   UNL A   1      41.522  30.252  35.632  1.00  0.00     0.031 C 
ATOM     52  C   UNL A   1      44.298  26.573  31.675  1.00  0.00     0.029 A 
ATOM     53  C   UNL A   1      43.410  27.473  32.243  1.00  0.00     0.049 A 
ATOM     54  H   UNL A   1      41.709  28.382  31.387  1.00  0.00     0.167 HD
ATOM     55  C   UNL A   1      42.518  28.904  34.066  1.00  0.00     0.074 A 
ATOM     56  C   UNL A   1      42.532  29.418  35.420  1.00  0.00     0.031 C 
ATOM     57  C   UNL A   1      43.416  28.015  33.577  1.00  0.00     0.037 A 
BRANCH  44  58
ATOM     58  C   UNL A   1      42.412  26.316  27.725  1.00  0.00     0.064 A 
ATOM     59  C   UNL A   1      43.412  26.738  26.837  1.00  0.00     0.173 A 
ATOM     60  C   UNL A   1      41.833  25.055  27.512  1.00  0.00     0.173 A 
ATOM     61  F   UNL A   1      43.985  27.941  26.989  1.00  0.00    -0.203 F 
ATOM     62  C   UNL A   1      43.803  25.936  25.767  1.00  0.00     0.198 A 
ATOM     63  C   UNL A   1      42.242  24.247  26.456  1.00  0.00     0.198 A 
ATOM     64  F   UNL A   1      40.873  24.606  28.335  1.00  0.00    -0.203 F 
ATOM     65  F   UNL A   1      44.733  26.375  24.908  1.00  0.00    -0.200 F 
ATOM     66  C   UNL A   1      43.223  24.689  25.582  1.00  0.00     0.200 A 
ATOM     67  F   UNL A   1      41.687  23.039  26.284  1.00  0.00    -0.200 F 
ATOM     68  F   UNL A   1      43.604  23.918  24.555  1.00  0.00    -0.200 F 
ENDBRANCH  44  58
BRANCH  45  69
ATOM     69  C   UNL A   1      39.171  31.978  35.302  1.00  0.00     0.064 A 
ATOM     70  C   UNL A   1      38.390  31.388  36.305  1.00  0.00     0.173 A 
ATOM     71  C   UNL A   1      39.464  33.345  35.420  1.00  0.00     0.173 A 
ATOM     72  F   UNL A   1      38.065  30.090  36.222  1.00  0.00    -0.203 F 
ATOM     73  C   UNL A   1      37.914  32.138  37.379  1.00  0.00     0.198 A 
ATOM     74  C   UNL A   1      39.009  34.088  36.506  1.00  0.00     0.198 A 
ATOM     75  F   UNL A   1      40.206  33.956  34.484  1.00  0.00    -0.203 F 
ATOM     76  F   UNL A   1      37.140  31.559  38.306  1.00  0.00    -0.200 F 
ATOM     77  C   UNL A   1      38.230  33.484  37.482  1.00  0.00     0.200 A 
ATOM     78  F   UNL A   1      39.326  35.385  36.609  1.00  0.00    -0.200 F 
ATOM     79  F   UNL A   1      37.778  34.203  38.519  1.00  0.00    -0.200 F 
ENDBRANCH  45  69
BRANCH  57  80
ATOM     80  C   UNL A   1      44.518  27.576  34.491  1.00  0.00     0.064 A 
ATOM     81  C   UNL A   1      44.405  26.422  35.278  1.00  0.00     0.173 A 
ATOM     82  C   UNL A   1      45.729  28.284  34.524  1.00  0.00     0.173 A 
ATOM     83  F   UNL A   1      43.260  25.723  35.289  1.00  0.00    -0.203 F 
ATOM     84  C   UNL A   1      45.465  25.996  36.073  1.00  0.00     0.198 A 
ATOM     85  C   UNL A   1      46.793  27.843  35.304  1.00  0.00     0.198 A 
ATOM     86  F   UNL A   1      45.884  29.392  33.784  1.00  0.00    -0.203 F 
ATOM     87  F   UNL A   1      45.329  24.903  36.837  1.00  0.00    -0.200 F 
ATOM     88  C   UNL A   1      46.660  26.700  36.078  1.00  0.00     0.200 A 
ATOM     89  F   UNL A   1      47.951  28.519  35.299  1.00  0.00    -0.200 F 
ATOM     90  F   UNL A   1      47.684  26.279  36.834  1.00  0.00    -0.200 F 
ENDBRANCH  57  80
ENDBRANCH  31  32
ENDBRANCH  24  26
ENDBRANCH  23  24
ENDBRANCH  22  23
ENDBRANCH   1  22
TORSDOF 15
ENDMDL
MODEL 2
REMARK VINA RESULT:     -11.7      1.319      2.432
REMARK SMILES C[C@H]1[C@H](C(=O)OCCOC(=O)c2ccc(-c3c4nc(c(-c5c(F)c(F)c(F)c(F)c5F)c5ccc([nH]5)c(-c5c(F)c(F)c(F)c(F)c5F)c5nc(c(-c6c(F)c(F)c(F)c(F)c6F)c6ccc3[nH]6)C=C5)C=C4)cc2)CCN1C(=O)COc1ccccc1F
REMARK SMILES IDX 7 1 6 2 4 3 5 4 3 5 1 6 2 7 77 8 75 9 76 10 78 11 79 12
REMARK SMILES IDX 80 13 81 14 82 15 83 16 87 17 84 18 86 19 88 20 85 21 8 22
REMARK SMILES IDX 9 23 10 24 11 25 12 26 13 27 74 28 14 29 73 30 15 31 16 32
REMARK SMILES IDX 17 33 67 34 18 35 72 36 66 37 68 38 19 39 71 40 65 41 64 42
REMARK SMILES IDX 20 44 52 45 32 46 51 47 33 48 36 49 50 50 69 51 34 52 35 53
REMARK SMILES IDX 49 55 70 56 37 57 21 58 22 59 30 60 23 61 24 62 28 63 31 64
REMARK SMILES IDX 25 65 26 66 29 67 27 68 53 69 54 70 62 71 55 72 56 73 60 74
REMARK SMILES IDX 63 75 57 76 58 77 61 78 59 79 38 80 39 81 47 82 40 83 41 84
REMARK SMILES IDX 45 85 48 86 42 87 43 88 46 89 44 90
REMARK H PARENT 68 43 36 54
REMARK Flexibility Score: inf
ROOT
ATOM      1  C   UNL A   1      31.984  28.456  24.857  1.00  0.00     0.274 C 
ENDROOT
BRANCH   1   2
ATOM      2  O   UNL A   1      32.761  27.447  25.531  1.00  0.00    -0.462 OA
BRANCH   2   3
ATOM      3  C   UNL A   1      32.059  26.507  26.211  1.00  0.00     0.311 C 
ATOM      4  O   UNL A   1      31.120  26.745  26.963  1.00  0.00    -0.252 OA
BRANCH   3   5
ATOM      5  C   UNL A   1      32.580  25.105  26.011  1.00  0.00     0.123 C 
ATOM      6  C   UNL A   1      30.936  23.248  25.630  1.00  0.00     0.032 C 
ATOM      7  C   UNL A   1      31.865  24.248  24.939  1.00  0.00     0.096 C 
ATOM      8  N   UNL A   1      32.970  23.608  24.205  1.00  0.00    -0.336 N 
ATOM      9  C   UNL A   1      34.047  25.147  25.594  1.00  0.00     0.039 C 
ATOM     10  C   UNL A   1      34.236  23.833  24.874  1.00  0.00     0.121 C 
BRANCH   8  11
ATOM     11  C   UNL A   1      32.960  22.950  22.991  1.00  0.00     0.260 C 
ATOM     12  O   UNL A   1      33.537  23.420  22.002  1.00  0.00    -0.271 OA
BRANCH  11  13
ATOM     13  C   UNL A   1      32.208  21.622  22.849  1.00  0.00     0.329 C 
BRANCH  13  14
ATOM     14  O   UNL A   1      32.139  20.666  23.888  1.00  0.00    -0.481 OA
BRANCH  14  15
ATOM     15  C   UNL A   1      32.989  19.597  23.875  1.00  0.00     0.155 A 
ATOM     16  C   UNL A   1      32.528  18.500  23.137  1.00  0.00     0.049 A 
ATOM     17  C   UNL A   1      34.155  19.445  24.625  1.00  0.00     0.165 A 
ATOM     18  C   UNL A   1      33.233  17.292  23.133  1.00  0.00     0.004 A 
ATOM     19  C   UNL A   1      34.864  18.243  24.624  1.00  0.00     0.043 A 
ATOM     20  F   UNL A   1      34.601  20.400  25.445  1.00  0.00    -0.203 F 
ATOM     21  C   UNL A   1      34.404  17.164  23.876  1.00  0.00     0.003 A 
ENDBRANCH  14  15
ENDBRANCH  13  14
ENDBRANCH  11  13
ENDBRANCH   8  11
ENDBRANCH   3   5
ENDBRANCH   2   3
ENDBRANCH   1   2
BRANCH   1  22
ATOM     22  C   UNL A   1      32.399  29.870  25.276  1.00  0.00     0.275 C 
BRANCH  22  23
ATOM     23  O   UNL A   1      32.594  29.974  26.699  1.00  0.00    -0.458 OA
BRANCH  23  24
ATOM     24  C   UNL A   1      33.132  31.142  27.116  1.00  0.00     0.338 C 
ATOM     25  O   UNL A   1      32.606  32.242  27.117  1.00  0.00    -0.246 OA
BRANCH  24  26
ATOM     26  C   UNL A   1      34.456  30.897  27.703  1.00  0.00     0.060 A 
ATOM     27  C   UNL A   1      34.799  29.589  28.058  1.00  0.00     0.016 A 
ATOM     28  C   UNL A   1      35.309  31.959  27.999  1.00  0.00     0.016 A 
ATOM     29  C   UNL A   1      35.980  29.335  28.745  1.00  0.00     0.010 A 
ATOM     30  C   UNL A   1      36.509  31.701  28.664  1.00  0.00     0.010 A 
ATOM     31  C   UNL A   1      36.843  30.390  29.053  1.00  0.00    -0.014 A 
BRANCH  31  32
ATOM     32  C   UNL A   1      38.088  30.140  29.813  1.00  0.00     0.031 A 
ATOM     33  C   UNL A   1      39.136  29.239  29.238  1.00  0.00     0.074 A 
ATOM     34  C   UNL A   1      38.259  30.704  31.021  1.00  0.00     0.049 A 
ATOM     35  N   UNL A   1      40.187  28.716  29.815  1.00  0.00    -0.248 NA
ATOM     36  C   UNL A   1      38.978  28.870  27.822  1.00  0.00     0.031 C 
ATOM     37  C   UNL A   1      37.340  31.654  31.648  1.00  0.00     0.029 A 
ATOM     38  N   UNL A   1      39.256  30.538  31.948  1.00  0.00    -0.354 N 
ATOM     39  C   UNL A   1      40.794  27.928  28.848  1.00  0.00     0.074 A 
ATOM     40  C   UNL A   1      39.999  28.043  27.643  1.00  0.00     0.031 C 
ATOM     41  C   UNL A   1      37.807  31.974  32.866  1.00  0.00     0.029 A 
ATOM     42  C   UNL A   1      39.018  31.201  33.126  1.00  0.00     0.049 A 
ATOM     43  H   UNL A   1      40.063  29.997  31.785  1.00  0.00     0.167 HD
ATOM     44  C   UNL A   1      41.912  27.173  28.965  1.00  0.00     0.037 A 
ATOM     45  C   UNL A   1      39.675  31.148  34.301  1.00  0.00     0.037 A 
ATOM     46  C   UNL A   1      42.705  27.088  30.163  1.00  0.00     0.049 A 
ATOM     47  C   UNL A   1      40.874  30.250  34.427  1.00  0.00     0.074 A 
ATOM     48  C   UNL A   1      43.856  26.354  30.387  1.00  0.00     0.029 A 
ATOM     49  N   UNL A   1      42.426  27.767  31.340  1.00  0.00    -0.354 N 
ATOM     50  N   UNL A   1      41.425  29.475  33.525  1.00  0.00    -0.248 NA
ATOM     51  C   UNL A   1      41.534  30.205  35.740  1.00  0.00     0.031 C 
ATOM     52  C   UNL A   1      44.255  26.562  31.712  1.00  0.00     0.029 A 
ATOM     53  C   UNL A   1      43.376  27.458  32.300  1.00  0.00     0.049 A 
ATOM     54  H   UNL A   1      41.665  28.379  31.473  1.00  0.00     0.167 HD
ATOM     55  C   UNL A   1      42.508  28.872  34.148  1.00  0.00     0.074 A 
ATOM     56  C   UNL A   1      42.539  29.372  35.507  1.00  0.00     0.031 C 
ATOM     57  C   UNL A   1      43.398  27.986  33.639  1.00  0.00     0.037 A 
BRANCH  44  58
ATOM     58  C   UNL A   1      42.321  26.349  27.782  1.00  0.00     0.064 A 
ATOM     59  C   UNL A   1      43.295  26.789  26.874  1.00  0.00     0.173 A 
ATOM     60  C   UNL A   1      41.753  25.082  27.576  1.00  0.00     0.173 A 
ATOM     61  F   UNL A   1      43.856  27.998  27.020  1.00  0.00    -0.203 F 
ATOM     62  C   UNL A   1      43.672  25.997  25.792  1.00  0.00     0.198 A 
ATOM     63  C   UNL A   1      42.149  24.285  26.506  1.00  0.00     0.198 A 
ATOM     64  F   UNL A   1      40.818  24.616  28.417  1.00  0.00    -0.203 F 
ATOM     65  F   UNL A   1      44.577  26.452  24.914  1.00  0.00    -0.200 F 
ATOM     66  C   UNL A   1      43.104  24.744  25.613  1.00  0.00     0.200 A 
ATOM     67  F   UNL A   1      41.606  23.070  26.341  1.00  0.00    -0.200 F 
ATOM     68  F   UNL A   1      43.472  23.982  24.574  1.00  0.00    -0.200 F 
ENDBRANCH  44  58
BRANCH  45  69
ATOM     69  C   UNL A   1      39.181  31.938  35.456  1.00  0.00     0.064 A 
ATOM     70  C   UNL A   1      39.533  33.285  35.611  1.00  0.00     0.173 A 
ATOM     71  C   UNL A   1      38.339  31.366  36.422  1.00  0.00     0.173 A 
ATOM     72  F   UNL A   1      40.356  33.867  34.726  1.00  0.00    -0.203 F 
ATOM     73  C   UNL A   1      39.069  34.029  36.694  1.00  0.00     0.198 A 
ATOM     74  C   UNL A   1      37.854  32.118  37.490  1.00  0.00     0.198 A 
ATOM     75  F   UNL A   1      37.974  30.080  36.319  1.00  0.00    -0.203 F 
ATOM     76  F   UNL A   1      39.449  35.305  36.838  1.00  0.00    -0.200 F 
ATOM     77  C   UNL A   1      38.224  33.447  37.627  1.00  0.00     0.200 A 
ATOM     78  F   UNL A   1      37.028  31.555  38.382  1.00  0.00    -0.200 F 
ATOM     79  F   UNL A   1      37.771  34.166  38.664  1.00  0.00    -0.200 F 
ENDBRANCH  45  69
BRANCH  57  80
ATOM     80  C   UNL A   1      44.511  27.536  34.536  1.00  0.00     0.064 A 
ATOM     81  C   UNL A   1      45.704  28.262  34.645  1.00  0.00     0.173 A 
ATOM     82  C   UNL A   1      44.347  26.404  35.347  1.00  0.00     0.173 A 
ATOM     83  F   UNL A   1      45.909  29.343  33.878  1.00  0.00    -0.203 F 
ATOM     84  C   UNL A   1      46.701  27.864  35.531  1.00  0.00     0.198 A 
ATOM     85  C   UNL A   1      45.337  26.021  36.247  1.00  0.00     0.198 A 
ATOM     86  F   UNL A   1      43.219  25.681  35.280  1.00  0.00    -0.203 F 
ATOM     87  F   UNL A   1      47.846  28.557  35.604  1.00  0.00    -0.200 F 
ATOM     88  C   UNL A   1      46.513  26.751  36.338  1.00  0.00     0.200 A 
ATOM     89  F   UNL A   1      45.149  24.952  37.033  1.00  0.00    -0.200 F 
ATOM     90  F   UNL A   1      47.468  26.378  37.201  1.00  0.00    -0.200 F 
ENDBRANCH  57  80
ENDBRANCH  31  32
ENDBRANCH  24  26
ENDBRANCH  23  24
ENDBRANCH  22  23
ENDBRANCH   1  22
TORSDOF 15
ENDMDL
MODEL 3
REMARK VINA RESULT:     -11.7      1.357      2.482
REMARK SMILES C[C@H]1[C@H](C(=O)OCCOC(=O)c2ccc(-c3c4nc(c(-c5c(F)c(F)c(F)c(F)c5F)c5ccc([nH]5)c(-c5c(F)c(F)c(F)c(F)c5F)c5nc(c(-c6c(F)c(F)c(F)c(F)c6F)c6ccc3[nH]6)C=C5)C=C4)cc2)CCN1C(=O)COc1ccccc1F
REMARK SMILES IDX 7 1 6 2 4 3 5 4 3 5 1 6 2 7 77 8 75 9 76 10 78 11 79 12
REMARK SMILES IDX 80 13 81 14 82 15 83 16 87 17 84 18 86 19 88 20 85 21 8 22
REMARK SMILES IDX 9 23 10 24 11 25 12 26 13 27 74 28 14 29 73 30 15 31 16 32
REMARK SMILES IDX 17 33 67 34 18 35 72 36 66 37 68 38 19 39 71 40 65 41 64 42
REMARK SMILES IDX 20 44 52 45 32 46 51 47 33 48 36 49 50 50 69 51 34 52 35 53
REMARK SMILES IDX 49 55 70 56 37 57 21 58 22 59 30 60 23 61 24 62 28 63 31 64
REMARK SMILES IDX 25 65 26 66 29 67 27 68 53 69 54 70 62 71 55 72 56 73 60 74
REMARK SMILES IDX 63 75 57 76 58 77 61 78 59 79 38 80 39 81 47 82 40 83 41 84
REMARK SMILES IDX 45 85 48 86 42 87 43 88 46 89 44 90
REMARK H PARENT 68 43 36 54
REMARK Flexibility Score: inf
ROOT
ATOM      1  C   UNL A   1      32.804  28.253  24.816  1.00  0.00     0.274 C 
ENDROOT
BRANCH   1   2
ATOM      2  O   UNL A   1      33.366  27.303  25.743  1.00  0.00    -0.462 OA
BRANCH   2   3
ATOM      3  C   UNL A   1      32.497  26.426  26.302  1.00  0.00     0.311 C 
ATOM      4  O   UNL A   1      31.524  26.743  26.980  1.00  0.00    -0.252 OA
BRANCH   3   5
ATOM      5  C   UNL A   1      32.864  24.981  26.068  1.00  0.00     0.123 C 
ATOM      6  C   UNL A   1      31.032  23.327  25.617  1.00  0.00     0.032 C 
ATOM      7  C   UNL A   1      32.074  24.237  24.965  1.00  0.00     0.096 C 
ATOM      8  N   UNL A   1      33.113  23.499  24.225  1.00  0.00    -0.336 N 
ATOM      9  C   UNL A   1      34.332  24.874  25.669  1.00  0.00     0.039 C 
ATOM     10  C   UNL A   1      34.387  23.567  24.914  1.00  0.00     0.121 C 
BRANCH   8  11
ATOM     11  C   UNL A   1      33.049  22.880  22.993  1.00  0.00     0.260 C 
ATOM     12  O   UNL A   1      33.610  23.363  22.002  1.00  0.00    -0.271 OA
BRANCH  11  13
ATOM     13  C   UNL A   1      32.256  21.578  22.835  1.00  0.00     0.329 C 
BRANCH  13  14
ATOM     14  O   UNL A   1      32.153  20.613  23.863  1.00  0.00    -0.481 OA
BRANCH  14  15
ATOM     15  C   UNL A   1      32.993  19.536  23.860  1.00  0.00     0.155 A 
ATOM     16  C   UNL A   1      32.529  18.442  23.120  1.00  0.00     0.049 A 
ATOM     17  C   UNL A   1      34.150  19.374  24.621  1.00  0.00     0.165 A 
ATOM     18  C   UNL A   1      33.222  17.228  23.123  1.00  0.00     0.004 A 
ATOM     19  C   UNL A   1      34.848  18.166  24.628  1.00  0.00     0.043 A 
ATOM     20  F   UNL A   1      34.598  20.326  25.444  1.00  0.00    -0.203 F 
ATOM     21  C   UNL A   1      34.384  17.089  23.878  1.00  0.00     0.003 A 
ENDBRANCH  14  15
ENDBRANCH  13  14
ENDBRANCH  11  13
ENDBRANCH   8  11
ENDBRANCH   3   5
ENDBRANCH   2   3
ENDBRANCH   1   2
BRANCH   1  22
ATOM     22  C   UNL A   1      33.101  29.698  25.230  1.00  0.00     0.275 C 
BRANCH  22  23
ATOM     23  O   UNL A   1      32.701  29.962  26.588  1.00  0.00    -0.458 OA
BRANCH  23  24
ATOM     24  C   UNL A   1      33.193  31.106  27.114  1.00  0.00     0.338 C 
ATOM     25  O   UNL A   1      32.627  32.181  27.212  1.00  0.00    -0.246 OA
BRANCH  24  26
ATOM     26  C   UNL A   1      34.524  30.857  27.685  1.00  0.00     0.060 A 
ATOM     27  C   UNL A   1      34.823  29.573  28.150  1.00  0.00     0.016 A 
ATOM     28  C   UNL A   1      35.429  31.903  27.858  1.00  0.00     0.016 A 
ATOM     29  C   UNL A   1      36.013  29.331  28.826  1.00  0.00     0.010 A 
ATOM     30  C   UNL A   1      36.638  31.653  28.510  1.00  0.00     0.010 A 
ATOM     31  C   UNL A   1      36.929  30.370  29.011  1.00  0.00    -0.014 A 
BRANCH  31  32
ATOM     32  C   UNL A   1      38.185  30.136  29.757  1.00  0.00     0.031 A 
ATOM     33  C   UNL A   1      39.217  29.209  29.193  1.00  0.00     0.074 A 
ATOM     34  C   UNL A   1      38.382  30.738  30.943  1.00  0.00     0.049 A 
ATOM     35  N   UNL A   1      40.274  28.697  29.769  1.00  0.00    -0.248 NA
ATOM     36  C   UNL A   1      39.031  28.795  27.793  1.00  0.00     0.031 C 
ATOM     37  C   UNL A   1      37.481  31.715  31.553  1.00  0.00     0.029 A 
ATOM     38  N   UNL A   1      39.394  30.595  31.856  1.00  0.00    -0.354 N 
ATOM     39  C   UNL A   1      40.858  27.874  28.817  1.00  0.00     0.074 A 
ATOM     40  C   UNL A   1      40.042  27.955  27.624  1.00  0.00     0.031 C 
ATOM     41  C   UNL A   1      37.971  32.071  32.752  1.00  0.00     0.029 A 
ATOM     42  C   UNL A   1      39.181  31.298  33.016  1.00  0.00     0.049 A 
ATOM     43  H   UNL A   1      40.194  30.043  31.697  1.00  0.00     0.167 HD
ATOM     44  C   UNL A   1      41.973  27.115  28.940  1.00  0.00     0.037 A 
ATOM     45  C   UNL A   1      39.859  31.278  34.180  1.00  0.00     0.037 A 
ATOM     46  C   UNL A   1      42.786  27.063  30.126  1.00  0.00     0.049 A 
ATOM     47  C   UNL A   1      41.053  30.376  34.315  1.00  0.00     0.074 A 
ATOM     48  C   UNL A   1      43.936  26.328  30.353  1.00  0.00     0.029 A 
ATOM     49  N   UNL A   1      42.533  27.782  31.284  1.00  0.00    -0.354 N 
ATOM     50  N   UNL A   1      41.583  29.568  33.429  1.00  0.00    -0.248 NA
ATOM     51  C   UNL A   1      41.736  30.369  35.617  1.00  0.00     0.031 C 
ATOM     52  C   UNL A   1      44.360  26.577  31.663  1.00  0.00     0.029 A 
ATOM     53  C   UNL A   1      43.497  27.498  32.237  1.00  0.00     0.049 A 
ATOM     54  H   UNL A   1      41.779  28.403  31.411  1.00  0.00     0.167 HD
ATOM     55  C   UNL A   1      42.673  28.978  34.053  1.00  0.00     0.074 A 
ATOM     56  C   UNL A   1      42.732  29.522  35.394  1.00  0.00     0.031 C 
ATOM     57  C   UNL A   1      43.547  28.069  33.558  1.00  0.00     0.037 A 
BRANCH  44  58
ATOM     58  C   UNL A   1      42.355  26.249  27.778  1.00  0.00     0.064 A 
ATOM     59  C   UNL A   1      41.739  25.012  27.542  1.00  0.00     0.173 A 
ATOM     60  C   UNL A   1      43.330  26.683  26.866  1.00  0.00     0.173 A 
ATOM     61  F   UNL A   1      40.812  24.547  28.393  1.00  0.00    -0.203 F 
ATOM     62  C   UNL A   1      42.098  24.232  26.445  1.00  0.00     0.198 A 
ATOM     63  C   UNL A   1      43.669  25.912  25.758  1.00  0.00     0.198 A 
ATOM     64  F   UNL A   1      43.948  27.860  27.047  1.00  0.00    -0.203 F 
ATOM     65  F   UNL A   1      41.523  23.036  26.259  1.00  0.00    -0.200 F 
ATOM     66  C   UNL A   1      43.057  24.686  25.551  1.00  0.00     0.200 A 
ATOM     67  F   UNL A   1      44.589  26.356  24.890  1.00  0.00    -0.200 F 
ATOM     68  F   UNL A   1      43.396  23.936  24.493  1.00  0.00    -0.200 F 
ENDBRANCH  44  58
BRANCH  45  69
ATOM     69  C   UNL A   1      39.391  32.110  35.318  1.00  0.00     0.064 A 
ATOM     70  C   UNL A   1      38.562  31.572  36.310  1.00  0.00     0.173 A 
ATOM     71  C   UNL A   1      39.773  33.454  35.442  1.00  0.00     0.173 A 
ATOM     72  F   UNL A   1      38.151  30.298  36.220  1.00  0.00    -0.203 F 
ATOM     73  C   UNL A   1      38.123  32.350  37.380  1.00  0.00     0.198 A 
ATOM     74  C   UNL A   1      39.357  34.224  36.525  1.00  0.00     0.198 A 
ATOM     75  F   UNL A   1      40.566  34.016  34.517  1.00  0.00    -0.203 F 
ATOM     76  F   UNL A   1      37.302  31.822  38.297  1.00  0.00    -0.200 F 
ATOM     77  C   UNL A   1      38.527  33.672  37.490  1.00  0.00     0.200 A 
ATOM     78  F   UNL A   1      39.759  35.497  36.635  1.00  0.00    -0.200 F 
ATOM     79  F   UNL A   1      38.112  34.417  38.524  1.00  0.00    -0.200 F 
ENDBRANCH  45  69
BRANCH  57  80
ATOM     80  C   UNL A   1      44.673  27.641  34.449  1.00  0.00     0.064 A 
ATOM     81  C   UNL A   1      45.874  28.359  34.511  1.00  0.00     0.173 A 
ATOM     82  C   UNL A   1      44.515  26.538  35.302  1.00  0.00     0.173 A 
ATOM     83  F   UNL A   1      46.074  29.412  33.704  1.00  0.00    -0.203 F 
ATOM     84  C   UNL A   1      46.883  27.983  35.393  1.00  0.00     0.198 A 
ATOM     85  C   UNL A   1      45.518  26.178  36.196  1.00  0.00     0.198 A 
ATOM     86  F   UNL A   1      43.380  25.824  35.280  1.00  0.00    -0.203 F 
ATOM     87  F   UNL A   1      48.035  28.668  35.420  1.00  0.00    -0.200 F 
ATOM     88  C   UNL A   1      46.701  26.900  36.240  1.00  0.00     0.200 A 
ATOM     89  F   UNL A   1      45.336  25.138  37.022  1.00  0.00    -0.200 F 
ATOM     90  F   UNL A   1      47.669  26.548  37.098  1.00  0.00    -0.200 F 
ENDBRANCH  57  80
ENDBRANCH  31  32
ENDBRANCH  24  26
ENDBRANCH  23  24
ENDBRANCH  22  23
ENDBRANCH   1  22
TORSDOF 15
ENDMDL
