MODEL 1
REMARK VINA RESULT:     -12.7      0.000      0.000
REMARK SMILES O=C(OCCOC(=O)[C@@H]1[C@H](C(=O)NCc2ccccc2Cl)[C@@H]2C=C[C@H]1C2)c1ccc(-c2c3nc(c(-c4c(F)c(F)c(F)c(F)c4F)c4ccc([nH]4)c(-c4c(F)c(F)c(F)c(F)c4F)c4nc(c(-c5c(F)c(F)c(F)c(F)c5F)c5ccc2[nH]5)C=C4)C=C3)cc1
REMARK SMILES IDX 5 1 4 2 3 3 2 4 1 5 27 6 28 7 89 8 29 9 88 10 30 11 31 12
REMARK SMILES IDX 32 13 82 14 33 15 87 16 81 17 83 18 34 19 86 20 80 21 79 22
REMARK SMILES IDX 35 24 67 25 47 26 66 27 48 28 51 29 65 30 84 31 49 32 50 33
REMARK SMILES IDX 64 35 85 36 52 37 36 38 37 39 45 40 38 41 39 42 43 43 46 44
REMARK SMILES IDX 40 45 41 46 44 47 42 48 68 49 69 50 77 51 70 52 71 53 75 54
REMARK SMILES IDX 78 55 72 56 73 57 76 58 74 59 53 60 54 61 62 62 55 63 56 64
REMARK SMILES IDX 60 65 63 66 57 67 58 68 61 69 59 70 6 71 7 72 8 73 9 74
REMARK SMILES IDX 10 75 25 76 22 77 24 78 26 79 23 80 11 81 12 82 13 83 14 85
REMARK SMILES IDX 15 86 16 87 20 88 17 89 19 90 21 91 18 92
REMARK H PARENT 83 23 51 34 13 84
REMARK Flexibility Score: inf
ROOT
ATOM      1  C   UNL A   1      32.763  30.853  27.201  1.00  0.00     0.274 C 
ENDROOT
BRANCH   1   2
ATOM      2  C   UNL A   1      32.551  32.366  26.998  1.00  0.00     0.275 C 
BRANCH   2   3
ATOM      3  O   UNL A   1      33.013  33.298  27.996  1.00  0.00    -0.458 OA
BRANCH   3   4
ATOM      4  C   UNL A   1      34.229  33.867  28.154  1.00  0.00     0.338 C 
ATOM      5  O   UNL A   1      34.466  34.987  27.716  1.00  0.00    -0.246 OA
BRANCH   4   6
ATOM      6  C   UNL A   1      35.351  33.069  28.698  1.00  0.00     0.060 A 
ATOM      7  C   UNL A   1      35.174  31.856  29.365  1.00  0.00     0.016 A 
ATOM      8  C   UNL A   1      36.650  33.558  28.486  1.00  0.00     0.016 A 
ATOM      9  C   UNL A   1      36.266  31.051  29.659  1.00  0.00     0.010 A 
ATOM     10  C   UNL A   1      37.756  32.787  28.843  1.00  0.00     0.010 A 
ATOM     11  C   UNL A   1      37.559  31.519  29.415  1.00  0.00    -0.014 A 
BRANCH  11  12
ATOM     12  C   UNL A   1      38.669  30.819  30.083  1.00  0.00     0.031 A 
ATOM     13  C   UNL A   1      38.957  31.271  31.479  1.00  0.00     0.074 A 
ATOM     14  C   UNL A   1      39.305  29.768  29.539  1.00  0.00     0.049 A 
ATOM     15  N   UNL A   1      39.754  30.742  32.361  1.00  0.00    -0.248 NA
ATOM     16  C   UNL A   1      38.162  32.408  31.981  1.00  0.00     0.031 C 
ATOM     17  C   UNL A   1      38.948  29.104  28.292  1.00  0.00     0.029 A 
ATOM     18  N   UNL A   1      40.404  29.071  29.965  1.00  0.00    -0.354 N 
ATOM     19  C   UNL A   1      39.493  31.423  33.537  1.00  0.00     0.074 A 
ATOM     20  C   UNL A   1      38.513  32.442  33.254  1.00  0.00     0.031 C 
ATOM     21  C   UNL A   1      39.897  28.215  27.961  1.00  0.00     0.029 A 
ATOM     22  C   UNL A   1      40.879  28.179  29.033  1.00  0.00     0.049 A 
ATOM     23  H   UNL A   1      40.814  29.197  30.851  1.00  0.00     0.167 HD
ATOM     24  C   UNL A   1      40.014  31.182  34.758  1.00  0.00     0.037 A 
ATOM     25  C   UNL A   1      41.974  27.399  29.066  1.00  0.00     0.037 A 
ATOM     26  C   UNL A   1      41.055  30.223  34.979  1.00  0.00     0.049 A 
ATOM     27  C   UNL A   1      42.702  27.311  30.376  1.00  0.00     0.074 A 
ATOM     28  C   UNL A   1      41.737  29.941  36.144  1.00  0.00     0.029 A 
ATOM     29  N   UNL A   1      41.593  29.413  33.984  1.00  0.00    -0.354 N 
ATOM     30  N   UNL A   1      42.437  27.931  31.501  1.00  0.00    -0.248 NA
ATOM     31  C   UNL A   1      43.823  26.370  30.453  1.00  0.00     0.031 C 
ATOM     32  C   UNL A   1      42.740  29.016  35.838  1.00  0.00     0.029 A 
ATOM     33  C   UNL A   1      42.637  28.665  34.498  1.00  0.00     0.049 A 
ATOM     34  H   UNL A   1      41.279  29.378  33.052  1.00  0.00     0.167 HD
ATOM     35  C   UNL A   1      43.315  27.419  32.439  1.00  0.00     0.074 A 
ATOM     36  C   UNL A   1      44.128  26.437  31.743  1.00  0.00     0.031 C 
ATOM     37  C   UNL A   1      43.429  27.713  33.758  1.00  0.00     0.037 A 
BRANCH  24  38
ATOM     38  C   UNL A   1      39.509  32.036  35.877  1.00  0.00     0.064 A 
ATOM     39  C   UNL A   1      40.121  33.256  36.211  1.00  0.00     0.173 A 
ATOM     40  C   UNL A   1      38.448  31.592  36.677  1.00  0.00     0.173 A 
ATOM     41  F   UNL A   1      41.173  33.701  35.504  1.00  0.00    -0.203 F 
ATOM     42  C   UNL A   1      39.703  33.986  37.320  1.00  0.00     0.198 A 
ATOM     43  C   UNL A   1      38.016  32.337  37.769  1.00  0.00     0.198 A 
ATOM     44  F   UNL A   1      37.851  30.419  36.415  1.00  0.00    -0.203 F 
ATOM     45  F   UNL A   1      40.343  35.114  37.660  1.00  0.00    -0.200 F 
ATOM     46  C   UNL A   1      38.648  33.528  38.095  1.00  0.00     0.200 A 
ATOM     47  F   UNL A   1      37.003  31.889  38.523  1.00  0.00    -0.200 F 
ATOM     48  F   UNL A   1      38.254  34.224  39.171  1.00  0.00    -0.200 F 
ENDBRANCH  24  38
BRANCH  25  49
ATOM     49  C   UNL A   1      42.379  26.618  27.867  1.00  0.00     0.064 A 
ATOM     50  C   UNL A   1      41.857  25.347  27.600  1.00  0.00     0.173 A 
ATOM     51  C   UNL A   1      43.306  27.145  26.951  1.00  0.00     0.173 A 
ATOM     52  F   UNL A   1      40.974  24.795  28.444  1.00  0.00    -0.203 F 
ATOM     53  C   UNL A   1      42.259  24.622  26.477  1.00  0.00     0.198 A 
ATOM     54  C   UNL A   1      43.693  26.427  25.820  1.00  0.00     0.198 A 
ATOM     55  F   UNL A   1      43.834  28.361  27.154  1.00  0.00    -0.203 F 
ATOM     56  F   UNL A   1      41.769  23.393  26.265  1.00  0.00    -0.200 F 
ATOM     57  C   UNL A   1      43.175  25.163  25.587  1.00  0.00     0.200 A 
ATOM     58  F   UNL A   1      44.570  26.960  24.957  1.00  0.00    -0.200 F 
ATOM     59  F   UNL A   1      43.560  24.465  24.510  1.00  0.00    -0.200 F 
ENDBRANCH  25  49
BRANCH  37  60
ATOM     60  C   UNL A   1      44.465  26.954  34.527  1.00  0.00     0.064 A 
ATOM     61  C   UNL A   1      45.762  27.456  34.699  1.00  0.00     0.173 A 
ATOM     62  C   UNL A   1      44.136  25.736  35.139  1.00  0.00     0.173 A 
ATOM     63  F   UNL A   1      46.124  28.610  34.119  1.00  0.00    -0.203 F 
ATOM     64  C   UNL A   1      46.704  26.749  35.438  1.00  0.00     0.198 A 
ATOM     65  C   UNL A   1      45.069  25.052  35.909  1.00  0.00     0.198 A 
ATOM     66  F   UNL A   1      42.904  25.222  35.008  1.00  0.00    -0.203 F 
ATOM     67  F   UNL A   1      47.954  27.219  35.547  1.00  0.00    -0.200 F 
ATOM     68  C   UNL A   1      46.354  25.554  36.051  1.00  0.00     0.200 A 
ATOM     69  F   UNL A   1      44.724  23.908  36.516  1.00  0.00    -0.200 F 
ATOM     70  F   UNL A   1      47.260  24.882  36.774  1.00  0.00    -0.200 F 
ENDBRANCH  37  60
ENDBRANCH  11  12
ENDBRANCH   4   6
ENDBRANCH   3   4
ENDBRANCH   2   3
ENDBRANCH   1   2
BRANCH   1  71
ATOM     71  O   UNL A   1      33.279  30.064  26.124  1.00  0.00    -0.462 OA
BRANCH  71  72
ATOM     72  C   UNL A   1      32.499  29.057  25.658  1.00  0.00     0.310 C 
ATOM     73  O   UNL A   1      31.353  29.207  25.248  1.00  0.00    -0.252 OA
BRANCH  72  74
ATOM     74  C   UNL A   1      33.268  27.768  25.540  1.00  0.00     0.119 C 
ATOM     75  C   UNL A   1      33.778  27.298  24.160  1.00  0.00     0.100 C 
ATOM     76  C   UNL A   1      32.630  26.483  26.104  1.00  0.00     0.027 C 
ATOM     77  C   UNL A   1      33.461  25.773  24.162  1.00  0.00     0.025 C 
ATOM     78  C   UNL A   1      31.473  25.963  25.285  1.00  0.00    -0.027 C 
ATOM     79  C   UNL A   1      33.664  25.442  25.656  1.00  0.00     0.017 C 
ATOM     80  C   UNL A   1      31.978  25.520  24.123  1.00  0.00    -0.027 C 
BRANCH  75  81
ATOM     81  C   UNL A   1      33.511  28.137  22.912  1.00  0.00     0.224 C 
ATOM     82  O   UNL A   1      34.486  28.627  22.325  1.00  0.00    -0.275 OA
ATOM     83  N   UNL A   1      32.297  28.412  22.371  1.00  0.00    -0.352 N 
ATOM     84  H   UNL A   1      32.298  29.173  21.746  1.00  0.00     0.163 HD
BRANCH  83  85
ATOM     85  C   UNL A   1      31.003  27.793  22.543  1.00  0.00     0.153 C 
BRANCH  85  86
ATOM     86  C   UNL A   1      29.768  28.657  22.436  1.00  0.00    -0.010 A 
ATOM     87  C   UNL A   1      29.783  29.950  21.888  1.00  0.00     0.007 A 
ATOM     88  C   UNL A   1      28.573  28.216  23.043  1.00  0.00     0.046 A 
ATOM     89  C   UNL A   1      28.664  30.786  21.987  1.00  0.00     0.000 A 
ATOM     90  C   UNL A   1      27.454  29.050  23.135  1.00  0.00     0.021 A 
ATOM     91  Cl  UNL A   1      28.444  26.648  23.768  1.00  0.00    -0.084 Cl
ATOM     92  C   UNL A   1      27.504  30.342  22.618  1.00  0.00     0.002 A 
ENDBRANCH  85  86
ENDBRANCH  83  85
ENDBRANCH  75  81
ENDBRANCH  72  74
ENDBRANCH  71  72
ENDBRANCH   1  71
TORSDOF 14
ENDMDL
MODEL 2
REMARK VINA RESULT:     -12.7      1.258      2.248
REMARK SMILES O=C(OCCOC(=O)[C@@H]1[C@H](C(=O)NCc2ccccc2Cl)[C@@H]2C=C[C@H]1C2)c1ccc(-c2c3nc(c(-c4c(F)c(F)c(F)c(F)c4F)c4ccc([nH]4)c(-c4c(F)c(F)c(F)c(F)c4F)c4nc(c(-c5c(F)c(F)c(F)c(F)c5F)c5ccc2[nH]5)C=C4)C=C3)cc1
REMARK SMILES IDX 5 1 4 2 3 3 2 4 1 5 27 6 28 7 89 8 29 9 88 10 30 11 31 12
REMARK SMILES IDX 32 13 82 14 33 15 87 16 81 17 83 18 34 19 86 20 80 21 79 22
REMARK SMILES IDX 35 24 67 25 47 26 66 27 48 28 51 29 65 30 84 31 49 32 50 33
REMARK SMILES IDX 64 35 85 36 52 37 36 38 37 39 45 40 38 41 39 42 43 43 46 44
REMARK SMILES IDX 40 45 41 46 44 47 42 48 68 49 69 50 77 51 70 52 71 53 75 54
REMARK SMILES IDX 78 55 72 56 73 57 76 58 74 59 53 60 54 61 62 62 55 63 56 64
REMARK SMILES IDX 60 65 63 66 57 67 58 68 61 69 59 70 6 71 7 72 8 73 9 74
REMARK SMILES IDX 10 75 25 76 22 77 24 78 26 79 23 80 11 81 12 82 13 83 14 85
REMARK SMILES IDX 15 86 16 87 20 88 17 89 19 90 21 91 18 92
REMARK H PARENT 83 23 51 34 13 84
REMARK Flexibility Score: inf
ROOT
ATOM      1  C   UNL A   1      32.907  31.123  27.179  1.00  0.00     0.274 C 
ENDROOT
BRANCH   1   2
ATOM      2  C   UNL A   1      31.909  32.294  27.097  1.00  0.00     0.275 C 
BRANCH   2   3
ATOM      3  O   UNL A   1      32.374  33.649  27.254  1.00  0.00    -0.458 OA
BRANCH   3   4
ATOM      4  C   UNL A   1      32.946  34.251  28.321  1.00  0.00     0.338 C 
ATOM      5  O   UNL A   1      32.543  35.336  28.727  1.00  0.00    -0.246 OA
BRANCH   4   6
ATOM      6  C   UNL A   1      34.190  33.697  28.902  1.00  0.00     0.060 A 
ATOM      7  C   UNL A   1      35.452  33.902  28.343  1.00  0.00     0.016 A 
ATOM      8  C   UNL A   1      34.073  32.966  30.095  1.00  0.00     0.016 A 
ATOM      9  C   UNL A   1      36.596  33.545  29.043  1.00  0.00     0.010 A 
ATOM     10  C   UNL A   1      35.216  32.540  30.771  1.00  0.00     0.010 A 
ATOM     11  C   UNL A   1      36.483  32.850  30.250  1.00  0.00    -0.014 A 
BRANCH  11  12
ATOM     12  C   UNL A   1      37.685  32.165  30.751  1.00  0.00     0.031 A 
ATOM     13  C   UNL A   1      38.218  32.683  32.049  1.00  0.00     0.074 A 
ATOM     14  C   UNL A   1      38.206  31.075  30.162  1.00  0.00     0.049 A 
ATOM     15  N   UNL A   1      39.152  32.185  32.806  1.00  0.00    -0.248 NA
ATOM     16  C   UNL A   1      37.534  33.860  32.619  1.00  0.00     0.031 C 
ATOM     17  C   UNL A   1      37.630  30.354  29.035  1.00  0.00     0.029 A 
ATOM     18  N   UNL A   1      39.355  30.380  30.428  1.00  0.00    -0.354 N 
ATOM     19  C   UNL A   1      39.106  32.931  33.971  1.00  0.00     0.074 A 
ATOM     20  C   UNL A   1      38.103  33.953  33.808  1.00  0.00     0.031 C 
ATOM     21  C   UNL A   1      38.498  29.432  28.592  1.00  0.00     0.029 A 
ATOM     22  C   UNL A   1      39.652  29.432  29.477  1.00  0.00     0.049 A 
ATOM     23  H   UNL A   1      39.915  30.544  31.221  1.00  0.00     0.167 HD
ATOM     24  C   UNL A   1      39.831  32.744  35.093  1.00  0.00     0.037 A 
ATOM     25  C   UNL A   1      40.728  28.634  29.361  1.00  0.00     0.037 A 
ATOM     26  C   UNL A   1      40.885  31.777  35.182  1.00  0.00     0.049 A 
ATOM     27  C   UNL A   1      41.673  28.599  30.527  1.00  0.00     0.074 A 
ATOM     28  C   UNL A   1      41.757  31.543  36.224  1.00  0.00     0.029 A 
ATOM     29  N   UNL A   1      41.233  30.906  34.154  1.00  0.00    -0.354 N 
ATOM     30  N   UNL A   1      41.615  29.282  31.646  1.00  0.00    -0.248 NA
ATOM     31  C   UNL A   1      42.781  27.643  30.459  1.00  0.00     0.031 C 
ATOM     32  C   UNL A   1      42.682  30.584  35.799  1.00  0.00     0.029 A 
ATOM     33  C   UNL A   1      42.343  30.167  34.518  1.00  0.00     0.049 A 
ATOM     34  H   UNL A   1      40.760  30.829  33.294  1.00  0.00     0.167 HD
ATOM     35  C   UNL A   1      42.639  28.803  32.443  1.00  0.00     0.074 A 
ATOM     36  C   UNL A   1      43.307  27.770  31.671  1.00  0.00     0.031 C 
ATOM     37  C   UNL A   1      42.984  29.162  33.704  1.00  0.00     0.037 A 
BRANCH  24  38
ATOM     38  C   UNL A   1      39.537  33.664  36.235  1.00  0.00     0.064 A 
ATOM     39  C   UNL A   1      40.146  34.926  36.343  1.00  0.00     0.173 A 
ATOM     40  C   UNL A   1      38.699  33.247  37.277  1.00  0.00     0.173 A 
ATOM     41  F   UNL A   1      40.996  35.350  35.394  1.00  0.00    -0.203 F 
ATOM     42  C   UNL A   1      39.941  35.725  37.464  1.00  0.00     0.198 A 
ATOM     43  C   UNL A   1      38.477  34.058  38.384  1.00  0.00     0.198 A 
ATOM     44  F   UNL A   1      38.119  32.037  37.233  1.00  0.00    -0.203 F 
ATOM     45  F   UNL A   1      40.582  36.897  37.578  1.00  0.00    -0.200 F 
ATOM     46  C   UNL A   1      39.104  35.292  38.482  1.00  0.00     0.200 A 
ATOM     47  F   UNL A   1      37.675  33.636  39.371  1.00  0.00    -0.200 F 
ATOM     48  F   UNL A   1      38.917  36.055  39.568  1.00  0.00    -0.200 F 
ENDBRANCH  24  38
BRANCH  25  49
ATOM     49  C   UNL A   1      40.910  27.784  28.155  1.00  0.00     0.064 A 
ATOM     50  C   UNL A   1      41.646  28.220  27.046  1.00  0.00     0.173 A 
ATOM     51  C   UNL A   1      40.347  26.498  28.095  1.00  0.00     0.173 A 
ATOM     52  F   UNL A   1      42.200  29.441  27.048  1.00  0.00    -0.203 F 
ATOM     53  C   UNL A   1      41.794  27.415  25.916  1.00  0.00     0.198 A 
ATOM     54  C   UNL A   1      40.512  25.687  26.973  1.00  0.00     0.198 A 
ATOM     55  F   UNL A   1      39.638  26.027  29.131  1.00  0.00    -0.203 F 
ATOM     56  F   UNL A   1      42.474  27.872  24.855  1.00  0.00    -0.200 F 
ATOM     57  C   UNL A   1      41.229  26.148  25.881  1.00  0.00     0.200 A 
ATOM     58  F   UNL A   1      39.973  24.460  26.949  1.00  0.00    -0.200 F 
ATOM     59  F   UNL A   1      41.373  25.377  24.794  1.00  0.00    -0.200 F 
ENDBRANCH  25  49
BRANCH  37  60
ATOM     60  C   UNL A   1      44.131  28.424  34.321  1.00  0.00     0.064 A 
ATOM     61  C   UNL A   1      43.940  27.217  35.008  1.00  0.00     0.173 A 
ATOM     62  C   UNL A   1      45.440  28.906  34.174  1.00  0.00     0.173 A 
ATOM     63  F   UNL A   1      42.703  26.728  35.184  1.00  0.00    -0.203 F 
ATOM     64  C   UNL A   1      45.020  26.532  35.553  1.00  0.00     0.198 A 
ATOM     65  C   UNL A   1      46.520  28.198  34.686  1.00  0.00     0.198 A 
ATOM     66  F   UNL A   1      45.670  30.052  33.516  1.00  0.00    -0.203 F 
ATOM     67  F   UNL A   1      44.812  25.409  36.252  1.00  0.00    -0.200 F 
ATOM     68  C   UNL A   1      46.309  27.016  35.382  1.00  0.00     0.200 A 
ATOM     69  F   UNL A   1      47.766  28.656  34.504  1.00  0.00    -0.200 F 
ATOM     70  F   UNL A   1      47.350  26.347  35.896  1.00  0.00    -0.200 F 
ENDBRANCH  37  60
ENDBRANCH  11  12
ENDBRANCH   4   6
ENDBRANCH   3   4
ENDBRANCH   2   3
ENDBRANCH   1   2
BRANCH   1  71
ATOM     71  O   UNL A   1      33.250  30.406  25.987  1.00  0.00    -0.462 OA
BRANCH  71  72
ATOM     72  C   UNL A   1      32.446  29.375  25.627  1.00  0.00     0.310 C 
ATOM     73  O   UNL A   1      31.303  29.507  25.206  1.00  0.00    -0.252 OA
BRANCH  72  74
ATOM     74  C   UNL A   1      33.187  28.064  25.639  1.00  0.00     0.119 C 
ATOM     75  C   UNL A   1      33.706  27.459  24.316  1.00  0.00     0.100 C 
ATOM     76  C   UNL A   1      32.513  26.849  26.308  1.00  0.00     0.027 C 
ATOM     77  C   UNL A   1      33.354  25.947  24.452  1.00  0.00     0.025 C 
ATOM     78  C   UNL A   1      31.356  26.282  25.521  1.00  0.00    -0.027 C 
ATOM     79  C   UNL A   1      33.528  25.750  25.973  1.00  0.00     0.017 C 
ATOM     80  C   UNL A   1      31.867  25.724  24.412  1.00  0.00    -0.027 C 
BRANCH  75  81
ATOM     81  C   UNL A   1      33.476  28.185  22.993  1.00  0.00     0.224 C 
ATOM     82  O   UNL A   1      34.468  28.626  22.395  1.00  0.00    -0.275 OA
ATOM     83  N   UNL A   1      32.279  28.409  22.394  1.00  0.00    -0.352 N 
ATOM     84  H   UNL A   1      32.299  29.113  21.707  1.00  0.00     0.163 HD
BRANCH  83  85
ATOM     85  C   UNL A   1      30.981  27.804  22.581  1.00  0.00     0.153 C 
BRANCH  85  86
ATOM     86  C   UNL A   1      29.752  28.674  22.452  1.00  0.00    -0.010 A 
ATOM     87  C   UNL A   1      29.782  29.966  21.902  1.00  0.00     0.007 A 
ATOM     88  C   UNL A   1      28.544  28.240  23.040  1.00  0.00     0.046 A 
ATOM     89  C   UNL A   1      28.665  30.808  21.981  1.00  0.00     0.000 A 
ATOM     90  C   UNL A   1      27.428  29.080  23.111  1.00  0.00     0.021 A 
ATOM     91  Cl  UNL A   1      28.396  26.673  23.765  1.00  0.00    -0.084 Cl
ATOM     92  C   UNL A   1      27.493  30.370  22.593  1.00  0.00     0.002 A 
ENDBRANCH  85  86
ENDBRANCH  83  85
ENDBRANCH  75  81
ENDBRANCH  72  74
ENDBRANCH  71  72
ENDBRANCH   1  71
TORSDOF 14
ENDMDL
MODEL 3
REMARK VINA RESULT:     -12.5      2.295      3.317
REMARK SMILES O=C(OCCOC(=O)[C@@H]1[C@H](C(=O)NCc2ccccc2Cl)[C@@H]2C=C[C@H]1C2)c1ccc(-c2c3nc(c(-c4c(F)c(F)c(F)c(F)c4F)c4ccc([nH]4)c(-c4c(F)c(F)c(F)c(F)c4F)c4nc(c(-c5c(F)c(F)c(F)c(F)c5F)c5ccc2[nH]5)C=C4)C=C3)cc1
REMARK SMILES IDX 5 1 4 2 3 3 2 4 1 5 27 6 28 7 89 8 29 9 88 10 30 11 31 12
REMARK SMILES IDX 32 13 82 14 33 15 87 16 81 17 83 18 34 19 86 20 80 21 79 22
REMARK SMILES IDX 35 24 67 25 47 26 66 27 48 28 51 29 65 30 84 31 49 32 50 33
REMARK SMILES IDX 64 35 85 36 52 37 36 38 37 39 45 40 38 41 39 42 43 43 46 44
REMARK SMILES IDX 40 45 41 46 44 47 42 48 68 49 69 50 77 51 70 52 71 53 75 54
REMARK SMILES IDX 78 55 72 56 73 57 76 58 74 59 53 60 54 61 62 62 55 63 56 64
REMARK SMILES IDX 60 65 63 66 57 67 58 68 61 69 59 70 6 71 7 72 8 73 9 74
REMARK SMILES IDX 10 75 25 76 22 77 24 78 26 79 23 80 11 81 12 82 13 83 14 85
REMARK SMILES IDX 15 86 16 87 20 88 17 89 19 90 21 91 18 92
REMARK H PARENT 83 23 51 34 13 84
REMARK Flexibility Score: inf
ROOT
ATOM      1  C   UNL A   1      33.158  26.981  26.494  1.00  0.00     0.274 C 
ENDROOT
BRANCH   1   2
ATOM      2  C   UNL A   1      34.137  28.108  26.117  1.00  0.00     0.275 C 
BRANCH   2   3
ATOM      3  O   UNL A   1      33.825  29.475  26.450  1.00  0.00    -0.458 OA
BRANCH   3   4
ATOM      4  C   UNL A   1      34.380  30.291  27.374  1.00  0.00     0.338 C 
ATOM      5  O   UNL A   1      33.884  31.381  27.636  1.00  0.00    -0.246 OA
BRANCH   4   6
ATOM      6  C   UNL A   1      35.703  29.959  27.951  1.00  0.00     0.060 A 
ATOM      7  C   UNL A   1      36.901  30.112  27.253  1.00  0.00     0.016 A 
ATOM      8  C   UNL A   1      35.730  29.509  29.281  1.00  0.00     0.016 A 
ATOM      9  C   UNL A   1      38.117  29.993  27.912  1.00  0.00     0.010 A 
ATOM     10  C   UNL A   1      36.949  29.317  29.931  1.00  0.00     0.010 A 
ATOM     11  C   UNL A   1      38.147  29.581  29.246  1.00  0.00    -0.014 A 
BRANCH  11  12
ATOM     12  C   UNL A   1      39.433  29.102  29.778  1.00  0.00     0.031 A 
ATOM     13  C   UNL A   1      39.999  29.913  30.899  1.00  0.00     0.074 A 
ATOM     14  C   UNL A   1      40.008  27.954  29.381  1.00  0.00     0.049 A 
ATOM     15  N   UNL A   1      41.018  29.650  31.664  1.00  0.00    -0.248 NA
ATOM     16  C   UNL A   1      39.253  31.130  31.274  1.00  0.00     0.031 C 
ATOM     17  C   UNL A   1      39.426  26.977  28.470  1.00  0.00     0.029 A 
ATOM     18  N   UNL A   1      41.227  27.413  29.688  1.00  0.00    -0.354 N 
ATOM     19  C   UNL A   1      40.982  30.615  32.656  1.00  0.00     0.074 A 
ATOM     20  C   UNL A   1      39.885  31.507  32.371  1.00  0.00     0.031 C 
ATOM     21  C   UNL A   1      40.341  26.047  28.154  1.00  0.00     0.029 A 
ATOM     22  C   UNL A   1      41.544  26.313  28.927  1.00  0.00     0.049 A 
ATOM     23  H   UNL A   1      41.819  27.776  30.386  1.00  0.00     0.167 HD
ATOM     24  C   UNL A   1      41.788  30.716  33.732  1.00  0.00     0.037 A 
ATOM     25  C   UNL A   1      42.675  25.587  28.889  1.00  0.00     0.037 A 
ATOM     26  C   UNL A   1      42.926  29.867  33.930  1.00  0.00     0.049 A 
ATOM     27  C   UNL A   1      43.691  25.862  29.960  1.00  0.00     0.074 A 
ATOM     28  C   UNL A   1      43.878  29.916  34.925  1.00  0.00     0.029 A 
ATOM     29  N   UNL A   1      43.282  28.830  33.073  1.00  0.00    -0.354 N 
ATOM     30  N   UNL A   1      43.644  26.755  30.920  1.00  0.00    -0.248 NA
ATOM     31  C   UNL A   1      44.870  24.993  29.998  1.00  0.00     0.031 C 
ATOM     32  C   UNL A   1      44.854  28.958  34.629  1.00  0.00     0.029 A 
ATOM     33  C   UNL A   1      44.472  28.263  33.490  1.00  0.00     0.049 A 
ATOM     34  H   UNL A   1      42.764  28.543  32.286  1.00  0.00     0.167 HD
ATOM     35  C   UNL A   1      44.754  26.525  31.714  1.00  0.00     0.074 A 
ATOM     36  C   UNL A   1      45.459  25.405  31.114  1.00  0.00     0.031 C 
ATOM     37  C   UNL A   1      45.146  27.160  32.846  1.00  0.00     0.037 A 
BRANCH  24  38
ATOM     38  C   UNL A   1      41.489  31.829  34.686  1.00  0.00     0.064 A 
ATOM     39  C   UNL A   1      42.152  33.065  34.611  1.00  0.00     0.173 A 
ATOM     40  C   UNL A   1      40.586  31.629  35.738  1.00  0.00     0.173 A 
ATOM     41  F   UNL A   1      43.063  33.287  33.650  1.00  0.00    -0.203 F 
ATOM     42  C   UNL A   1      41.936  34.051  35.570  1.00  0.00     0.198 A 
ATOM     43  C   UNL A   1      40.353  32.626  36.679  1.00  0.00     0.198 A 
ATOM     44  F   UNL A   1      39.950  30.455  35.868  1.00  0.00    -0.203 F 
ATOM     45  F   UNL A   1      42.627  35.199  35.518  1.00  0.00    -0.200 F 
ATOM     46  C   UNL A   1      41.034  33.833  36.600  1.00  0.00     0.200 A 
ATOM     47  F   UNL A   1      39.488  32.411  37.679  1.00  0.00    -0.200 F 
ATOM     48  F   UNL A   1      40.836  34.777  37.531  1.00  0.00    -0.200 F 
ENDBRANCH  24  38
BRANCH  25  49
ATOM     49  C   UNL A   1      42.854  24.522  27.867  1.00  0.00     0.064 A 
ATOM     50  C   UNL A   1      42.519  23.187  28.123  1.00  0.00     0.173 A 
ATOM     51  C   UNL A   1      43.362  24.832  26.594  1.00  0.00     0.173 A 
ATOM     52  F   UNL A   1      42.035  22.836  29.322  1.00  0.00    -0.203 F 
ATOM     53  C   UNL A   1      42.707  22.197  27.156  1.00  0.00     0.198 A 
ATOM     54  C   UNL A   1      43.531  23.845  25.622  1.00  0.00     0.198 A 
ATOM     55  F   UNL A   1      43.693  26.096  26.292  1.00  0.00    -0.203 F 
ATOM     56  F   UNL A   1      42.410  20.922  27.440  1.00  0.00    -0.200 F 
ATOM     57  C   UNL A   1      43.210  22.528  25.906  1.00  0.00     0.200 A 
ATOM     58  F   UNL A   1      44.008  24.172  24.413  1.00  0.00    -0.200 F 
ATOM     59  F   UNL A   1      43.390  21.576  24.980  1.00  0.00    -0.200 F 
ENDBRANCH  25  49
BRANCH  37  60
ATOM     60  C   UNL A   1      46.388  26.649  33.505  1.00  0.00     0.064 A 
ATOM     61  C   UNL A   1      46.342  25.621  34.456  1.00  0.00     0.173 A 
ATOM     62  C   UNL A   1      47.642  27.161  33.140  1.00  0.00     0.173 A 
ATOM     63  F   UNL A   1      45.162  25.112  34.846  1.00  0.00    -0.203 F 
ATOM     64  C   UNL A   1      47.509  25.141  35.040  1.00  0.00     0.198 A 
ATOM     65  C   UNL A   1      48.808  26.652  33.697  1.00  0.00     0.198 A 
ATOM     66  F   UNL A   1      47.734  28.140  32.227  1.00  0.00    -0.203 F 
ATOM     67  F   UNL A   1      47.440  24.195  35.986  1.00  0.00    -0.200 F 
ATOM     68  C   UNL A   1      48.740  25.648  34.653  1.00  0.00     0.200 A 
ATOM     69  F   UNL A   1      49.998  27.129  33.308  1.00  0.00    -0.200 F 
ATOM     70  F   UNL A   1      49.864  25.175  35.207  1.00  0.00    -0.200 F 
ENDBRANCH  37  60
ENDBRANCH  11  12
ENDBRANCH   4   6
ENDBRANCH   3   4
ENDBRANCH   2   3
ENDBRANCH   1   2
BRANCH   1  71
ATOM     71  O   UNL A   1      32.834  25.977  25.525  1.00  0.00    -0.462 OA
BRANCH  71  72
ATOM     72  C   UNL A   1      33.329  24.731  25.728  1.00  0.00     0.310 C 
ATOM     73  O   UNL A   1      32.725  23.835  26.306  1.00  0.00    -0.252 OA
BRANCH  72  74
ATOM     74  C   UNL A   1      34.634  24.528  25.004  1.00  0.00     0.119 C 
ATOM     75  C   UNL A   1      34.640  23.947  23.573  1.00  0.00     0.100 C 
ATOM     76  C   UNL A   1      35.732  23.695  25.696  1.00  0.00     0.027 C 
ATOM     77  C   UNL A   1      35.820  22.930  23.605  1.00  0.00     0.025 C 
ATOM     78  C   UNL A   1      35.435  22.215  25.747  1.00  0.00    -0.027 C 
ATOM     79  C   UNL A   1      36.782  23.641  24.581  1.00  0.00     0.017 C 
ATOM     80  C   UNL A   1      35.507  21.753  24.489  1.00  0.00    -0.027 C 
BRANCH  75  81
ATOM     81  C   UNL A   1      33.328  23.581  22.883  1.00  0.00     0.224 C 
ATOM     82  O   UNL A   1      32.806  22.495  23.173  1.00  0.00    -0.275 OA
ATOM     83  N   UNL A   1      32.664  24.329  21.966  1.00  0.00    -0.352 N 
ATOM     84  H   UNL A   1      32.001  23.826  21.441  1.00  0.00     0.163 HD
BRANCH  83  85
ATOM     85  C   UNL A   1      32.752  25.728  21.619  1.00  0.00     0.153 C 
BRANCH  85  86
ATOM     86  C   UNL A   1      32.000  26.732  22.461  1.00  0.00    -0.010 A 
ATOM     87  C   UNL A   1      30.688  26.520  22.915  1.00  0.00     0.007 A 
ATOM     88  C   UNL A   1      32.574  28.002  22.684  1.00  0.00     0.046 A 
ATOM     89  C   UNL A   1      29.962  27.553  23.523  1.00  0.00     0.000 A 
ATOM     90  C   UNL A   1      31.850  29.029  23.297  1.00  0.00     0.021 A 
ATOM     91  Cl  UNL A   1      34.179  28.382  22.152  1.00  0.00    -0.084 Cl
ATOM     92  C   UNL A   1      30.537  28.809  23.705  1.00  0.00     0.002 A 
ENDBRANCH  85  86
ENDBRANCH  83  85
ENDBRANCH  75  81
ENDBRANCH  72  74
ENDBRANCH  71  72
ENDBRANCH   1  71
TORSDOF 14
ENDMDL
