MODEL 1
REMARK VINA RESULT:     -12.1      0.000      0.000
REMARK SMILES Cn1cc(-c2ccn(Cc3ccc(C(=O)OCCOC(=O)c4ccc(-c5c6nc(c(-c7c(F)c(F)c(F)c(F)c7F)c7ccc([nH]7)c(-c7c(F)c(F)c(F)c(F)c7F)c7nc(c(-c8c(F)c(F)c(F)c(F)c8F)c8ccc5[nH]8)C=C7)C=C6)cc4)cc3)n2)cn1
REMARK SMILES IDX 17 1 16 2 14 3 15 4 13 5 10 6 11 7 86 8 12 9 85 10 9 11 8 12
REMARK SMILES IDX 5 13 6 14 87 15 7 16 4 17 1 18 2 19 3 20 89 21 88 22 18 23
REMARK SMILES IDX 19 24 20 25 21 26 22 27 23 28 84 29 24 30 83 31 25 32 26 33
REMARK SMILES IDX 27 34 77 35 28 36 82 37 76 38 78 39 29 40 81 41 75 42 74 43
REMARK SMILES IDX 30 45 62 46 42 47 61 48 43 49 46 50 60 51 79 52 44 53 45 54
REMARK SMILES IDX 59 56 80 57 47 58 31 59 32 60 40 61 33 62 34 63 38 64 41 65
REMARK SMILES IDX 35 66 36 67 39 68 37 69 63 70 64 71 72 72 65 73 66 74 70 75
REMARK SMILES IDX 73 76 67 77 68 78 71 79 69 80 48 81 49 82 57 83 50 84 51 85
REMARK SMILES IDX 55 86 58 87 52 88 53 89 56 90 54 91
REMARK H PARENT 78 44 46 55
REMARK Flexibility Score: inf
ROOT
ATOM      1  C   UNL A   1      42.202  19.712  26.719  1.00  0.00     0.275 C 
ENDROOT
BRANCH   1   2
ATOM      2  O   UNL A   1      41.267  20.628  26.130  1.00  0.00    -0.458 OA
BRANCH   2   3
ATOM      3  C   UNL A   1      40.489  21.320  27.000  1.00  0.00     0.338 C 
ATOM      4  O   UNL A   1      40.748  21.552  28.173  1.00  0.00    -0.246 OA
BRANCH   3   5
ATOM      5  C   UNL A   1      39.285  21.855  26.314  1.00  0.00     0.060 A 
ATOM      6  C   UNL A   1      37.064  22.816  24.881  1.00  0.00    -0.026 A 
ATOM      7  C   UNL A   1      37.461  21.479  24.753  1.00  0.00     0.006 A 
ATOM      8  C   UNL A   1      37.742  23.638  25.796  1.00  0.00     0.006 A 
ATOM      9  C   UNL A   1      38.565  21.002  25.466  1.00  0.00     0.016 A 
ATOM     10  C   UNL A   1      38.852  23.169  26.499  1.00  0.00     0.016 A 
BRANCH   6  11
ATOM     11  C   UNL A   1      35.941  23.379  24.038  1.00  0.00     0.179 C 
BRANCH  11  12
ATOM     12  N   UNL A   1      34.871  23.947  24.856  1.00  0.00    -0.268 N 
ATOM     13  C   UNL A   1      33.675  25.449  25.747  1.00  0.00     0.095 A 
ATOM     14  C   UNL A   1      33.186  24.223  26.238  1.00  0.00     0.050 A 
ATOM     15  N   UNL A   1      34.728  25.287  24.946  1.00  0.00    -0.172 NA
ATOM     16  C   UNL A   1      33.977  23.266  25.640  1.00  0.00     0.110 A 
BRANCH  13  17
ATOM     17  C   UNL A   1      33.128  26.754  26.053  1.00  0.00     0.040 A 
ATOM     18  C   UNL A   1      32.979  30.236  26.913  1.00  0.00     0.173 C 
ATOM     19  N   UNL A   1      32.800  28.848  26.564  1.00  0.00    -0.275 N 
ATOM     20  C   UNL A   1      33.774  27.898  26.457  1.00  0.00     0.118 A 
ATOM     21  N   UNL A   1      31.562  28.388  26.296  1.00  0.00    -0.181 NA
ATOM     22  C   UNL A   1      31.771  27.110  25.958  1.00  0.00     0.145 A 
ENDBRANCH  13  17
ENDBRANCH  11  12
ENDBRANCH   6  11
ENDBRANCH   3   5
ENDBRANCH   2   3
ENDBRANCH   1   2
BRANCH   1  23
ATOM     23  C   UNL A   1      43.217  19.229  25.693  1.00  0.00     0.275 C 
BRANCH  23  24
ATOM     24  O   UNL A   1      43.476  20.205  24.683  1.00  0.00    -0.458 OA
BRANCH  24  25
ATOM     25  C   UNL A   1      44.728  20.713  24.695  1.00  0.00     0.338 C 
ATOM     26  O   UNL A   1      45.779  20.116  24.543  1.00  0.00    -0.246 OA
BRANCH  25  27
ATOM     27  C   UNL A   1      44.680  22.099  25.170  1.00  0.00     0.060 A 
ATOM     28  C   UNL A   1      45.517  22.456  26.231  1.00  0.00     0.016 A 
ATOM     29  C   UNL A   1      43.641  22.936  24.738  1.00  0.00     0.016 A 
ATOM     30  C   UNL A   1      45.240  23.613  26.933  1.00  0.00     0.010 A 
ATOM     31  C   UNL A   1      43.357  24.081  25.447  1.00  0.00     0.010 A 
ATOM     32  C   UNL A   1      44.128  24.384  26.568  1.00  0.00    -0.014 A 
BRANCH  32  33
ATOM     33  C   UNL A   1      43.893  25.630  27.275  1.00  0.00     0.031 A 
ATOM     34  C   UNL A   1      44.920  26.657  26.970  1.00  0.00     0.074 A 
ATOM     35  C   UNL A   1      42.779  25.861  27.999  1.00  0.00     0.049 A 
ATOM     36  N   UNL A   1      45.716  27.248  27.796  1.00  0.00    -0.248 NA
ATOM     37  C   UNL A   1      45.201  26.956  25.554  1.00  0.00     0.031 C 
ATOM     38  C   UNL A   1      41.595  25.001  28.098  1.00  0.00     0.029 A 
ATOM     39  N   UNL A   1      42.415  26.967  28.710  1.00  0.00    -0.354 N 
ATOM     40  C   UNL A   1      46.468  28.135  27.027  1.00  0.00     0.074 A 
ATOM     41  C   UNL A   1      46.233  27.793  25.653  1.00  0.00     0.031 C 
ATOM     42  C   UNL A   1      40.573  25.707  28.630  1.00  0.00     0.029 A 
ATOM     43  C   UNL A   1      41.061  27.019  29.023  1.00  0.00     0.049 A 
ATOM     44  H   UNL A   1      43.054  27.667  28.978  1.00  0.00     0.167 HD
ATOM     45  C   UNL A   1      46.988  29.257  27.592  1.00  0.00     0.037 A 
ATOM     46  C   UNL A   1      40.382  28.082  29.521  1.00  0.00     0.037 A 
ATOM     47  C   UNL A   1      47.023  29.128  29.026  1.00  0.00     0.049 A 
ATOM     48  C   UNL A   1      41.372  29.019  30.097  1.00  0.00     0.074 A 
ATOM     49  C   UNL A   1      47.763  28.421  29.946  1.00  0.00     0.029 A 
ATOM     50  N   UNL A   1      45.882  29.549  29.654  1.00  0.00    -0.354 N 
ATOM     51  N   UNL A   1      42.040  28.784  31.190  1.00  0.00    -0.248 NA
ATOM     52  C   UNL A   1      41.879  30.113  29.277  1.00  0.00     0.031 C 
ATOM     53  C   UNL A   1      46.919  28.254  31.084  1.00  0.00     0.029 A 
ATOM     54  C   UNL A   1      45.705  28.893  30.838  1.00  0.00     0.049 A 
ATOM     55  H   UNL A   1      45.270  30.234  29.298  1.00  0.00     0.167 HD
ATOM     56  C   UNL A   1      43.268  29.375  30.968  1.00  0.00     0.074 A 
ATOM     57  C   UNL A   1      43.046  30.327  29.889  1.00  0.00     0.031 C 
ATOM     58  C   UNL A   1      44.403  28.797  31.455  1.00  0.00     0.037 A 
BRANCH  45  59
ATOM     59  C   UNL A   1      46.960  30.627  26.938  1.00  0.00     0.064 A 
ATOM     60  C   UNL A   1      48.129  31.418  26.987  1.00  0.00     0.173 A 
ATOM     61  C   UNL A   1      45.779  31.320  26.589  1.00  0.00     0.173 A 
ATOM     62  F   UNL A   1      49.310  30.874  27.315  1.00  0.00    -0.203 F 
ATOM     63  C   UNL A   1      48.095  32.804  26.801  1.00  0.00     0.198 A 
ATOM     64  C   UNL A   1      45.759  32.694  26.358  1.00  0.00     0.198 A 
ATOM     65  F   UNL A   1      44.580  30.732  26.569  1.00  0.00    -0.203 F 
ATOM     66  F   UNL A   1      49.205  33.528  26.992  1.00  0.00    -0.200 F 
ATOM     67  C   UNL A   1      46.908  33.441  26.498  1.00  0.00     0.200 A 
ATOM     68  F   UNL A   1      44.593  33.297  26.084  1.00  0.00    -0.200 F 
ATOM     69  F   UNL A   1      46.858  34.776  26.387  1.00  0.00    -0.200 F 
ENDBRANCH  45  59
BRANCH  46  70
ATOM     70  C   UNL A   1      38.960  28.468  29.372  1.00  0.00     0.064 A 
ATOM     71  C   UNL A   1      38.134  28.635  30.498  1.00  0.00     0.173 A 
ATOM     72  C   UNL A   1      38.464  28.966  28.153  1.00  0.00     0.173 A 
ATOM     73  F   UNL A   1      38.545  28.215  31.704  1.00  0.00    -0.203 F 
ATOM     74  C   UNL A   1      36.910  29.303  30.419  1.00  0.00     0.198 A 
ATOM     75  C   UNL A   1      37.237  29.627  28.074  1.00  0.00     0.198 A 
ATOM     76  F   UNL A   1      39.205  28.911  27.037  1.00  0.00    -0.203 F 
ATOM     77  F   UNL A   1      36.188  29.509  31.529  1.00  0.00    -0.200 F 
ATOM     78  C   UNL A   1      36.469  29.812  29.210  1.00  0.00     0.200 A 
ATOM     79  F   UNL A   1      36.835  30.144  26.904  1.00  0.00    -0.200 F 
ATOM     80  F   UNL A   1      35.330  30.516  29.145  1.00  0.00    -0.200 F 
ENDBRANCH  46  70
BRANCH  58  81
ATOM     81  C   UNL A   1      44.240  27.868  32.618  1.00  0.00     0.064 A 
ATOM     82  C   UNL A   1      44.063  26.480  32.515  1.00  0.00     0.173 A 
ATOM     83  C   UNL A   1      44.322  28.420  33.904  1.00  0.00     0.173 A 
ATOM     84  F   UNL A   1      44.061  25.869  31.322  1.00  0.00    -0.203 F 
ATOM     85  C   UNL A   1      43.916  25.690  33.653  1.00  0.00     0.198 A 
ATOM     86  C   UNL A   1      44.219  27.624  35.037  1.00  0.00     0.198 A 
ATOM     87  F   UNL A   1      44.535  29.737  34.058  1.00  0.00    -0.203 F 
ATOM     88  F   UNL A   1      43.713  24.369  33.534  1.00  0.00    -0.200 F 
ATOM     89  C   UNL A   1      44.000  26.262  34.912  1.00  0.00     0.200 A 
ATOM     90  F   UNL A   1      44.347  28.177  36.251  1.00  0.00    -0.200 F 
ATOM     91  F   UNL A   1      43.889  25.499  36.009  1.00  0.00    -0.200 F 
ENDBRANCH  58  81
ENDBRANCH  32  33
ENDBRANCH  25  27
ENDBRANCH  24  25
ENDBRANCH  23  24
ENDBRANCH   1  23
TORSDOF 14
ENDMDL
MODEL 2
REMARK VINA RESULT:     -12.0      1.931      3.276
REMARK SMILES Cn1cc(-c2ccn(Cc3ccc(C(=O)OCCOC(=O)c4ccc(-c5c6nc(c(-c7c(F)c(F)c(F)c(F)c7F)c7ccc([nH]7)c(-c7c(F)c(F)c(F)c(F)c7F)c7nc(c(-c8c(F)c(F)c(F)c(F)c8F)c8ccc5[nH]8)C=C7)C=C6)cc4)cc3)n2)cn1
REMARK SMILES IDX 17 1 16 2 14 3 15 4 13 5 10 6 11 7 86 8 12 9 85 10 9 11 8 12
REMARK SMILES IDX 5 13 6 14 87 15 7 16 4 17 1 18 2 19 3 20 89 21 88 22 18 23
REMARK SMILES IDX 19 24 20 25 21 26 22 27 23 28 84 29 24 30 83 31 25 32 26 33
REMARK SMILES IDX 27 34 77 35 28 36 82 37 76 38 78 39 29 40 81 41 75 42 74 43
REMARK SMILES IDX 30 45 62 46 42 47 61 48 43 49 46 50 60 51 79 52 44 53 45 54
REMARK SMILES IDX 59 56 80 57 47 58 31 59 32 60 40 61 33 62 34 63 38 64 41 65
REMARK SMILES IDX 35 66 36 67 39 68 37 69 63 70 64 71 72 72 65 73 66 74 70 75
REMARK SMILES IDX 73 76 67 77 68 78 71 79 69 80 48 81 49 82 57 83 50 84 51 85
REMARK SMILES IDX 55 86 58 87 52 88 53 89 56 90 54 91
REMARK H PARENT 78 44 46 55
REMARK Flexibility Score: inf
ROOT
ATOM      1  C   UNL A   1      41.946  19.523  26.359  1.00  0.00     0.275 C 
ENDROOT
BRANCH   1   2
ATOM      2  O   UNL A   1      41.398  20.803  26.012  1.00  0.00    -0.458 OA
BRANCH   2   3
ATOM      3  C   UNL A   1      40.495  21.316  26.885  1.00  0.00     0.338 C 
ATOM      4  O   UNL A   1      40.686  21.540  28.073  1.00  0.00    -0.246 OA
BRANCH   3   5
ATOM      5  C   UNL A   1      39.233  21.667  26.186  1.00  0.00     0.060 A 
ATOM      6  C   UNL A   1      36.783  22.376  25.000  1.00  0.00    -0.026 A 
ATOM      7  C   UNL A   1      37.476  23.299  25.794  1.00  0.00     0.006 A 
ATOM      8  C   UNL A   1      37.373  21.128  24.745  1.00  0.00     0.006 A 
ATOM      9  C   UNL A   1      38.694  22.946  26.382  1.00  0.00     0.016 A 
ATOM     10  C   UNL A   1      38.581  20.767  25.340  1.00  0.00     0.016 A 
BRANCH   6  11
ATOM     11  C   UNL A   1      35.414  22.701  24.445  1.00  0.00     0.179 C 
BRANCH  11  12
ATOM     12  N   UNL A   1      34.434  21.660  24.754  1.00  0.00    -0.268 N 
ATOM     13  C   UNL A   1      33.614  19.711  24.852  1.00  0.00     0.095 A 
ATOM     14  C   UNL A   1      32.631  20.573  25.378  1.00  0.00     0.050 A 
ATOM     15  N   UNL A   1      34.689  20.374  24.428  1.00  0.00    -0.172 NA
ATOM     16  C   UNL A   1      33.193  21.829  25.306  1.00  0.00     0.110 A 
BRANCH  13  17
ATOM     17  C   UNL A   1      33.505  18.271  24.762  1.00  0.00     0.040 A 
ATOM     18  C   UNL A   1      32.519  14.904  25.524  1.00  0.00     0.173 C 
ATOM     19  N   UNL A   1      33.040  16.159  25.038  1.00  0.00    -0.275 N 
ATOM     20  C   UNL A   1      32.880  17.388  25.610  1.00  0.00     0.118 A 
ATOM     21  N   UNL A   1      33.760  16.179  23.899  1.00  0.00    -0.181 NA
ATOM     22  C   UNL A   1      34.020  17.480  23.719  1.00  0.00     0.145 A 
ENDBRANCH  13  17
ENDBRANCH  11  12
ENDBRANCH   6  11
ENDBRANCH   3   5
ENDBRANCH   2   3
ENDBRANCH   1   2
BRANCH   1  23
ATOM     23  C   UNL A   1      43.334  19.339  25.761  1.00  0.00     0.275 C 
BRANCH  23  24
ATOM     24  O   UNL A   1      43.561  20.197  24.642  1.00  0.00    -0.458 OA
BRANCH  24  25
ATOM     25  C   UNL A   1      44.802  20.731  24.580  1.00  0.00     0.338 C 
ATOM     26  O   UNL A   1      45.852  20.156  24.354  1.00  0.00    -0.246 OA
BRANCH  25  27
ATOM     27  C   UNL A   1      44.758  22.109  25.076  1.00  0.00     0.060 A 
ATOM     28  C   UNL A   1      45.573  22.441  26.161  1.00  0.00     0.016 A 
ATOM     29  C   UNL A   1      43.739  22.964  24.632  1.00  0.00     0.016 A 
ATOM     30  C   UNL A   1      45.292  23.590  26.875  1.00  0.00     0.010 A 
ATOM     31  C   UNL A   1      43.451  24.102  25.351  1.00  0.00     0.010 A 
ATOM     32  C   UNL A   1      44.198  24.379  26.495  1.00  0.00    -0.014 A 
BRANCH  32  33
ATOM     33  C   UNL A   1      43.960  25.617  27.215  1.00  0.00     0.031 A 
ATOM     34  C   UNL A   1      44.985  26.650  26.921  1.00  0.00     0.074 A 
ATOM     35  C   UNL A   1      42.846  25.838  27.942  1.00  0.00     0.049 A 
ATOM     36  N   UNL A   1      45.779  27.234  27.752  1.00  0.00    -0.248 NA
ATOM     37  C   UNL A   1      45.264  26.965  25.507  1.00  0.00     0.031 C 
ATOM     38  C   UNL A   1      41.665  24.973  28.033  1.00  0.00     0.029 A 
ATOM     39  N   UNL A   1      42.480  26.935  28.665  1.00  0.00    -0.354 N 
ATOM     40  C   UNL A   1      46.529  28.131  26.992  1.00  0.00     0.074 A 
ATOM     41  C   UNL A   1      46.293  27.803  25.615  1.00  0.00     0.031 C 
ATOM     42  C   UNL A   1      40.641  25.671  28.574  1.00  0.00     0.029 A 
ATOM     43  C   UNL A   1      41.126  26.980  28.979  1.00  0.00     0.049 A 
ATOM     44  H   UNL A   1      43.117  27.634  28.940  1.00  0.00     0.167 HD
ATOM     45  C   UNL A   1      47.046  29.248  27.569  1.00  0.00     0.037 A 
ATOM     46  C   UNL A   1      40.445  28.036  29.489  1.00  0.00     0.037 A 
ATOM     47  C   UNL A   1      47.083  29.105  29.001  1.00  0.00     0.049 A 
ATOM     48  C   UNL A   1      41.432  28.970  30.074  1.00  0.00     0.074 A 
ATOM     49  C   UNL A   1      47.825  28.390  29.914  1.00  0.00     0.029 A 
ATOM     50  N   UNL A   1      45.941  29.516  29.634  1.00  0.00    -0.354 N 
ATOM     51  N   UNL A   1      42.102  28.725  31.164  1.00  0.00    -0.248 NA
ATOM     52  C   UNL A   1      41.936  30.074  29.266  1.00  0.00     0.031 C 
ATOM     53  C   UNL A   1      46.982  28.208  31.050  1.00  0.00     0.029 A 
ATOM     54  C   UNL A   1      45.766  28.847  30.811  1.00  0.00     0.049 A 
ATOM     55  H   UNL A   1      45.327  30.203  29.285  1.00  0.00     0.167 HD
ATOM     56  C   UNL A   1      43.328  29.322  30.948  1.00  0.00     0.074 A 
ATOM     57  C   UNL A   1      43.103  30.285  29.880  1.00  0.00     0.031 C 
ATOM     58  C   UNL A   1      44.465  28.741  31.428  1.00  0.00     0.037 A 
BRANCH  45  59
ATOM     59  C   UNL A   1      47.014  30.625  26.929  1.00  0.00     0.064 A 
ATOM     60  C   UNL A   1      48.181  31.419  26.986  1.00  0.00     0.173 A 
ATOM     61  C   UNL A   1      45.831  31.319  26.588  1.00  0.00     0.173 A 
ATOM     62  F   UNL A   1      49.364  30.874  27.307  1.00  0.00    -0.203 F 
ATOM     63  C   UNL A   1      48.144  32.806  26.815  1.00  0.00     0.198 A 
ATOM     64  C   UNL A   1      45.807  32.695  26.371  1.00  0.00     0.198 A 
ATOM     65  F   UNL A   1      44.633  30.728  26.563  1.00  0.00    -0.203 F 
ATOM     66  F   UNL A   1      49.252  33.532  27.011  1.00  0.00    -0.200 F 
ATOM     67  C   UNL A   1      46.955  33.444  26.519  1.00  0.00     0.200 A 
ATOM     68  F   UNL A   1      44.640  33.298  26.105  1.00  0.00    -0.200 F 
ATOM     69  F   UNL A   1      46.901  34.780  26.422  1.00  0.00    -0.200 F 
ENDBRANCH  45  59
BRANCH  46  70
ATOM     70  C   UNL A   1      39.021  28.419  29.345  1.00  0.00     0.064 A 
ATOM     71  C   UNL A   1      38.194  28.567  30.473  1.00  0.00     0.173 A 
ATOM     72  C   UNL A   1      38.524  28.935  28.134  1.00  0.00     0.173 A 
ATOM     73  F   UNL A   1      38.605  28.129  31.673  1.00  0.00    -0.203 F 
ATOM     74  C   UNL A   1      36.968  29.232  30.403  1.00  0.00     0.198 A 
ATOM     75  C   UNL A   1      37.295  29.594  28.064  1.00  0.00     0.198 A 
ATOM     76  F   UNL A   1      39.267  28.900  27.017  1.00  0.00    -0.203 F 
ATOM     77  F   UNL A   1      36.244  29.418  31.516  1.00  0.00    -0.200 F 
ATOM     78  C   UNL A   1      36.526  29.758  29.202  1.00  0.00     0.200 A 
ATOM     79  F   UNL A   1      36.893  30.128  26.902  1.00  0.00    -0.200 F 
ATOM     80  F   UNL A   1      35.385  30.460  29.148  1.00  0.00    -0.200 F 
ENDBRANCH  46  70
BRANCH  58  81
ATOM     81  C   UNL A   1      44.305  27.800  32.582  1.00  0.00     0.064 A 
ATOM     82  C   UNL A   1      44.107  26.415  32.463  1.00  0.00     0.173 A 
ATOM     83  C   UNL A   1      44.412  28.334  33.873  1.00  0.00     0.173 A 
ATOM     84  F   UNL A   1      44.080  25.820  31.262  1.00  0.00    -0.203 F 
ATOM     85  C   UNL A   1      43.965  25.613  33.593  1.00  0.00     0.198 A 
ATOM     86  C   UNL A   1      44.314  27.525  34.997  1.00  0.00     0.198 A 
ATOM     87  F   UNL A   1      44.645  29.646  34.040  1.00  0.00    -0.203 F 
ATOM     88  F   UNL A   1      43.742  24.297  33.460  1.00  0.00    -0.200 F 
ATOM     89  C   UNL A   1      44.075  26.168  34.858  1.00  0.00     0.200 A 
ATOM     90  F   UNL A   1      44.466  28.060  36.217  1.00  0.00    -0.200 F 
ATOM     91  F   UNL A   1      43.968  25.392  35.947  1.00  0.00    -0.200 F 
ENDBRANCH  58  81
ENDBRANCH  32  33
ENDBRANCH  25  27
ENDBRANCH  24  25
ENDBRANCH  23  24
ENDBRANCH   1  23
TORSDOF 14
ENDMDL
MODEL 3
REMARK VINA RESULT:     -11.7      4.818     10.751
REMARK SMILES Cn1cc(-c2ccn(Cc3ccc(C(=O)OCCOC(=O)c4ccc(-c5c6nc(c(-c7c(F)c(F)c(F)c(F)c7F)c7ccc([nH]7)c(-c7c(F)c(F)c(F)c(F)c7F)c7nc(c(-c8c(F)c(F)c(F)c(F)c8F)c8ccc5[nH]8)C=C7)C=C6)cc4)cc3)n2)cn1
REMARK SMILES IDX 17 1 16 2 14 3 15 4 13 5 10 6 11 7 86 8 12 9 85 10 9 11 8 12
REMARK SMILES IDX 5 13 6 14 87 15 7 16 4 17 1 18 2 19 3 20 89 21 88 22 18 23
REMARK SMILES IDX 19 24 20 25 21 26 22 27 23 28 84 29 24 30 83 31 25 32 26 33
REMARK SMILES IDX 27 34 77 35 28 36 82 37 76 38 78 39 29 40 81 41 75 42 74 43
REMARK SMILES IDX 30 45 62 46 42 47 61 48 43 49 46 50 60 51 79 52 44 53 45 54
REMARK SMILES IDX 59 56 80 57 47 58 31 59 32 60 40 61 33 62 34 63 38 64 41 65
REMARK SMILES IDX 35 66 36 67 39 68 37 69 63 70 64 71 72 72 65 73 66 74 70 75
REMARK SMILES IDX 73 76 67 77 68 78 71 79 69 80 48 81 49 82 57 83 50 84 51 85
REMARK SMILES IDX 55 86 58 87 52 88 53 89 56 90 54 91
REMARK H PARENT 78 44 46 55
REMARK Flexibility Score: inf
ROOT
ATOM      1  C   UNL A   1      33.431  35.780  28.993  1.00  0.00     0.275 C 
ENDROOT
BRANCH   1   2
ATOM      2  O   UNL A   1      32.707  35.190  30.082  1.00  0.00    -0.458 OA
BRANCH   2   3
ATOM      3  C   UNL A   1      32.967  35.700  31.312  1.00  0.00     0.338 C 
ATOM      4  O   UNL A   1      32.377  36.628  31.848  1.00  0.00    -0.246 OA
BRANCH   3   5
ATOM      5  C   UNL A   1      34.032  34.917  31.989  1.00  0.00     0.060 A 
ATOM      6  C   UNL A   1      35.942  33.325  33.304  1.00  0.00    -0.026 A 
ATOM      7  C   UNL A   1      35.152  32.780  32.283  1.00  0.00     0.006 A 
ATOM      8  C   UNL A   1      35.817  34.693  33.598  1.00  0.00     0.006 A 
ATOM      9  C   UNL A   1      34.204  33.573  31.630  1.00  0.00     0.016 A 
ATOM     10  C   UNL A   1      34.864  35.483  32.958  1.00  0.00     0.016 A 
BRANCH   6  11
ATOM     11  C   UNL A   1      36.896  32.458  34.096  1.00  0.00     0.179 C 
BRANCH  11  12
ATOM     12  N   UNL A   1      38.273  32.944  34.019  1.00  0.00    -0.268 N 
ATOM     13  C   UNL A   1      40.051  33.653  33.114  1.00  0.00     0.095 A 
ATOM     14  C   UNL A   1      40.332  33.545  34.490  1.00  0.00     0.050 A 
ATOM     15  N   UNL A   1      38.817  33.243  32.819  1.00  0.00    -0.172 NA
ATOM     16  C   UNL A   1      39.160  33.088  35.052  1.00  0.00     0.110 A 
BRANCH  13  17
ATOM     17  C   UNL A   1      40.966  34.143  32.106  1.00  0.00     0.040 A 
ATOM     18  C   UNL A   1      42.404  34.802  28.883  1.00  0.00     0.173 C 
ATOM     19  N   UNL A   1      42.015  34.657  30.265  1.00  0.00    -0.275 N 
ATOM     20  C   UNL A   1      40.962  33.934  30.748  1.00  0.00     0.118 A 
ATOM     21  N   UNL A   1      42.725  35.287  31.222  1.00  0.00    -0.181 NA
ATOM     22  C   UNL A   1      42.062  34.991  32.346  1.00  0.00     0.145 A 
ENDBRANCH  13  17
ENDBRANCH  11  12
ENDBRANCH   6  11
ENDBRANCH   3   5
ENDBRANCH   2   3
ENDBRANCH   1   2
BRANCH   1  23
ATOM     23  C   UNL A   1      33.813  34.734  27.956  1.00  0.00     0.275 C 
BRANCH  23  24
ATOM     24  O   UNL A   1      34.919  33.933  28.375  1.00  0.00    -0.458 OA
BRANCH  24  25
ATOM     25  C   UNL A   1      34.780  32.609  28.140  1.00  0.00     0.338 C 
ATOM     26  O   UNL A   1      33.809  32.028  27.687  1.00  0.00    -0.246 OA
BRANCH  25  27
ATOM     27  C   UNL A   1      35.906  31.892  28.744  1.00  0.00     0.060 A 
ATOM     28  C   UNL A   1      37.028  32.636  29.122  1.00  0.00     0.016 A 
ATOM     29  C   UNL A   1      35.935  30.491  28.690  1.00  0.00     0.016 A 
ATOM     30  C   UNL A   1      38.220  31.973  29.340  1.00  0.00     0.010 A 
ATOM     31  C   UNL A   1      37.127  29.833  28.894  1.00  0.00     0.010 A 
ATOM     32  C   UNL A   1      38.269  30.583  29.169  1.00  0.00    -0.014 A 
BRANCH  32  33
ATOM     33  C   UNL A   1      39.513  29.897  29.469  1.00  0.00     0.031 A 
ATOM     34  C   UNL A   1      39.818  29.884  30.922  1.00  0.00     0.074 A 
ATOM     35  C   UNL A   1      40.218  29.221  28.539  1.00  0.00     0.049 A 
ATOM     36  N   UNL A   1      40.854  30.371  31.516  1.00  0.00    -0.248 NA
ATOM     37  C   UNL A   1      38.772  29.403  31.843  1.00  0.00     0.031 C 
ATOM     38  C   UNL A   1      39.820  28.949  27.154  1.00  0.00     0.029 A 
ATOM     39  N   UNL A   1      41.389  28.532  28.663  1.00  0.00    -0.354 N 
ATOM     40  C   UNL A   1      40.681  30.088  32.870  1.00  0.00     0.074 A 
ATOM     41  C   UNL A   1      39.323  29.652  33.031  1.00  0.00     0.031 C 
ATOM     42  C   UNL A   1      40.611  27.978  26.644  1.00  0.00     0.029 A 
ATOM     43  C   UNL A   1      41.642  27.653  27.615  1.00  0.00     0.049 A 
ATOM     44  H   UNL A   1      42.000  28.646  29.426  1.00  0.00     0.167 HD
ATOM     45  C   UNL A   1      41.762  29.962  33.685  1.00  0.00     0.037 A 
ATOM     46  C   UNL A   1      42.599  26.693  27.574  1.00  0.00     0.037 A 
ATOM     47  C   UNL A   1      42.921  30.568  33.080  1.00  0.00     0.049 A 
ATOM     48  C   UNL A   1      43.608  27.016  28.606  1.00  0.00     0.074 A 
ATOM     49  C   UNL A   1      43.362  31.847  32.830  1.00  0.00     0.029 A 
ATOM     50  N   UNL A   1      43.641  29.722  32.281  1.00  0.00    -0.354 N 
ATOM     51  N   UNL A   1      44.439  28.015  28.519  1.00  0.00    -0.248 NA
ATOM     52  C   UNL A   1      43.491  26.415  29.930  1.00  0.00     0.031 C 
ATOM     53  C   UNL A   1      44.220  31.751  31.694  1.00  0.00     0.029 A 
ATOM     54  C   UNL A   1      44.306  30.414  31.310  1.00  0.00     0.049 A 
ATOM     55  H   UNL A   1      43.674  28.743  32.391  1.00  0.00     0.167 HD
ATOM     56  C   UNL A   1      44.594  28.441  29.822  1.00  0.00     0.074 A 
ATOM     57  C   UNL A   1      44.161  27.322  30.646  1.00  0.00     0.031 C 
ATOM     58  C   UNL A   1      44.744  29.769  30.094  1.00  0.00     0.037 A 
BRANCH  45  59
ATOM     59  C   UNL A   1      41.914  28.871  34.729  1.00  0.00     0.064 A 
ATOM     60  C   UNL A   1      42.731  29.126  35.853  1.00  0.00     0.173 A 
ATOM     61  C   UNL A   1      41.596  27.511  34.514  1.00  0.00     0.173 A 
ATOM     62  F   UNL A   1      43.108  30.377  36.155  1.00  0.00    -0.203 F 
ATOM     63  C   UNL A   1      43.265  28.094  36.631  1.00  0.00     0.198 A 
ATOM     64  C   UNL A   1      42.092  26.489  35.321  1.00  0.00     0.198 A 
ATOM     65  F   UNL A   1      40.894  27.096  33.455  1.00  0.00    -0.203 F 
ATOM     66  F   UNL A   1      44.143  28.379  37.602  1.00  0.00    -0.200 F 
ATOM     67  C   UNL A   1      42.954  26.777  36.358  1.00  0.00     0.200 A 
ATOM     68  F   UNL A   1      41.794  25.216  35.027  1.00  0.00    -0.200 F 
ATOM     69  F   UNL A   1      43.517  25.782  37.057  1.00  0.00    -0.200 F 
ENDBRANCH  45  59
BRANCH  46  70
ATOM     70  C   UNL A   1      42.629  25.398  26.854  1.00  0.00     0.064 A 
ATOM     71  C   UNL A   1      43.442  25.221  25.720  1.00  0.00     0.173 A 
ATOM     72  C   UNL A   1      42.097  24.231  27.431  1.00  0.00     0.173 A 
ATOM     73  F   UNL A   1      44.013  26.279  25.126  1.00  0.00    -0.203 F 
ATOM     74  C   UNL A   1      43.743  23.950  25.223  1.00  0.00     0.198 A 
ATOM     75  C   UNL A   1      42.393  22.962  26.929  1.00  0.00     0.198 A 
ATOM     76  F   UNL A   1      41.363  24.293  28.552  1.00  0.00    -0.203 F 
ATOM     77  F   UNL A   1      44.583  23.819  24.187  1.00  0.00    -0.200 F 
ATOM     78  C   UNL A   1      43.231  22.821  25.838  1.00  0.00     0.200 A 
ATOM     79  F   UNL A   1      41.917  21.874  27.552  1.00  0.00    -0.200 F 
ATOM     80  F   UNL A   1      43.577  21.599  25.409  1.00  0.00    -0.200 F 
ENDBRANCH  46  70
BRANCH  58  81
ATOM     81  C   UNL A   1      45.250  30.632  28.980  1.00  0.00     0.064 A 
ATOM     82  C   UNL A   1      44.435  31.290  28.045  1.00  0.00     0.173 A 
ATOM     83  C   UNL A   1      46.633  30.838  28.898  1.00  0.00     0.173 A 
ATOM     84  F   UNL A   1      43.099  31.211  28.114  1.00  0.00    -0.203 F 
ATOM     85  C   UNL A   1      44.992  32.073  27.036  1.00  0.00     0.198 A 
ATOM     86  C   UNL A   1      47.183  31.654  27.917  1.00  0.00     0.198 A 
ATOM     87  F   UNL A   1      47.452  30.266  29.795  1.00  0.00    -0.203 F 
ATOM     88  F   UNL A   1      44.200  32.668  26.131  1.00  0.00    -0.200 F 
ATOM     89  C   UNL A   1      46.365  32.259  26.978  1.00  0.00     0.200 A 
ATOM     90  F   UNL A   1      48.506  31.866  27.894  1.00  0.00    -0.200 F 
ATOM     91  F   UNL A   1      46.900  33.037  26.026  1.00  0.00    -0.200 F 
ENDBRANCH  58  81
ENDBRANCH  32  33
ENDBRANCH  25  27
ENDBRANCH  24  25
ENDBRANCH  23  24
ENDBRANCH   1  23
TORSDOF 14
ENDMDL
