MODEL 1
REMARK VINA RESULT:     -11.7      0.000      0.000
REMARK SMILES C[C@@]([NH3+])(C(=O)Nc1cc(C(=O)OCCOC(=O)c2ccc(-c3c4nc(c(-c5c(F)c(F)c(F)c(F)c5F)c5ccc([nH]5)c(-c5c(F)c(F)c(F)c(F)c5F)c5nc(c(-c6c(F)c(F)c(F)c(F)c6F)c6ccc3[nH]6)C=C5)C=C4)cc2)ccc1F)C(F)(F)F
REMARK SMILES IDX 13 1 12 2 10 3 11 4 9 5 7 6 8 7 83 8 82 9 84 10 81 11 6 12
REMARK SMILES IDX 4 13 5 14 2 16 1 17 3 18 85 22 86 23 87 24 88 25 14 26 15 27
REMARK SMILES IDX 16 28 17 29 18 30 19 31 80 32 20 33 79 34 21 35 22 36 23 37
REMARK SMILES IDX 73 38 24 39 78 40 72 41 74 42 25 43 77 44 71 45 70 46 26 48
REMARK SMILES IDX 58 49 38 50 57 51 39 52 42 53 56 54 75 55 40 56 41 57 55 59
REMARK SMILES IDX 76 60 43 61 27 62 28 63 36 64 29 65 30 66 34 67 37 68 31 69
REMARK SMILES IDX 32 70 35 71 33 72 59 73 60 74 68 75 61 76 62 77 66 78 69 79
REMARK SMILES IDX 63 80 64 81 67 82 65 83 44 84 45 85 53 86 46 87 47 88 51 89
REMARK SMILES IDX 54 90 48 91 49 92 52 93 50 94
REMARK H PARENT 6 15 3 19 3 20 3 21 74 47 42 58
REMARK Flexibility Score: inf
ROOT
ATOM      1  C   UNL A   1      31.541  28.866  24.321  1.00  0.00     0.275 C 
ENDROOT
BRANCH   1   2
ATOM      2  O   UNL A   1      32.839  28.252  24.202  1.00  0.00    -0.458 OA
BRANCH   2   3
ATOM      3  C   UNL A   1      32.989  27.343  23.210  1.00  0.00     0.338 C 
ATOM      4  O   UNL A   1      33.609  27.496  22.170  1.00  0.00    -0.246 OA
BRANCH   3   5
ATOM      5  C   UNL A   1      32.419  26.034  23.626  1.00  0.00     0.062 A 
ATOM      6  C   UNL A   1      32.402  24.248  25.264  1.00  0.00     0.078 A 
ATOM      7  C   UNL A   1      32.974  25.410  24.755  1.00  0.00     0.045 A 
ATOM      8  C   UNL A   1      31.278  23.705  24.640  1.00  0.00     0.146 A 
ATOM      9  C   UNL A   1      30.756  24.282  23.486  1.00  0.00     0.042 A 
ATOM     10  F   UNL A   1      30.683  22.618  25.151  1.00  0.00    -0.205 F 
ATOM     11  C   UNL A   1      31.320  25.455  22.979  1.00  0.00     0.019 A 
BRANCH   6  12
ATOM     12  N   UNL A   1      32.856  23.754  26.490  1.00  0.00    -0.318 N 
ATOM     13  C   UNL A   1      33.807  22.799  26.741  1.00  0.00     0.295 C 
ATOM     14  O   UNL A   1      34.019  22.551  27.932  1.00  0.00    -0.267 OA
ATOM     15  H   UNL A   1      32.431  24.146  27.287  1.00  0.00     0.170 HD
BRANCH  13  16
ATOM     16  C   UNL A   1      34.614  22.130  25.603  1.00  0.00     0.267 C 
ATOM     17  C   UNL A   1      34.936  23.109  24.467  1.00  0.00     0.100 C 
BRANCH  16  18
ATOM     18  N   UNL A   1      35.913  21.597  26.164  1.00  0.00    -0.337 N 
ATOM     19  H   UNL A   1      36.399  21.060  25.445  1.00  0.00     0.345 HD
ATOM     20  H   UNL A   1      35.716  20.995  26.964  1.00  0.00     0.345 HD
ATOM     21  H   UNL A   1      36.500  22.376  26.461  1.00  0.00     0.345 HD
ENDBRANCH  16  18
BRANCH  16  22
ATOM     22  C   UNL A   1      33.707  21.010  25.020  1.00  0.00     0.453 C 
ATOM     23  F   UNL A   1      32.618  20.755  25.773  1.00  0.00    -0.164 F 
ATOM     24  F   UNL A   1      33.252  21.393  23.792  1.00  0.00    -0.164 F 
ATOM     25  F   UNL A   1      34.385  19.857  24.816  1.00  0.00    -0.164 F 
ENDBRANCH  16  22
ENDBRANCH  13  16
ENDBRANCH   6  12
ENDBRANCH   3   5
ENDBRANCH   2   3
ENDBRANCH   1   2
BRANCH   1  26
ATOM     26  C   UNL A   1      31.581  29.993  25.353  1.00  0.00     0.275 C 
BRANCH  26  27
ATOM     27  O   UNL A   1      32.927  30.177  25.835  1.00  0.00    -0.458 OA
BRANCH  27  28
ATOM     28  C   UNL A   1      33.090  31.119  26.791  1.00  0.00     0.338 C 
ATOM     29  O   UNL A   1      32.319  32.002  27.117  1.00  0.00    -0.246 OA
BRANCH  28  30
ATOM     30  C   UNL A   1      34.365  30.879  27.483  1.00  0.00     0.060 A 
ATOM     31  C   UNL A   1      34.704  29.567  27.798  1.00  0.00     0.016 A 
ATOM     32  C   UNL A   1      35.167  31.934  27.911  1.00  0.00     0.016 A 
ATOM     33  C   UNL A   1      35.815  29.297  28.590  1.00  0.00     0.010 A 
ATOM     34  C   UNL A   1      36.332  31.657  28.640  1.00  0.00     0.010 A 
ATOM     35  C   UNL A   1      36.660  30.337  29.003  1.00  0.00    -0.014 A 
BRANCH  35  36
ATOM     36  C   UNL A   1      37.877  30.036  29.806  1.00  0.00     0.031 A 
ATOM     37  C   UNL A   1      38.981  29.190  29.233  1.00  0.00     0.074 A 
ATOM     38  C   UNL A   1      38.007  30.541  31.049  1.00  0.00     0.049 A 
ATOM     39  N   UNL A   1      40.042  28.701  29.824  1.00  0.00    -0.248 NA
ATOM     40  C   UNL A   1      38.877  28.845  27.807  1.00  0.00     0.031 C 
ATOM     41  C   UNL A   1      37.042  31.421  31.707  1.00  0.00     0.029 A 
ATOM     42  N   UNL A   1      39.010  30.399  31.978  1.00  0.00    -0.354 N 
ATOM     43  C   UNL A   1      40.708  27.959  28.858  1.00  0.00     0.074 A 
ATOM     44  C   UNL A   1      39.929  28.054  27.642  1.00  0.00     0.031 C 
ATOM     45  C   UNL A   1      37.517  31.777  32.909  1.00  0.00     0.029 A 
ATOM     46  C   UNL A   1      38.776  31.079  33.148  1.00  0.00     0.049 A 
ATOM     47  H   UNL A   1      39.819  29.860  31.819  1.00  0.00     0.167 HD
ATOM     48  C   UNL A   1      41.865  27.265  28.978  1.00  0.00     0.037 A 
ATOM     49  C   UNL A   1      39.471  31.108  34.303  1.00  0.00     0.037 A 
ATOM     50  C   UNL A   1      42.660  27.210  30.178  1.00  0.00     0.049 A 
ATOM     51  C   UNL A   1      40.712  30.275  34.435  1.00  0.00     0.074 A 
ATOM     52  C   UNL A   1      43.856  26.545  30.389  1.00  0.00     0.029 A 
ATOM     53  N   UNL A   1      42.347  27.855  31.366  1.00  0.00    -0.354 N 
ATOM     54  N   UNL A   1      41.300  29.524  33.536  1.00  0.00    -0.248 NA
ATOM     55  C   UNL A   1      41.371  30.266  35.749  1.00  0.00     0.031 C 
ATOM     56  C   UNL A   1      44.244  26.753  31.717  1.00  0.00     0.029 A 
ATOM     57  C   UNL A   1      43.314  27.583  32.321  1.00  0.00     0.049 A 
ATOM     58  H   UNL A   1      41.555  28.424  31.509  1.00  0.00     0.167 HD
ATOM     59  C   UNL A   1      42.394  28.954  34.171  1.00  0.00     0.074 A 
ATOM     60  C   UNL A   1      42.402  29.461  35.528  1.00  0.00     0.031 C 
ATOM     61  C   UNL A   1      43.304  28.085  33.671  1.00  0.00     0.037 A 
BRANCH  48  62
ATOM     62  C   UNL A   1      42.337  26.477  27.791  1.00  0.00     0.064 A 
ATOM     63  C   UNL A   1      41.851  25.180  27.568  1.00  0.00     0.173 A 
ATOM     64  C   UNL A   1      43.313  26.972  26.914  1.00  0.00     0.173 A 
ATOM     65  F   UNL A   1      40.922  24.656  28.382  1.00  0.00    -0.203 F 
ATOM     66  C   UNL A   1      42.331  24.404  26.517  1.00  0.00     0.198 A 
ATOM     67  C   UNL A   1      43.773  26.203  25.847  1.00  0.00     0.198 A 
ATOM     68  F   UNL A   1      43.802  28.211  27.078  1.00  0.00    -0.203 F 
ATOM     69  F   UNL A   1      41.872  23.158  26.341  1.00  0.00    -0.200 F 
ATOM     70  C   UNL A   1      43.289  24.917  25.655  1.00  0.00     0.200 A 
ATOM     71  F   UNL A   1      44.680  26.708  25.001  1.00  0.00    -0.200 F 
ATOM     72  F   UNL A   1      43.741  24.175  24.635  1.00  0.00    -0.200 F 
ENDBRANCH  48  62
BRANCH  49  73
ATOM     73  C   UNL A   1      38.971  31.936  35.432  1.00  0.00     0.064 A 
ATOM     74  C   UNL A   1      39.298  33.297  35.539  1.00  0.00     0.173 A 
ATOM     75  C   UNL A   1      38.201  31.367  36.454  1.00  0.00     0.173 A 
ATOM     76  F   UNL A   1      40.029  33.889  34.584  1.00  0.00    -0.203 F 
ATOM     77  C   UNL A   1      38.908  34.045  36.646  1.00  0.00     0.198 A 
ATOM     78  C   UNL A   1      37.787  32.125  37.548  1.00  0.00     0.198 A 
ATOM     79  F   UNL A   1      37.839  30.078  36.381  1.00  0.00    -0.203 F 
ATOM     80  F   UNL A   1      39.277  35.330  36.747  1.00  0.00    -0.200 F 
ATOM     81  C   UNL A   1      38.152  33.460  37.649  1.00  0.00     0.200 A 
ATOM     82  F   UNL A   1      37.036  31.562  38.504  1.00  0.00    -0.200 F 
ATOM     83  F   UNL A   1      37.776  34.180  38.714  1.00  0.00    -0.200 F 
ENDBRANCH  49  73
BRANCH  61  84
ATOM     84  C   UNL A   1      44.391  27.613  34.591  1.00  0.00     0.064 A 
ATOM     85  C   UNL A   1      45.606  28.308  34.675  1.00  0.00     0.173 A 
ATOM     86  C   UNL A   1      44.256  26.428  35.327  1.00  0.00     0.173 A 
ATOM     87  F   UNL A   1      45.784  29.444  33.984  1.00  0.00    -0.203 F 
ATOM     88  C   UNL A   1      46.656  27.822  35.448  1.00  0.00     0.198 A 
ATOM     89  C   UNL A   1      45.301  25.956  36.118  1.00  0.00     0.198 A 
ATOM     90  F   UNL A   1      43.107  25.737  35.290  1.00  0.00    -0.203 F 
ATOM     91  F   UNL A   1      47.822  28.483  35.487  1.00  0.00    -0.200 F 
ATOM     92  C   UNL A   1      46.502  26.647  36.169  1.00  0.00     0.200 A 
ATOM     93  F   UNL A   1      45.143  24.833  36.831  1.00  0.00    -0.200 F 
ATOM     94  F   UNL A   1      47.513  26.181  36.917  1.00  0.00    -0.200 F 
ENDBRANCH  61  84
ENDBRANCH  35  36
ENDBRANCH  28  30
ENDBRANCH  27  28
ENDBRANCH  26  27
ENDBRANCH   1  26
TORSDOF 15
ENDMDL
MODEL 2
REMARK VINA RESULT:     -11.7      1.197      1.413
REMARK SMILES C[C@@]([NH3+])(C(=O)Nc1cc(C(=O)OCCOC(=O)c2ccc(-c3c4nc(c(-c5c(F)c(F)c(F)c(F)c5F)c5ccc([nH]5)c(-c5c(F)c(F)c(F)c(F)c5F)c5nc(c(-c6c(F)c(F)c(F)c(F)c6F)c6ccc3[nH]6)C=C5)C=C4)cc2)ccc1F)C(F)(F)F
REMARK SMILES IDX 13 1 12 2 10 3 11 4 9 5 7 6 8 7 83 8 82 9 84 10 81 11 6 12
REMARK SMILES IDX 4 13 5 14 2 16 1 17 3 18 85 22 86 23 87 24 88 25 14 26 15 27
REMARK SMILES IDX 16 28 17 29 18 30 19 31 80 32 20 33 79 34 21 35 22 36 23 37
REMARK SMILES IDX 73 38 24 39 78 40 72 41 74 42 25 43 77 44 71 45 70 46 26 48
REMARK SMILES IDX 58 49 38 50 57 51 39 52 42 53 56 54 75 55 40 56 41 57 55 59
REMARK SMILES IDX 76 60 43 61 27 62 28 63 36 64 29 65 30 66 34 67 37 68 31 69
REMARK SMILES IDX 32 70 35 71 33 72 59 73 60 74 68 75 61 76 62 77 66 78 69 79
REMARK SMILES IDX 63 80 64 81 67 82 65 83 44 84 45 85 53 86 46 87 47 88 51 89
REMARK SMILES IDX 54 90 48 91 49 92 52 93 50 94
REMARK H PARENT 6 15 3 19 3 20 3 21 74 47 42 58
REMARK Flexibility Score: inf
ROOT
ATOM      1  C   UNL A   1      31.314  28.997  24.810  1.00  0.00     0.275 C 
ENDROOT
BRANCH   1   2
ATOM      2  O   UNL A   1      32.095  27.926  25.376  1.00  0.00    -0.458 OA
BRANCH   2   3
ATOM      3  C   UNL A   1      31.404  26.899  25.926  1.00  0.00     0.338 C 
ATOM      4  O   UNL A   1      30.709  26.944  26.929  1.00  0.00    -0.246 OA
BRANCH   3   5
ATOM      5  C   UNL A   1      31.467  25.708  25.040  1.00  0.00     0.062 A 
ATOM      6  C   UNL A   1      32.249  23.434  24.736  1.00  0.00     0.078 A 
ATOM      7  C   UNL A   1      32.251  24.622  25.460  1.00  0.00     0.045 A 
ATOM      8  C   UNL A   1      31.467  23.332  23.585  1.00  0.00     0.146 A 
ATOM      9  C   UNL A   1      30.731  24.422  23.126  1.00  0.00     0.042 A 
ATOM     10  F   UNL A   1      31.410  22.177  22.908  1.00  0.00    -0.205 F 
ATOM     11  C   UNL A   1      30.722  25.611  23.857  1.00  0.00     0.019 A 
BRANCH   6  12
ATOM     12  N   UNL A   1      32.888  22.313  25.275  1.00  0.00    -0.318 N 
ATOM     13  C   UNL A   1      34.198  21.927  25.166  1.00  0.00     0.295 C 
ATOM     14  O   UNL A   1      34.501  20.883  25.751  1.00  0.00    -0.267 OA
ATOM     15  H   UNL A   1      32.315  21.716  25.808  1.00  0.00     0.170 HD
BRANCH  13  16
ATOM     16  C   UNL A   1      35.244  22.786  24.416  1.00  0.00     0.267 C 
ATOM     17  C   UNL A   1      36.519  21.997  24.093  1.00  0.00     0.100 C 
BRANCH  16  18
ATOM     18  N   UNL A   1      34.641  23.281  23.121  1.00  0.00    -0.337 N 
ATOM     19  H   UNL A   1      34.759  24.293  23.055  1.00  0.00     0.345 HD
ATOM     20  H   UNL A   1      33.647  23.053  23.099  1.00  0.00     0.345 HD
ATOM     21  H   UNL A   1      35.110  22.833  22.334  1.00  0.00     0.345 HD
ENDBRANCH  16  18
BRANCH  16  22
ATOM     22  C   UNL A   1      35.634  23.944  25.378  1.00  0.00     0.453 C 
ATOM     23  F   UNL A   1      35.254  23.732  26.654  1.00  0.00    -0.164 F 
ATOM     24  F   UNL A   1      36.992  24.078  25.392  1.00  0.00    -0.164 F 
ATOM     25  F   UNL A   1      35.152  25.138  24.964  1.00  0.00    -0.164 F 
ENDBRANCH  16  22
ENDBRANCH  13  16
ENDBRANCH   6  12
ENDBRANCH   3   5
ENDBRANCH   2   3
ENDBRANCH   1   2
BRANCH   1  26
ATOM     26  C   UNL A   1      31.519  30.281  25.612  1.00  0.00     0.275 C 
BRANCH  26  27
ATOM     27  O   UNL A   1      32.879  30.361  26.083  1.00  0.00    -0.458 OA
BRANCH  27  28
ATOM     28  C   UNL A   1      33.151  31.369  26.943  1.00  0.00     0.338 C 
ATOM     29  O   UNL A   1      32.466  32.341  27.203  1.00  0.00    -0.246 OA
BRANCH  28  30
ATOM     30  C   UNL A   1      34.422  31.084  27.623  1.00  0.00     0.060 A 
ATOM     31  C   UNL A   1      34.696  29.767  27.981  1.00  0.00     0.016 A 
ATOM     32  C   UNL A   1      35.287  32.108  28.001  1.00  0.00     0.016 A 
ATOM     33  C   UNL A   1      35.804  29.465  28.765  1.00  0.00     0.010 A 
ATOM     34  C   UNL A   1      36.448  31.795  28.722  1.00  0.00     0.010 A 
ATOM     35  C   UNL A   1      36.710  30.472  29.127  1.00  0.00    -0.014 A 
BRANCH  35  36
ATOM     36  C   UNL A   1      37.923  30.134  29.922  1.00  0.00     0.031 A 
ATOM     37  C   UNL A   1      39.011  29.280  29.330  1.00  0.00     0.074 A 
ATOM     38  C   UNL A   1      38.065  30.612  31.174  1.00  0.00     0.049 A 
ATOM     39  N   UNL A   1      40.064  28.760  29.910  1.00  0.00    -0.248 NA
ATOM     40  C   UNL A   1      38.899  28.964  27.899  1.00  0.00     0.031 C 
ATOM     41  C   UNL A   1      37.116  31.496  31.851  1.00  0.00     0.029 A 
ATOM     42  N   UNL A   1      39.066  30.434  32.098  1.00  0.00    -0.354 N 
ATOM     43  C   UNL A   1      40.715  28.026  28.929  1.00  0.00     0.074 A 
ATOM     44  C   UNL A   1      39.936  28.158  27.716  1.00  0.00     0.031 C 
ATOM     45  C   UNL A   1      37.599  31.820  33.059  1.00  0.00     0.029 A 
ATOM     46  C   UNL A   1      38.846  31.095  33.281  1.00  0.00     0.049 A 
ATOM     47  H   UNL A   1      39.865  29.884  31.928  1.00  0.00     0.167 HD
ATOM     48  C   UNL A   1      41.860  27.309  29.033  1.00  0.00     0.037 A 
ATOM     49  C   UNL A   1      39.543  31.089  34.436  1.00  0.00     0.037 A 
ATOM     50  C   UNL A   1      42.656  27.217  30.230  1.00  0.00     0.049 A 
ATOM     51  C   UNL A   1      40.769  30.231  34.549  1.00  0.00     0.074 A 
ATOM     52  C   UNL A   1      43.840  26.527  30.426  1.00  0.00     0.029 A 
ATOM     53  N   UNL A   1      42.356  27.844  31.431  1.00  0.00    -0.354 N 
ATOM     54  N   UNL A   1      41.342  29.488  33.635  1.00  0.00    -0.248 NA
ATOM     55  C   UNL A   1      41.429  30.185  35.862  1.00  0.00     0.031 C 
ATOM     56  C   UNL A   1      44.233  26.701  31.757  1.00  0.00     0.029 A 
ATOM     57  C   UNL A   1      43.320  27.536  32.378  1.00  0.00     0.049 A 
ATOM     58  H   UNL A   1      41.575  28.423  31.586  1.00  0.00     0.167 HD
ATOM     59  C   UNL A   1      42.427  28.887  34.256  1.00  0.00     0.074 A 
ATOM     60  C   UNL A   1      42.446  29.367  35.623  1.00  0.00     0.031 C 
ATOM     61  C   UNL A   1      43.321  28.011  33.738  1.00  0.00     0.037 A 
BRANCH  48  62
ATOM     62  C   UNL A   1      42.316  26.536  27.830  1.00  0.00     0.064 A 
ATOM     63  C   UNL A   1      41.835  25.238  27.602  1.00  0.00     0.173 A 
ATOM     64  C   UNL A   1      43.273  27.046  26.941  1.00  0.00     0.173 A 
ATOM     65  F   UNL A   1      40.924  24.700  28.427  1.00  0.00    -0.203 F 
ATOM     66  C   UNL A   1      42.301  24.476  26.535  1.00  0.00     0.198 A 
ATOM     67  C   UNL A   1      43.719  26.291  25.859  1.00  0.00     0.198 A 
ATOM     68  F   UNL A   1      43.757  28.287  27.108  1.00  0.00    -0.203 F 
ATOM     69  F   UNL A   1      41.848  23.228  26.354  1.00  0.00    -0.200 F 
ATOM     70  C   UNL A   1      43.240  25.004  25.661  1.00  0.00     0.200 A 
ATOM     71  F   UNL A   1      44.609  26.811  25.001  1.00  0.00    -0.200 F 
ATOM     72  F   UNL A   1      43.679  24.275  24.627  1.00  0.00    -0.200 F 
ENDBRANCH  48  62
BRANCH  49  73
ATOM     73  C   UNL A   1      39.060  31.903  35.581  1.00  0.00     0.064 A 
ATOM     74  C   UNL A   1      39.458  33.240  35.746  1.00  0.00     0.173 A 
ATOM     75  C   UNL A   1      38.232  31.343  36.563  1.00  0.00     0.173 A 
ATOM     76  F   UNL A   1      40.246  33.822  34.832  1.00  0.00    -0.203 F 
ATOM     77  C   UNL A   1      39.080  33.969  36.870  1.00  0.00     0.198 A 
ATOM     78  C   UNL A   1      37.832  32.084  37.673  1.00  0.00     0.198 A 
ATOM     79  F   UNL A   1      37.802  30.080  36.434  1.00  0.00    -0.203 F 
ATOM     80  F   UNL A   1      39.517  35.227  37.027  1.00  0.00    -0.200 F 
ATOM     81  C   UNL A   1      38.267  33.392  37.832  1.00  0.00     0.200 A 
ATOM     82  F   UNL A   1      37.026  31.531  38.589  1.00  0.00    -0.200 F 
ATOM     83  F   UNL A   1      37.903  34.094  38.913  1.00  0.00    -0.200 F 
ENDBRANCH  49  73
BRANCH  61  84
ATOM     84  C   UNL A   1      44.400  27.502  34.647  1.00  0.00     0.064 A 
ATOM     85  C   UNL A   1      45.624  28.179  34.750  1.00  0.00     0.173 A 
ATOM     86  C   UNL A   1      44.249  26.300  35.352  1.00  0.00     0.173 A 
ATOM     87  F   UNL A   1      45.817  29.331  34.089  1.00  0.00    -0.203 F 
ATOM     88  C   UNL A   1      46.666  27.660  35.511  1.00  0.00     0.198 A 
ATOM     89  C   UNL A   1      45.287  25.795  36.131  1.00  0.00     0.198 A 
ATOM     90  F   UNL A   1      43.092  25.625  35.296  1.00  0.00    -0.203 F 
ATOM     91  F   UNL A   1      47.840  28.306  35.568  1.00  0.00    -0.200 F 
ATOM     92  C   UNL A   1      46.497  26.469  36.202  1.00  0.00     0.200 A 
ATOM     93  F   UNL A   1      45.115  24.656  36.815  1.00  0.00    -0.200 F 
ATOM     94  F   UNL A   1      47.501  25.972  36.938  1.00  0.00    -0.200 F 
ENDBRANCH  61  84
ENDBRANCH  35  36
ENDBRANCH  28  30
ENDBRANCH  27  28
ENDBRANCH  26  27
ENDBRANCH   1  26
TORSDOF 15
ENDMDL
MODEL 3
REMARK VINA RESULT:     -11.7      1.131      1.912
REMARK SMILES C[C@@]([NH3+])(C(=O)Nc1cc(C(=O)OCCOC(=O)c2ccc(-c3c4nc(c(-c5c(F)c(F)c(F)c(F)c5F)c5ccc([nH]5)c(-c5c(F)c(F)c(F)c(F)c5F)c5nc(c(-c6c(F)c(F)c(F)c(F)c6F)c6ccc3[nH]6)C=C5)C=C4)cc2)ccc1F)C(F)(F)F
REMARK SMILES IDX 13 1 12 2 10 3 11 4 9 5 7 6 8 7 83 8 82 9 84 10 81 11 6 12
REMARK SMILES IDX 4 13 5 14 2 16 1 17 3 18 85 22 86 23 87 24 88 25 14 26 15 27
REMARK SMILES IDX 16 28 17 29 18 30 19 31 80 32 20 33 79 34 21 35 22 36 23 37
REMARK SMILES IDX 73 38 24 39 78 40 72 41 74 42 25 43 77 44 71 45 70 46 26 48
REMARK SMILES IDX 58 49 38 50 57 51 39 52 42 53 56 54 75 55 40 56 41 57 55 59
REMARK SMILES IDX 76 60 43 61 27 62 28 63 36 64 29 65 30 66 34 67 37 68 31 69
REMARK SMILES IDX 32 70 35 71 33 72 59 73 60 74 68 75 61 76 62 77 66 78 69 79
REMARK SMILES IDX 63 80 64 81 67 82 65 83 44 84 45 85 53 86 46 87 47 88 51 89
REMARK SMILES IDX 54 90 48 91 49 92 52 93 50 94
REMARK H PARENT 6 15 3 19 3 20 3 21 74 47 42 58
REMARK Flexibility Score: inf
ROOT
ATOM      1  C   UNL A   1      31.401  28.487  25.244  1.00  0.00     0.275 C 
ENDROOT
BRANCH   1   2
ATOM      2  O   UNL A   1      30.816  28.224  23.953  1.00  0.00    -0.458 OA
BRANCH   2   3
ATOM      3  C   UNL A   1      30.216  27.021  23.797  1.00  0.00     0.338 C 
ATOM      4  O   UNL A   1      29.019  26.790  23.867  1.00  0.00    -0.246 OA
BRANCH   3   5
ATOM      5  C   UNL A   1      31.209  26.007  23.355  1.00  0.00     0.062 A 
ATOM      6  C   UNL A   1      31.927  23.693  23.424  1.00  0.00     0.078 A 
ATOM      7  C   UNL A   1      31.106  24.714  23.892  1.00  0.00     0.045 A 
ATOM      8  C   UNL A   1      32.859  23.967  22.422  1.00  0.00     0.146 A 
ATOM      9  C   UNL A   1      33.012  25.259  21.925  1.00  0.00     0.042 A 
ATOM     10  F   UNL A   1      33.619  22.983  21.922  1.00  0.00    -0.205 F 
ATOM     11  C   UNL A   1      32.180  26.282  22.384  1.00  0.00     0.019 A 
BRANCH   6  12
ATOM     12  N   UNL A   1      31.677  22.382  23.838  1.00  0.00    -0.318 N 
ATOM     13  C   UNL A   1      32.226  21.685  24.883  1.00  0.00     0.295 C 
ATOM     14  O   UNL A   1      31.820  20.528  25.028  1.00  0.00    -0.267 OA
ATOM     15  H   UNL A   1      31.014  21.889  23.303  1.00  0.00     0.170 HD
BRANCH  13  16
ATOM     16  C   UNL A   1      33.236  22.333  25.858  1.00  0.00     0.267 C 
ATOM     17  C   UNL A   1      34.023  21.288  26.659  1.00  0.00     0.100 C 
BRANCH  16  18
ATOM     18  N   UNL A   1      34.215  23.175  25.070  1.00  0.00    -0.337 N 
ATOM     19  H   UNL A   1      33.995  23.110  24.076  1.00  0.00     0.345 HD
ATOM     20  H   UNL A   1      35.163  22.834  25.231  1.00  0.00     0.345 HD
ATOM     21  H   UNL A   1      34.147  24.146  25.371  1.00  0.00     0.345 HD
ENDBRANCH  16  18
BRANCH  16  22
ATOM     22  C   UNL A   1      32.400  23.172  26.866  1.00  0.00     0.453 C 
ATOM     23  F   UNL A   1      31.084  22.877  26.846  1.00  0.00    -0.164 F 
ATOM     24  F   UNL A   1      32.838  22.919  28.133  1.00  0.00    -0.164 F 
ATOM     25  F   UNL A   1      32.559  24.502  26.681  1.00  0.00    -0.164 F 
ENDBRANCH  16  22
ENDBRANCH  13  16
ENDBRANCH   6  12
ENDBRANCH   3   5
ENDBRANCH   2   3
ENDBRANCH   1   2
BRANCH   1  26
ATOM     26  C   UNL A   1      31.575  29.992  25.450  1.00  0.00     0.275 C 
BRANCH  26  27
ATOM     27  O   UNL A   1      32.935  30.288  25.822  1.00  0.00    -0.458 OA
BRANCH  27  28
ATOM     28  C   UNL A   1      33.096  31.219  26.790  1.00  0.00     0.338 C 
ATOM     29  O   UNL A   1      32.314  32.085  27.138  1.00  0.00    -0.246 OA
BRANCH  28  30
ATOM     30  C   UNL A   1      34.382  30.991  27.462  1.00  0.00     0.060 A 
ATOM     31  C   UNL A   1      34.742  29.680  27.763  1.00  0.00     0.016 A 
ATOM     32  C   UNL A   1      35.176  32.052  27.888  1.00  0.00     0.016 A 
ATOM     33  C   UNL A   1      35.868  29.418  28.538  1.00  0.00     0.010 A 
ATOM     34  C   UNL A   1      36.355  31.785  28.599  1.00  0.00     0.010 A 
ATOM     35  C   UNL A   1      36.704  30.466  28.946  1.00  0.00    -0.014 A 
BRANCH  35  36
ATOM     36  C   UNL A   1      37.936  30.175  29.731  1.00  0.00     0.031 A 
ATOM     37  C   UNL A   1      39.034  29.332  29.143  1.00  0.00     0.074 A 
ATOM     38  C   UNL A   1      38.085  30.687  30.969  1.00  0.00     0.049 A 
ATOM     39  N   UNL A   1      40.107  28.850  29.720  1.00  0.00    -0.248 NA
ATOM     40  C   UNL A   1      38.908  28.978  27.722  1.00  0.00     0.031 C 
ATOM     41  C   UNL A   1      37.126  31.566  31.639  1.00  0.00     0.029 A 
ATOM     42  N   UNL A   1      39.103  30.554  31.881  1.00  0.00    -0.354 N 
ATOM     43  C   UNL A   1      40.760  28.106  28.746  1.00  0.00     0.074 A 
ATOM     44  C   UNL A   1      39.961  28.191  27.543  1.00  0.00     0.031 C 
ATOM     45  C   UNL A   1      37.620  31.930  32.831  1.00  0.00     0.029 A 
ATOM     46  C   UNL A   1      38.886  31.239  33.052  1.00  0.00     0.049 A 
ATOM     47  H   UNL A   1      39.912  30.018  31.712  1.00  0.00     0.167 HD
ATOM     48  C   UNL A   1      41.923  27.418  28.850  1.00  0.00     0.037 A 
ATOM     49  C   UNL A   1      39.600  31.277  34.195  1.00  0.00     0.037 A 
ATOM     50  C   UNL A   1      42.738  27.373  30.037  1.00  0.00     0.049 A 
ATOM     51  C   UNL A   1      40.847  30.450  34.310  1.00  0.00     0.074 A 
ATOM     52  C   UNL A   1      43.940  26.714  30.231  1.00  0.00     0.029 A 
ATOM     53  N   UNL A   1      42.442  28.022  31.227  1.00  0.00    -0.354 N 
ATOM     54  N   UNL A   1      41.423  29.697  33.406  1.00  0.00    -0.248 NA
ATOM     55  C   UNL A   1      41.527  30.450  35.613  1.00  0.00     0.031 C 
ATOM     56  C   UNL A   1      44.349  26.930  31.551  1.00  0.00     0.029 A 
ATOM     57  C   UNL A   1      43.426  27.759  32.167  1.00  0.00     0.049 A 
ATOM     58  H   UNL A   1      41.650  28.588  31.380  1.00  0.00     0.167 HD
ATOM     59  C   UNL A   1      42.530  29.136  34.025  1.00  0.00     0.074 A 
ATOM     60  C   UNL A   1      42.559  29.649  35.379  1.00  0.00     0.031 C 
ATOM     61  C   UNL A   1      43.436  28.268  33.514  1.00  0.00     0.037 A 
BRANCH  48  62
ATOM     62  C   UNL A   1      42.378  26.626  27.659  1.00  0.00     0.064 A 
ATOM     63  C   UNL A   1      41.918  25.315  27.467  1.00  0.00     0.173 A 
ATOM     64  C   UNL A   1      43.316  27.133  26.748  1.00  0.00     0.173 A 
ATOM     65  F   UNL A   1      41.026  24.780  28.314  1.00  0.00    -0.203 F 
ATOM     66  C   UNL A   1      42.385  24.537  26.411  1.00  0.00     0.198 A 
ATOM     67  C   UNL A   1      43.763  26.361  25.677  1.00  0.00     0.198 A 
ATOM     68  F   UNL A   1      43.779  28.385  26.882  1.00  0.00    -0.203 F 
ATOM     69  F   UNL A   1      41.951  23.278  26.264  1.00  0.00    -0.200 F 
ATOM     70  C   UNL A   1      43.304  25.062  25.515  1.00  0.00     0.200 A 
ATOM     71  F   UNL A   1      44.632  26.877  24.798  1.00  0.00    -0.200 F 
ATOM     72  F   UNL A   1      43.744  24.317  24.491  1.00  0.00    -0.200 F 
ENDBRANCH  48  62
BRANCH  49  73
ATOM     73  C   UNL A   1      39.116  32.108  35.328  1.00  0.00     0.064 A 
ATOM     74  C   UNL A   1      39.463  33.463  35.440  1.00  0.00     0.173 A 
ATOM     75  C   UNL A   1      38.338  31.547  36.350  1.00  0.00     0.173 A 
ATOM     76  F   UNL A   1      40.203  34.047  34.486  1.00  0.00    -0.203 F 
ATOM     77  C   UNL A   1      39.087  34.213  36.550  1.00  0.00     0.198 A 
ATOM     78  C   UNL A   1      37.938  32.308  37.447  1.00  0.00     0.198 A 
ATOM     79  F   UNL A   1      37.956  30.264  36.273  1.00  0.00    -0.203 F 
ATOM     80  F   UNL A   1      39.477  35.491  36.655  1.00  0.00    -0.200 F 
ATOM     81  C   UNL A   1      38.324  33.636  37.553  1.00  0.00     0.200 A 
ATOM     82  F   UNL A   1      37.180  31.753  38.402  1.00  0.00    -0.200 F 
ATOM     83  F   UNL A   1      37.961  34.358  38.621  1.00  0.00    -0.200 F 
ENDBRANCH  49  73
BRANCH  61  84
ATOM     84  C   UNL A   1      44.540  27.806  34.418  1.00  0.00     0.064 A 
ATOM     85  C   UNL A   1      44.379  26.663  35.215  1.00  0.00     0.173 A 
ATOM     86  C   UNL A   1      45.725  28.543  34.553  1.00  0.00     0.173 A 
ATOM     87  F   UNL A   1      43.260  25.929  35.125  1.00  0.00    -0.203 F 
ATOM     88  C   UNL A   1      45.357  26.286  36.131  1.00  0.00     0.198 A 
ATOM     89  C   UNL A   1      46.711  28.150  35.454  1.00  0.00     0.198 A 
ATOM     90  F   UNL A   1      45.931  29.635  33.801  1.00  0.00    -0.203 F 
ATOM     91  F   UNL A   1      45.167  25.210  36.908  1.00  0.00    -0.200 F 
ATOM     92  C   UNL A   1      46.522  27.029  36.249  1.00  0.00     0.200 A 
ATOM     93  F   UNL A   1      47.846  28.856  35.552  1.00  0.00    -0.200 F 
ATOM     94  F   UNL A   1      47.465  26.662  37.128  1.00  0.00    -0.200 F 
ENDBRANCH  61  84
ENDBRANCH  35  36
ENDBRANCH  28  30
ENDBRANCH  27  28
ENDBRANCH  26  27
ENDBRANCH   1  26
TORSDOF 15
ENDMDL
