MODEL 1
REMARK VINA RESULT:     -12.3      0.000      0.000
REMARK SMILES Cc1cc(NC(=O)c2ccc3ncsc3c2)sc1C(=O)OCCOC(=O)c1ccc(-c2c3nc(c(-c4c(F)c(F)c(F)c(F)c4F)c4ccc([nH]4)c(-c4c(F)c(F)c(F)c(F)c4F)c4nc(c(-c5c(F)c(F)c(F)c(F)c5F)c5ccc2[nH]5)C=C4)C=C3)cc1
REMARK SMILES IDX 22 1 21 2 19 3 20 4 18 5 1 6 2 7 3 8 4 9 17 10 5 11 6 12
REMARK SMILES IDX 7 14 8 15 9 16 16 17 10 18 15 19 11 20 14 21 12 22 13 23
REMARK SMILES IDX 23 24 24 25 25 26 26 27 27 28 28 29 89 30 29 31 88 32 30 33
REMARK SMILES IDX 31 34 32 35 82 36 33 37 87 38 81 39 83 40 34 41 86 42 80 43
REMARK SMILES IDX 79 44 35 46 67 47 47 48 66 49 48 50 51 51 65 52 84 53 49 54
REMARK SMILES IDX 50 55 64 57 85 58 52 59 36 60 37 61 45 62 38 63 39 64 43 65
REMARK SMILES IDX 46 66 40 67 41 68 44 69 42 70 68 71 69 72 77 73 70 74 71 75
REMARK SMILES IDX 75 76 78 77 72 78 73 79 76 80 74 81 53 82 54 83 62 84 55 85
REMARK SMILES IDX 56 86 60 87 63 88 57 89 58 90 61 91 59 92
REMARK H PARENT 5 13 83 45 51 56
REMARK Flexibility Score: inf
ROOT
ATOM      1  C   UNL A   1      31.139  29.881  24.521  1.00  0.00     0.275 C 
ENDROOT
BRANCH   1   2
ATOM      2  O   UNL A   1      31.700  29.016  23.517  1.00  0.00    -0.458 OA
BRANCH   2   3
ATOM      3  C   UNL A   1      30.832  28.286  22.759  1.00  0.00     0.348 C 
ATOM      4  O   UNL A   1      30.081  28.772  21.928  1.00  0.00    -0.245 OA
BRANCH   3   5
ATOM      5  C   UNL A   1      31.009  26.861  23.020  1.00  0.00     0.117 A 
ATOM      6  C   UNL A   1      32.633  26.024  21.175  1.00  0.00     0.046 C 
ATOM      7  C   UNL A   1      31.696  25.865  22.331  1.00  0.00    -0.023 A 
ATOM      8  C   UNL A   1      31.401  24.571  22.880  1.00  0.00     0.042 A 
ATOM      9  C   UNL A   1      30.669  24.635  24.037  1.00  0.00     0.096 A 
ATOM     10  S   UNL A   1      30.234  26.216  24.427  1.00  0.00    -0.111 S 
BRANCH   9  11
ATOM     11  N   UNL A   1      30.249  23.682  24.937  1.00  0.00    -0.314 N 
ATOM     12  C   UNL A   1      31.045  22.771  25.599  1.00  0.00     0.256 C 
ATOM     13  H   UNL A   1      29.283  23.647  25.126  1.00  0.00     0.171 HD
ATOM     14  O   UNL A   1      30.574  21.783  26.151  1.00  0.00    -0.269 OA
BRANCH  12  15
ATOM     15  C   UNL A   1      32.497  23.042  25.722  1.00  0.00     0.041 A 
ATOM     16  C   UNL A   1      32.927  24.298  26.165  1.00  0.00     0.016 A 
ATOM     17  C   UNL A   1      33.404  22.064  25.301  1.00  0.00     0.035 A 
ATOM     18  C   UNL A   1      34.276  24.646  26.081  1.00  0.00     0.030 A 
ATOM     19  C   UNL A   1      34.756  22.437  25.217  1.00  0.00     0.055 A 
ATOM     20  C   UNL A   1      35.203  23.714  25.576  1.00  0.00     0.081 A 
ATOM     21  S   UNL A   1      36.102  21.516  24.657  1.00  0.00    -0.122 S 
ATOM     22  N   UNL A   1      36.550  23.953  25.376  1.00  0.00    -0.245 NA
ATOM     23  C   UNL A   1      37.118  22.873  24.891  1.00  0.00     0.176 A 
ENDBRANCH  12  15
ENDBRANCH   9  11
ENDBRANCH   3   5
ENDBRANCH   2   3
ENDBRANCH   1   2
BRANCH   1  24
ATOM     24  C   UNL A   1      31.772  29.601  25.887  1.00  0.00     0.275 C 
BRANCH  24  25
ATOM     25  O   UNL A   1      33.122  30.104  25.946  1.00  0.00    -0.458 OA
BRANCH  25  26
ATOM     26  C   UNL A   1      33.332  31.100  26.838  1.00  0.00     0.338 C 
ATOM     27  O   UNL A   1      32.557  31.983  27.159  1.00  0.00    -0.246 OA
BRANCH  26  28
ATOM     28  C   UNL A   1      34.615  30.873  27.523  1.00  0.00     0.060 A 
ATOM     29  C   UNL A   1      34.875  29.577  27.964  1.00  0.00     0.016 A 
ATOM     30  C   UNL A   1      35.515  31.902  27.793  1.00  0.00     0.016 A 
ATOM     31  C   UNL A   1      36.034  29.289  28.675  1.00  0.00     0.010 A 
ATOM     32  C   UNL A   1      36.687  31.615  28.509  1.00  0.00     0.010 A 
ATOM     33  C   UNL A   1      36.950  30.307  28.959  1.00  0.00    -0.014 A 
BRANCH  33  34
ATOM     34  C   UNL A   1      38.147  29.997  29.781  1.00  0.00     0.031 A 
ATOM     35  C   UNL A   1      39.222  29.106  29.229  1.00  0.00     0.074 A 
ATOM     36  C   UNL A   1      38.296  30.555  30.996  1.00  0.00     0.049 A 
ATOM     37  N   UNL A   1      40.302  28.650  29.812  1.00  0.00    -0.248 NA
ATOM     38  C   UNL A   1      39.060  28.670  27.834  1.00  0.00     0.031 C 
ATOM     39  C   UNL A   1      37.354  31.487  31.616  1.00  0.00     0.029 A 
ATOM     40  N   UNL A   1      39.298  30.425  31.924  1.00  0.00    -0.354 N 
ATOM     41  C   UNL A   1      40.933  27.852  28.866  1.00  0.00     0.074 A 
ATOM     42  C   UNL A   1      40.112  27.878  27.675  1.00  0.00     0.031 C 
ATOM     43  C   UNL A   1      37.827  31.852  32.819  1.00  0.00     0.029 A 
ATOM     44  C   UNL A   1      39.077  31.140  33.076  1.00  0.00     0.049 A 
ATOM     45  H   UNL A   1      40.100  29.872  31.779  1.00  0.00     0.167 HD
ATOM     46  C   UNL A   1      42.094  27.165  28.984  1.00  0.00     0.037 A 
ATOM     47  C   UNL A   1      39.785  31.191  34.220  1.00  0.00     0.037 A 
ATOM     48  C   UNL A   1      42.923  27.163  30.161  1.00  0.00     0.049 A 
ATOM     49  C   UNL A   1      41.044  30.376  34.344  1.00  0.00     0.074 A 
ATOM     50  C   UNL A   1      44.118  26.496  30.377  1.00  0.00     0.029 A 
ATOM     51  N   UNL A   1      42.646  27.870  31.322  1.00  0.00    -0.354 N 
ATOM     52  N   UNL A   1      41.615  29.598  33.458  1.00  0.00    -0.248 NA
ATOM     53  C   UNL A   1      41.750  30.440  35.631  1.00  0.00     0.031 C 
ATOM     54  C   UNL A   1      44.544  26.772  31.680  1.00  0.00     0.029 A 
ATOM     55  C   UNL A   1      43.638  27.644  32.263  1.00  0.00     0.049 A 
ATOM     56  H   UNL A   1      41.861  28.448  31.457  1.00  0.00     0.167 HD
ATOM     57  C   UNL A   1      42.753  29.091  34.072  1.00  0.00     0.074 A 
ATOM     58  C   UNL A   1      42.801  29.665  35.400  1.00  0.00     0.031 C 
ATOM     59  C   UNL A   1      43.672  28.226  33.580  1.00  0.00     0.037 A 
BRANCH  46  60
ATOM     60  C   UNL A   1      42.520  26.324  27.817  1.00  0.00     0.064 A 
ATOM     61  C   UNL A   1      42.029  25.023  27.623  1.00  0.00     0.173 A 
ATOM     62  C   UNL A   1      43.412  26.838  26.864  1.00  0.00     0.173 A 
ATOM     63  F   UNL A   1      41.186  24.481  28.515  1.00  0.00    -0.203 F 
ATOM     64  C   UNL A   1      42.435  24.262  26.530  1.00  0.00     0.198 A 
ATOM     65  C   UNL A   1      43.794  26.084  25.759  1.00  0.00     0.198 A 
ATOM     66  F   UNL A   1      43.907  28.077  27.002  1.00  0.00    -0.203 F 
ATOM     67  F   UNL A   1      41.987  23.006  26.387  1.00  0.00    -0.200 F 
ATOM     68  C   UNL A   1      43.312  24.794  25.596  1.00  0.00     0.200 A 
ATOM     69  F   UNL A   1      44.634  26.602  24.853  1.00  0.00    -0.200 F 
ATOM     70  F   UNL A   1      43.698  24.061  24.543  1.00  0.00    -0.200 F 
ENDBRANCH  46  60
BRANCH  47  71
ATOM     71  C   UNL A   1      39.301  32.024  35.352  1.00  0.00     0.064 A 
ATOM     72  C   UNL A   1      38.459  31.489  36.337  1.00  0.00     0.173 A 
ATOM     73  C   UNL A   1      39.668  33.373  35.469  1.00  0.00     0.173 A 
ATOM     74  F   UNL A   1      38.058  30.212  36.252  1.00  0.00    -0.203 F 
ATOM     75  C   UNL A   1      37.995  32.275  37.390  1.00  0.00     0.198 A 
ATOM     76  C   UNL A   1      39.226  34.150  36.537  1.00  0.00     0.198 A 
ATOM     77  F   UNL A   1      40.467  33.934  34.549  1.00  0.00    -0.203 F 
ATOM     78  F   UNL A   1      37.158  31.751  38.294  1.00  0.00    -0.200 F 
ATOM     79  C   UNL A   1      38.385  33.602  37.494  1.00  0.00     0.200 A 
ATOM     80  F   UNL A   1      39.613  35.428  36.638  1.00  0.00    -0.200 F 
ATOM     81  F   UNL A   1      37.943  34.355  38.509  1.00  0.00    -0.200 F 
ENDBRANCH  47  71
BRANCH  59  82
ATOM     82  C   UNL A   1      44.821  27.866  34.474  1.00  0.00     0.064 A 
ATOM     83  C   UNL A   1      45.994  28.633  34.507  1.00  0.00     0.173 A 
ATOM     84  C   UNL A   1      44.732  26.760  35.334  1.00  0.00     0.173 A 
ATOM     85  F   UNL A   1      46.132  29.690  33.691  1.00  0.00    -0.203 F 
ATOM     86  C   UNL A   1      47.047  28.294  35.353  1.00  0.00     0.198 A 
ATOM     87  C   UNL A   1      45.776  26.440  36.198  1.00  0.00     0.198 A 
ATOM     88  F   UNL A   1      43.628  25.999  35.345  1.00  0.00    -0.203 F 
ATOM     89  F   UNL A   1      48.175  29.018  35.339  1.00  0.00    -0.200 F 
ATOM     90  C   UNL A   1      46.934  27.204  36.201  1.00  0.00     0.200 A 
ATOM     91  F   UNL A   1      45.663  25.392  37.024  1.00  0.00    -0.200 F 
ATOM     92  F   UNL A   1      47.946  26.883  37.020  1.00  0.00    -0.200 F 
ENDBRANCH  59  82
ENDBRANCH  33  34
ENDBRANCH  26  28
ENDBRANCH  25  26
ENDBRANCH  24  25
ENDBRANCH   1  24
TORSDOF 13
ENDMDL
MODEL 2
REMARK VINA RESULT:     -12.3      1.487      2.436
REMARK SMILES Cc1cc(NC(=O)c2ccc3ncsc3c2)sc1C(=O)OCCOC(=O)c1ccc(-c2c3nc(c(-c4c(F)c(F)c(F)c(F)c4F)c4ccc([nH]4)c(-c4c(F)c(F)c(F)c(F)c4F)c4nc(c(-c5c(F)c(F)c(F)c(F)c5F)c5ccc2[nH]5)C=C4)C=C3)cc1
REMARK SMILES IDX 22 1 21 2 19 3 20 4 18 5 1 6 2 7 3 8 4 9 17 10 5 11 6 12
REMARK SMILES IDX 7 14 8 15 9 16 16 17 10 18 15 19 11 20 14 21 12 22 13 23
REMARK SMILES IDX 23 24 24 25 25 26 26 27 27 28 28 29 89 30 29 31 88 32 30 33
REMARK SMILES IDX 31 34 32 35 82 36 33 37 87 38 81 39 83 40 34 41 86 42 80 43
REMARK SMILES IDX 79 44 35 46 67 47 47 48 66 49 48 50 51 51 65 52 84 53 49 54
REMARK SMILES IDX 50 55 64 57 85 58 52 59 36 60 37 61 45 62 38 63 39 64 43 65
REMARK SMILES IDX 46 66 40 67 41 68 44 69 42 70 68 71 69 72 77 73 70 74 71 75
REMARK SMILES IDX 75 76 78 77 72 78 73 79 76 80 74 81 53 82 54 83 62 84 55 85
REMARK SMILES IDX 56 86 60 87 63 88 57 89 58 90 61 91 59 92
REMARK H PARENT 5 13 83 45 51 56
REMARK Flexibility Score: inf
ROOT
ATOM      1  C   UNL A   1      31.970  30.845  26.821  1.00  0.00     0.275 C 
ENDROOT
BRANCH   1   2
ATOM      2  O   UNL A   1      31.362  30.279  25.646  1.00  0.00    -0.458 OA
BRANCH   2   3
ATOM      3  C   UNL A   1      32.057  29.310  24.983  1.00  0.00     0.348 C 
ATOM      4  O   UNL A   1      33.196  29.456  24.567  1.00  0.00    -0.245 OA
BRANCH   3   5
ATOM      5  C   UNL A   1      31.284  28.073  24.940  1.00  0.00     0.117 A 
ATOM      6  C   UNL A   1      30.312  27.955  22.534  1.00  0.00     0.046 C 
ATOM      7  C   UNL A   1      30.477  27.512  23.954  1.00  0.00    -0.023 A 
ATOM      8  C   UNL A   1      29.763  26.376  24.468  1.00  0.00     0.042 A 
ATOM      9  C   UNL A   1      30.170  26.013  25.726  1.00  0.00     0.096 A 
ATOM     10  S   UNL A   1      31.320  27.074  26.353  1.00  0.00    -0.111 S 
BRANCH   9  11
ATOM     11  N   UNL A   1      29.845  24.960  26.551  1.00  0.00    -0.314 N 
ATOM     12  C   UNL A   1      30.304  23.664  26.445  1.00  0.00     0.256 C 
ATOM     13  H   UNL A   1      29.224  25.151  27.290  1.00  0.00     0.171 HD
ATOM     14  O   UNL A   1      29.755  22.735  27.028  1.00  0.00    -0.269 OA
BRANCH  12  15
ATOM     15  C   UNL A   1      31.545  23.401  25.680  1.00  0.00     0.041 A 
ATOM     16  C   UNL A   1      31.459  22.839  24.401  1.00  0.00     0.016 A 
ATOM     17  C   UNL A   1      32.780  23.636  26.295  1.00  0.00     0.035 A 
ATOM     18  C   UNL A   1      32.611  22.386  23.757  1.00  0.00     0.030 A 
ATOM     19  C   UNL A   1      33.926  23.165  25.633  1.00  0.00     0.055 A 
ATOM     20  C   UNL A   1      33.861  22.525  24.390  1.00  0.00     0.081 A 
ATOM     21  S   UNL A   1      35.571  23.207  26.150  1.00  0.00    -0.122 S 
ATOM     22  N   UNL A   1      35.066  22.059  23.895  1.00  0.00    -0.245 NA
ATOM     23  C   UNL A   1      36.028  22.354  24.738  1.00  0.00     0.176 A 
ENDBRANCH  12  15
ENDBRANCH   9  11
ENDBRANCH   3   5
ENDBRANCH   2   3
ENDBRANCH   1   2
BRANCH   1  24
ATOM     24  C   UNL A   1      31.728  32.356  26.876  1.00  0.00     0.275 C 
BRANCH  24  25
ATOM     25  O   UNL A   1      32.973  33.082  26.845  1.00  0.00    -0.458 OA
BRANCH  25  26
ATOM     26  C   UNL A   1      33.271  33.773  27.970  1.00  0.00     0.338 C 
ATOM     27  O   UNL A   1      32.588  34.616  28.525  1.00  0.00    -0.246 OA
BRANCH  26  28
ATOM     28  C   UNL A   1      34.507  33.232  28.556  1.00  0.00     0.060 A 
ATOM     29  C   UNL A   1      34.401  32.039  29.269  1.00  0.00     0.016 A 
ATOM     30  C   UNL A   1      35.730  33.897  28.477  1.00  0.00     0.016 A 
ATOM     31  C   UNL A   1      35.508  31.492  29.907  1.00  0.00     0.010 A 
ATOM     32  C   UNL A   1      36.849  33.347  29.118  1.00  0.00     0.010 A 
ATOM     33  C   UNL A   1      36.743  32.144  29.843  1.00  0.00    -0.014 A 
BRANCH  33  34
ATOM     34  C   UNL A   1      37.898  31.585  30.589  1.00  0.00     0.031 A 
ATOM     35  C   UNL A   1      38.806  30.591  29.925  1.00  0.00     0.074 A 
ATOM     36  C   UNL A   1      38.163  32.006  31.839  1.00  0.00     0.049 A 
ATOM     37  N   UNL A   1      39.817  29.925  30.426  1.00  0.00    -0.248 NA
ATOM     38  C   UNL A   1      38.543  30.307  28.506  1.00  0.00     0.031 C 
ATOM     39  C   UNL A   1      37.395  33.015  32.569  1.00  0.00     0.029 A 
ATOM     40  N   UNL A   1      39.157  31.644  32.714  1.00  0.00    -0.354 N 
ATOM     41  C   UNL A   1      40.291  29.126  29.394  1.00  0.00     0.074 A 
ATOM     42  C   UNL A   1      39.453  29.380  28.242  1.00  0.00     0.031 C 
ATOM     43  C   UNL A   1      37.950  33.197  33.778  1.00  0.00     0.029 A 
ATOM     44  C   UNL A   1      39.079  32.282  33.927  1.00  0.00     0.049 A 
ATOM     45  H   UNL A   1      39.858  30.990  32.492  1.00  0.00     0.167 HD
ATOM     46  C   UNL A   1      41.333  28.260  29.411  1.00  0.00     0.037 A 
ATOM     47  C   UNL A   1      39.816  32.125  35.043  1.00  0.00     0.037 A 
ATOM     48  C   UNL A   1      42.181  28.030  30.550  1.00  0.00     0.049 A 
ATOM     49  C   UNL A   1      40.936  31.119  35.051  1.00  0.00     0.074 A 
ATOM     50  C   UNL A   1      43.263  27.172  30.664  1.00  0.00     0.029 A 
ATOM     51  N   UNL A   1      42.049  28.668  31.775  1.00  0.00    -0.354 N 
ATOM     52  N   UNL A   1      41.355  30.342  34.083  1.00  0.00    -0.248 NA
ATOM     53  C   UNL A   1      41.676  30.962  36.311  1.00  0.00     0.031 C 
ATOM     54  C   UNL A   1      43.761  27.265  31.968  1.00  0.00     0.029 A 
ATOM     55  C   UNL A   1      43.017  28.212  32.655  1.00  0.00     0.049 A 
ATOM     56  H   UNL A   1      41.367  29.346  31.987  1.00  0.00     0.167 HD
ATOM     57  C   UNL A   1      42.416  29.616  34.609  1.00  0.00     0.074 A 
ATOM     58  C   UNL A   1      42.587  30.058  35.977  1.00  0.00     0.031 C 
ATOM     59  C   UNL A   1      43.176  28.666  34.013  1.00  0.00     0.037 A 
BRANCH  46  60
ATOM     60  C   UNL A   1      41.592  27.468  28.164  1.00  0.00     0.064 A 
ATOM     61  C   UNL A   1      42.481  27.915  27.174  1.00  0.00     0.173 A 
ATOM     62  C   UNL A   1      40.961  26.230  27.969  1.00  0.00     0.173 A 
ATOM     63  F   UNL A   1      43.096  29.100  27.306  1.00  0.00    -0.203 F 
ATOM     64  C   UNL A   1      42.709  27.162  26.025  1.00  0.00     0.198 A 
ATOM     65  C   UNL A   1      41.213  25.467  26.833  1.00  0.00     0.198 A 
ATOM     66  F   UNL A   1      40.106  25.756  28.888  1.00  0.00    -0.203 F 
ATOM     67  F   UNL A   1      43.529  27.627  25.072  1.00  0.00    -0.200 F 
ATOM     68  C   UNL A   1      42.081  25.936  25.858  1.00  0.00     0.200 A 
ATOM     69  F   UNL A   1      40.611  24.280  26.677  1.00  0.00    -0.200 F 
ATOM     70  F   UNL A   1      42.305  25.210  24.754  1.00  0.00    -0.200 F 
ENDBRANCH  46  60
BRANCH  47  71
ATOM     71  C   UNL A   1      39.498  32.921  36.258  1.00  0.00     0.064 A 
ATOM     72  C   UNL A   1      40.161  34.125  36.529  1.00  0.00     0.173 A 
ATOM     73  C   UNL A   1      38.527  32.488  37.174  1.00  0.00     0.173 A 
ATOM     74  F   UNL A   1      41.117  34.565  35.698  1.00  0.00    -0.203 F 
ATOM     75  C   UNL A   1      39.871  34.863  37.675  1.00  0.00     0.198 A 
ATOM     76  C   UNL A   1      38.219  33.241  38.305  1.00  0.00     0.198 A 
ATOM     77  F   UNL A   1      37.869  31.339  36.962  1.00  0.00    -0.203 F 
ATOM     78  F   UNL A   1      40.549  35.989  37.933  1.00  0.00    -0.200 F 
ATOM     79  C   UNL A   1      38.895  34.424  38.558  1.00  0.00     0.200 A 
ATOM     80  F   UNL A   1      37.269  32.817  39.149  1.00  0.00    -0.200 F 
ATOM     81  F   UNL A   1      38.613  35.136  39.657  1.00  0.00    -0.200 F 
ENDBRANCH  47  71
BRANCH  59  82
ATOM     82  C   UNL A   1      44.277  28.057  34.829  1.00  0.00     0.064 A 
ATOM     83  C   UNL A   1      45.548  28.644  34.899  1.00  0.00     0.173 A 
ATOM     84  C   UNL A   1      44.045  26.894  35.579  1.00  0.00     0.173 A 
ATOM     85  F   UNL A   1      45.822  29.748  34.187  1.00  0.00    -0.203 F 
ATOM     86  C   UNL A   1      46.557  28.076  35.673  1.00  0.00     0.198 A 
ATOM     87  C   UNL A   1      45.048  26.343  36.372  1.00  0.00     0.198 A 
ATOM     88  F   UNL A   1      42.844  26.298  35.550  1.00  0.00    -0.203 F 
ATOM     89  F   UNL A   1      47.777  28.630  35.693  1.00  0.00    -0.200 F 
ATOM     90  C   UNL A   1      46.304  26.931  36.413  1.00  0.00     0.200 A 
ATOM     91  F   UNL A   1      44.801  25.242  37.095  1.00  0.00    -0.200 F 
ATOM     92  F   UNL A   1      47.274  26.389  37.162  1.00  0.00    -0.200 F 
ENDBRANCH  59  82
ENDBRANCH  33  34
ENDBRANCH  26  28
ENDBRANCH  25  26
ENDBRANCH  24  25
ENDBRANCH   1  24
TORSDOF 13
ENDMDL
MODEL 3
REMARK VINA RESULT:     -12.3      4.702      9.141
REMARK SMILES Cc1cc(NC(=O)c2ccc3ncsc3c2)sc1C(=O)OCCOC(=O)c1ccc(-c2c3nc(c(-c4c(F)c(F)c(F)c(F)c4F)c4ccc([nH]4)c(-c4c(F)c(F)c(F)c(F)c4F)c4nc(c(-c5c(F)c(F)c(F)c(F)c5F)c5ccc2[nH]5)C=C4)C=C3)cc1
REMARK SMILES IDX 22 1 21 2 19 3 20 4 18 5 1 6 2 7 3 8 4 9 17 10 5 11 6 12
REMARK SMILES IDX 7 14 8 15 9 16 16 17 10 18 15 19 11 20 14 21 12 22 13 23
REMARK SMILES IDX 23 24 24 25 25 26 26 27 27 28 28 29 89 30 29 31 88 32 30 33
REMARK SMILES IDX 31 34 32 35 82 36 33 37 87 38 81 39 83 40 34 41 86 42 80 43
REMARK SMILES IDX 79 44 35 46 67 47 47 48 66 49 48 50 51 51 65 52 84 53 49 54
REMARK SMILES IDX 50 55 64 57 85 58 52 59 36 60 37 61 45 62 38 63 39 64 43 65
REMARK SMILES IDX 46 66 40 67 41 68 44 69 42 70 68 71 69 72 77 73 70 74 71 75
REMARK SMILES IDX 75 76 78 77 72 78 73 79 76 80 74 81 53 82 54 83 62 84 55 85
REMARK SMILES IDX 56 86 60 87 63 88 57 89 58 90 61 91 59 92
REMARK H PARENT 5 13 83 45 51 56
REMARK Flexibility Score: inf
ROOT
ATOM      1  C   UNL A   1      34.393  33.662  29.888  1.00  0.00     0.275 C 
ENDROOT
BRANCH   1   2
ATOM      2  O   UNL A   1      33.943  32.430  29.295  1.00  0.00    -0.458 OA
BRANCH   2   3
ATOM      3  C   UNL A   1      34.404  32.128  28.047  1.00  0.00     0.348 C 
ATOM      4  O   UNL A   1      35.377  32.659  27.536  1.00  0.00    -0.245 OA
BRANCH   3   5
ATOM      5  C   UNL A   1      33.632  31.029  27.477  1.00  0.00     0.117 A 
ATOM      6  C   UNL A   1      31.393  32.092  26.703  1.00  0.00     0.046 C 
ATOM      7  C   UNL A   1      32.336  30.962  26.973  1.00  0.00    -0.023 A 
ATOM      8  C   UNL A   1      31.961  29.599  26.714  1.00  0.00     0.042 A 
ATOM      9  C   UNL A   1      33.005  28.721  26.852  1.00  0.00     0.096 A 
ATOM     10  S   UNL A   1      34.408  29.483  27.393  1.00  0.00    -0.111 S 
BRANCH   9  11
ATOM     11  N   UNL A   1      33.134  27.371  26.619  1.00  0.00    -0.314 N 
ATOM     12  C   UNL A   1      32.468  26.637  25.660  1.00  0.00     0.256 C 
ATOM     13  H   UNL A   1      33.765  26.881  27.194  1.00  0.00     0.171 HD
ATOM     14  O   UNL A   1      32.418  25.412  25.704  1.00  0.00    -0.269 OA
BRANCH  12  15
ATOM     15  C   UNL A   1      31.874  27.342  24.500  1.00  0.00     0.041 A 
ATOM     16  C   UNL A   1      32.708  28.026  23.610  1.00  0.00     0.016 A 
ATOM     17  C   UNL A   1      30.480  27.385  24.378  1.00  0.00     0.035 A 
ATOM     18  C   UNL A   1      32.160  28.871  22.644  1.00  0.00     0.030 A 
ATOM     19  C   UNL A   1      29.948  28.247  23.404  1.00  0.00     0.055 A 
ATOM     20  C   UNL A   1      30.761  29.006  22.554  1.00  0.00     0.081 A 
ATOM     21  S   UNL A   1      28.297  28.602  23.056  1.00  0.00    -0.122 S 
ATOM     22  N   UNL A   1      30.092  29.857  21.692  1.00  0.00    -0.245 NA
ATOM     23  C   UNL A   1      28.798  29.733  21.874  1.00  0.00     0.176 A 
ENDBRANCH  12  15
ENDBRANCH   9  11
ENDBRANCH   3   5
ENDBRANCH   2   3
ENDBRANCH   1   2
BRANCH   1  24
ATOM     24  C   UNL A   1      34.543  33.505  31.405  1.00  0.00     0.275 C 
BRANCH  24  25
ATOM     25  O   UNL A   1      34.867  32.146  31.757  1.00  0.00    -0.458 OA
BRANCH  25  26
ATOM     26  C   UNL A   1      35.938  31.996  32.570  1.00  0.00     0.338 C 
ATOM     27  O   UNL A   1      35.983  32.165  33.777  1.00  0.00    -0.246 OA
BRANCH  26  28
ATOM     28  C   UNL A   1      37.051  31.416  31.802  1.00  0.00     0.060 A 
ATOM     29  C   UNL A   1      38.203  31.081  32.512  1.00  0.00     0.016 A 
ATOM     30  C   UNL A   1      37.009  31.262  30.418  1.00  0.00     0.016 A 
ATOM     31  C   UNL A   1      39.323  30.586  31.854  1.00  0.00     0.010 A 
ATOM     32  C   UNL A   1      38.137  30.761  29.751  1.00  0.00     0.010 A 
ATOM     33  C   UNL A   1      39.303  30.426  30.465  1.00  0.00    -0.014 A 
BRANCH  33  34
ATOM     34  C   UNL A   1      40.531  29.964  29.770  1.00  0.00     0.031 A 
ATOM     35  C   UNL A   1      41.686  30.905  29.588  1.00  0.00     0.074 A 
ATOM     36  C   UNL A   1      40.631  28.689  29.351  1.00  0.00     0.049 A 
ATOM     37  N   UNL A   1      42.810  30.724  28.942  1.00  0.00    -0.248 NA
ATOM     38  C   UNL A   1      41.559  32.228  30.217  1.00  0.00     0.031 C 
ATOM     39  C   UNL A   1      39.604  27.662  29.527  1.00  0.00     0.029 A 
ATOM     40  N   UNL A   1      41.647  28.039  28.698  1.00  0.00    -0.354 N 
ATOM     41  C   UNL A   1      43.512  31.917  29.063  1.00  0.00     0.074 A 
ATOM     42  C   UNL A   1      42.684  32.818  29.835  1.00  0.00     0.031 C 
ATOM     43  C   UNL A   1      40.047  26.507  29.002  1.00  0.00     0.029 A 
ATOM     44  C   UNL A   1      41.363  26.727  28.408  1.00  0.00     0.049 A 
ATOM     45  H   UNL A   1      42.499  28.471  28.460  1.00  0.00     0.167 HD
ATOM     46  C   UNL A   1      44.736  32.226  28.574  1.00  0.00     0.037 A 
ATOM     47  C   UNL A   1      42.070  25.815  27.715  1.00  0.00     0.037 A 
ATOM     48  C   UNL A   1      45.569  31.318  27.830  1.00  0.00     0.049 A 
ATOM     49  C   UNL A   1      43.406  26.201  27.138  1.00  0.00     0.074 A 
ATOM     50  C   UNL A   1      46.826  31.541  27.292  1.00  0.00     0.029 A 
ATOM     51  N   UNL A   1      45.231  30.009  27.523  1.00  0.00    -0.354 N 
ATOM     52  N   UNL A   1      44.046  27.341  27.227  1.00  0.00    -0.248 NA
ATOM     53  C   UNL A   1      44.110  25.176  26.355  1.00  0.00     0.031 C 
ATOM     54  C   UNL A   1      47.232  30.377  26.630  1.00  0.00     0.029 A 
ATOM     55  C   UNL A   1      46.247  29.415  26.791  1.00  0.00     0.049 A 
ATOM     56  H   UNL A   1      44.392  29.566  27.788  1.00  0.00     0.167 HD
ATOM     57  C   UNL A   1      45.233  27.167  26.528  1.00  0.00     0.074 A 
ATOM     58  C   UNL A   1      45.232  25.806  26.035  1.00  0.00     0.031 C 
ATOM     59  C   UNL A   1      46.231  28.057  26.311  1.00  0.00     0.037 A 
BRANCH  46  60
ATOM     60  C   UNL A   1      45.237  33.622  28.800  1.00  0.00     0.064 A 
ATOM     61  C   UNL A   1      46.030  33.955  29.909  1.00  0.00     0.173 A 
ATOM     62  C   UNL A   1      44.939  34.637  27.877  1.00  0.00     0.173 A 
ATOM     63  F   UNL A   1      46.329  33.024  30.827  1.00  0.00    -0.203 F 
ATOM     64  C   UNL A   1      46.487  35.257  30.097  1.00  0.00     0.198 A 
ATOM     65  C   UNL A   1      45.420  35.931  28.054  1.00  0.00     0.198 A 
ATOM     66  F   UNL A   1      44.188  34.370  26.798  1.00  0.00    -0.203 F 
ATOM     67  F   UNL A   1      47.207  35.562  31.185  1.00  0.00    -0.200 F 
ATOM     68  C   UNL A   1      46.187  36.242  29.166  1.00  0.00     0.200 A 
ATOM     69  F   UNL A   1      45.137  36.879  27.151  1.00  0.00    -0.200 F 
ATOM     70  F   UNL A   1      46.632  37.494  29.347  1.00  0.00    -0.200 F 
ENDBRANCH  46  60
BRANCH  47  71
ATOM     71  C   UNL A   1      41.513  24.453  27.502  1.00  0.00     0.064 A 
ATOM     72  C   UNL A   1      40.398  24.247  26.679  1.00  0.00     0.173 A 
ATOM     73  C   UNL A   1      42.083  23.331  28.123  1.00  0.00     0.173 A 
ATOM     74  F   UNL A   1      39.801  25.292  26.087  1.00  0.00    -0.203 F 
ATOM     75  C   UNL A   1      39.868  22.972  26.492  1.00  0.00     0.198 A 
ATOM     76  C   UNL A   1      41.569  22.054  27.913  1.00  0.00     0.198 A 
ATOM     77  F   UNL A   1      43.148  23.476  28.926  1.00  0.00    -0.203 F 
ATOM     78  F   UNL A   1      38.777  22.807  25.734  1.00  0.00    -0.200 F 
ATOM     79  C   UNL A   1      40.459  21.875  27.103  1.00  0.00     0.200 A 
ATOM     80  F   UNL A   1      42.150  20.997  28.498  1.00  0.00    -0.200 F 
ATOM     81  F   UNL A   1      39.952  20.649  26.918  1.00  0.00    -0.200 F 
ENDBRANCH  47  71
BRANCH  59  82
ATOM     82  C   UNL A   1      47.416  27.580  25.526  1.00  0.00     0.064 A 
ATOM     83  C   UNL A   1      47.471  27.708  24.130  1.00  0.00     0.173 A 
ATOM     84  C   UNL A   1      48.525  27.022  26.181  1.00  0.00     0.173 A 
ATOM     85  F   UNL A   1      46.429  28.220  23.458  1.00  0.00    -0.203 F 
ATOM     86  C   UNL A   1      48.585  27.273  23.416  1.00  0.00     0.198 A 
ATOM     87  C   UNL A   1      49.647  26.613  25.466  1.00  0.00     0.198 A 
ATOM     88  F   UNL A   1      48.523  26.885  27.515  1.00  0.00    -0.203 F 
ATOM     89  F   UNL A   1      48.599  27.366  22.079  1.00  0.00    -0.200 F 
ATOM     90  C   UNL A   1      49.673  26.733  24.084  1.00  0.00     0.200 A 
ATOM     91  F   UNL A   1      50.703  26.100  26.113  1.00  0.00    -0.200 F 
ATOM     92  F   UNL A   1      50.746  26.322  23.396  1.00  0.00    -0.200 F 
ENDBRANCH  59  82
ENDBRANCH  33  34
ENDBRANCH  26  28
ENDBRANCH  25  26
ENDBRANCH  24  25
ENDBRANCH   1  24
TORSDOF 13
ENDMDL
