MODEL 1
REMARK VINA RESULT:     -14.1      0.000      0.000
REMARK SMILES Cc1cccc(CC(=O)N2CCCC[C@@H]2C(=O)OCCOC(=O)c2ccc(-c3c4nc(c(-c5c(F)c(F)c(F)c(F)c5F)c5ccc([nH]5)c(-c5c(F)c(F)c(F)c(F)c5F)c5nc(c(-c6c(F)c(F)c(F)c(F)c6F)c6ccc3[nH]6)C=C5)C=C4)cc2)c1
REMARK SMILES IDX 19 1 18 2 16 3 17 4 15 5 10 6 11 7 12 8 14 9 13 10 8 11 9 12
REMARK SMILES IDX 7 13 6 14 1 15 2 16 3 17 87 18 4 19 5 20 20 21 21 22 22 23
REMARK SMILES IDX 23 24 24 25 25 26 86 27 26 28 85 29 27 30 28 31 29 32 79 33
REMARK SMILES IDX 30 34 84 35 78 36 80 37 31 38 83 39 77 40 76 41 32 43 64 44
REMARK SMILES IDX 44 45 63 46 45 47 48 48 62 49 81 50 46 51 47 52 61 54 82 55
REMARK SMILES IDX 49 56 33 57 34 58 42 59 35 60 36 61 40 62 43 63 37 64 38 65
REMARK SMILES IDX 41 66 39 67 65 68 66 69 74 70 67 71 68 72 72 73 75 74 69 75
REMARK SMILES IDX 70 76 73 77 71 78 50 79 51 80 59 81 52 82 53 83 57 84 60 85
REMARK SMILES IDX 54 86 55 87 58 88 56 89
REMARK H PARENT 80 42 48 53
REMARK Flexibility Score: inf
ROOT
ATOM      1  C   UNL A   1      34.406  29.502  27.491  1.00  0.00     0.274 C 
ENDROOT
BRANCH   1   2
ATOM      2  O   UNL A   1      32.974  29.160  27.352  1.00  0.00    -0.461 OA
BRANCH   2   3
ATOM      3  C   UNL A   1      32.029  28.090  27.100  1.00  0.00     0.328 C 
ATOM      4  O   UNL A   1      31.393  28.126  28.199  1.00  0.00    -0.250 OA
BRANCH   3   5
ATOM      5  C   UNL A   1      31.872  26.764  25.373  1.00  0.00     0.195 C 
ATOM      6  N   UNL A   1      31.448  25.011  25.455  1.00  0.00    -0.329 N 
ATOM      7  C   UNL A   1      30.767  24.598  24.189  1.00  0.00     0.120 C 
ATOM      8  C   UNL A   1      31.508  24.809  22.870  1.00  0.00     0.022 C 
ATOM      9  C   UNL A   1      32.931  26.514  23.982  1.00  0.00     0.037 C 
ATOM     10  C   UNL A   1      32.138  26.177  22.727  1.00  0.00     0.005 C 
BRANCH   6  11
ATOM     11  C   UNL A   1      31.866  23.930  26.433  1.00  0.00     0.227 C 
ATOM     12  O   UNL A   1      31.035  23.704  27.338  1.00  0.00    -0.275 OA
BRANCH  11  13
ATOM     13  C   UNL A   1      33.460  23.043  26.671  1.00  0.00     0.135 C 
BRANCH  13  14
ATOM     14  C   UNL A   1      34.823  22.643  25.759  1.00  0.00    -0.038 A 
ATOM     15  C   UNL A   1      37.307  19.666  24.989  1.00  0.00     0.044 C 
ATOM     16  C   UNL A   1      36.628  21.026  24.854  1.00  0.00    -0.051 A 
ATOM     17  C   UNL A   1      37.220  22.058  24.178  1.00  0.00     0.003 A 
ATOM     18  C   UNL A   1      35.455  21.369  25.577  1.00  0.00     0.007 A 
ATOM     19  C   UNL A   1      36.625  23.330  24.234  1.00  0.00     0.001 A 
ATOM     20  C   UNL A   1      35.452  23.619  24.995  1.00  0.00     0.004 A 
ENDBRANCH  13  14
ENDBRANCH  11  13
ENDBRANCH   6  11
ENDBRANCH   3   5
ENDBRANCH   2   3
ENDBRANCH   1   2
BRANCH   1  21
ATOM     21  C   UNL A   1      34.573  31.001  27.316  1.00  0.00     0.275 C 
BRANCH  21  22
ATOM     22  O   UNL A   1      33.597  31.960  27.888  1.00  0.00    -0.458 OA
BRANCH  22  23
ATOM     23  C   UNL A   1      33.707  33.170  28.520  1.00  0.00     0.338 C 
ATOM     24  O   UNL A   1      32.857  34.041  28.421  1.00  0.00    -0.246 OA
BRANCH  23  25
ATOM     25  C   UNL A   1      34.872  33.385  29.439  1.00  0.00     0.060 A 
ATOM     26  C   UNL A   1      36.512  33.684  28.795  1.00  0.00     0.016 A 
ATOM     27  C   UNL A   1      34.677  32.458  30.902  1.00  0.00     0.016 A 
ATOM     28  C   UNL A   1      37.988  32.886  29.495  1.00  0.00     0.010 A 
ATOM     29  C   UNL A   1      36.084  31.516  31.500  1.00  0.00     0.010 A 
ATOM     30  C   UNL A   1      37.817  31.708  30.824  1.00  0.00    -0.014 A 
BRANCH  30  31
ATOM     31  C   UNL A   1      39.116  30.866  31.290  1.00  0.00     0.031 A 
ATOM     32  C   UNL A   1      39.551  29.477  30.741  1.00  0.00     0.074 A 
ATOM     33  C   UNL A   1      40.120  31.517  31.953  1.00  0.00     0.049 A 
ATOM     34  N   UNL A   1      40.779  29.147  30.473  1.00  0.00    -0.248 NA
ATOM     35  C   UNL A   1      38.689  28.383  30.306  1.00  0.00     0.031 C 
ATOM     36  C   UNL A   1      41.588  31.400  31.757  1.00  0.00     0.029 A 
ATOM     37  N   UNL A   1      40.054  32.552  32.895  1.00  0.00    -0.354 N 
ATOM     38  C   UNL A   1      40.826  28.081  29.580  1.00  0.00     0.074 A 
ATOM     39  C   UNL A   1      39.456  27.680  29.446  1.00  0.00     0.031 C 
ATOM     40  C   UNL A   1      42.247  32.078  32.713  1.00  0.00     0.029 A 
ATOM     41  C   UNL A   1      41.244  32.500  33.659  1.00  0.00     0.049 A 
ATOM     42  H   UNL A   1      39.317  33.195  33.004  1.00  0.00     0.167 HD
ATOM     43  C   UNL A   1      42.048  27.691  29.094  1.00  0.00     0.037 A 
ATOM     44  C   UNL A   1      41.161  32.105  34.961  1.00  0.00     0.037 A 
ATOM     45  C   UNL A   1      43.030  28.080  30.093  1.00  0.00     0.049 A 
ATOM     46  C   UNL A   1      41.830  30.757  35.120  1.00  0.00     0.074 A 
ATOM     47  C   UNL A   1      43.996  29.049  30.243  1.00  0.00     0.029 A 
ATOM     48  N   UNL A   1      42.837  27.508  31.339  1.00  0.00    -0.354 N 
ATOM     49  N   UNL A   1      42.018  29.917  34.133  1.00  0.00    -0.248 NA
ATOM     50  C   UNL A   1      42.444  30.302  36.360  1.00  0.00     0.031 C 
ATOM     51  C   UNL A   1      44.226  29.172  31.654  1.00  0.00     0.029 A 
ATOM     52  C   UNL A   1      43.446  28.236  32.327  1.00  0.00     0.049 A 
ATOM     53  H   UNL A   1      42.326  26.681  31.495  1.00  0.00     0.167 HD
ATOM     54  C   UNL A   1      42.805  28.886  34.548  1.00  0.00     0.074 A 
ATOM     55  C   UNL A   1      43.035  29.166  35.953  1.00  0.00     0.031 C 
ATOM     56  C   UNL A   1      43.212  27.875  33.724  1.00  0.00     0.037 A 
BRANCH  43  57
ATOM     57  C   UNL A   1      42.467  26.888  27.867  1.00  0.00     0.064 A 
ATOM     58  C   UNL A   1      42.086  25.523  27.740  1.00  0.00     0.173 A 
ATOM     59  C   UNL A   1      43.365  27.332  26.877  1.00  0.00     0.173 A 
ATOM     60  F   UNL A   1      41.238  24.954  28.609  1.00  0.00    -0.203 F 
ATOM     61  C   UNL A   1      42.569  24.677  26.731  1.00  0.00     0.198 A 
ATOM     62  C   UNL A   1      43.835  26.483  25.850  1.00  0.00     0.198 A 
ATOM     63  F   UNL A   1      43.832  28.587  26.890  1.00  0.00    -0.203 F 
ATOM     64  F   UNL A   1      42.189  23.389  26.697  1.00  0.00    -0.200 F 
ATOM     65  C   UNL A   1      43.444  25.157  25.783  1.00  0.00     0.200 A 
ATOM     66  F   UNL A   1      44.689  26.953  24.928  1.00  0.00    -0.200 F 
ATOM     67  F   UNL A   1      43.912  24.347  24.821  1.00  0.00    -0.200 F 
ENDBRANCH  43  57
BRANCH  44  68
ATOM     68  C   UNL A   1      39.871  32.611  35.534  1.00  0.00     0.064 A 
ATOM     69  C   UNL A   1      38.927  31.625  35.927  1.00  0.00     0.173 A 
ATOM     70  C   UNL A   1      39.814  33.843  36.199  1.00  0.00     0.173 A 
ATOM     71  F   UNL A   1      38.947  30.415  35.342  1.00  0.00    -0.203 F 
ATOM     72  C   UNL A   1      38.103  31.802  37.040  1.00  0.00     0.198 A 
ATOM     73  C   UNL A   1      38.946  34.030  37.283  1.00  0.00     0.198 A 
ATOM     74  F   UNL A   1      40.707  34.804  35.920  1.00  0.00    -0.203 F 
ATOM     75  F   UNL A   1      37.352  30.783  37.486  1.00  0.00    -0.200 F 
ATOM     76  C   UNL A   1      38.133  32.997  37.735  1.00  0.00     0.200 A 
ATOM     77  F   UNL A   1      38.966  35.191  37.956  1.00  0.00    -0.200 F 
ATOM     78  F   UNL A   1      37.411  33.147  38.855  1.00  0.00    -0.200 F 
ENDBRANCH  44  68
BRANCH  56  79
ATOM     79  C   UNL A   1      43.443  26.461  34.227  1.00  0.00     0.064 A 
ATOM     80  C   UNL A   1      44.719  25.872  34.294  1.00  0.00     0.173 A 
ATOM     81  C   UNL A   1      42.409  25.678  34.796  1.00  0.00     0.173 A 
ATOM     82  F   UNL A   1      45.837  26.574  34.061  1.00  0.00    -0.203 F 
ATOM     83  C   UNL A   1      44.916  24.550  34.685  1.00  0.00     0.198 A 
ATOM     84  C   UNL A   1      42.628  24.392  35.291  1.00  0.00     0.198 A 
ATOM     85  F   UNL A   1      41.161  26.138  34.949  1.00  0.00    -0.203 F 
ATOM     86  F   UNL A   1      46.143  24.016  34.601  1.00  0.00    -0.200 F 
ATOM     87  C   UNL A   1      43.869  23.806  35.180  1.00  0.00     0.200 A 
ATOM     88  F   UNL A   1      41.626  23.734  35.892  1.00  0.00    -0.200 F 
ATOM     89  F   UNL A   1      44.064  22.547  35.586  1.00  0.00    -0.200 F 
ENDBRANCH  56  79
ENDBRANCH  30  31
ENDBRANCH  23  25
ENDBRANCH  22  23
ENDBRANCH  21  22
ENDBRANCH   1  21
TORSDOF 14
ENDMDL
MODEL 2
REMARK VINA RESULT:     -13.9      4.196     10.236
REMARK SMILES Cc1cccc(CC(=O)N2CCCC[C@@H]2C(=O)OCCOC(=O)c2ccc(-c3c4nc(c(-c5c(F)c(F)c(F)c(F)c5F)c5ccc([nH]5)c(-c5c(F)c(F)c(F)c(F)c5F)c5nc(c(-c6c(F)c(F)c(F)c(F)c6F)c6ccc3[nH]6)C=C5)C=C4)cc2)c1
REMARK SMILES IDX 19 1 18 2 16 3 17 4 15 5 10 6 11 7 12 8 14 9 13 10 8 11 9 12
REMARK SMILES IDX 7 13 6 14 1 15 2 16 3 17 87 18 4 19 5 20 20 21 21 22 22 23
REMARK SMILES IDX 23 24 24 25 25 26 86 27 26 28 85 29 27 30 28 31 29 32 79 33
REMARK SMILES IDX 30 34 84 35 78 36 80 37 31 38 83 39 77 40 76 41 32 43 64 44
REMARK SMILES IDX 44 45 63 46 45 47 48 48 62 49 81 50 46 51 47 52 61 54 82 55
REMARK SMILES IDX 49 56 33 57 34 58 42 59 35 60 36 61 40 62 43 63 37 64 38 65
REMARK SMILES IDX 41 66 39 67 65 68 66 69 74 70 67 71 68 72 72 73 75 74 69 75
REMARK SMILES IDX 70 76 73 77 71 78 50 79 51 80 59 81 52 82 53 83 57 84 60 85
REMARK SMILES IDX 54 86 55 87 58 88 56 89
REMARK H PARENT 80 42 48 53
REMARK Flexibility Score: inf
ROOT
ATOM      1  C   UNL A   1      37.558  21.462  24.608  1.00  0.00     0.274 C 
ENDROOT
BRANCH   1   2
ATOM      2  O   UNL A   1      36.537  22.349  25.209  1.00  0.00    -0.461 OA
BRANCH   2   3
ATOM      3  C   UNL A   1      36.252  23.698  25.655  1.00  0.00     0.328 C 
ATOM      4  O   UNL A   1      37.420  24.035  26.022  1.00  0.00    -0.250 OA
BRANCH   3   5
ATOM      5  C   UNL A   1      34.339  24.744  25.755  1.00  0.00     0.195 C 
ATOM      6  N   UNL A   1      32.722  23.940  25.712  1.00  0.00    -0.329 N 
ATOM      7  C   UNL A   1      31.729  24.767  26.466  1.00  0.00     0.120 C 
ATOM      8  C   UNL A   1      31.513  26.213  26.024  1.00  0.00     0.022 C 
ATOM      9  C   UNL A   1      33.731  26.168  24.908  1.00  0.00     0.037 C 
ATOM     10  C   UNL A   1      32.792  26.985  25.785  1.00  0.00     0.005 C 
BRANCH   6  11
ATOM     11  C   UNL A   1      32.211  22.776  24.886  1.00  0.00     0.227 C 
ATOM     12  O   UNL A   1      31.560  23.110  23.873  1.00  0.00    -0.275 OA
BRANCH  11  13
ATOM     13  C   UNL A   1      32.175  20.966  25.210  1.00  0.00     0.135 C 
BRANCH  13  14
ATOM     14  C   UNL A   1      32.649  19.543  24.435  1.00  0.00    -0.038 A 
ATOM     15  C   UNL A   1      34.847  16.295  24.932  1.00  0.00     0.044 C 
ATOM     16  C   UNL A   1      33.838  17.249  24.299  1.00  0.00    -0.051 A 
ATOM     17  C   UNL A   1      33.456  17.124  22.991  1.00  0.00     0.003 A 
ATOM     18  C   UNL A   1      33.391  18.429  24.950  1.00  0.00     0.007 A 
ATOM     19  C   UNL A   1      32.658  18.131  22.422  1.00  0.00     0.001 A 
ATOM     20  C   UNL A   1      32.254  19.307  23.123  1.00  0.00     0.004 A 
ENDBRANCH  13  14
ENDBRANCH  11  13
ENDBRANCH   6  11
ENDBRANCH   3   5
ENDBRANCH   2   3
ENDBRANCH   1   2
BRANCH   1  21
ATOM     21  C   UNL A   1      38.412  20.873  25.716  1.00  0.00     0.275 C 
BRANCH  21  22
ATOM     22  O   UNL A   1      39.780  21.379  25.990  1.00  0.00    -0.458 OA
BRANCH  22  23
ATOM     23  C   UNL A   1      41.004  20.785  26.138  1.00  0.00     0.338 C 
ATOM     24  O   UNL A   1      41.208  19.618  25.842  1.00  0.00    -0.246 OA
BRANCH  23  25
ATOM     25  C   UNL A   1      42.153  21.634  26.594  1.00  0.00     0.060 A 
ATOM     26  C   UNL A   1      42.279  22.180  28.291  1.00  0.00     0.016 A 
ATOM     27  C   UNL A   1      42.686  22.685  25.310  1.00  0.00     0.016 A 
ATOM     28  C   UNL A   1      42.756  23.879  28.729  1.00  0.00     0.010 A 
ATOM     29  C   UNL A   1      42.983  24.412  25.699  1.00  0.00     0.010 A 
ATOM     30  C   UNL A   1      43.048  25.081  27.444  1.00  0.00    -0.014 A 
BRANCH  30  31
ATOM     31  C   UNL A   1      43.272  26.627  27.859  1.00  0.00     0.031 A 
ATOM     32  C   UNL A   1      42.156  27.693  28.055  1.00  0.00     0.074 A 
ATOM     33  C   UNL A   1      44.464  26.991  28.425  1.00  0.00     0.049 A 
ATOM     34  N   UNL A   1      42.139  28.567  29.016  1.00  0.00    -0.248 NA
ATOM     35  C   UNL A   1      40.903  27.814  27.318  1.00  0.00     0.031 C 
ATOM     36  C   UNL A   1      44.704  27.881  29.589  1.00  0.00     0.029 A 
ATOM     37  N   UNL A   1      45.762  26.540  28.157  1.00  0.00    -0.354 N 
ATOM     38  C   UNL A   1      40.850  29.048  29.230  1.00  0.00     0.074 A 
ATOM     39  C   UNL A   1      40.084  28.473  28.164  1.00  0.00     0.031 C 
ATOM     40  C   UNL A   1      46.018  28.124  29.736  1.00  0.00     0.029 A 
ATOM     41  C   UNL A   1      46.654  27.557  28.573  1.00  0.00     0.049 A 
ATOM     42  H   UNL A   1      46.008  25.676  27.754  1.00  0.00     0.167 HD
ATOM     43  C   UNL A   1      40.636  29.886  30.296  1.00  0.00     0.037 A 
ATOM     44  C   UNL A   1      47.333  28.253  27.617  1.00  0.00     0.037 A 
ATOM     45  C   UNL A   1      41.905  30.544  30.562  1.00  0.00     0.049 A 
ATOM     46  C   UNL A   1      46.829  29.680  27.583  1.00  0.00     0.074 A 
ATOM     47  C   UNL A   1      42.906  30.474  31.504  1.00  0.00     0.029 A 
ATOM     48  N   UNL A   1      42.400  31.282  29.501  1.00  0.00    -0.354 N 
ATOM     49  N   UNL A   1      45.655  30.048  28.031  1.00  0.00    -0.248 NA
ATOM     50  C   UNL A   1      47.641  30.813  27.162  1.00  0.00     0.031 C 
ATOM     51  C   UNL A   1      44.079  31.022  30.883  1.00  0.00     0.029 A 
ATOM     52  C   UNL A   1      43.752  31.471  29.606  1.00  0.00     0.049 A 
ATOM     53  H   UNL A   1      41.848  31.629  28.763  1.00  0.00     0.167 HD
ATOM     54  C   UNL A   1      45.568  31.407  28.036  1.00  0.00     0.074 A 
ATOM     55  C   UNL A   1      46.831  31.839  27.471  1.00  0.00     0.031 C 
ATOM     56  C   UNL A   1      44.475  32.086  28.495  1.00  0.00     0.037 A 
BRANCH  43  57
ATOM     57  C   UNL A   1      39.381  30.279  31.068  1.00  0.00     0.064 A 
ATOM     58  C   UNL A   1      38.385  31.088  30.452  1.00  0.00     0.173 A 
ATOM     59  C   UNL A   1      39.168  30.046  32.441  1.00  0.00     0.173 A 
ATOM     60  F   UNL A   1      38.450  31.399  29.149  1.00  0.00    -0.203 F 
ATOM     61  C   UNL A   1      37.291  31.627  31.144  1.00  0.00     0.198 A 
ATOM     62  C   UNL A   1      38.055  30.575  33.131  1.00  0.00     0.198 A 
ATOM     63  F   UNL A   1      40.042  29.326  33.155  1.00  0.00    -0.203 F 
ATOM     64  F   UNL A   1      36.411  32.410  30.501  1.00  0.00    -0.200 F 
ATOM     65  C   UNL A   1      37.124  31.370  32.486  1.00  0.00     0.200 A 
ATOM     66  F   UNL A   1      37.896  30.324  34.440  1.00  0.00    -0.200 F 
ATOM     67  F   UNL A   1      36.082  31.890  33.151  1.00  0.00    -0.200 F 
ENDBRANCH  43  57
BRANCH  44  68
ATOM     68  C   UNL A   1      47.661  27.322  26.488  1.00  0.00     0.064 A 
ATOM     69  C   UNL A   1      47.061  27.617  25.235  1.00  0.00     0.173 A 
ATOM     70  C   UNL A   1      48.877  26.627  26.460  1.00  0.00     0.173 A 
ATOM     71  F   UNL A   1      45.905  28.303  25.195  1.00  0.00    -0.203 F 
ATOM     72  C   UNL A   1      47.730  27.391  24.031  1.00  0.00     0.198 A 
ATOM     73  C   UNL A   1      49.517  26.357  25.243  1.00  0.00     0.198 A 
ATOM     74  F   UNL A   1      49.530  26.360  27.600  1.00  0.00    -0.203 F 
ATOM     75  F   UNL A   1      47.208  27.842  22.879  1.00  0.00    -0.200 F 
ATOM     76  C   UNL A   1      48.972  26.784  24.038  1.00  0.00     0.200 A 
ATOM     77  F   UNL A   1      50.720  25.761  25.244  1.00  0.00    -0.200 F 
ATOM     78  F   UNL A   1      49.662  26.639  22.896  1.00  0.00    -0.200 F 
ENDBRANCH  44  68
BRANCH  56  79
ATOM     79  C   UNL A   1      44.045  33.421  27.912  1.00  0.00     0.064 A 
ATOM     80  C   UNL A   1      44.072  34.620  28.648  1.00  0.00     0.173 A 
ATOM     81  C   UNL A   1      43.717  33.583  26.544  1.00  0.00     0.173 A 
ATOM     82  F   UNL A   1      44.622  34.692  29.867  1.00  0.00    -0.203 F 
ATOM     83  C   UNL A   1      43.605  35.827  28.132  1.00  0.00     0.198 A 
ATOM     84  C   UNL A   1      43.357  34.816  26.000  1.00  0.00     0.198 A 
ATOM     85  F   UNL A   1      43.783  32.575  25.665  1.00  0.00    -0.203 F 
ATOM     86  F   UNL A   1      43.540  36.901  28.931  1.00  0.00    -0.200 F 
ATOM     87  C   UNL A   1      43.242  35.925  26.808  1.00  0.00     0.200 A 
ATOM     88  F   UNL A   1      43.137  34.921  24.682  1.00  0.00    -0.200 F 
ATOM     89  F   UNL A   1      42.826  37.093  26.304  1.00  0.00    -0.200 F 
ENDBRANCH  56  79
ENDBRANCH  30  31
ENDBRANCH  23  25
ENDBRANCH  22  23
ENDBRANCH  21  22
ENDBRANCH   1  21
TORSDOF 14
ENDMDL
MODEL 3
REMARK VINA RESULT:     -13.6      4.175     10.528
REMARK SMILES Cc1cccc(CC(=O)N2CCCC[C@@H]2C(=O)OCCOC(=O)c2ccc(-c3c4nc(c(-c5c(F)c(F)c(F)c(F)c5F)c5ccc([nH]5)c(-c5c(F)c(F)c(F)c(F)c5F)c5nc(c(-c6c(F)c(F)c(F)c(F)c6F)c6ccc3[nH]6)C=C5)C=C4)cc2)c1
REMARK SMILES IDX 19 1 18 2 16 3 17 4 15 5 10 6 11 7 12 8 14 9 13 10 8 11 9 12
REMARK SMILES IDX 7 13 6 14 1 15 2 16 3 17 87 18 4 19 5 20 20 21 21 22 22 23
REMARK SMILES IDX 23 24 24 25 25 26 86 27 26 28 85 29 27 30 28 31 29 32 79 33
REMARK SMILES IDX 30 34 84 35 78 36 80 37 31 38 83 39 77 40 76 41 32 43 64 44
REMARK SMILES IDX 44 45 63 46 45 47 48 48 62 49 81 50 46 51 47 52 61 54 82 55
REMARK SMILES IDX 49 56 33 57 34 58 42 59 35 60 36 61 40 62 43 63 37 64 38 65
REMARK SMILES IDX 41 66 39 67 65 68 66 69 74 70 67 71 68 72 72 73 75 74 69 75
REMARK SMILES IDX 70 76 73 77 71 78 50 79 51 80 59 81 52 82 53 83 57 84 60 85
REMARK SMILES IDX 54 86 55 87 58 88 56 89
REMARK H PARENT 80 42 48 53
REMARK Flexibility Score: inf
ROOT
ATOM      1  C   UNL A   1      37.742  23.641  25.763  1.00  0.00     0.274 C 
ENDROOT
BRANCH   1   2
ATOM      2  O   UNL A   1      36.272  23.674  25.601  1.00  0.00    -0.461 OA
BRANCH   2   3
ATOM      3  C   UNL A   1      35.165  24.341  24.944  1.00  0.00     0.328 C 
ATOM      4  O   UNL A   1      35.282  23.827  23.790  1.00  0.00    -0.250 OA
BRANCH   3   5
ATOM      5  C   UNL A   1      33.809  25.862  25.728  1.00  0.00     0.195 C 
ATOM      6  N   UNL A   1      32.066  26.016  25.280  1.00  0.00    -0.329 N 
ATOM      7  C   UNL A   1      31.307  26.621  26.419  1.00  0.00     0.120 C 
ATOM      8  C   UNL A   1      31.750  27.988  26.936  1.00  0.00     0.022 C 
ATOM      9  C   UNL A   1      33.985  27.607  25.923  1.00  0.00     0.037 C 
ATOM     10  C   UNL A   1      33.242  28.113  27.153  1.00  0.00     0.005 C 
BRANCH   6  11
ATOM     11  C   UNL A   1      31.364  25.867  23.945  1.00  0.00     0.227 C 
ATOM     12  O   UNL A   1      31.534  24.758  23.395  1.00  0.00    -0.275 OA
BRANCH  11  13
ATOM     13  C   UNL A   1      30.491  27.083  22.877  1.00  0.00     0.135 C 
BRANCH  13  14
ATOM     14  C   UNL A   1      29.449  28.398  23.063  1.00  0.00    -0.038 A 
ATOM     15  C   UNL A   1      29.398  32.234  24.018  1.00  0.00     0.044 C 
ATOM     16  C   UNL A   1      28.895  30.885  23.510  1.00  0.00    -0.051 A 
ATOM     17  C   UNL A   1      27.558  30.610  23.413  1.00  0.00     0.003 A 
ATOM     18  C   UNL A   1      29.759  29.778  23.303  1.00  0.00     0.007 A 
ATOM     19  C   UNL A   1      27.161  29.298  23.102  1.00  0.00     0.001 A 
ATOM     20  C   UNL A   1      28.079  28.219  22.921  1.00  0.00     0.004 A 
ENDBRANCH  13  14
ENDBRANCH  11  13
ENDBRANCH   6  11
ENDBRANCH   3   5
ENDBRANCH   2   3
ENDBRANCH   1   2
BRANCH   1  21
ATOM     21  C   UNL A   1      38.217  22.203  25.657  1.00  0.00     0.275 C 
BRANCH  21  22
ATOM     22  O   UNL A   1      39.213  21.646  26.604  1.00  0.00    -0.458 OA
BRANCH  22  23
ATOM     23  C   UNL A   1      40.452  21.082  26.463  1.00  0.00     0.338 C 
ATOM     24  O   UNL A   1      40.616  19.963  26.003  1.00  0.00    -0.246 OA
BRANCH  23  25
ATOM     25  C   UNL A   1      41.652  21.916  26.801  1.00  0.00     0.060 A 
ATOM     26  C   UNL A   1      41.972  22.433  28.482  1.00  0.00     0.016 A 
ATOM     27  C   UNL A   1      42.047  22.985  25.482  1.00  0.00     0.016 A 
ATOM     28  C   UNL A   1      42.510  24.120  28.891  1.00  0.00     0.010 A 
ATOM     29  C   UNL A   1      42.400  24.703  25.863  1.00  0.00     0.010 A 
ATOM     30  C   UNL A   1      42.666  25.342  27.600  1.00  0.00    -0.014 A 
BRANCH  30  31
ATOM     31  C   UNL A   1      42.949  26.879  28.013  1.00  0.00     0.031 A 
ATOM     32  C   UNL A   1      41.877  27.994  28.179  1.00  0.00     0.074 A 
ATOM     33  C   UNL A   1      44.144  27.194  28.602  1.00  0.00     0.049 A 
ATOM     34  N   UNL A   1      41.877  28.874  29.135  1.00  0.00    -0.248 NA
ATOM     35  C   UNL A   1      40.647  28.165  27.413  1.00  0.00     0.031 C 
ATOM     36  C   UNL A   1      44.397  28.080  29.767  1.00  0.00     0.029 A 
ATOM     37  N   UNL A   1      45.426  26.685  28.364  1.00  0.00    -0.354 N 
ATOM     38  C   UNL A   1      40.607  29.412  29.318  1.00  0.00     0.074 A 
ATOM     39  C   UNL A   1      39.839  28.864  28.239  1.00  0.00     0.031 C 
ATOM     40  C   UNL A   1      45.717  28.266  29.941  1.00  0.00     0.029 A 
ATOM     41  C   UNL A   1      46.353  27.665  28.795  1.00  0.00     0.049 A 
ATOM     42  H   UNL A   1      45.643  25.809  27.972  1.00  0.00     0.167 HD
ATOM     43  C   UNL A   1      40.406  30.264  30.375  1.00  0.00     0.037 A 
ATOM     44  C   UNL A   1      47.081  28.325  27.851  1.00  0.00     0.037 A 
ATOM     45  C   UNL A   1      41.697  30.868  30.665  1.00  0.00     0.049 A 
ATOM     46  C   UNL A   1      46.641  29.772  27.798  1.00  0.00     0.074 A 
ATOM     47  C   UNL A   1      42.673  30.760  31.629  1.00  0.00     0.029 A 
ATOM     48  N   UNL A   1      42.247  31.578  29.612  1.00  0.00    -0.354 N 
ATOM     49  N   UNL A   1      45.475  30.193  28.219  1.00  0.00    -0.248 NA
ATOM     50  C   UNL A   1      47.512  30.865  27.389  1.00  0.00     0.031 C 
ATOM     51  C   UNL A   1      43.882  31.253  31.031  1.00  0.00     0.029 A 
ATOM     52  C   UNL A   1      43.603  31.707  29.745  1.00  0.00     0.049 A 
ATOM     53  H   UNL A   1      41.726  31.944  28.860  1.00  0.00     0.167 HD
ATOM     54  C   UNL A   1      45.448  31.555  28.215  1.00  0.00     0.074 A 
ATOM     55  C   UNL A   1      46.741  31.929  27.675  1.00  0.00     0.031 C 
ATOM     56  C   UNL A   1      44.376  32.284  28.647  1.00  0.00     0.037 A 
BRANCH  43  57
ATOM     57  C   UNL A   1      39.153  30.717  31.117  1.00  0.00     0.064 A 
ATOM     58  C   UNL A   1      38.154  31.472  30.442  1.00  0.00     0.173 A 
ATOM     59  C   UNL A   1      38.946  30.595  32.505  1.00  0.00     0.173 A 
ATOM     60  F   UNL A   1      38.214  31.677  29.118  1.00  0.00    -0.203 F 
ATOM     61  C   UNL A   1      37.061  32.063  31.093  1.00  0.00     0.198 A 
ATOM     62  C   UNL A   1      37.835  31.176  33.155  1.00  0.00     0.198 A 
ATOM     63  F   UNL A   1      39.824  29.936  33.272  1.00  0.00    -0.203 F 
ATOM     64  F   UNL A   1      36.177  32.791  30.391  1.00  0.00    -0.200 F 
ATOM     65  C   UNL A   1      36.900  31.915  32.452  1.00  0.00     0.200 A 
ATOM     66  F   UNL A   1      37.680  31.031  34.480  1.00  0.00    -0.200 F 
ATOM     67  F   UNL A   1      35.859  32.486  33.077  1.00  0.00    -0.200 F 
ENDBRANCH  43  57
BRANCH  44  68
ATOM     68  C   UNL A   1      47.393  27.374  26.734  1.00  0.00     0.064 A 
ATOM     69  C   UNL A   1      46.772  27.645  25.485  1.00  0.00     0.173 A 
ATOM     70  C   UNL A   1      48.609  26.680  26.698  1.00  0.00     0.173 A 
ATOM     71  F   UNL A   1      45.615  28.328  25.452  1.00  0.00    -0.203 F 
ATOM     72  C   UNL A   1      47.421  27.397  24.275  1.00  0.00     0.198 A 
ATOM     73  C   UNL A   1      49.230  26.388  25.477  1.00  0.00     0.198 A 
ATOM     74  F   UNL A   1      49.281  26.435  27.833  1.00  0.00    -0.203 F 
ATOM     75  F   UNL A   1      46.880  27.827  23.124  1.00  0.00    -0.200 F 
ATOM     76  C   UNL A   1      48.665  26.792  24.273  1.00  0.00     0.200 A 
ATOM     77  F   UNL A   1      50.433  25.794  25.469  1.00  0.00    -0.200 F 
ATOM     78  F   UNL A   1      49.336  26.627  23.123  1.00  0.00    -0.200 F 
ENDBRANCH  44  68
BRANCH  56  79
ATOM     79  C   UNL A   1      44.018  33.633  28.048  1.00  0.00     0.064 A 
ATOM     80  C   UNL A   1      44.131  34.840  28.762  1.00  0.00     0.173 A 
ATOM     81  C   UNL A   1      43.675  33.792  26.683  1.00  0.00     0.173 A 
ATOM     82  F   UNL A   1      44.707  34.898  29.970  1.00  0.00    -0.203 F 
ATOM     83  C   UNL A   1      43.729  36.065  28.233  1.00  0.00     0.198 A 
ATOM     84  C   UNL A   1      43.380  35.036  26.124  1.00  0.00     0.198 A 
ATOM     85  F   UNL A   1      43.663  32.767  25.821  1.00  0.00    -0.203 F 
ATOM     86  F   UNL A   1      43.745  37.154  29.014  1.00  0.00    -0.200 F 
ATOM     87  C   UNL A   1      43.349  36.163  26.914  1.00  0.00     0.200 A 
ATOM     88  F   UNL A   1      43.143  35.132  24.808  1.00  0.00    -0.200 F 
ATOM     89  F   UNL A   1      42.995  37.346  26.397  1.00  0.00    -0.200 F 
ENDBRANCH  56  79
ENDBRANCH  30  31
ENDBRANCH  23  25
ENDBRANCH  22  23
ENDBRANCH  21  22
ENDBRANCH   1  21
TORSDOF 14
ENDMDL
