MODEL 1
REMARK VINA RESULT:     -11.6      0.000      0.000
REMARK SMILES O=C(OCCOC(=O)[C@@H]1C[C@H]1C(=O)N[C@@H]1CONC1=O)c1ccc(-c2c3nc(c(-c4c(F)c(F)c(F)c(F)c4F)c4ccc([nH]4)c(-c4c(F)c(F)c(F)c(F)c4F)c4nc(c(-c5c(F)c(F)c(F)c(F)c5F)c5ccc2[nH]5)C=C4)C=C3)cc1
REMARK SMILES IDX 4 1 3 2 2 3 1 4 21 5 22 6 83 7 23 8 82 9 24 10 25 11 26 12
REMARK SMILES IDX 76 13 27 14 81 15 75 16 77 17 28 18 80 19 74 20 73 21 29 23
REMARK SMILES IDX 61 24 41 25 60 26 42 27 45 28 59 29 78 30 43 31 44 32 58 34
REMARK SMILES IDX 79 35 46 36 30 37 31 38 39 39 32 40 33 41 37 42 40 43 34 44
REMARK SMILES IDX 35 45 38 46 36 47 62 48 63 49 71 50 64 51 65 52 69 53 72 54
REMARK SMILES IDX 66 55 67 56 70 57 68 58 47 59 48 60 56 61 49 62 50 63 54 64
REMARK SMILES IDX 57 65 51 66 52 67 55 68 53 69 5 70 6 71 7 72 8 73 9 74 10 75
REMARK SMILES IDX 11 76 12 77 13 78 14 79 15 81 16 82 19 83 17 84 18 85 20 86
REMARK H PARENT 77 22 45 33 14 80 18 87
REMARK Flexibility Score: inf
ROOT
ATOM      1  C   UNL A   1      40.290  21.400  26.137  1.00  0.00     0.275 C 
ENDROOT
BRANCH   1   2
ATOM      2  O   UNL A   1      38.959  21.927  26.208  1.00  0.00    -0.458 OA
BRANCH   2   3
ATOM      3  C   UNL A   1      38.540  23.211  26.180  1.00  0.00     0.338 C 
ATOM      4  O   UNL A   1      37.508  23.465  25.558  1.00  0.00    -0.246 OA
BRANCH   3   5
ATOM      5  C   UNL A   1      39.301  24.371  26.762  1.00  0.00     0.060 A 
ATOM      6  C   UNL A   1      40.169  25.252  26.096  1.00  0.00     0.016 A 
ATOM      7  C   UNL A   1      39.030  24.637  28.111  1.00  0.00     0.016 A 
ATOM      8  C   UNL A   1      40.616  26.444  26.690  1.00  0.00     0.010 A 
ATOM      9  C   UNL A   1      39.483  25.811  28.709  1.00  0.00     0.010 A 
ATOM     10  C   UNL A   1      40.232  26.760  27.987  1.00  0.00    -0.014 A 
BRANCH  10  11
ATOM     11  C   UNL A   1      40.619  28.037  28.647  1.00  0.00     0.031 A 
ATOM     12  C   UNL A   1      41.950  28.071  29.332  1.00  0.00     0.074 A 
ATOM     13  C   UNL A   1      39.759  29.074  28.778  1.00  0.00     0.049 A 
ATOM     14  N   UNL A   1      42.473  28.992  30.095  1.00  0.00    -0.248 NA
ATOM     15  C   UNL A   1      42.806  26.883  29.147  1.00  0.00     0.031 C 
ATOM     16  C   UNL A   1      38.411  29.157  28.210  1.00  0.00     0.029 A 
ATOM     17  N   UNL A   1      39.854  30.222  29.535  1.00  0.00    -0.354 N 
ATOM     18  C   UNL A   1      43.727  28.513  30.429  1.00  0.00     0.074 A 
ATOM     19  C   UNL A   1      43.821  27.156  29.946  1.00  0.00     0.031 C 
ATOM     20  C   UNL A   1      37.762  30.209  28.743  1.00  0.00     0.029 A 
ATOM     21  C   UNL A   1      38.668  30.917  29.638  1.00  0.00     0.049 A 
ATOM     22  H   UNL A   1      40.690  30.517  29.962  1.00  0.00     0.167 HD
ATOM     23  C   UNL A   1      44.756  29.185  30.990  1.00  0.00     0.037 A 
ATOM     24  C   UNL A   1      38.358  32.005  30.371  1.00  0.00     0.037 A 
ATOM     25  C   UNL A   1      44.645  30.525  31.483  1.00  0.00     0.049 A 
ATOM     26  C   UNL A   1      39.469  32.690  31.127  1.00  0.00     0.074 A 
ATOM     27  C   UNL A   1      45.622  31.334  32.026  1.00  0.00     0.029 A 
ATOM     28  N   UNL A   1      43.457  31.245  31.509  1.00  0.00    -0.354 N 
ATOM     29  N   UNL A   1      40.716  32.320  31.281  1.00  0.00    -0.248 NA
ATOM     30  C   UNL A   1      39.150  33.986  31.745  1.00  0.00     0.031 C 
ATOM     31  C   UNL A   1      45.014  32.528  32.430  1.00  0.00     0.029 A 
ATOM     32  C   UNL A   1      43.670  32.483  32.085  1.00  0.00     0.049 A 
ATOM     33  H   UNL A   1      42.592  30.921  31.168  1.00  0.00     0.167 HD
ATOM     34  C   UNL A   1      41.351  33.368  31.931  1.00  0.00     0.074 A 
ATOM     35  C   UNL A   1      40.344  34.381  32.166  1.00  0.00     0.031 C 
ATOM     36  C   UNL A   1      42.657  33.490  32.275  1.00  0.00     0.037 A 
BRANCH  23  37
ATOM     37  C   UNL A   1      46.070  28.469  31.018  1.00  0.00     0.064 A 
ATOM     38  C   UNL A   1      46.939  28.520  29.911  1.00  0.00     0.173 A 
ATOM     39  C   UNL A   1      46.437  27.666  32.103  1.00  0.00     0.173 A 
ATOM     40  F   UNL A   1      46.619  29.256  28.834  1.00  0.00    -0.203 F 
ATOM     41  C   UNL A   1      48.090  27.742  29.866  1.00  0.00     0.198 A 
ATOM     42  C   UNL A   1      47.611  26.918  32.070  1.00  0.00     0.198 A 
ATOM     43  F   UNL A   1      45.642  27.580  33.180  1.00  0.00    -0.203 F 
ATOM     44  F   UNL A   1      48.849  27.734  28.760  1.00  0.00    -0.200 F 
ATOM     45  C   UNL A   1      48.426  26.943  30.946  1.00  0.00     0.200 A 
ATOM     46  F   UNL A   1      47.940  26.146  33.115  1.00  0.00    -0.200 F 
ATOM     47  F   UNL A   1      49.526  26.179  30.896  1.00  0.00    -0.200 F 
ENDBRANCH  23  37
BRANCH  24  48
ATOM     48  C   UNL A   1      36.993  32.603  30.340  1.00  0.00     0.064 A 
ATOM     49  C   UNL A   1      36.632  33.495  29.319  1.00  0.00     0.173 A 
ATOM     50  C   UNL A   1      36.049  32.360  31.349  1.00  0.00     0.173 A 
ATOM     51  F   UNL A   1      37.507  33.782  28.344  1.00  0.00    -0.203 F 
ATOM     52  C   UNL A   1      35.400  34.150  29.327  1.00  0.00     0.198 A 
ATOM     53  C   UNL A   1      34.807  33.000  31.346  1.00  0.00     0.198 A 
ATOM     54  F   UNL A   1      36.340  31.524  32.356  1.00  0.00    -0.203 F 
ATOM     55  F   UNL A   1      35.113  35.043  28.371  1.00  0.00    -0.200 F 
ATOM     56  C   UNL A   1      34.488  33.902  30.340  1.00  0.00     0.200 A 
ATOM     57  F   UNL A   1      33.924  32.762  32.326  1.00  0.00    -0.200 F 
ATOM     58  F   UNL A   1      33.313  34.545  30.358  1.00  0.00    -0.200 F 
ENDBRANCH  24  48
BRANCH  36  59
ATOM     59  C   UNL A   1      43.098  34.794  32.868  1.00  0.00     0.064 A 
ATOM     60  C   UNL A   1      43.491  35.877  32.071  1.00  0.00     0.173 A 
ATOM     61  C   UNL A   1      43.044  34.980  34.258  1.00  0.00     0.173 A 
ATOM     62  F   UNL A   1      43.574  35.742  30.739  1.00  0.00    -0.203 F 
ATOM     63  C   UNL A   1      43.829  37.098  32.647  1.00  0.00     0.198 A 
ATOM     64  C   UNL A   1      43.345  36.213  34.827  1.00  0.00     0.198 A 
ATOM     65  F   UNL A   1      42.667  33.975  35.063  1.00  0.00    -0.203 F 
ATOM     66  F   UNL A   1      44.242  38.109  31.871  1.00  0.00    -0.200 F 
ATOM     67  C   UNL A   1      43.742  37.269  34.022  1.00  0.00     0.200 A 
ATOM     68  F   UNL A   1      43.239  36.382  36.152  1.00  0.00    -0.200 F 
ATOM     69  F   UNL A   1      44.043  38.453  34.570  1.00  0.00    -0.200 F 
ENDBRANCH  36  59
ENDBRANCH  10  11
ENDBRANCH   3   5
ENDBRANCH   2   3
ENDBRANCH   1   2
BRANCH   1  70
ATOM     70  C   UNL A   1      40.883  20.985  27.489  1.00  0.00     0.274 C 
BRANCH  70  71
ATOM     71  O   UNL A   1      42.310  21.176  27.599  1.00  0.00    -0.462 OA
BRANCH  71  72
ATOM     72  C   UNL A   1      42.741  22.470  27.595  1.00  0.00     0.309 C 
ATOM     73  O   UNL A   1      42.349  23.342  28.364  1.00  0.00    -0.252 OA
BRANCH  72  74
ATOM     74  C   UNL A   1      43.741  22.806  26.530  1.00  0.00     0.112 C 
ATOM     75  C   UNL A   1      43.319  23.736  25.414  1.00  0.00     0.030 C 
ATOM     76  C   UNL A   1      43.677  22.305  25.119  1.00  0.00     0.093 C 
BRANCH  76  77
ATOM     77  C   UNL A   1      44.691  22.005  24.073  1.00  0.00     0.224 C 
ATOM     78  O   UNL A   1      45.339  22.949  23.622  1.00  0.00    -0.275 OA
ATOM     79  N   UNL A   1      45.011  20.834  23.470  1.00  0.00    -0.342 N 
ATOM     80  H   UNL A   1      45.262  20.945  22.524  1.00  0.00     0.164 HD
BRANCH  79  81
ATOM     81  C   UNL A   1      45.064  19.463  23.914  1.00  0.00     0.202 C 
ATOM     82  C   UNL A   1      43.877  18.856  24.616  1.00  0.00     0.228 C 
ATOM     83  C   UNL A   1      46.202  19.274  24.872  1.00  0.00     0.268 C 
ATOM     84  O   UNL A   1      44.307  18.446  25.925  1.00  0.00    -0.271 OA
ATOM     85  N   UNL A   1      45.694  18.692  25.995  1.00  0.00    -0.233 N 
ATOM     86  O   UNL A   1      47.358  19.635  24.717  1.00  0.00    -0.270 OA
ATOM     87  H   UNL A   1      46.243  18.465  26.780  1.00  0.00     0.199 HD
ENDBRANCH  79  81
ENDBRANCH  76  77
ENDBRANCH  72  74
ENDBRANCH  71  72
ENDBRANCH  70  71
ENDBRANCH   1  70
TORSDOF 13
ENDMDL
MODEL 2
REMARK VINA RESULT:     -11.3      4.620     11.667
REMARK SMILES O=C(OCCOC(=O)[C@@H]1C[C@H]1C(=O)N[C@@H]1CONC1=O)c1ccc(-c2c3nc(c(-c4c(F)c(F)c(F)c(F)c4F)c4ccc([nH]4)c(-c4c(F)c(F)c(F)c(F)c4F)c4nc(c(-c5c(F)c(F)c(F)c(F)c5F)c5ccc2[nH]5)C=C4)C=C3)cc1
REMARK SMILES IDX 4 1 3 2 2 3 1 4 21 5 22 6 83 7 23 8 82 9 24 10 25 11 26 12
REMARK SMILES IDX 76 13 27 14 81 15 75 16 77 17 28 18 80 19 74 20 73 21 29 23
REMARK SMILES IDX 61 24 41 25 60 26 42 27 45 28 59 29 78 30 43 31 44 32 58 34
REMARK SMILES IDX 79 35 46 36 30 37 31 38 39 39 32 40 33 41 37 42 40 43 34 44
REMARK SMILES IDX 35 45 38 46 36 47 62 48 63 49 71 50 64 51 65 52 69 53 72 54
REMARK SMILES IDX 66 55 67 56 70 57 68 58 47 59 48 60 56 61 49 62 50 63 54 64
REMARK SMILES IDX 57 65 51 66 52 67 55 68 53 69 5 70 6 71 7 72 8 73 9 74 10 75
REMARK SMILES IDX 11 76 12 77 13 78 14 79 15 81 16 82 19 83 17 84 18 85 20 86
REMARK H PARENT 77 22 45 33 14 80 18 87
REMARK Flexibility Score: inf
ROOT
ATOM      1  C   UNL A   1      33.970  32.354  28.103  1.00  0.00     0.275 C 
ENDROOT
BRANCH   1   2
ATOM      2  O   UNL A   1      33.963  31.123  27.371  1.00  0.00    -0.458 OA
BRANCH   2   3
ATOM      3  C   UNL A   1      34.576  29.952  27.652  1.00  0.00     0.338 C 
ATOM      4  O   UNL A   1      33.946  28.913  27.454  1.00  0.00    -0.246 OA
BRANCH   3   5
ATOM      5  C   UNL A   1      35.932  29.829  28.292  1.00  0.00     0.060 A 
ATOM      6  C   UNL A   1      36.229  29.465  29.615  1.00  0.00     0.016 A 
ATOM      7  C   UNL A   1      37.014  30.022  27.422  1.00  0.00     0.016 A 
ATOM      8  C   UNL A   1      37.534  29.139  30.020  1.00  0.00     0.010 A 
ATOM      9  C   UNL A   1      38.312  29.712  27.823  1.00  0.00     0.010 A 
ATOM     10  C   UNL A   1      38.581  29.208  29.110  1.00  0.00    -0.014 A 
BRANCH  10  11
ATOM     11  C   UNL A   1      39.973  28.812  29.460  1.00  0.00     0.031 A 
ATOM     12  C   UNL A   1      40.861  29.880  30.020  1.00  0.00     0.074 A 
ATOM     13  C   UNL A   1      40.482  27.599  29.143  1.00  0.00     0.049 A 
ATOM     14  N   UNL A   1      42.141  29.851  30.277  1.00  0.00    -0.248 NA
ATOM     15  C   UNL A   1      40.216  31.175  30.312  1.00  0.00     0.031 C 
ATOM     16  C   UNL A   1      39.747  26.482  28.544  1.00  0.00     0.029 A 
ATOM     17  N   UNL A   1      41.781  27.140  29.179  1.00  0.00    -0.354 N 
ATOM     18  C   UNL A   1      42.430  31.096  30.804  1.00  0.00     0.074 A 
ATOM     19  C   UNL A   1      41.250  31.916  30.664  1.00  0.00     0.031 C 
ATOM     20  C   UNL A   1      40.615  25.534  28.144  1.00  0.00     0.029 A 
ATOM     21  C   UNL A   1      41.963  25.942  28.520  1.00  0.00     0.049 A 
ATOM     22  H   UNL A   1      42.510  27.621  29.633  1.00  0.00     0.167 HD
ATOM     23  C   UNL A   1      43.548  31.490  31.453  1.00  0.00     0.037 A 
ATOM     24  C   UNL A   1      43.094  25.257  28.258  1.00  0.00     0.037 A 
ATOM     25  C   UNL A   1      44.719  30.675  31.568  1.00  0.00     0.049 A 
ATOM     26  C   UNL A   1      44.384  25.762  28.855  1.00  0.00     0.074 A 
ATOM     27  C   UNL A   1      45.896  30.936  32.240  1.00  0.00     0.029 A 
ATOM     28  N   UNL A   1      44.861  29.433  30.963  1.00  0.00    -0.354 N 
ATOM     29  N   UNL A   1      44.609  26.867  29.523  1.00  0.00    -0.248 NA
ATOM     30  C   UNL A   1      45.560  24.888  28.731  1.00  0.00     0.031 C 
ATOM     31  C   UNL A   1      46.771  29.871  31.999  1.00  0.00     0.029 A 
ATOM     32  C   UNL A   1      46.119  28.923  31.223  1.00  0.00     0.049 A 
ATOM     33  H   UNL A   1      44.168  28.983  30.427  1.00  0.00     0.167 HD
ATOM     34  C   UNL A   1      45.919  26.782  29.974  1.00  0.00     0.074 A 
ATOM     35  C   UNL A   1      46.447  25.527  29.481  1.00  0.00     0.031 C 
ATOM     36  C   UNL A   1      46.609  27.653  30.751  1.00  0.00     0.037 A 
BRANCH  23  37
ATOM     37  C   UNL A   1      43.482  32.830  32.119  1.00  0.00     0.064 A 
ATOM     38  C   UNL A   1      42.988  32.955  33.431  1.00  0.00     0.173 A 
ATOM     39  C   UNL A   1      43.831  33.998  31.434  1.00  0.00     0.173 A 
ATOM     40  F   UNL A   1      42.617  31.865  34.121  1.00  0.00    -0.203 F 
ATOM     41  C   UNL A   1      42.785  34.205  34.004  1.00  0.00     0.198 A 
ATOM     42  C   UNL A   1      43.661  35.247  32.026  1.00  0.00     0.198 A 
ATOM     43  F   UNL A   1      44.302  33.933  30.179  1.00  0.00    -0.203 F 
ATOM     44  F   UNL A   1      42.222  34.301  35.217  1.00  0.00    -0.200 F 
ATOM     45  C   UNL A   1      43.123  35.350  33.302  1.00  0.00     0.200 A 
ATOM     46  F   UNL A   1      43.989  36.356  31.350  1.00  0.00    -0.200 F 
ATOM     47  F   UNL A   1      42.910  36.556  33.846  1.00  0.00    -0.200 F 
ENDBRANCH  23  37
BRANCH  24  48
ATOM     48  C   UNL A   1      43.068  23.965  27.514  1.00  0.00     0.064 A 
ATOM     49  C   UNL A   1      43.367  23.929  26.143  1.00  0.00     0.173 A 
ATOM     50  C   UNL A   1      42.683  22.761  28.123  1.00  0.00     0.173 A 
ATOM     51  F   UNL A   1      43.715  25.057  25.507  1.00  0.00    -0.203 F 
ATOM     52  C   UNL A   1      43.245  22.754  25.403  1.00  0.00     0.198 A 
ATOM     53  C   UNL A   1      42.582  21.579  27.385  1.00  0.00     0.198 A 
ATOM     54  F   UNL A   1      42.377  22.735  29.428  1.00  0.00    -0.203 F 
ATOM     55  F   UNL A   1      43.477  22.769  24.084  1.00  0.00    -0.200 F 
ATOM     56  C   UNL A   1      42.853  21.579  26.024  1.00  0.00     0.200 A 
ATOM     57  F   UNL A   1      42.202  20.442  27.985  1.00  0.00    -0.200 F 
ATOM     58  F   UNL A   1      42.718  20.453  25.309  1.00  0.00    -0.200 F 
ENDBRANCH  24  48
BRANCH  36  59
ATOM     59  C   UNL A   1      47.984  27.250  31.189  1.00  0.00     0.064 A 
ATOM     60  C   UNL A   1      49.132  27.636  30.484  1.00  0.00     0.173 A 
ATOM     61  C   UNL A   1      48.152  26.531  32.383  1.00  0.00     0.173 A 
ATOM     62  F   UNL A   1      49.022  28.309  29.329  1.00  0.00    -0.203 F 
ATOM     63  C   UNL A   1      50.399  27.304  30.952  1.00  0.00     0.198 A 
ATOM     64  C   UNL A   1      49.421  26.236  32.868  1.00  0.00     0.198 A 
ATOM     65  F   UNL A   1      47.084  26.144  33.097  1.00  0.00    -0.203 F 
ATOM     66  F   UNL A   1      51.483  27.647  30.243  1.00  0.00    -0.200 F 
ATOM     67  C   UNL A   1      50.543  26.618  32.150  1.00  0.00     0.200 A 
ATOM     68  F   UNL A   1      49.558  25.592  34.035  1.00  0.00    -0.200 F 
ATOM     69  F   UNL A   1      51.766  26.324  32.611  1.00  0.00    -0.200 F 
ENDBRANCH  36  59
ENDBRANCH  10  11
ENDBRANCH   3   5
ENDBRANCH   2   3
ENDBRANCH   1   2
BRANCH   1  70
ATOM     70  C   UNL A   1      35.128  33.296  27.754  1.00  0.00     0.274 C 
BRANCH  70  71
ATOM     71  O   UNL A   1      35.602  34.097  28.859  1.00  0.00    -0.462 OA
BRANCH  71  72
ATOM     72  C   UNL A   1      36.510  33.499  29.682  1.00  0.00     0.309 C 
ATOM     73  O   UNL A   1      37.586  33.035  29.318  1.00  0.00    -0.252 OA
BRANCH  72  74
ATOM     74  C   UNL A   1      36.100  33.398  31.120  1.00  0.00     0.112 C 
ATOM     75  C   UNL A   1      35.350  32.162  31.570  1.00  0.00     0.030 C 
ATOM     76  C   UNL A   1      34.687  33.513  31.608  1.00  0.00     0.093 C 
BRANCH  76  77
ATOM     77  C   UNL A   1      34.056  33.982  32.870  1.00  0.00     0.224 C 
ATOM     78  O   UNL A   1      34.489  33.525  33.927  1.00  0.00    -0.275 OA
ATOM     79  N   UNL A   1      33.015  34.826  33.071  1.00  0.00    -0.342 N 
ATOM     80  H   UNL A   1      32.460  34.576  33.846  1.00  0.00     0.164 HD
BRANCH  79  81
ATOM     81  C   UNL A   1      32.543  36.010  32.395  1.00  0.00     0.202 C 
ATOM     82  C   UNL A   1      32.329  35.986  30.903  1.00  0.00     0.228 C 
ATOM     83  C   UNL A   1      33.495  37.145  32.618  1.00  0.00     0.268 C 
ATOM     84  O   UNL A   1      33.188  36.983  30.324  1.00  0.00    -0.271 OA
ATOM     85  N   UNL A   1      33.821  37.649  31.394  1.00  0.00    -0.233 N 
ATOM     86  O   UNL A   1      33.958  37.515  33.686  1.00  0.00    -0.270 OA
ATOM     87  H   UNL A   1      34.438  38.406  31.269  1.00  0.00     0.199 HD
ENDBRANCH  79  81
ENDBRANCH  76  77
ENDBRANCH  72  74
ENDBRANCH  71  72
ENDBRANCH  70  71
ENDBRANCH   1  70
TORSDOF 13
ENDMDL
MODEL 3
REMARK VINA RESULT:     -11.1      5.771     11.535
REMARK SMILES O=C(OCCOC(=O)[C@@H]1C[C@H]1C(=O)N[C@@H]1CONC1=O)c1ccc(-c2c3nc(c(-c4c(F)c(F)c(F)c(F)c4F)c4ccc([nH]4)c(-c4c(F)c(F)c(F)c(F)c4F)c4nc(c(-c5c(F)c(F)c(F)c(F)c5F)c5ccc2[nH]5)C=C4)C=C3)cc1
REMARK SMILES IDX 4 1 3 2 2 3 1 4 21 5 22 6 83 7 23 8 82 9 24 10 25 11 26 12
REMARK SMILES IDX 76 13 27 14 81 15 75 16 77 17 28 18 80 19 74 20 73 21 29 23
REMARK SMILES IDX 61 24 41 25 60 26 42 27 45 28 59 29 78 30 43 31 44 32 58 34
REMARK SMILES IDX 79 35 46 36 30 37 31 38 39 39 32 40 33 41 37 42 40 43 34 44
REMARK SMILES IDX 35 45 38 46 36 47 62 48 63 49 71 50 64 51 65 52 69 53 72 54
REMARK SMILES IDX 66 55 67 56 70 57 68 58 47 59 48 60 56 61 49 62 50 63 54 64
REMARK SMILES IDX 57 65 51 66 52 67 55 68 53 69 5 70 6 71 7 72 8 73 9 74 10 75
REMARK SMILES IDX 11 76 12 77 13 78 14 79 15 81 16 82 19 83 17 84 18 85 20 86
REMARK H PARENT 77 22 45 33 14 80 18 87
REMARK Flexibility Score: inf
ROOT
ATOM      1  C   UNL A   1      32.145  33.297  26.894  1.00  0.00     0.275 C 
ENDROOT
BRANCH   1   2
ATOM      2  O   UNL A   1      32.519  34.095  28.023  1.00  0.00    -0.458 OA
BRANCH   2   3
ATOM      3  C   UNL A   1      33.743  34.506  28.419  1.00  0.00     0.338 C 
ATOM      4  O   UNL A   1      33.955  35.718  28.463  1.00  0.00    -0.246 OA
BRANCH   3   5
ATOM      5  C   UNL A   1      34.902  33.589  28.704  1.00  0.00     0.060 A 
ATOM      6  C   UNL A   1      36.253  33.782  28.372  1.00  0.00     0.016 A 
ATOM      7  C   UNL A   1      34.584  32.457  29.466  1.00  0.00     0.016 A 
ATOM      8  C   UNL A   1      37.271  32.981  28.915  1.00  0.00     0.010 A 
ATOM      9  C   UNL A   1      35.590  31.652  29.996  1.00  0.00     0.010 A 
ATOM     10  C   UNL A   1      36.951  31.939  29.777  1.00  0.00    -0.014 A 
BRANCH  10  11
ATOM     11  C   UNL A   1      37.988  31.098  30.435  1.00  0.00     0.031 A 
ATOM     12  C   UNL A   1      38.423  31.508  31.808  1.00  0.00     0.074 A 
ATOM     13  C   UNL A   1      38.639  30.108  29.782  1.00  0.00     0.049 A 
ATOM     14  N   UNL A   1      39.394  31.047  32.548  1.00  0.00    -0.248 NA
ATOM     15  C   UNL A   1      37.664  32.612  32.427  1.00  0.00     0.031 C 
ATOM     16  C   UNL A   1      38.358  29.638  28.423  1.00  0.00     0.029 A 
ATOM     17  N   UNL A   1      39.758  29.388  30.140  1.00  0.00    -0.354 N 
ATOM     18  C   UNL A   1      39.323  31.769  33.726  1.00  0.00     0.074 A 
ATOM     19  C   UNL A   1      38.344  32.813  33.541  1.00  0.00     0.031 C 
ATOM     20  C   UNL A   1      39.348  28.823  28.014  1.00  0.00     0.029 A 
ATOM     21  C   UNL A   1      40.300  28.656  29.105  1.00  0.00     0.049 A 
ATOM     22  H   UNL A   1      40.134  29.395  31.050  1.00  0.00     0.167 HD
ATOM     23  C   UNL A   1      39.938  31.513  34.901  1.00  0.00     0.037 A 
ATOM     24  C   UNL A   1      41.435  27.930  29.054  1.00  0.00     0.037 A 
ATOM     25  C   UNL A   1      40.922  30.487  35.067  1.00  0.00     0.049 A 
ATOM     26  C   UNL A   1      42.220  27.752  30.329  1.00  0.00     0.074 A 
ATOM     27  C   UNL A   1      41.582  30.093  36.214  1.00  0.00     0.029 A 
ATOM     28  N   UNL A   1      41.405  29.701  34.028  1.00  0.00    -0.354 N 
ATOM     29  N   UNL A   1      42.028  28.302  31.503  1.00  0.00    -0.248 NA
ATOM     30  C   UNL A   1      43.333  26.791  30.295  1.00  0.00     0.031 C 
ATOM     31  C   UNL A   1      42.504  29.102  35.858  1.00  0.00     0.029 A 
ATOM     32  C   UNL A   1      42.376  28.840  34.501  1.00  0.00     0.049 A 
ATOM     33  H   UNL A   1      41.100  29.751  33.093  1.00  0.00     0.167 HD
ATOM     34  C   UNL A   1      42.930  27.694  32.365  1.00  0.00     0.074 A 
ATOM     35  C   UNL A   1      43.688  26.749  31.572  1.00  0.00     0.031 C 
ATOM     36  C   UNL A   1      43.093  27.881  33.698  1.00  0.00     0.037 A 
BRANCH  23  37
ATOM     37  C   UNL A   1      39.487  32.333  36.070  1.00  0.00     0.064 A 
ATOM     38  C   UNL A   1      40.162  33.519  36.417  1.00  0.00     0.173 A 
ATOM     39  C   UNL A   1      38.442  31.907  36.896  1.00  0.00     0.173 A 
ATOM     40  F   UNL A   1      41.189  33.956  35.671  1.00  0.00    -0.203 F 
ATOM     41  C   UNL A   1      39.847  34.208  37.583  1.00  0.00     0.198 A 
ATOM     42  C   UNL A   1      38.104  32.622  38.042  1.00  0.00     0.198 A 
ATOM     43  F   UNL A   1      37.770  30.781  36.612  1.00  0.00    -0.203 F 
ATOM     44  F   UNL A   1      40.569  35.280  37.941  1.00  0.00    -0.200 F 
ATOM     45  C   UNL A   1      38.817  33.760  38.393  1.00  0.00     0.200 A 
ATOM     46  F   UNL A   1      37.107  32.191  38.827  1.00  0.00    -0.200 F 
ATOM     47  F   UNL A   1      38.526  34.413  39.527  1.00  0.00    -0.200 F 
ENDBRANCH  23  37
BRANCH  24  48
ATOM     48  C   UNL A   1      41.846  27.211  27.815  1.00  0.00     0.064 A 
ATOM     49  C   UNL A   1      41.380  25.910  27.562  1.00  0.00     0.173 A 
ATOM     50  C   UNL A   1      42.752  27.761  26.897  1.00  0.00     0.173 A 
ATOM     51  F   UNL A   1      40.532  25.328  28.422  1.00  0.00    -0.203 F 
ATOM     52  C   UNL A   1      41.833  25.176  26.467  1.00  0.00     0.198 A 
ATOM     53  C   UNL A   1      43.190  27.033  25.787  1.00  0.00     0.198 A 
ATOM     54  F   UNL A   1      43.238  28.996  27.090  1.00  0.00    -0.203 F 
ATOM     55  F   UNL A   1      41.418  23.915  26.291  1.00  0.00    -0.200 F 
ATOM     56  C   UNL A   1      42.738  25.738  25.580  1.00  0.00     0.200 A 
ATOM     57  F   UNL A   1      44.065  27.575  24.930  1.00  0.00    -0.200 F 
ATOM     58  F   UNL A   1      43.187  25.025  24.537  1.00  0.00    -0.200 F 
ENDBRANCH  24  48
BRANCH  36  59
ATOM     59  C   UNL A   1      44.071  26.995  34.407  1.00  0.00     0.064 A 
ATOM     60  C   UNL A   1      45.398  27.384  34.633  1.00  0.00     0.173 A 
ATOM     61  C   UNL A   1      43.641  25.769  34.939  1.00  0.00     0.173 A 
ATOM     62  F   UNL A   1      45.859  28.538  34.130  1.00  0.00    -0.203 F 
ATOM     63  C   UNL A   1      46.265  26.569  35.355  1.00  0.00     0.198 A 
ATOM     64  C   UNL A   1      44.499  24.976  35.693  1.00  0.00     0.198 A 
ATOM     65  F   UNL A   1      42.378  25.356  34.755  1.00  0.00    -0.203 F 
ATOM     66  F   UNL A   1      47.541  26.939  35.525  1.00  0.00    -0.200 F 
ATOM     67  C   UNL A   1      45.811  25.374  35.896  1.00  0.00     0.200 A 
ATOM     68  F   UNL A   1      44.053  23.833  36.233  1.00  0.00    -0.200 F 
ATOM     69  F   UNL A   1      46.641  24.605  36.612  1.00  0.00    -0.200 F 
ENDBRANCH  36  59
ENDBRANCH  10  11
ENDBRANCH   3   5
ENDBRANCH   2   3
ENDBRANCH   1   2
BRANCH   1  70
ATOM     70  C   UNL A   1      31.672  31.880  27.243  1.00  0.00     0.274 C 
BRANCH  70  71
ATOM     71  O   UNL A   1      31.507  31.007  26.104  1.00  0.00    -0.462 OA
BRANCH  71  72
ATOM     72  C   UNL A   1      31.964  29.732  26.260  1.00  0.00     0.309 C 
ATOM     73  O   UNL A   1      32.607  29.330  27.224  1.00  0.00    -0.252 OA
BRANCH  72  74
ATOM     74  C   UNL A   1      31.658  28.802  25.124  1.00  0.00     0.112 C 
ATOM     75  C   UNL A   1      32.470  28.927  23.853  1.00  0.00     0.030 C 
ATOM     76  C   UNL A   1      30.993  29.214  23.846  1.00  0.00     0.093 C 
BRANCH  76  77
ATOM     77  C   UNL A   1      30.119  28.529  22.858  1.00  0.00     0.224 C 
ATOM     78  O   UNL A   1      30.176  27.301  22.804  1.00  0.00    -0.275 OA
ATOM     79  N   UNL A   1      29.266  29.038  21.936  1.00  0.00    -0.342 N 
ATOM     80  H   UNL A   1      29.235  28.508  21.106  1.00  0.00     0.164 HD
BRANCH  79  81
ATOM     81  C   UNL A   1      28.396  30.189  21.907  1.00  0.00     0.202 C 
ATOM     82  C   UNL A   1      28.984  31.575  21.964  1.00  0.00     0.228 C 
ATOM     83  C   UNL A   1      27.440  30.140  23.061  1.00  0.00     0.268 C 
ATOM     84  O   UNL A   1      28.462  32.223  23.135  1.00  0.00    -0.271 OA
ATOM     85  N   UNL A   1      27.534  31.333  23.716  1.00  0.00    -0.233 N 
ATOM     86  O   UNL A   1      26.752  29.192  23.405  1.00  0.00    -0.270 OA
ATOM     87  H   UNL A   1      27.005  31.551  24.517  1.00  0.00     0.199 HD
ENDBRANCH  79  81
ENDBRANCH  76  77
ENDBRANCH  72  74
ENDBRANCH  71  72
ENDBRANCH  70  71
ENDBRANCH   1  70
TORSDOF 13
ENDMDL
