MODEL 1
REMARK VINA RESULT:     -11.2      0.000      0.000
REMARK SMILES O=C(CSc1ccccc1C(=O)OCCOC(=O)c1ccc(-c2c3nc(c(-c4c(F)c(F)c(F)c(F)c4F)c4ccc([nH]4)c(-c4c(F)c(F)c(F)c(F)c4F)c4nc(c(-c5c(F)c(F)c(F)c(F)c5F)c5ccc2[nH]5)C=C4)C=C3)cc1)c1ccc(Cl)cc1
REMARK SMILES IDX 14 1 13 2 11 3 12 4 10 5 5 6 6 7 7 8 9 9 8 10 4 11 3 12 2 13
REMARK SMILES IDX 1 14 82 15 83 16 88 17 84 18 87 19 85 20 86 21 15 22 16 23
REMARK SMILES IDX 17 24 18 25 19 26 20 27 81 28 21 29 80 30 22 31 23 32 24 33
REMARK SMILES IDX 74 34 25 35 79 36 73 37 75 38 26 39 78 40 72 41 71 42 27 44
REMARK SMILES IDX 59 45 39 46 58 47 40 48 43 49 57 50 76 51 41 52 42 53 56 55
REMARK SMILES IDX 77 56 44 57 28 58 29 59 37 60 30 61 31 62 35 63 38 64 32 65
REMARK SMILES IDX 33 66 36 67 34 68 60 69 61 70 69 71 62 72 63 73 67 74 70 75
REMARK SMILES IDX 64 76 65 77 68 78 66 79 45 80 46 81 54 82 47 83 48 84 52 85
REMARK SMILES IDX 55 86 49 87 50 88 53 89 51 90
REMARK H PARENT 75 43 43 54
REMARK Flexibility Score: inf
ROOT
ATOM      1  C   UNL A   1      36.036  21.209  24.806  1.00  0.00     0.275 C 
ENDROOT
BRANCH   1   2
ATOM      2  O   UNL A   1      35.225  21.646  25.925  1.00  0.00    -0.458 OA
BRANCH   2   3
ATOM      3  C   UNL A   1      34.918  22.965  25.902  1.00  0.00     0.339 C 
ATOM      4  O   UNL A   1      35.727  23.882  25.917  1.00  0.00    -0.246 OA
BRANCH   3   5
ATOM      5  C   UNL A   1      33.480  23.223  25.654  1.00  0.00     0.073 A 
ATOM      6  C   UNL A   1      32.813  23.173  24.422  1.00  0.00     0.022 A 
ATOM      7  C   UNL A   1      31.412  23.368  24.424  1.00  0.00     0.016 A 
ATOM      8  C   UNL A   1      30.700  23.652  25.591  1.00  0.00     0.001 A 
ATOM      9  C   UNL A   1      32.745  23.507  26.831  1.00  0.00     0.017 A 
ATOM     10  C   UNL A   1      31.373  23.748  26.797  1.00  0.00     0.001 A 
BRANCH   6  11
ATOM     11  S   UNL A   1      33.459  23.060  22.764  1.00  0.00    -0.117 SA
BRANCH  11  12
ATOM     12  C   UNL A   1      32.852  24.480  21.853  1.00  0.00     0.156 C 
BRANCH  12  13
ATOM     13  C   UNL A   1      33.213  25.878  22.323  1.00  0.00     0.173 C 
ATOM     14  O   UNL A   1      33.906  26.562  21.551  1.00  0.00    -0.293 OA
BRANCH  13  15
ATOM     15  C   UNL A   1      32.772  26.567  23.599  1.00  0.00     0.018 A 
ATOM     16  C   UNL A   1      31.485  27.019  23.906  1.00  0.00     0.013 A 
ATOM     17  C   UNL A   1      33.747  26.672  24.616  1.00  0.00     0.013 A 
ATOM     18  C   UNL A   1      31.157  27.473  25.195  1.00  0.00     0.021 A 
ATOM     19  C   UNL A   1      33.430  27.141  25.898  1.00  0.00     0.021 A 
ATOM     20  C   UNL A   1      32.126  27.518  26.189  1.00  0.00     0.041 A 
ATOM     21  Cl  UNL A   1      31.698  27.990  27.784  1.00  0.00    -0.084 Cl
ENDBRANCH  13  15
ENDBRANCH  12  13
ENDBRANCH  11  12
ENDBRANCH   6  11
ENDBRANCH   3   5
ENDBRANCH   2   3
ENDBRANCH   1   2
BRANCH   1  22
ATOM     22  C   UNL A   1      37.383  20.667  25.290  1.00  0.00     0.275 C 
BRANCH  22  23
ATOM     23  O   UNL A   1      38.243  21.765  25.620  1.00  0.00    -0.458 OA
BRANCH  23  24
ATOM     24  C   UNL A   1      39.307  21.431  26.379  1.00  0.00     0.338 C 
ATOM     25  O   UNL A   1      39.837  20.338  26.522  1.00  0.00    -0.246 OA
BRANCH  24  26
ATOM     26  C   UNL A   1      39.915  22.696  26.774  1.00  0.00     0.060 A 
ATOM     27  C   UNL A   1      39.432  23.846  26.147  1.00  0.00     0.016 A 
ATOM     28  C   UNL A   1      40.881  22.761  27.773  1.00  0.00     0.016 A 
ATOM     29  C   UNL A   1      39.937  25.085  26.501  1.00  0.00     0.010 A 
ATOM     30  C   UNL A   1      41.367  24.012  28.149  1.00  0.00     0.010 A 
ATOM     31  C   UNL A   1      40.909  25.177  27.504  1.00  0.00    -0.014 A 
BRANCH  31  32
ATOM     32  C   UNL A   1      41.500  26.496  27.825  1.00  0.00     0.031 A 
ATOM     33  C   UNL A   1      42.910  26.781  27.403  1.00  0.00     0.074 A 
ATOM     34  C   UNL A   1      40.760  27.425  28.456  1.00  0.00     0.049 A 
ATOM     35  N   UNL A   1      43.667  27.810  27.679  1.00  0.00    -0.248 NA
ATOM     36  C   UNL A   1      43.566  25.757  26.574  1.00  0.00     0.031 C 
ATOM     37  C   UNL A   1      39.366  27.258  28.870  1.00  0.00     0.029 A 
ATOM     38  N   UNL A   1      41.073  28.700  28.852  1.00  0.00    -0.354 N 
ATOM     39  C   UNL A   1      44.899  27.536  27.098  1.00  0.00     0.074 A 
ATOM     40  C   UNL A   1      44.796  26.235  26.474  1.00  0.00     0.031 C 
ATOM     41  C   UNL A   1      38.934  28.396  29.434  1.00  0.00     0.029 A 
ATOM     42  C   UNL A   1      40.040  29.345  29.485  1.00  0.00     0.049 A 
ATOM     43  H   UNL A   1      41.953  29.112  28.696  1.00  0.00     0.167 HD
ATOM     44  C   UNL A   1      46.011  28.307  27.090  1.00  0.00     0.037 A 
ATOM     45  C   UNL A   1      40.007  30.557  30.070  1.00  0.00     0.037 A 
ATOM     46  C   UNL A   1      46.074  29.616  27.689  1.00  0.00     0.049 A 
ATOM     47  C   UNL A   1      41.261  31.387  30.060  1.00  0.00     0.074 A 
ATOM     48  C   UNL A   1      47.139  30.496  27.740  1.00  0.00     0.029 A 
ATOM     49  N   UNL A   1      45.012  30.235  28.336  1.00  0.00    -0.354 N 
ATOM     50  N   UNL A   1      42.434  31.110  29.539  1.00  0.00    -0.248 NA
ATOM     51  C   UNL A   1      41.192  32.694  30.724  1.00  0.00     0.031 C 
ATOM     52  C   UNL A   1      46.735  31.628  28.455  1.00  0.00     0.029 A 
ATOM     53  C   UNL A   1      45.400  31.480  28.801  1.00  0.00     0.049 A 
ATOM     54  H   UNL A   1      44.114  29.844  28.449  1.00  0.00     0.167 HD
ATOM     55  C   UNL A   1      43.238  32.211  29.798  1.00  0.00     0.074 A 
ATOM     56  C   UNL A   1      42.407  33.173  30.496  1.00  0.00     0.031 C 
ATOM     57  C   UNL A   1      44.545  32.412  29.494  1.00  0.00     0.037 A 
BRANCH  44  58
ATOM     58  C   UNL A   1      47.247  27.738  26.452  1.00  0.00     0.064 A 
ATOM     59  C   UNL A   1      48.229  27.063  27.194  1.00  0.00     0.173 A 
ATOM     60  C   UNL A   1      47.454  27.876  25.070  1.00  0.00     0.173 A 
ATOM     61  F   UNL A   1      48.093  26.921  28.521  1.00  0.00    -0.203 F 
ATOM     62  C   UNL A   1      49.385  26.579  26.584  1.00  0.00     0.198 A 
ATOM     63  C   UNL A   1      48.594  27.360  24.457  1.00  0.00     0.198 A 
ATOM     64  F   UNL A   1      46.550  28.511  24.310  1.00  0.00    -0.203 F 
ATOM     65  F   UNL A   1      50.336  25.994  27.325  1.00  0.00    -0.200 F 
ATOM     66  C   UNL A   1      49.563  26.722  25.217  1.00  0.00     0.200 A 
ATOM     67  F   UNL A   1      48.759  27.490  23.134  1.00  0.00    -0.200 F 
ATOM     68  F   UNL A   1      50.674  26.254  24.632  1.00  0.00    -0.200 F 
ENDBRANCH  44  58
BRANCH  45  69
ATOM     69  C   UNL A   1      38.760  31.041  30.723  1.00  0.00     0.064 A 
ATOM     70  C   UNL A   1      38.555  30.881  32.100  1.00  0.00     0.173 A 
ATOM     71  C   UNL A   1      37.749  31.676  29.986  1.00  0.00     0.173 A 
ATOM     72  F   UNL A   1      39.480  30.261  32.848  1.00  0.00    -0.203 F 
ATOM     73  C   UNL A   1      37.381  31.321  32.711  1.00  0.00     0.198 A 
ATOM     74  C   UNL A   1      36.591  32.147  30.603  1.00  0.00     0.198 A 
ATOM     75  F   UNL A   1      37.892  31.856  28.665  1.00  0.00    -0.203 F 
ATOM     76  F   UNL A   1      37.191  31.112  34.021  1.00  0.00    -0.200 F 
ATOM     77  C   UNL A   1      36.404  31.961  31.964  1.00  0.00     0.200 A 
ATOM     78  F   UNL A   1      35.659  32.780  29.878  1.00  0.00    -0.200 F 
ATOM     79  F   UNL A   1      35.280  32.392  32.552  1.00  0.00    -0.200 F 
ENDBRANCH  45  69
BRANCH  57  80
ATOM     80  C   UNL A   1      45.131  33.735  29.893  1.00  0.00     0.064 A 
ATOM     81  C   UNL A   1      45.082  34.850  29.042  1.00  0.00     0.173 A 
ATOM     82  C   UNL A   1      45.744  33.889  31.145  1.00  0.00     0.173 A 
ATOM     83  F   UNL A   1      44.521  34.749  27.828  1.00  0.00    -0.203 F 
ATOM     84  C   UNL A   1      45.667  36.057  29.414  1.00  0.00     0.198 A 
ATOM     85  C   UNL A   1      46.294  35.108  31.528  1.00  0.00     0.198 A 
ATOM     86  F   UNL A   1      45.808  32.856  31.999  1.00  0.00    -0.203 F 
ATOM     87  F   UNL A   1      45.670  37.087  28.557  1.00  0.00    -0.200 F 
ATOM     88  C   UNL A   1      46.267  36.186  30.657  1.00  0.00     0.200 A 
ATOM     89  F   UNL A   1      46.860  35.235  32.736  1.00  0.00    -0.200 F 
ATOM     90  F   UNL A   1      46.831  37.349  31.012  1.00  0.00    -0.200 F 
ENDBRANCH  57  80
ENDBRANCH  31  32
ENDBRANCH  24  26
ENDBRANCH  23  24
ENDBRANCH  22  23
ENDBRANCH   1  22
TORSDOF 15
ENDMDL
MODEL 2
REMARK VINA RESULT:     -11.1      0.355      1.639
REMARK SMILES O=C(CSc1ccccc1C(=O)OCCOC(=O)c1ccc(-c2c3nc(c(-c4c(F)c(F)c(F)c(F)c4F)c4ccc([nH]4)c(-c4c(F)c(F)c(F)c(F)c4F)c4nc(c(-c5c(F)c(F)c(F)c(F)c5F)c5ccc2[nH]5)C=C4)C=C3)cc1)c1ccc(Cl)cc1
REMARK SMILES IDX 14 1 13 2 11 3 12 4 10 5 5 6 6 7 7 8 9 9 8 10 4 11 3 12 2 13
REMARK SMILES IDX 1 14 82 15 83 16 88 17 84 18 87 19 85 20 86 21 15 22 16 23
REMARK SMILES IDX 17 24 18 25 19 26 20 27 81 28 21 29 80 30 22 31 23 32 24 33
REMARK SMILES IDX 74 34 25 35 79 36 73 37 75 38 26 39 78 40 72 41 71 42 27 44
REMARK SMILES IDX 59 45 39 46 58 47 40 48 43 49 57 50 76 51 41 52 42 53 56 55
REMARK SMILES IDX 77 56 44 57 28 58 29 59 37 60 30 61 31 62 35 63 38 64 32 65
REMARK SMILES IDX 33 66 36 67 34 68 60 69 61 70 69 71 62 72 63 73 67 74 70 75
REMARK SMILES IDX 64 76 65 77 68 78 66 79 45 80 46 81 54 82 47 83 48 84 52 85
REMARK SMILES IDX 55 86 49 87 50 88 53 89 51 90
REMARK H PARENT 75 43 43 54
REMARK Flexibility Score: inf
ROOT
ATOM      1  C   UNL A   1      36.051  20.779  25.013  1.00  0.00     0.275 C 
ENDROOT
BRANCH   1   2
ATOM      2  O   UNL A   1      35.746  21.932  25.836  1.00  0.00    -0.458 OA
BRANCH   2   3
ATOM      3  C   UNL A   1      35.199  22.967  25.155  1.00  0.00     0.339 C 
ATOM      4  O   UNL A   1      35.777  23.656  24.327  1.00  0.00    -0.246 OA
BRANCH   3   5
ATOM      5  C   UNL A   1      33.736  23.088  25.356  1.00  0.00     0.073 A 
ATOM      6  C   UNL A   1      32.733  22.892  24.397  1.00  0.00     0.022 A 
ATOM      7  C   UNL A   1      31.388  22.971  24.826  1.00  0.00     0.016 A 
ATOM      8  C   UNL A   1      31.042  23.282  26.143  1.00  0.00     0.001 A 
ATOM      9  C   UNL A   1      33.371  23.397  26.689  1.00  0.00     0.017 A 
ATOM     10  C   UNL A   1      32.038  23.521  27.074  1.00  0.00     0.001 A 
BRANCH   6  11
ATOM     11  S   UNL A   1      32.849  22.711  22.627  1.00  0.00    -0.117 SA
BRANCH  11  12
ATOM     12  C   UNL A   1      32.582  24.329  21.902  1.00  0.00     0.156 C 
BRANCH  12  13
ATOM     13  C   UNL A   1      33.202  25.551  22.557  1.00  0.00     0.173 C 
ATOM     14  O   UNL A   1      34.200  26.034  21.998  1.00  0.00    -0.293 OA
BRANCH  13  15
ATOM     15  C   UNL A   1      32.706  26.295  23.781  1.00  0.00     0.018 A 
ATOM     16  C   UNL A   1      31.375  26.561  24.118  1.00  0.00     0.013 A 
ATOM     17  C   UNL A   1      33.692  26.671  24.719  1.00  0.00     0.013 A 
ATOM     18  C   UNL A   1      31.031  27.095  25.371  1.00  0.00     0.021 A 
ATOM     19  C   UNL A   1      33.355  27.221  25.964  1.00  0.00     0.021 A 
ATOM     20  C   UNL A   1      32.021  27.409  26.294  1.00  0.00     0.041 A 
ATOM     21  Cl  UNL A   1      31.588  27.978  27.856  1.00  0.00    -0.084 Cl
ENDBRANCH  13  15
ENDBRANCH  12  13
ENDBRANCH  11  12
ENDBRANCH   6  11
ENDBRANCH   3   5
ENDBRANCH   2   3
ENDBRANCH   1   2
BRANCH   1  22
ATOM     22  C   UNL A   1      37.548  20.466  25.049  1.00  0.00     0.275 C 
BRANCH  22  23
ATOM     23  O   UNL A   1      38.255  21.595  25.578  1.00  0.00    -0.458 OA
BRANCH  23  24
ATOM     24  C   UNL A   1      39.299  21.278  26.370  1.00  0.00     0.338 C 
ATOM     25  O   UNL A   1      39.824  20.188  26.551  1.00  0.00    -0.246 OA
BRANCH  24  26
ATOM     26  C   UNL A   1      39.899  22.551  26.751  1.00  0.00     0.060 A 
ATOM     27  C   UNL A   1      39.345  23.699  26.183  1.00  0.00     0.016 A 
ATOM     28  C   UNL A   1      40.928  22.623  27.684  1.00  0.00     0.016 A 
ATOM     29  C   UNL A   1      39.839  24.945  26.529  1.00  0.00     0.010 A 
ATOM     30  C   UNL A   1      41.405  23.880  28.054  1.00  0.00     0.010 A 
ATOM     31  C   UNL A   1      40.873  25.044  27.467  1.00  0.00    -0.014 A 
BRANCH  31  32
ATOM     32  C   UNL A   1      41.450  26.371  27.776  1.00  0.00     0.031 A 
ATOM     33  C   UNL A   1      42.842  26.685  27.314  1.00  0.00     0.074 A 
ATOM     34  C   UNL A   1      40.713  27.285  28.433  1.00  0.00     0.049 A 
ATOM     35  N   UNL A   1      43.587  27.726  27.572  1.00  0.00    -0.248 NA
ATOM     36  C   UNL A   1      43.491  25.676  26.462  1.00  0.00     0.031 C 
ATOM     37  C   UNL A   1      39.334  27.090  28.887  1.00  0.00     0.029 A 
ATOM     38  N   UNL A   1      41.014  28.563  28.825  1.00  0.00    -0.354 N 
ATOM     39  C   UNL A   1      44.806  27.477  26.954  1.00  0.00     0.074 A 
ATOM     40  C   UNL A   1      44.709  26.177  26.327  1.00  0.00     0.031 C 
ATOM     41  C   UNL A   1      38.899  28.218  29.469  1.00  0.00     0.029 A 
ATOM     42  C   UNL A   1      39.988  29.187  29.492  1.00  0.00     0.049 A 
ATOM     43  H   UNL A   1      41.881  28.992  28.646  1.00  0.00     0.167 HD
ATOM     44  C   UNL A   1      45.904  28.269  26.917  1.00  0.00     0.037 A 
ATOM     45  C   UNL A   1      39.951  30.396  30.083  1.00  0.00     0.037 A 
ATOM     46  C   UNL A   1      45.960  29.576  27.519  1.00  0.00     0.049 A 
ATOM     47  C   UNL A   1      41.189  31.249  30.039  1.00  0.00     0.074 A 
ATOM     48  C   UNL A   1      47.011  30.475  27.543  1.00  0.00     0.029 A 
ATOM     49  N   UNL A   1      44.907  30.173  28.200  1.00  0.00    -0.354 N 
ATOM     50  N   UNL A   1      42.350  30.996  29.482  1.00  0.00    -0.248 NA
ATOM     51  C   UNL A   1      41.115  32.552  30.711  1.00  0.00     0.031 C 
ATOM     52  C   UNL A   1      46.607  31.597  28.274  1.00  0.00     0.029 A 
ATOM     53  C   UNL A   1      45.286  31.423  28.659  1.00  0.00     0.049 A 
ATOM     54  H   UNL A   1      44.020  29.765  28.338  1.00  0.00     0.167 HD
ATOM     55  C   UNL A   1      43.141  32.110  29.722  1.00  0.00     0.074 A 
ATOM     56  C   UNL A   1      42.314  33.054  30.450  1.00  0.00     0.031 C 
ATOM     57  C   UNL A   1      44.435  32.336  29.382  1.00  0.00     0.037 A 
BRANCH  44  58
ATOM     58  C   UNL A   1      47.130  27.725  26.239  1.00  0.00     0.064 A 
ATOM     59  C   UNL A   1      47.327  27.831  24.853  1.00  0.00     0.173 A 
ATOM     60  C   UNL A   1      48.126  27.083  26.992  1.00  0.00     0.173 A 
ATOM     61  F   UNL A   1      46.398  28.415  24.082  1.00  0.00    -0.203 F 
ATOM     62  C   UNL A   1      48.454  27.283  24.243  1.00  0.00     0.198 A 
ATOM     63  C   UNL A   1      49.269  26.568  26.384  1.00  0.00     0.198 A 
ATOM     64  F   UNL A   1      47.993  26.953  28.320  1.00  0.00    -0.203 F 
ATOM     65  F   UNL A   1      48.588  27.342  22.911  1.00  0.00    -0.200 F 
ATOM     66  C   UNL A   1      49.427  26.659  25.009  1.00  0.00     0.200 A 
ATOM     67  F   UNL A   1      50.212  25.974  27.127  1.00  0.00    -0.200 F 
ATOM     68  F   UNL A   1      50.511  26.135  24.422  1.00  0.00    -0.200 F 
ENDBRANCH  44  58
BRANCH  45  69
ATOM     69  C   UNL A   1      38.715  30.854  30.775  1.00  0.00     0.064 A 
ATOM     70  C   UNL A   1      37.646  31.409  30.058  1.00  0.00     0.173 A 
ATOM     71  C   UNL A   1      38.574  30.744  32.167  1.00  0.00     0.173 A 
ATOM     72  F   UNL A   1      37.737  31.556  28.727  1.00  0.00    -0.203 F 
ATOM     73  C   UNL A   1      36.494  31.850  30.705  1.00  0.00     0.198 A 
ATOM     74  C   UNL A   1      37.407  31.154  32.810  1.00  0.00     0.198 A 
ATOM     75  F   UNL A   1      39.565  30.221  32.904  1.00  0.00    -0.203 F 
ATOM     76  F   UNL A   1      35.507  32.420  30.000  1.00  0.00    -0.200 F 
ATOM     77  C   UNL A   1      36.372  31.715  32.080  1.00  0.00     0.200 A 
ATOM     78  F   UNL A   1      37.289  31.004  34.137  1.00  0.00    -0.200 F 
ATOM     79  F   UNL A   1      35.260  32.131  32.702  1.00  0.00    -0.200 F 
ENDBRANCH  45  69
BRANCH  57  80
ATOM     80  C   UNL A   1      45.008  33.668  29.768  1.00  0.00     0.064 A 
ATOM     81  C   UNL A   1      44.892  34.792  28.935  1.00  0.00     0.173 A 
ATOM     82  C   UNL A   1      45.678  33.822  30.992  1.00  0.00     0.173 A 
ATOM     83  F   UNL A   1      44.274  34.691  27.749  1.00  0.00    -0.203 F 
ATOM     84  C   UNL A   1      45.465  36.007  29.295  1.00  0.00     0.198 A 
ATOM     85  C   UNL A   1      46.217  35.049  31.363  1.00  0.00     0.198 A 
ATOM     86  F   UNL A   1      45.808  32.780  31.828  1.00  0.00    -0.203 F 
ATOM     87  F   UNL A   1      45.403  37.048  28.452  1.00  0.00    -0.200 F 
ATOM     88  C   UNL A   1      46.122  36.136  30.509  1.00  0.00     0.200 A 
ATOM     89  F   UNL A   1      46.838  35.175  32.544  1.00  0.00    -0.200 F 
ATOM     90  F   UNL A   1      46.675  37.308  30.851  1.00  0.00    -0.200 F 
ENDBRANCH  57  80
ENDBRANCH  31  32
ENDBRANCH  24  26
ENDBRANCH  23  24
ENDBRANCH  22  23
ENDBRANCH   1  22
TORSDOF 15
ENDMDL
MODEL 3
REMARK VINA RESULT:     -11.1      4.870      9.924
REMARK SMILES O=C(CSc1ccccc1C(=O)OCCOC(=O)c1ccc(-c2c3nc(c(-c4c(F)c(F)c(F)c(F)c4F)c4ccc([nH]4)c(-c4c(F)c(F)c(F)c(F)c4F)c4nc(c(-c5c(F)c(F)c(F)c(F)c5F)c5ccc2[nH]5)C=C4)C=C3)cc1)c1ccc(Cl)cc1
REMARK SMILES IDX 14 1 13 2 11 3 12 4 10 5 5 6 6 7 7 8 9 9 8 10 4 11 3 12 2 13
REMARK SMILES IDX 1 14 82 15 83 16 88 17 84 18 87 19 85 20 86 21 15 22 16 23
REMARK SMILES IDX 17 24 18 25 19 26 20 27 81 28 21 29 80 30 22 31 23 32 24 33
REMARK SMILES IDX 74 34 25 35 79 36 73 37 75 38 26 39 78 40 72 41 71 42 27 44
REMARK SMILES IDX 59 45 39 46 58 47 40 48 43 49 57 50 76 51 41 52 42 53 56 55
REMARK SMILES IDX 77 56 44 57 28 58 29 59 37 60 30 61 31 62 35 63 38 64 32 65
REMARK SMILES IDX 33 66 36 67 34 68 60 69 61 70 69 71 62 72 63 73 67 74 70 75
REMARK SMILES IDX 64 76 65 77 68 78 66 79 45 80 46 81 54 82 47 83 48 84 52 85
REMARK SMILES IDX 55 86 49 87 50 88 53 89 51 90
REMARK H PARENT 75 43 43 54
REMARK Flexibility Score: inf
ROOT
ATOM      1  C   UNL A   1      31.311  31.769  26.535  1.00  0.00     0.275 C 
ENDROOT
BRANCH   1   2
ATOM      2  O   UNL A   1      32.418  30.838  26.620  1.00  0.00    -0.458 OA
BRANCH   2   3
ATOM      3  C   UNL A   1      32.063  29.541  26.453  1.00  0.00     0.339 C 
ATOM      4  O   UNL A   1      31.402  28.879  27.241  1.00  0.00    -0.246 OA
BRANCH   3   5
ATOM      5  C   UNL A   1      32.383  29.020  25.104  1.00  0.00     0.073 A 
ATOM      6  C   UNL A   1      31.588  29.111  23.953  1.00  0.00     0.022 A 
ATOM      7  C   UNL A   1      32.126  28.621  22.741  1.00  0.00     0.016 A 
ATOM      8  C   UNL A   1      33.383  28.017  22.673  1.00  0.00     0.001 A 
ATOM      9  C   UNL A   1      33.658  28.410  25.020  1.00  0.00     0.017 A 
ATOM     10  C   UNL A   1      34.143  27.887  23.823  1.00  0.00     0.001 A 
BRANCH   6  11
ATOM     11  S   UNL A   1      29.886  29.608  23.763  1.00  0.00    -0.117 SA
BRANCH  11  12
ATOM     12  C   UNL A   1      28.989  28.211  23.085  1.00  0.00     0.156 C 
BRANCH  12  13
ATOM     13  C   UNL A   1      28.904  26.922  23.884  1.00  0.00     0.173 C 
ATOM     14  O   UNL A   1      27.764  26.515  24.161  1.00  0.00    -0.293 OA
BRANCH  13  15
ATOM     15  C   UNL A   1      30.049  26.033  24.327  1.00  0.00     0.018 A 
ATOM     16  C   UNL A   1      30.917  25.310  23.502  1.00  0.00     0.013 A 
ATOM     17  C   UNL A   1      30.319  26.015  25.713  1.00  0.00     0.013 A 
ATOM     18  C   UNL A   1      32.055  24.670  24.021  1.00  0.00     0.021 A 
ATOM     19  C   UNL A   1      31.443  25.363  26.238  1.00  0.00     0.021 A 
ATOM     20  C   UNL A   1      32.322  24.712  25.384  1.00  0.00     0.041 A 
ATOM     21  Cl  UNL A   1      33.761  24.003  25.999  1.00  0.00    -0.084 Cl
ENDBRANCH  13  15
ENDBRANCH  12  13
ENDBRANCH  11  12
ENDBRANCH   6  11
ENDBRANCH   3   5
ENDBRANCH   2   3
ENDBRANCH   1   2
BRANCH   1  22
ATOM     22  C   UNL A   1      31.769  33.190  26.874  1.00  0.00     0.275 C 
BRANCH  22  23
ATOM     23  O   UNL A   1      33.172  33.177  27.166  1.00  0.00    -0.458 OA
BRANCH  23  24
ATOM     24  C   UNL A   1      33.535  33.977  28.189  1.00  0.00     0.338 C 
ATOM     25  O   UNL A   1      32.922  34.907  28.693  1.00  0.00    -0.246 OA
BRANCH  24  26
ATOM     26  C   UNL A   1      34.687  33.325  28.801  1.00  0.00     0.060 A 
ATOM     27  C   UNL A   1      34.466  32.075  29.379  1.00  0.00     0.016 A 
ATOM     28  C   UNL A   1      35.957  33.892  28.752  1.00  0.00     0.016 A 
ATOM     29  C   UNL A   1      35.522  31.382  29.945  1.00  0.00     0.010 A 
ATOM     30  C   UNL A   1      37.026  33.180  29.295  1.00  0.00     0.010 A 
ATOM     31  C   UNL A   1      36.810  31.930  29.907  1.00  0.00    -0.014 A 
BRANCH  31  32
ATOM     32  C   UNL A   1      37.922  31.221  30.579  1.00  0.00     0.031 A 
ATOM     33  C   UNL A   1      38.190  31.499  32.028  1.00  0.00     0.074 A 
ATOM     34  C   UNL A   1      38.651  30.319  29.897  1.00  0.00     0.049 A 
ATOM     35  N   UNL A   1      39.175  31.090  32.784  1.00  0.00    -0.248 NA
ATOM     36  C   UNL A   1      37.228  32.375  32.715  1.00  0.00     0.031 C 
ATOM     37  C   UNL A   1      38.441  29.948  28.496  1.00  0.00     0.029 A 
ATOM     38  N   UNL A   1      39.709  29.543  30.291  1.00  0.00    -0.354 N 
ATOM     39  C   UNL A   1      38.976  31.696  34.018  1.00  0.00     0.074 A 
ATOM     40  C   UNL A   1      37.791  32.517  33.905  1.00  0.00     0.031 C 
ATOM     41  C   UNL A   1      39.321  28.995  28.156  1.00  0.00     0.029 A 
ATOM     42  C   UNL A   1      40.201  28.740  29.291  1.00  0.00     0.049 A 
ATOM     43  H   UNL A   1      40.080  29.558  31.202  1.00  0.00     0.167 HD
ATOM     44  C   UNL A   1      39.721  31.571  35.141  1.00  0.00     0.037 A 
ATOM     45  C   UNL A   1      41.267  27.917  29.289  1.00  0.00     0.037 A 
ATOM     46  C   UNL A   1      40.877  30.717  35.236  1.00  0.00     0.049 A 
ATOM     47  C   UNL A   1      42.086  27.809  30.546  1.00  0.00     0.074 A 
ATOM     48  C   UNL A   1      41.709  30.501  36.320  1.00  0.00     0.029 A 
ATOM     49  N   UNL A   1      41.358  29.928  34.199  1.00  0.00    -0.354 N 
ATOM     50  N   UNL A   1      41.914  28.408  31.701  1.00  0.00    -0.248 NA
ATOM     51  C   UNL A   1      43.250  26.917  30.498  1.00  0.00     0.031 C 
ATOM     52  C   UNL A   1      42.716  29.614  35.925  1.00  0.00     0.029 A 
ATOM     53  C   UNL A   1      42.482  29.232  34.612  1.00  0.00     0.049 A 
ATOM     54  H   UNL A   1      40.958  29.872  33.300  1.00  0.00     0.167 HD
ATOM     55  C   UNL A   1      42.937  27.957  32.522  1.00  0.00     0.074 A 
ATOM     56  C   UNL A   1      43.706  27.009  31.739  1.00  0.00     0.031 C 
ATOM     57  C   UNL A   1      43.224  28.297  33.805  1.00  0.00     0.037 A 
BRANCH  44  58
ATOM     58  C   UNL A   1      39.330  32.402  36.331  1.00  0.00     0.064 A 
ATOM     59  C   UNL A   1      39.904  33.657  36.588  1.00  0.00     0.173 A 
ATOM     60  C   UNL A   1      38.363  31.931  37.233  1.00  0.00     0.173 A 
ATOM     61  F   UNL A   1      40.849  34.147  35.771  1.00  0.00    -0.203 F 
ATOM     62  C   UNL A   1      39.553  34.391  37.719  1.00  0.00     0.198 A 
ATOM     63  C   UNL A   1      37.988  32.683  38.344  1.00  0.00     0.198 A 
ATOM     64  F   UNL A   1      37.780  30.739  37.039  1.00  0.00    -0.203 F 
ATOM     65  F   UNL A   1      40.162  35.557  37.975  1.00  0.00    -0.200 F 
ATOM     66  C   UNL A   1      38.591  33.906  38.593  1.00  0.00     0.200 A 
ATOM     67  F   UNL A   1      37.051  32.218  39.181  1.00  0.00    -0.200 F 
ATOM     68  F   UNL A   1      38.252  34.614  39.679  1.00  0.00    -0.200 F 
ENDBRANCH  44  58
BRANCH  45  69
ATOM     69  C   UNL A   1      41.623  27.156  28.061  1.00  0.00     0.064 A 
ATOM     70  C   UNL A   1      42.464  27.708  27.085  1.00  0.00     0.173 A 
ATOM     71  C   UNL A   1      41.133  25.860  27.837  1.00  0.00     0.173 A 
ATOM     72  F   UNL A   1      42.942  28.952  27.238  1.00  0.00    -0.203 F 
ATOM     73  C   UNL A   1      42.788  27.002  25.927  1.00  0.00     0.198 A 
ATOM     74  C   UNL A   1      41.486  25.141  26.696  1.00  0.00     0.198 A 
ATOM     75  F   UNL A   1      40.325  25.282  28.738  1.00  0.00    -0.203 F 
ATOM     76  F   UNL A   1      43.555  27.572  24.989  1.00  0.00    -0.200 F 
ATOM     77  C   UNL A   1      42.305  25.716  25.738  1.00  0.00     0.200 A 
ATOM     78  F   UNL A   1      41.030  23.892  26.527  1.00  0.00    -0.200 F 
ATOM     79  F   UNL A   1      42.624  25.033  24.629  1.00  0.00    -0.200 F 
ENDBRANCH  45  69
BRANCH  57  80
ATOM     80  C   UNL A   1      44.398  27.606  34.435  1.00  0.00     0.064 A 
ATOM     81  C   UNL A   1      44.265  26.373  35.091  1.00  0.00     0.173 A 
ATOM     82  C   UNL A   1      45.674  28.187  34.376  1.00  0.00     0.173 A 
ATOM     83  F   UNL A   1      43.062  25.786  35.187  1.00  0.00    -0.203 F 
ATOM     84  C   UNL A   1      45.359  25.769  35.703  1.00  0.00     0.198 A 
ATOM     85  C   UNL A   1      46.772  27.561  34.958  1.00  0.00     0.198 A 
ATOM     86  F   UNL A   1      45.856  29.361  33.752  1.00  0.00    -0.203 F 
ATOM     87  F   UNL A   1      45.194  24.627  36.385  1.00  0.00    -0.200 F 
ATOM     88  C   UNL A   1      46.611  26.361  35.632  1.00  0.00     0.200 A 
ATOM     89  F   UNL A   1      47.984  28.126  34.875  1.00  0.00    -0.200 F 
ATOM     90  F   UNL A   1      47.662  25.778  36.225  1.00  0.00    -0.200 F 
ENDBRANCH  57  80
ENDBRANCH  31  32
ENDBRANCH  24  26
ENDBRANCH  23  24
ENDBRANCH  22  23
ENDBRANCH   1  22
TORSDOF 15
ENDMDL
