MODEL 1
REMARK VINA RESULT:     -12.1      0.000      0.000
REMARK SMILES CC(=O)Oc1c(Cl)cc(-c2ccccc2)cc1C(=O)OCCOC(=O)c1ccc(-c2c3nc(c(-c4c(F)c(F)c(F)c(F)c4F)c4ccc([nH]4)c(-c4c(F)c(F)c(F)c(F)c4F)c4nc(c(-c5c(F)c(F)c(F)c(F)c5F)c5ccc2[nH]5)C=C4)C=C3)cc1
REMARK SMILES IDX 21 1 20 2 18 3 19 4 17 5 5 6 6 7 7 8 8 9 16 10 9 11 4 12
REMARK SMILES IDX 2 13 1 14 3 15 10 16 11 17 15 18 12 19 14 20 13 21 22 22
REMARK SMILES IDX 23 23 24 24 25 25 26 26 27 27 88 28 28 29 87 30 29 31 30 32
REMARK SMILES IDX 31 33 81 34 32 35 86 36 80 37 82 38 33 39 85 40 79 41 78 42
REMARK SMILES IDX 34 44 66 45 46 46 65 47 47 48 50 49 64 50 83 51 48 52 49 53
REMARK SMILES IDX 63 55 84 56 51 57 35 58 36 59 44 60 37 61 38 62 42 63 45 64
REMARK SMILES IDX 39 65 40 66 43 67 41 68 67 69 68 70 76 71 69 72 70 73 74 74
REMARK SMILES IDX 77 75 71 76 72 77 75 78 73 79 52 80 53 81 61 82 54 83 55 84
REMARK SMILES IDX 59 85 62 86 56 87 57 88 60 89 58 90
REMARK H PARENT 82 43 50 54
REMARK Flexibility Score: inf
ROOT
ATOM      1  C   UNL A   1      31.805  28.394  25.640  1.00  0.00     0.275 C 
ENDROOT
BRANCH   1   2
ATOM      2  O   UNL A   1      32.829  27.482  26.094  1.00  0.00    -0.458 OA
BRANCH   2   3
ATOM      3  C   UNL A   1      32.481  26.171  26.124  1.00  0.00     0.342 C 
ATOM      4  O   UNL A   1      31.646  25.661  26.849  1.00  0.00    -0.246 OA
BRANCH   3   5
ATOM      5  C   UNL A   1      33.162  25.403  25.056  1.00  0.00     0.105 A 
ATOM      6  C   UNL A   1      32.709  25.323  23.739  1.00  0.00     0.164 A 
ATOM      7  C   UNL A   1      33.485  24.655  22.779  1.00  0.00     0.085 A 
ATOM      8  Cl  UNL A   1      33.050  24.662  21.106  1.00  0.00    -0.080 Cl
ATOM      9  C   UNL A   1      34.661  23.990  23.150  1.00  0.00     0.033 A 
ATOM     10  C   UNL A   1      34.370  24.776  25.400  1.00  0.00     0.028 A 
ATOM     11  C   UNL A   1      35.105  24.023  24.475  1.00  0.00    -0.016 A 
BRANCH   6  12
ATOM     12  O   UNL A   1      31.543  25.992  23.359  1.00  0.00    -0.424 OA
BRANCH  12  13
ATOM     13  C   UNL A   1      30.410  25.204  23.528  1.00  0.00     0.308 C 
ATOM     14  C   UNL A   1      29.284  26.053  24.037  1.00  0.00     0.139 C 
ATOM     15  O   UNL A   1      30.329  23.998  23.339  1.00  0.00    -0.252 OA
ENDBRANCH  12  13
ENDBRANCH   6  12
BRANCH  11  16
ATOM     16  C   UNL A   1      36.303  23.298  24.915  1.00  0.00    -0.018 A 
ATOM     17  C   UNL A   1      37.243  23.896  25.765  1.00  0.00     0.009 A 
ATOM     18  C   UNL A   1      36.511  21.964  24.520  1.00  0.00     0.009 A 
ATOM     19  C   UNL A   1      38.355  23.178  26.215  1.00  0.00     0.001 A 
ATOM     20  C   UNL A   1      37.623  21.247  24.968  1.00  0.00     0.001 A 
ATOM     21  C   UNL A   1      38.543  21.855  25.819  1.00  0.00     0.000 A 
ENDBRANCH  11  16
ENDBRANCH   3   5
ENDBRANCH   2   3
ENDBRANCH   1   2
BRANCH   1  22
ATOM     22  C   UNL A   1      31.780  29.657  26.497  1.00  0.00     0.275 C 
BRANCH  22  23
ATOM     23  O   UNL A   1      32.870  30.513  26.113  1.00  0.00    -0.458 OA
BRANCH  23  24
ATOM     24  C   UNL A   1      33.234  31.451  27.015  1.00  0.00     0.338 C 
ATOM     25  O   UNL A   1      32.598  32.433  27.366  1.00  0.00    -0.246 OA
BRANCH  24  26
ATOM     26  C   UNL A   1      34.559  31.121  27.569  1.00  0.00     0.060 A 
ATOM     27  C   UNL A   1      34.874  29.795  27.856  1.00  0.00     0.016 A 
ATOM     28  C   UNL A   1      35.443  32.136  27.925  1.00  0.00     0.016 A 
ATOM     29  C   UNL A   1      36.015  29.487  28.595  1.00  0.00     0.010 A 
ATOM     30  C   UNL A   1      36.646  31.815  28.569  1.00  0.00     0.010 A 
ATOM     31  C   UNL A   1      36.928  30.491  28.956  1.00  0.00    -0.014 A 
BRANCH  31  32
ATOM     32  C   UNL A   1      38.136  30.165  29.773  1.00  0.00     0.031 A 
ATOM     33  C   UNL A   1      39.224  29.283  29.209  1.00  0.00     0.074 A 
ATOM     34  C   UNL A   1      38.285  30.665  31.018  1.00  0.00     0.049 A 
ATOM     35  N   UNL A   1      40.263  28.756  29.811  1.00  0.00    -0.248 NA
ATOM     36  C   UNL A   1      39.125  28.933  27.784  1.00  0.00     0.031 C 
ATOM     37  C   UNL A   1      37.339  31.555  31.693  1.00  0.00     0.029 A 
ATOM     38  N   UNL A   1      39.296  30.504  31.935  1.00  0.00    -0.354 N 
ATOM     39  C   UNL A   1      40.892  27.958  28.863  1.00  0.00     0.074 A 
ATOM     40  C   UNL A   1      40.125  28.075  27.641  1.00  0.00     0.031 C 
ATOM     41  C   UNL A   1      37.839  31.907  32.886  1.00  0.00     0.029 A 
ATOM     42  C   UNL A   1      39.095  31.197  33.105  1.00  0.00     0.049 A 
ATOM     43  H   UNL A   1      40.090  29.946  31.770  1.00  0.00     0.167 HD
ATOM     44  C   UNL A   1      42.004  27.196  28.998  1.00  0.00     0.037 A 
ATOM     45  C   UNL A   1      39.814  31.233  34.243  1.00  0.00     0.037 A 
ATOM     46  C   UNL A   1      42.819  27.141  30.185  1.00  0.00     0.049 A 
ATOM     47  C   UNL A   1      41.052  30.389  34.363  1.00  0.00     0.074 A 
ATOM     48  C   UNL A   1      43.987  26.427  30.398  1.00  0.00     0.029 A 
ATOM     49  N   UNL A   1      42.563  27.841  31.354  1.00  0.00    -0.354 N 
ATOM     50  N   UNL A   1      41.604  29.600  33.476  1.00  0.00    -0.248 NA
ATOM     51  C   UNL A   1      41.751  30.421  35.656  1.00  0.00     0.031 C 
ATOM     52  C   UNL A   1      44.422  26.674  31.704  1.00  0.00     0.029 A 
ATOM     53  C   UNL A   1      43.547  27.571  32.292  1.00  0.00     0.049 A 
ATOM     54  H   UNL A   1      41.796  28.442  31.495  1.00  0.00     0.167 HD
ATOM     55  C   UNL A   1      42.716  29.047  34.097  1.00  0.00     0.074 A 
ATOM     56  C   UNL A   1      42.777  29.614  35.428  1.00  0.00     0.031 C 
ATOM     57  C   UNL A   1      43.598  28.141  33.612  1.00  0.00     0.037 A 
BRANCH  44  58
ATOM     58  C   UNL A   1      42.406  26.330  27.839  1.00  0.00     0.064 A 
ATOM     59  C   UNL A   1      41.841  25.065  27.625  1.00  0.00     0.173 A 
ATOM     60  C   UNL A   1      43.329  26.807  26.894  1.00  0.00     0.173 A 
ATOM     61  F   UNL A   1      40.964  24.560  28.504  1.00  0.00    -0.203 F 
ATOM     62  C   UNL A   1      42.199  24.301  26.515  1.00  0.00     0.198 A 
ATOM     63  C   UNL A   1      43.663  26.053  25.773  1.00  0.00     0.198 A 
ATOM     64  F   UNL A   1      43.892  28.014  27.048  1.00  0.00    -0.203 F 
ATOM     65  F   UNL A   1      41.673  23.080  26.347  1.00  0.00    -0.200 F 
ATOM     66  C   UNL A   1      43.102  24.798  25.587  1.00  0.00     0.200 A 
ATOM     67  F   UNL A   1      44.524  26.541  24.871  1.00  0.00    -0.200 F 
ATOM     68  F   UNL A   1      43.433  24.069  24.513  1.00  0.00    -0.200 F 
ENDBRANCH  44  58
BRANCH  45  69
ATOM     69  C   UNL A   1      39.363  32.077  35.381  1.00  0.00     0.064 A 
ATOM     70  C   UNL A   1      39.765  33.415  35.488  1.00  0.00     0.173 A 
ATOM     71  C   UNL A   1      38.531  31.562  36.387  1.00  0.00     0.173 A 
ATOM     72  F   UNL A   1      40.585  33.944  34.569  1.00  0.00    -0.203 F 
ATOM     73  C   UNL A   1      39.359  34.204  36.563  1.00  0.00     0.198 A 
ATOM     74  C   UNL A   1      38.101  32.360  37.443  1.00  0.00     0.198 A 
ATOM     75  F   UNL A   1      38.123  30.286  36.334  1.00  0.00    -0.203 F 
ATOM     76  F   UNL A   1      39.794  35.467  36.666  1.00  0.00    -0.200 F 
ATOM     77  C   UNL A   1      38.520  33.678  37.535  1.00  0.00     0.200 A 
ATOM     78  F   UNL A   1      37.280  31.851  38.373  1.00  0.00    -0.200 F 
ATOM     79  F   UNL A   1      38.125  34.439  38.564  1.00  0.00    -0.200 F 
ENDBRANCH  45  69
BRANCH  57  80
ATOM     80  C   UNL A   1      44.717  27.727  34.520  1.00  0.00     0.064 A 
ATOM     81  C   UNL A   1      45.929  28.435  34.557  1.00  0.00     0.173 A 
ATOM     82  C   UNL A   1      44.575  26.621  35.369  1.00  0.00     0.173 A 
ATOM     83  F   UNL A   1      46.118  29.490  33.750  1.00  0.00    -0.203 F 
ATOM     84  C   UNL A   1      46.967  28.031  35.392  1.00  0.00     0.198 A 
ATOM     85  C   UNL A   1      45.606  26.235  36.221  1.00  0.00     0.198 A 
ATOM     86  F   UNL A   1      43.435  25.914  35.374  1.00  0.00    -0.203 F 
ATOM     87  F   UNL A   1      48.133  28.691  35.374  1.00  0.00    -0.200 F 
ATOM     88  C   UNL A   1      46.803  26.934  36.226  1.00  0.00     0.200 A 
ATOM     89  F   UNL A   1      45.445  25.180  37.032  1.00  0.00    -0.200 F 
ATOM     90  F   UNL A   1      47.804  26.546  37.026  1.00  0.00    -0.200 F 
ENDBRANCH  57  80
ENDBRANCH  31  32
ENDBRANCH  24  26
ENDBRANCH  23  24
ENDBRANCH  22  23
ENDBRANCH   1  22
TORSDOF 14
ENDMDL
MODEL 2
REMARK VINA RESULT:     -12.0      4.285      9.501
REMARK SMILES CC(=O)Oc1c(Cl)cc(-c2ccccc2)cc1C(=O)OCCOC(=O)c1ccc(-c2c3nc(c(-c4c(F)c(F)c(F)c(F)c4F)c4ccc([nH]4)c(-c4c(F)c(F)c(F)c(F)c4F)c4nc(c(-c5c(F)c(F)c(F)c(F)c5F)c5ccc2[nH]5)C=C4)C=C3)cc1
REMARK SMILES IDX 21 1 20 2 18 3 19 4 17 5 5 6 6 7 7 8 8 9 16 10 9 11 4 12
REMARK SMILES IDX 2 13 1 14 3 15 10 16 11 17 15 18 12 19 14 20 13 21 22 22
REMARK SMILES IDX 23 23 24 24 25 25 26 26 27 27 88 28 28 29 87 30 29 31 30 32
REMARK SMILES IDX 31 33 81 34 32 35 86 36 80 37 82 38 33 39 85 40 79 41 78 42
REMARK SMILES IDX 34 44 66 45 46 46 65 47 47 48 50 49 64 50 83 51 48 52 49 53
REMARK SMILES IDX 63 55 84 56 51 57 35 58 36 59 44 60 37 61 38 62 42 63 45 64
REMARK SMILES IDX 39 65 40 66 43 67 41 68 67 69 68 70 76 71 69 72 70 73 74 74
REMARK SMILES IDX 77 75 71 76 72 77 75 78 73 79 52 80 53 81 61 82 54 83 55 84
REMARK SMILES IDX 59 85 62 86 56 87 57 88 60 89 58 90
REMARK H PARENT 82 43 50 54
REMARK Flexibility Score: inf
ROOT
ATOM      1  C   UNL A   1      36.606  22.559  23.593  1.00  0.00     0.275 C 
ENDROOT
BRANCH   1   2
ATOM      2  O   UNL A   1      35.732  23.518  24.227  1.00  0.00    -0.458 OA
BRANCH   2   3
ATOM      3  C   UNL A   1      34.575  23.784  23.572  1.00  0.00     0.342 C 
ATOM      4  O   UNL A   1      34.357  23.611  22.387  1.00  0.00    -0.246 OA
BRANCH   3   5
ATOM      5  C   UNL A   1      33.508  24.215  24.507  1.00  0.00     0.105 A 
ATOM      6  C   UNL A   1      32.439  23.411  24.899  1.00  0.00     0.164 A 
ATOM      7  C   UNL A   1      31.541  23.877  25.872  1.00  0.00     0.085 A 
ATOM      8  Cl  UNL A   1      30.294  22.863  26.507  1.00  0.00    -0.080 Cl
ATOM      9  C   UNL A   1      31.655  25.177  26.381  1.00  0.00     0.033 A 
ATOM     10  C   UNL A   1      33.640  25.496  25.067  1.00  0.00     0.028 A 
ATOM     11  C   UNL A   1      32.695  26.013  25.964  1.00  0.00    -0.016 A 
BRANCH   6  12
ATOM     12  O   UNL A   1      32.325  22.109  24.404  1.00  0.00    -0.424 OA
BRANCH  12  13
ATOM     13  C   UNL A   1      32.933  21.177  25.239  1.00  0.00     0.308 C 
ATOM     14  C   UNL A   1      32.699  19.798  24.700  1.00  0.00     0.139 C 
ATOM     15  O   UNL A   1      33.533  21.416  26.278  1.00  0.00    -0.252 OA
ENDBRANCH  12  13
ENDBRANCH   6  12
BRANCH  11  16
ATOM     16  C   UNL A   1      32.820  27.398  26.435  1.00  0.00    -0.018 A 
ATOM     17  C   UNL A   1      34.060  28.050  26.451  1.00  0.00     0.009 A 
ATOM     18  C   UNL A   1      31.682  28.114  26.844  1.00  0.00     0.009 A 
ATOM     19  C   UNL A   1      34.158  29.385  26.856  1.00  0.00     0.001 A 
ATOM     20  C   UNL A   1      31.780  29.448  27.250  1.00  0.00     0.001 A 
ATOM     21  C   UNL A   1      33.019  30.082  27.252  1.00  0.00     0.000 A 
ENDBRANCH  11  16
ENDBRANCH   3   5
ENDBRANCH   2   3
ENDBRANCH   1   2
BRANCH   1  22
ATOM     22  C   UNL A   1      36.693  21.274  24.413  1.00  0.00     0.275 C 
BRANCH  22  23
ATOM     23  O   UNL A   1      37.203  21.578  25.722  1.00  0.00    -0.458 OA
BRANCH  23  24
ATOM     24  C   UNL A   1      38.528  21.385  25.903  1.00  0.00     0.338 C 
ATOM     25  O   UNL A   1      39.181  20.391  25.623  1.00  0.00    -0.246 OA
BRANCH  24  26
ATOM     26  C   UNL A   1      39.130  22.593  26.495  1.00  0.00     0.060 A 
ATOM     27  C   UNL A   1      38.608  23.846  26.186  1.00  0.00     0.016 A 
ATOM     28  C   UNL A   1      40.292  22.496  27.257  1.00  0.00     0.016 A 
ATOM     29  C   UNL A   1      39.300  25.003  26.538  1.00  0.00     0.010 A 
ATOM     30  C   UNL A   1      40.926  23.661  27.707  1.00  0.00     0.010 A 
ATOM     31  C   UNL A   1      40.467  24.932  27.314  1.00  0.00    -0.014 A 
BRANCH  31  32
ATOM     32  C   UNL A   1      41.225  26.171  27.667  1.00  0.00     0.031 A 
ATOM     33  C   UNL A   1      40.578  27.250  28.503  1.00  0.00     0.074 A 
ATOM     34  C   UNL A   1      42.501  26.341  27.262  1.00  0.00     0.049 A 
ATOM     35  N   UNL A   1      41.007  28.459  28.778  1.00  0.00    -0.248 NA
ATOM     36  C   UNL A   1      39.269  26.937  29.097  1.00  0.00     0.031 C 
ATOM     37  C   UNL A   1      43.276  25.380  26.475  1.00  0.00     0.029 A 
ATOM     38  N   UNL A   1      43.377  27.380  27.466  1.00  0.00    -0.354 N 
ATOM     39  C   UNL A   1      39.993  29.069  29.506  1.00  0.00     0.074 A 
ATOM     40  C   UNL A   1      38.929  28.096  29.641  1.00  0.00     0.031 C 
ATOM     41  C   UNL A   1      44.523  25.845  26.314  1.00  0.00     0.029 A 
ATOM     42  C   UNL A   1      44.615  27.177  26.903  1.00  0.00     0.049 A 
ATOM     43  H   UNL A   1      43.142  28.193  27.969  1.00  0.00     0.167 HD
ATOM     44  C   UNL A   1      39.951  30.324  30.015  1.00  0.00     0.037 A 
ATOM     45  C   UNL A   1      45.693  27.981  26.831  1.00  0.00     0.037 A 
ATOM     46  C   UNL A   1      41.038  31.267  29.956  1.00  0.00     0.049 A 
ATOM     47  C   UNL A   1      45.625  29.364  27.414  1.00  0.00     0.074 A 
ATOM     48  C   UNL A   1      41.099  32.548  30.481  1.00  0.00     0.029 A 
ATOM     49  N   UNL A   1      42.263  31.026  29.355  1.00  0.00    -0.354 N 
ATOM     50  N   UNL A   1      44.641  29.944  28.055  1.00  0.00    -0.248 NA
ATOM     51  C   UNL A   1      46.813  30.214  27.240  1.00  0.00     0.031 C 
ATOM     52  C   UNL A   1      42.350  33.092  30.172  1.00  0.00     0.029 A 
ATOM     53  C   UNL A   1      43.083  32.136  29.490  1.00  0.00     0.049 A 
ATOM     54  H   UNL A   1      42.514  30.189  28.901  1.00  0.00     0.167 HD
ATOM     55  C   UNL A   1      45.089  31.221  28.365  1.00  0.00     0.074 A 
ATOM     56  C   UNL A   1      46.445  31.321  27.869  1.00  0.00     0.031 C 
ATOM     57  C   UNL A   1      44.430  32.224  28.993  1.00  0.00     0.037 A 
BRANCH  44  58
ATOM     58  C   UNL A   1      38.674  30.775  30.665  1.00  0.00     0.064 A 
ATOM     59  C   UNL A   1      38.504  30.764  32.056  1.00  0.00     0.173 A 
ATOM     60  C   UNL A   1      37.629  31.286  29.878  1.00  0.00     0.173 A 
ATOM     61  F   UNL A   1      39.468  30.277  32.850  1.00  0.00    -0.203 F 
ATOM     62  C   UNL A   1      37.326  31.232  32.636  1.00  0.00     0.198 A 
ATOM     63  C   UNL A   1      36.465  31.777  30.462  1.00  0.00     0.198 A 
ATOM     64  F   UNL A   1      37.745  31.325  28.543  1.00  0.00    -0.203 F 
ATOM     65  F   UNL A   1      37.170  31.182  33.966  1.00  0.00    -0.200 F 
ATOM     66  C   UNL A   1      36.312  31.746  31.840  1.00  0.00     0.200 A 
ATOM     67  F   UNL A   1      35.493  32.285  29.692  1.00  0.00    -0.200 F 
ATOM     68  F   UNL A   1      35.187  32.209  32.401  1.00  0.00    -0.200 F 
ENDBRANCH  44  58
BRANCH  45  69
ATOM     69  C   UNL A   1      46.926  27.510  26.148  1.00  0.00     0.064 A 
ATOM     70  C   UNL A   1      47.083  27.658  24.763  1.00  0.00     0.173 A 
ATOM     71  C   UNL A   1      47.967  26.895  26.861  1.00  0.00     0.173 A 
ATOM     72  F   UNL A   1      46.104  28.210  24.033  1.00  0.00    -0.203 F 
ATOM     73  C   UNL A   1      48.230  27.200  24.116  1.00  0.00     0.198 A 
ATOM     74  C   UNL A   1      49.126  26.468  26.218  1.00  0.00     0.198 A 
ATOM     75  F   UNL A   1      47.864  26.725  28.187  1.00  0.00    -0.203 F 
ATOM     76  F   UNL A   1      48.335  27.313  22.785  1.00  0.00    -0.200 F 
ATOM     77  C   UNL A   1      49.254  26.614  24.846  1.00  0.00     0.200 A 
ATOM     78  F   UNL A   1      50.118  25.914  26.929  1.00  0.00    -0.200 F 
ATOM     79  F   UNL A   1      50.359  26.182  24.224  1.00  0.00    -0.200 F 
ENDBRANCH  45  69
BRANCH  57  80
ATOM     80  C   UNL A   1      45.179  33.507  29.198  1.00  0.00     0.064 A 
ATOM     81  C   UNL A   1      45.965  33.721  30.341  1.00  0.00     0.173 A 
ATOM     82  C   UNL A   1      45.120  34.528  28.238  1.00  0.00     0.173 A 
ATOM     83  F   UNL A   1      46.038  32.780  31.294  1.00  0.00    -0.203 F 
ATOM     84  C   UNL A   1      46.642  34.923  30.528  1.00  0.00     0.198 A 
ATOM     85  C   UNL A   1      45.819  35.718  28.417  1.00  0.00     0.198 A 
ATOM     86  F   UNL A   1      44.386  34.370  27.127  1.00  0.00    -0.203 F 
ATOM     87  F   UNL A   1      47.345  35.125  31.650  1.00  0.00    -0.200 F 
ATOM     88  C   UNL A   1      46.572  35.918  29.564  1.00  0.00     0.200 A 
ATOM     89  F   UNL A   1      45.757  36.677  27.483  1.00  0.00    -0.200 F 
ATOM     90  F   UNL A   1      47.222  37.075  29.747  1.00  0.00    -0.200 F 
ENDBRANCH  57  80
ENDBRANCH  31  32
ENDBRANCH  24  26
ENDBRANCH  23  24
ENDBRANCH  22  23
ENDBRANCH   1  22
TORSDOF 14
ENDMDL
MODEL 3
REMARK VINA RESULT:     -12.0      0.713      1.814
REMARK SMILES CC(=O)Oc1c(Cl)cc(-c2ccccc2)cc1C(=O)OCCOC(=O)c1ccc(-c2c3nc(c(-c4c(F)c(F)c(F)c(F)c4F)c4ccc([nH]4)c(-c4c(F)c(F)c(F)c(F)c4F)c4nc(c(-c5c(F)c(F)c(F)c(F)c5F)c5ccc2[nH]5)C=C4)C=C3)cc1
REMARK SMILES IDX 21 1 20 2 18 3 19 4 17 5 5 6 6 7 7 8 8 9 16 10 9 11 4 12
REMARK SMILES IDX 2 13 1 14 3 15 10 16 11 17 15 18 12 19 14 20 13 21 22 22
REMARK SMILES IDX 23 23 24 24 25 25 26 26 27 27 88 28 28 29 87 30 29 31 30 32
REMARK SMILES IDX 31 33 81 34 32 35 86 36 80 37 82 38 33 39 85 40 79 41 78 42
REMARK SMILES IDX 34 44 66 45 46 46 65 47 47 48 50 49 64 50 83 51 48 52 49 53
REMARK SMILES IDX 63 55 84 56 51 57 35 58 36 59 44 60 37 61 38 62 42 63 45 64
REMARK SMILES IDX 39 65 40 66 43 67 41 68 67 69 68 70 76 71 69 72 70 73 74 74
REMARK SMILES IDX 77 75 71 76 72 77 75 78 73 79 52 80 53 81 61 82 54 83 55 84
REMARK SMILES IDX 59 85 62 86 56 87 57 88 60 89 58 90
REMARK H PARENT 82 43 50 54
REMARK Flexibility Score: inf
ROOT
ATOM      1  C   UNL A   1      31.780  28.618  27.170  1.00  0.00     0.275 C 
ENDROOT
BRANCH   1   2
ATOM      2  O   UNL A   1      32.677  27.675  26.545  1.00  0.00    -0.458 OA
BRANCH   2   3
ATOM      3  C   UNL A   1      32.168  26.439  26.314  1.00  0.00     0.342 C 
ATOM      4  O   UNL A   1      31.217  25.932  26.879  1.00  0.00    -0.246 OA
BRANCH   3   5
ATOM      5  C   UNL A   1      32.841  25.779  25.171  1.00  0.00     0.105 A 
ATOM      6  C   UNL A   1      32.401  25.863  23.850  1.00  0.00     0.164 A 
ATOM      7  C   UNL A   1      33.170  25.288  22.826  1.00  0.00     0.085 A 
ATOM      8  Cl  UNL A   1      32.754  25.498  21.161  1.00  0.00    -0.080 Cl
ATOM      9  C   UNL A   1      34.323  24.553  23.128  1.00  0.00     0.033 A 
ATOM     10  C   UNL A   1      34.028  25.084  25.451  1.00  0.00     0.028 A 
ATOM     11  C   UNL A   1      34.753  24.421  24.452  1.00  0.00    -0.016 A 
BRANCH   6  12
ATOM     12  O   UNL A   1      31.258  26.604  23.539  1.00  0.00    -0.424 OA
BRANCH  12  13
ATOM     13  C   UNL A   1      31.568  27.899  23.139  1.00  0.00     0.308 C 
ATOM     14  C   UNL A   1      30.414  28.475  22.376  1.00  0.00     0.139 C 
ATOM     15  O   UNL A   1      32.626  28.485  23.329  1.00  0.00    -0.252 OA
ENDBRANCH  12  13
ENDBRANCH   6  12
BRANCH  11  16
ATOM     16  C   UNL A   1      35.926  23.617  24.815  1.00  0.00    -0.018 A 
ATOM     17  C   UNL A   1      36.860  24.078  25.752  1.00  0.00     0.009 A 
ATOM     18  C   UNL A   1      36.114  22.341  24.256  1.00  0.00     0.009 A 
ATOM     19  C   UNL A   1      37.948  23.282  26.126  1.00  0.00     0.001 A 
ATOM     20  C   UNL A   1      37.201  21.546  24.627  1.00  0.00     0.001 A 
ATOM     21  C   UNL A   1      38.116  22.018  25.566  1.00  0.00     0.000 A 
ENDBRANCH  11  16
ENDBRANCH   3   5
ENDBRANCH   2   3
ENDBRANCH   1   2
BRANCH   1  22
ATOM     22  C   UNL A   1      31.736  29.929  26.390  1.00  0.00     0.275 C 
BRANCH  22  23
ATOM     23  O   UNL A   1      33.075  30.420  26.208  1.00  0.00    -0.458 OA
BRANCH  23  24
ATOM     24  C   UNL A   1      33.484  31.365  27.083  1.00  0.00     0.338 C 
ATOM     25  O   UNL A   1      32.886  32.374  27.424  1.00  0.00    -0.246 OA
BRANCH  24  26
ATOM     26  C   UNL A   1      34.809  31.004  27.621  1.00  0.00     0.060 A 
ATOM     27  C   UNL A   1      35.113  29.667  27.863  1.00  0.00     0.016 A 
ATOM     28  C   UNL A   1      35.704  31.999  28.005  1.00  0.00     0.016 A 
ATOM     29  C   UNL A   1      36.253  29.325  28.587  1.00  0.00     0.010 A 
ATOM     30  C   UNL A   1      36.906  31.646  28.633  1.00  0.00     0.010 A 
ATOM     31  C   UNL A   1      37.177  30.308  28.976  1.00  0.00    -0.014 A 
BRANCH  31  32
ATOM     32  C   UNL A   1      38.385  29.944  29.777  1.00  0.00     0.031 A 
ATOM     33  C   UNL A   1      39.449  29.047  29.191  1.00  0.00     0.074 A 
ATOM     34  C   UNL A   1      38.556  30.424  31.027  1.00  0.00     0.049 A 
ATOM     35  N   UNL A   1      40.481  28.489  29.775  1.00  0.00    -0.248 NA
ATOM     36  C   UNL A   1      39.328  28.718  27.762  1.00  0.00     0.031 C 
ATOM     37  C   UNL A   1      37.637  31.324  31.724  1.00  0.00     0.029 A 
ATOM     38  N   UNL A   1      39.572  30.228  31.932  1.00  0.00    -0.354 N 
ATOM     39  C   UNL A   1      41.084  27.690  28.810  1.00  0.00     0.074 A 
ATOM     40  C   UNL A   1      40.308  27.841  27.597  1.00  0.00     0.031 C 
ATOM     41  C   UNL A   1      38.155  31.649  32.917  1.00  0.00     0.029 A 
ATOM     42  C   UNL A   1      39.397  30.909  33.114  1.00  0.00     0.049 A 
ATOM     43  H   UNL A   1      40.352  29.654  31.752  1.00  0.00     0.167 HD
ATOM     44  C   UNL A   1      42.180  26.903  28.924  1.00  0.00     0.037 A 
ATOM     45  C   UNL A   1      40.128  30.913  34.245  1.00  0.00     0.037 A 
ATOM     46  C   UNL A   1      43.004  26.813  30.103  1.00  0.00     0.049 A 
ATOM     47  C   UNL A   1      41.347  30.040  34.342  1.00  0.00     0.074 A 
ATOM     48  C   UNL A   1      44.158  26.071  30.294  1.00  0.00     0.029 A 
ATOM     49  N   UNL A   1      42.774  27.502  31.283  1.00  0.00    -0.354 N 
ATOM     50  N   UNL A   1      41.874  29.252  33.438  1.00  0.00    -0.248 NA
ATOM     51  C   UNL A   1      42.059  30.039  35.628  1.00  0.00     0.031 C 
ATOM     52  C   UNL A   1      44.611  26.290  31.600  1.00  0.00     0.029 A 
ATOM     53  C   UNL A   1      43.761  27.198  32.208  1.00  0.00     0.049 A 
ATOM     54  H   UNL A   1      42.022  28.118  31.440  1.00  0.00     0.167 HD
ATOM     55  C   UNL A   1      42.979  28.666  34.041  1.00  0.00     0.074 A 
ATOM     56  C   UNL A   1      43.065  29.213  35.379  1.00  0.00     0.031 C 
ATOM     57  C   UNL A   1      43.837  27.748  33.535  1.00  0.00     0.037 A 
BRANCH  44  58
ATOM     58  C   UNL A   1      42.552  26.044  27.750  1.00  0.00     0.064 A 
ATOM     59  C   UNL A   1      43.581  26.398  26.866  1.00  0.00     0.173 A 
ATOM     60  C   UNL A   1      41.906  24.814  27.547  1.00  0.00     0.173 A 
ATOM     61  F   UNL A   1      44.221  27.567  27.010  1.00  0.00    -0.203 F 
ATOM     62  C   UNL A   1      43.937  25.560  25.811  1.00  0.00     0.198 A 
ATOM     63  C   UNL A   1      42.282  23.967  26.509  1.00  0.00     0.198 A 
ATOM     64  F   UNL A   1      40.920  24.425  28.370  1.00  0.00    -0.203 F 
ATOM     65  F   UNL A   1      44.900  25.933  24.957  1.00  0.00    -0.200 F 
ATOM     66  C   UNL A   1      43.294  24.343  25.638  1.00  0.00     0.200 A 
ATOM     67  F   UNL A   1      41.669  22.786  26.353  1.00  0.00    -0.200 F 
ATOM     68  F   UNL A   1      43.648  23.532  24.632  1.00  0.00    -0.200 F 
ENDBRANCH  44  58
BRANCH  45  69
ATOM     69  C   UNL A   1      39.706  31.750  35.399  1.00  0.00     0.064 A 
ATOM     70  C   UNL A   1      38.744  31.291  36.308  1.00  0.00     0.173 A 
ATOM     71  C   UNL A   1      40.248  33.028  35.611  1.00  0.00     0.173 A 
ATOM     72  F   UNL A   1      38.173  30.090  36.130  1.00  0.00    -0.203 F 
ATOM     73  C   UNL A   1      38.332  32.081  37.380  1.00  0.00     0.198 A 
ATOM     74  C   UNL A   1      39.859  33.802  36.700  1.00  0.00     0.198 A 
ATOM     75  F   UNL A   1      41.168  33.515  34.767  1.00  0.00    -0.203 F 
ATOM     76  F   UNL A   1      37.377  31.636  38.208  1.00  0.00    -0.200 F 
ATOM     77  C   UNL A   1      38.897  33.332  37.580  1.00  0.00     0.200 A 
ATOM     78  F   UNL A   1      40.417  35.005  36.896  1.00  0.00    -0.200 F 
ATOM     79  F   UNL A   1      38.505  34.087  38.615  1.00  0.00    -0.200 F 
ENDBRANCH  45  69
BRANCH  57  80
ATOM     80  C   UNL A   1      44.955  27.297  34.427  1.00  0.00     0.064 A 
ATOM     81  C   UNL A   1      46.180  27.980  34.465  1.00  0.00     0.173 A 
ATOM     82  C   UNL A   1      44.798  26.180  35.259  1.00  0.00     0.173 A 
ATOM     83  F   UNL A   1      46.384  29.045  33.675  1.00  0.00    -0.203 F 
ATOM     84  C   UNL A   1      47.217  27.543  35.284  1.00  0.00     0.198 A 
ATOM     85  C   UNL A   1      45.828  25.760  36.095  1.00  0.00     0.198 A 
ATOM     86  F   UNL A   1      43.644  25.496  35.261  1.00  0.00    -0.203 F 
ATOM     87  F   UNL A   1      48.396  28.180  35.269  1.00  0.00    -0.200 F 
ATOM     88  C   UNL A   1      47.039  26.436  36.102  1.00  0.00     0.200 A 
ATOM     89  F   UNL A   1      45.653  24.695  36.890  1.00  0.00    -0.200 F 
ATOM     90  F   UNL A   1      48.039  26.014  36.887  1.00  0.00    -0.200 F 
ENDBRANCH  57  80
ENDBRANCH  31  32
ENDBRANCH  24  26
ENDBRANCH  23  24
ENDBRANCH  22  23
ENDBRANCH   1  22
TORSDOF 14
ENDMDL
