MODEL 1
REMARK VINA RESULT:     -13.0      0.000      0.000
REMARK SMILES CC(=O)N[C@@H](Cc1c(C)[nH]c2ccccc2c1=O)C(=O)OCCOC(=O)c1ccc(-c2c3nc(c(-c4c(F)c(F)c(F)c(F)c4F)c4ccc([nH]4)c(-c4c(F)c(F)c(F)c(F)c4F)c4nc(c(-c5c(F)c(F)c(F)c(F)c5F)c5ccc2[nH]5)C=C4)C=C3)cc1
REMARK SMILES IDX 22 1 21 2 19 3 20 4 5 5 4 6 1 7 2 8 3 9 6 11 7 12 8 13 17 14
REMARK SMILES IDX 9 15 10 16 16 17 18 18 11 19 15 21 12 22 14 23 13 24 23 25
REMARK SMILES IDX 24 26 25 27 26 28 27 29 28 30 89 31 29 32 88 33 30 34 31 35
REMARK SMILES IDX 32 36 82 37 33 38 87 39 81 40 83 41 34 42 86 43 80 44 79 45
REMARK SMILES IDX 35 47 67 48 47 49 66 50 48 51 51 52 65 53 84 54 49 55 50 56
REMARK SMILES IDX 64 58 85 59 52 60 36 61 37 62 45 63 38 64 39 65 43 66 46 67
REMARK SMILES IDX 40 68 41 69 44 70 42 71 68 72 69 73 77 74 70 75 71 76 75 77
REMARK SMILES IDX 78 78 72 79 73 80 76 81 74 82 53 83 54 84 62 85 55 86 56 87
REMARK SMILES IDX 60 88 63 89 57 90 58 91 61 92 59 93
REMARK H PARENT 4 10 10 20 83 46 51 57
REMARK Flexibility Score: inf
ROOT
ATOM      1  C   UNL A   1      31.820  28.756  27.305  1.00  0.00     0.274 C 
ENDROOT
BRANCH   1   2
ATOM      2  O   UNL A   1      31.653  27.707  26.330  1.00  0.00    -0.461 OA
BRANCH   2   3
ATOM      3  C   UNL A   1      32.781  27.053  25.937  1.00  0.00     0.329 C 
ATOM      4  O   UNL A   1      33.904  27.548  25.922  1.00  0.00    -0.250 OA
BRANCH   3   5
ATOM      5  C   UNL A   1      32.490  25.656  25.369  1.00  0.00     0.196 C 
BRANCH   5   6
ATOM      6  N   UNL A   1      31.330  25.003  25.979  1.00  0.00    -0.343 N 
ATOM      7  C   UNL A   1      32.481  23.021  26.927  1.00  0.00     0.114 C 
ATOM      8  C   UNL A   1      31.254  23.872  26.734  1.00  0.00     0.217 C 
ATOM      9  O   UNL A   1      30.184  23.562  27.255  1.00  0.00    -0.275 OA
ATOM     10  H   UNL A   1      30.469  25.454  25.820  1.00  0.00     0.164 HD
ENDBRANCH   5   6
BRANCH   5  11
ATOM     11  C   UNL A   1      32.387  25.757  23.832  1.00  0.00     0.078 C 
BRANCH  11  12
ATOM     12  C   UNL A   1      31.687  27.005  23.338  1.00  0.00     0.022 A 
ATOM     13  C   UNL A   1      32.257  28.095  22.770  1.00  0.00     0.019 A 
ATOM     14  C   UNL A   1      30.191  26.997  23.497  1.00  0.00     0.192 A 
ATOM     15  C   UNL A   1      33.732  28.216  22.466  1.00  0.00     0.064 C 
ATOM     16  N   UNL A   1      31.522  29.211  22.422  1.00  0.00    -0.358 N 
ATOM     17  C   UNL A   1      29.427  28.183  23.059  1.00  0.00     0.046 A 
ATOM     18  O   UNL A   1      29.610  26.029  23.976  1.00  0.00    -0.289 OA
ATOM     19  C   UNL A   1      30.133  29.275  22.548  1.00  0.00     0.049 A 
ATOM     20  H   UNL A   1      31.999  29.997  22.069  1.00  0.00     0.166 HD
ATOM     21  C   UNL A   1      28.032  28.201  23.150  1.00  0.00     0.014 A 
ATOM     22  C   UNL A   1      29.421  30.407  22.144  1.00  0.00     0.027 A 
ATOM     23  C   UNL A   1      27.332  29.328  22.726  1.00  0.00     0.001 A 
ATOM     24  C   UNL A   1      28.025  30.432  22.230  1.00  0.00     0.002 A 
ENDBRANCH  11  12
ENDBRANCH   5  11
ENDBRANCH   3   5
ENDBRANCH   2   3
ENDBRANCH   1   2
BRANCH   1  25
ATOM     25  C   UNL A   1      31.777  30.144  26.661  1.00  0.00     0.275 C 
BRANCH  25  26
ATOM     26  O   UNL A   1      33.101  30.639  26.398  1.00  0.00    -0.458 OA
BRANCH  26  27
ATOM     27  C   UNL A   1      33.498  31.637  27.220  1.00  0.00     0.338 C 
ATOM     28  O   UNL A   1      32.841  32.587  27.606  1.00  0.00    -0.246 OA
BRANCH  27  29
ATOM     29  C   UNL A   1      34.823  31.325  27.770  1.00  0.00     0.060 A 
ATOM     30  C   UNL A   1      35.772  32.312  28.013  1.00  0.00     0.016 A 
ATOM     31  C   UNL A   1      35.071  29.995  28.120  1.00  0.00     0.016 A 
ATOM     32  C   UNL A   1      36.975  31.950  28.621  1.00  0.00     0.010 A 
ATOM     33  C   UNL A   1      36.252  29.637  28.754  1.00  0.00     0.010 A 
ATOM     34  C   UNL A   1      37.214  30.615  29.006  1.00  0.00    -0.014 A 
BRANCH  34  35
ATOM     35  C   UNL A   1      38.440  30.263  29.749  1.00  0.00     0.031 A 
ATOM     36  C   UNL A   1      38.661  30.753  31.145  1.00  0.00     0.074 A 
ATOM     37  C   UNL A   1      39.358  29.499  29.131  1.00  0.00     0.049 A 
ATOM     38  N   UNL A   1      39.573  30.385  32.007  1.00  0.00    -0.248 NA
ATOM     39  C   UNL A   1      37.758  31.807  31.638  1.00  0.00     0.031 C 
ATOM     40  C   UNL A   1      39.287  29.072  27.733  1.00  0.00     0.029 A 
ATOM     41  N   UNL A   1      40.510  28.925  29.601  1.00  0.00    -0.354 N 
ATOM     42  C   UNL A   1      39.334  31.133  33.150  1.00  0.00     0.074 A 
ATOM     43  C   UNL A   1      38.246  32.036  32.850  1.00  0.00     0.031 C 
ATOM     44  C   UNL A   1      40.310  28.242  27.478  1.00  0.00     0.029 A 
ATOM     45  C   UNL A   1      41.108  28.089  28.690  1.00  0.00     0.049 A 
ATOM     46  H   UNL A   1      40.873  29.095  30.500  1.00  0.00     0.167 HD
ATOM     47  C   UNL A   1      39.945  31.034  34.353  1.00  0.00     0.037 A 
ATOM     48  C   UNL A   1      42.157  27.259  28.837  1.00  0.00     0.037 A 
ATOM     49  C   UNL A   1      41.027  30.125  34.626  1.00  0.00     0.049 A 
ATOM     50  C   UNL A   1      42.817  27.161  30.184  1.00  0.00     0.074 A 
ATOM     51  C   UNL A   1      41.673  29.887  35.824  1.00  0.00     0.029 A 
ATOM     52  N   UNL A   1      41.627  29.312  33.675  1.00  0.00    -0.354 N 
ATOM     53  N   UNL A   1      42.497  27.764  31.303  1.00  0.00    -0.248 NA
ATOM     54  C   UNL A   1      43.974  26.264  30.292  1.00  0.00     0.031 C 
ATOM     55  C   UNL A   1      42.695  28.963  35.589  1.00  0.00     0.029 A 
ATOM     56  C   UNL A   1      42.660  28.594  34.251  1.00  0.00     0.049 A 
ATOM     57  H   UNL A   1      41.359  29.255  32.729  1.00  0.00     0.167 HD
ATOM     58  C   UNL A   1      43.405  27.317  32.251  1.00  0.00     0.074 A 
ATOM     59  C   UNL A   1      44.276  26.372  31.581  1.00  0.00     0.031 C 
ATOM     60  C   UNL A   1      43.515  27.664  33.557  1.00  0.00     0.037 A 
BRANCH  47  61
ATOM     61  C   UNL A   1      39.435  31.894  35.471  1.00  0.00     0.064 A 
ATOM     62  C   UNL A   1      38.491  31.406  36.389  1.00  0.00     0.173 A 
ATOM     63  C   UNL A   1      39.935  33.189  35.672  1.00  0.00     0.173 A 
ATOM     64  F   UNL A   1      37.977  30.176  36.237  1.00  0.00    -0.203 F 
ATOM     65  C   UNL A   1      38.052  32.189  37.452  1.00  0.00     0.198 A 
ATOM     66  C   UNL A   1      39.512  33.960  36.753  1.00  0.00     0.198 A 
ATOM     67  F   UNL A   1      40.844  33.702  34.829  1.00  0.00    -0.203 F 
ATOM     68  F   UNL A   1      37.124  31.713  38.293  1.00  0.00    -0.200 F 
ATOM     69  C   UNL A   1      38.568  33.461  37.638  1.00  0.00     0.200 A 
ATOM     70  F   UNL A   1      40.023  35.186  36.940  1.00  0.00    -0.200 F 
ATOM     71  F   UNL A   1      38.155  34.209  38.671  1.00  0.00    -0.200 F 
ENDBRANCH  47  61
BRANCH  48  72
ATOM     72  C   UNL A   1      42.572  26.400  27.700  1.00  0.00     0.064 A 
ATOM     73  C   UNL A   1      43.600  26.805  26.837  1.00  0.00     0.173 A 
ATOM     74  C   UNL A   1      41.997  25.139  27.485  1.00  0.00     0.173 A 
ATOM     75  F   UNL A   1      44.172  28.007  26.997  1.00  0.00    -0.203 F 
ATOM     76  C   UNL A   1      44.033  25.983  25.798  1.00  0.00     0.198 A 
ATOM     77  C   UNL A   1      42.448  24.309  26.461  1.00  0.00     0.198 A 
ATOM     78  F   UNL A   1      41.019  24.702  28.292  1.00  0.00    -0.203 F 
ATOM     79  F   UNL A   1      45.002  26.405  24.974  1.00  0.00    -0.200 F 
ATOM     80  C   UNL A   1      43.463  24.733  25.617  1.00  0.00     0.200 A 
ATOM     81  F   UNL A   1      41.907  23.093  26.299  1.00  0.00    -0.200 F 
ATOM     82  F   UNL A   1      43.892  23.936  24.628  1.00  0.00    -0.200 F 
ENDBRANCH  48  72
BRANCH  60  83
ATOM     83  C   UNL A   1      44.624  27.041  34.348  1.00  0.00     0.064 A 
ATOM     84  C   UNL A   1      45.858  27.689  34.494  1.00  0.00     0.173 A 
ATOM     85  C   UNL A   1      44.413  25.848  35.058  1.00  0.00     0.173 A 
ATOM     86  F   UNL A   1      46.107  28.824  33.826  1.00  0.00    -0.203 F 
ATOM     87  C   UNL A   1      46.844  27.165  35.324  1.00  0.00     0.198 A 
ATOM     88  C   UNL A   1      45.393  25.342  35.906  1.00  0.00     0.198 A 
ATOM     89  F   UNL A   1      43.245  25.198  34.956  1.00  0.00    -0.203 F 
ATOM     90  F   UNL A   1      48.024  27.792  35.437  1.00  0.00    -0.200 F 
ATOM     91  C   UNL A   1      46.607  26.000  36.040  1.00  0.00     0.200 A 
ATOM     92  F   UNL A   1      45.155  24.226  36.610  1.00  0.00    -0.200 F 
ATOM     93  F   UNL A   1      47.547  25.514  36.860  1.00  0.00    -0.200 F 
ENDBRANCH  60  83
ENDBRANCH  34  35
ENDBRANCH  27  29
ENDBRANCH  26  27
ENDBRANCH  25  26
ENDBRANCH   1  25
TORSDOF 14
ENDMDL
MODEL 2
REMARK VINA RESULT:     -13.0      4.430      9.649
REMARK SMILES CC(=O)N[C@@H](Cc1c(C)[nH]c2ccccc2c1=O)C(=O)OCCOC(=O)c1ccc(-c2c3nc(c(-c4c(F)c(F)c(F)c(F)c4F)c4ccc([nH]4)c(-c4c(F)c(F)c(F)c(F)c4F)c4nc(c(-c5c(F)c(F)c(F)c(F)c5F)c5ccc2[nH]5)C=C4)C=C3)cc1
REMARK SMILES IDX 22 1 21 2 19 3 20 4 5 5 4 6 1 7 2 8 3 9 6 11 7 12 8 13 17 14
REMARK SMILES IDX 9 15 10 16 16 17 18 18 11 19 15 21 12 22 14 23 13 24 23 25
REMARK SMILES IDX 24 26 25 27 26 28 27 29 28 30 89 31 29 32 88 33 30 34 31 35
REMARK SMILES IDX 32 36 82 37 33 38 87 39 81 40 83 41 34 42 86 43 80 44 79 45
REMARK SMILES IDX 35 47 67 48 47 49 66 50 48 51 51 52 65 53 84 54 49 55 50 56
REMARK SMILES IDX 64 58 85 59 52 60 36 61 37 62 45 63 38 64 39 65 43 66 46 67
REMARK SMILES IDX 40 68 41 69 44 70 42 71 68 72 69 73 77 74 70 75 71 76 75 77
REMARK SMILES IDX 78 78 72 79 73 80 76 81 74 82 53 83 54 84 62 85 55 86 56 87
REMARK SMILES IDX 60 88 63 89 57 90 58 91 61 92 59 93
REMARK H PARENT 4 10 10 20 83 46 51 57
REMARK Flexibility Score: inf
ROOT
ATOM      1  C   UNL A   1      35.591  21.499  24.954  1.00  0.00     0.274 C 
ENDROOT
BRANCH   1   2
ATOM      2  O   UNL A   1      35.208  22.160  26.178  1.00  0.00    -0.461 OA
BRANCH   2   3
ATOM      3  C   UNL A   1      34.060  21.730  26.770  1.00  0.00     0.329 C 
ATOM      4  O   UNL A   1      33.828  21.801  27.974  1.00  0.00    -0.250 OA
BRANCH   3   5
ATOM      5  C   UNL A   1      33.121  21.004  25.795  1.00  0.00     0.196 C 
BRANCH   5   6
ATOM      6  N   UNL A   1      32.904  19.595  26.129  1.00  0.00    -0.343 N 
ATOM      7  C   UNL A   1      32.541  18.727  23.834  1.00  0.00     0.114 C 
ATOM      8  C   UNL A   1      32.702  18.521  25.316  1.00  0.00     0.217 C 
ATOM      9  O   UNL A   1      32.661  17.392  25.804  1.00  0.00    -0.275 OA
ATOM     10  H   UNL A   1      32.904  19.391  27.092  1.00  0.00     0.164 HD
ENDBRANCH   5   6
BRANCH   5  11
ATOM     11  C   UNL A   1      31.808  21.807  25.679  1.00  0.00     0.078 C 
BRANCH  11  12
ATOM     12  C   UNL A   1      31.981  23.202  25.117  1.00  0.00     0.022 A 
ATOM     13  C   UNL A   1      32.323  23.540  23.850  1.00  0.00     0.019 A 
ATOM     14  C   UNL A   1      31.724  24.315  26.095  1.00  0.00     0.192 A 
ATOM     15  C   UNL A   1      32.528  22.541  22.735  1.00  0.00     0.064 C 
ATOM     16  N   UNL A   1      32.522  24.851  23.467  1.00  0.00    -0.358 N 
ATOM     17  C   UNL A   1      31.888  25.710  25.639  1.00  0.00     0.046 A 
ATOM     18  O   UNL A   1      31.382  24.078  27.250  1.00  0.00    -0.289 OA
ATOM     19  C   UNL A   1      32.309  25.933  24.325  1.00  0.00     0.049 A 
ATOM     20  H   UNL A   1      32.829  25.032  22.549  1.00  0.00     0.166 HD
ATOM     21  C   UNL A   1      31.619  26.775  26.503  1.00  0.00     0.014 A 
ATOM     22  C   UNL A   1      32.481  27.248  23.887  1.00  0.00     0.027 A 
ATOM     23  C   UNL A   1      31.776  28.083  26.049  1.00  0.00     0.001 A 
ATOM     24  C   UNL A   1      32.212  28.319  24.745  1.00  0.00     0.002 A 
ENDBRANCH  11  12
ENDBRANCH   5  11
ENDBRANCH   3   5
ENDBRANCH   2   3
ENDBRANCH   1   2
BRANCH   1  25
ATOM     25  C   UNL A   1      36.906  20.731  25.111  1.00  0.00     0.275 C 
BRANCH  25  26
ATOM     26  O   UNL A   1      38.035  21.622  25.111  1.00  0.00    -0.458 OA
BRANCH  26  27
ATOM     27  C   UNL A   1      39.023  21.271  25.966  1.00  0.00     0.338 C 
ATOM     28  O   UNL A   1      39.503  20.165  26.132  1.00  0.00    -0.246 OA
BRANCH  27  29
ATOM     29  C   UNL A   1      39.606  22.478  26.566  1.00  0.00     0.060 A 
ATOM     30  C   UNL A   1      40.604  22.412  27.532  1.00  0.00     0.016 A 
ATOM     31  C   UNL A   1      39.174  23.710  26.070  1.00  0.00     0.016 A 
ATOM     32  C   UNL A   1      41.173  23.601  27.991  1.00  0.00     0.010 A 
ATOM     33  C   UNL A   1      39.760  24.892  26.499  1.00  0.00     0.010 A 
ATOM     34  C   UNL A   1      40.763  24.844  27.466  1.00  0.00    -0.014 A 
BRANCH  34  35
ATOM     35  C   UNL A   1      41.448  26.086  27.875  1.00  0.00     0.031 A 
ATOM     36  C   UNL A   1      42.850  26.370  27.438  1.00  0.00     0.074 A 
ATOM     37  C   UNL A   1      40.780  26.950  28.660  1.00  0.00     0.049 A 
ATOM     38  N   UNL A   1      43.528  27.485  27.535  1.00  0.00    -0.248 NA
ATOM     39  C   UNL A   1      43.602  25.260  26.831  1.00  0.00     0.031 C 
ATOM     40  C   UNL A   1      39.456  26.706  29.234  1.00  0.00     0.029 A 
ATOM     41  N   UNL A   1      41.106  28.209  29.089  1.00  0.00    -0.354 N 
ATOM     42  C   UNL A   1      44.768  27.221  26.973  1.00  0.00     0.074 A 
ATOM     43  C   UNL A   1      44.784  25.822  26.611  1.00  0.00     0.031 C 
ATOM     44  C   UNL A   1      39.050  27.811  29.877  1.00  0.00     0.029 A 
ATOM     45  C   UNL A   1      40.087  28.831  29.767  1.00  0.00     0.049 A 
ATOM     46  H   UNL A   1      41.983  28.627  28.926  1.00  0.00     0.167 HD
ATOM     47  C   UNL A   1      45.780  28.090  26.743  1.00  0.00     0.037 A 
ATOM     48  C   UNL A   1      39.989  30.098  30.208  1.00  0.00     0.037 A 
ATOM     49  C   UNL A   1      45.737  29.480  27.114  1.00  0.00     0.049 A 
ATOM     50  C   UNL A   1      41.122  31.047  29.936  1.00  0.00     0.074 A 
ATOM     51  C   UNL A   1      46.671  30.468  26.867  1.00  0.00     0.029 A 
ATOM     52  N   UNL A   1      44.702  30.071  27.824  1.00  0.00    -0.354 N 
ATOM     53  N   UNL A   1      42.235  30.833  29.277  1.00  0.00    -0.248 NA
ATOM     54  C   UNL A   1      40.985  32.412  30.459  1.00  0.00     0.031 C 
ATOM     55  C   UNL A   1      46.223  31.648  27.467  1.00  0.00     0.029 A 
ATOM     56  C   UNL A   1      44.989  31.405  28.054  1.00  0.00     0.049 A 
ATOM     57  H   UNL A   1      43.884  29.610  28.122  1.00  0.00     0.167 HD
ATOM     58  C   UNL A   1      42.929  32.034  29.298  1.00  0.00     0.074 A 
ATOM     59  C   UNL A   1      42.099  32.982  30.015  1.00  0.00     0.031 C 
ATOM     60  C   UNL A   1      44.146  32.324  28.777  1.00  0.00     0.037 A 
BRANCH  47  61
ATOM     61  C   UNL A   1      46.993  27.578  26.026  1.00  0.00     0.064 A 
ATOM     62  C   UNL A   1      47.085  27.634  24.626  1.00  0.00     0.173 A 
ATOM     63  C   UNL A   1      48.099  27.089  26.736  1.00  0.00     0.173 A 
ATOM     64  F   UNL A   1      46.052  28.087  23.899  1.00  0.00    -0.203 F 
ATOM     65  C   UNL A   1      48.230  27.200  23.964  1.00  0.00     0.198 A 
ATOM     66  C   UNL A   1      49.253  26.681  26.070  1.00  0.00     0.198 A 
ATOM     67  F   UNL A   1      48.067  27.021  28.075  1.00  0.00    -0.203 F 
ATOM     68  F   UNL A   1      48.279  27.231  22.625  1.00  0.00    -0.200 F 
ATOM     69  C   UNL A   1      49.315  26.732  24.686  1.00  0.00     0.200 A 
ATOM     70  F   UNL A   1      50.308  26.240  26.771  1.00  0.00    -0.200 F 
ATOM     71  F   UNL A   1      50.422  26.328  24.048  1.00  0.00    -0.200 F 
ENDBRANCH  47  61
BRANCH  48  72
ATOM     72  C   UNL A   1      38.735  30.547  30.864  1.00  0.00     0.064 A 
ATOM     73  C   UNL A   1      38.634  30.583  32.262  1.00  0.00     0.173 A 
ATOM     74  C   UNL A   1      37.639  31.002  30.117  1.00  0.00     0.173 A 
ATOM     75  F   UNL A   1      39.652  30.149  33.017  1.00  0.00    -0.203 F 
ATOM     76  C   UNL A   1      37.480  31.052  32.887  1.00  0.00     0.198 A 
ATOM     77  C   UNL A   1      36.496  31.493  30.745  1.00  0.00     0.198 A 
ATOM     78  F   UNL A   1      37.692  30.998  28.777  1.00  0.00    -0.203 F 
ATOM     79  F   UNL A   1      37.402  31.056  34.225  1.00  0.00    -0.200 F 
ATOM     80  C   UNL A   1      36.417  31.515  32.129  1.00  0.00     0.200 A 
ATOM     81  F   UNL A   1      35.476  31.956  30.008  1.00  0.00    -0.200 F 
ATOM     82  F   UNL A   1      35.314  31.982  32.732  1.00  0.00    -0.200 F 
ENDBRANCH  48  72
BRANCH  60  83
ATOM     83  C   UNL A   1      44.672  33.712  28.978  1.00  0.00     0.064 A 
ATOM     84  C   UNL A   1      45.529  34.011  30.046  1.00  0.00     0.173 A 
ATOM     85  C   UNL A   1      44.411  34.719  28.036  1.00  0.00     0.173 A 
ATOM     86  F   UNL A   1      45.797  33.083  30.977  1.00  0.00    -0.203 F 
ATOM     87  C   UNL A   1      46.109  35.270  30.164  1.00  0.00     0.198 A 
ATOM     88  C   UNL A   1      45.013  35.969  28.144  1.00  0.00     0.198 A 
ATOM     89  F   UNL A   1      43.604  34.477  26.994  1.00  0.00    -0.203 F 
ATOM     90  F   UNL A   1      46.914  35.540  31.202  1.00  0.00    -0.200 F 
ATOM     91  C   UNL A   1      45.862  36.244  29.207  1.00  0.00     0.200 A 
ATOM     92  F   UNL A   1      44.786  36.902  27.210  1.00  0.00    -0.200 F 
ATOM     93  F   UNL A   1      46.444  37.446  29.307  1.00  0.00    -0.200 F 
ENDBRANCH  60  83
ENDBRANCH  34  35
ENDBRANCH  27  29
ENDBRANCH  26  27
ENDBRANCH  25  26
ENDBRANCH   1  25
TORSDOF 14
ENDMDL
MODEL 3
REMARK VINA RESULT:     -12.9      4.437      9.661
REMARK SMILES CC(=O)N[C@@H](Cc1c(C)[nH]c2ccccc2c1=O)C(=O)OCCOC(=O)c1ccc(-c2c3nc(c(-c4c(F)c(F)c(F)c(F)c4F)c4ccc([nH]4)c(-c4c(F)c(F)c(F)c(F)c4F)c4nc(c(-c5c(F)c(F)c(F)c(F)c5F)c5ccc2[nH]5)C=C4)C=C3)cc1
REMARK SMILES IDX 22 1 21 2 19 3 20 4 5 5 4 6 1 7 2 8 3 9 6 11 7 12 8 13 17 14
REMARK SMILES IDX 9 15 10 16 16 17 18 18 11 19 15 21 12 22 14 23 13 24 23 25
REMARK SMILES IDX 24 26 25 27 26 28 27 29 28 30 89 31 29 32 88 33 30 34 31 35
REMARK SMILES IDX 32 36 82 37 33 38 87 39 81 40 83 41 34 42 86 43 80 44 79 45
REMARK SMILES IDX 35 47 67 48 47 49 66 50 48 51 51 52 65 53 84 54 49 55 50 56
REMARK SMILES IDX 64 58 85 59 52 60 36 61 37 62 45 63 38 64 39 65 43 66 46 67
REMARK SMILES IDX 40 68 41 69 44 70 42 71 68 72 69 73 77 74 70 75 71 76 75 77
REMARK SMILES IDX 78 78 72 79 73 80 76 81 74 82 53 83 54 84 62 85 55 86 56 87
REMARK SMILES IDX 60 88 63 89 57 90 58 91 61 92 59 93
REMARK H PARENT 4 10 10 20 83 46 51 57
REMARK Flexibility Score: inf
ROOT
ATOM      1  C   UNL A   1      35.624  21.074  25.158  1.00  0.00     0.274 C 
ENDROOT
BRANCH   1   2
ATOM      2  O   UNL A   1      35.322  21.462  26.513  1.00  0.00    -0.461 OA
BRANCH   2   3
ATOM      3  C   UNL A   1      34.005  21.537  26.849  1.00  0.00     0.329 C 
ATOM      4  O   UNL A   1      33.586  21.849  27.961  1.00  0.00    -0.250 OA
BRANCH   3   5
ATOM      5  C   UNL A   1      33.076  21.047  25.729  1.00  0.00     0.196 C 
BRANCH   5   6
ATOM      6  N   UNL A   1      32.588  19.680  25.927  1.00  0.00    -0.343 N 
ATOM      7  C   UNL A   1      32.736  18.895  23.579  1.00  0.00     0.114 C 
ATOM      8  C   UNL A   1      32.467  18.654  25.039  1.00  0.00     0.217 C 
ATOM      9  O   UNL A   1      32.144  17.538  25.445  1.00  0.00    -0.275 OA
ATOM     10  H   UNL A   1      32.304  19.469  26.845  1.00  0.00     0.164 HD
ENDBRANCH   5   6
BRANCH   5  11
ATOM     11  C   UNL A   1      31.938  22.073  25.543  1.00  0.00     0.078 C 
BRANCH  11  12
ATOM     12  C   UNL A   1      32.410  23.461  25.167  1.00  0.00     0.022 A 
ATOM     13  C   UNL A   1      33.079  23.825  24.046  1.00  0.00     0.019 A 
ATOM     14  C   UNL A   1      32.069  24.536  26.161  1.00  0.00     0.192 A 
ATOM     15  C   UNL A   1      33.416  22.878  22.918  1.00  0.00     0.064 C 
ATOM     16  N   UNL A   1      33.524  25.116  23.842  1.00  0.00    -0.358 N 
ATOM     17  C   UNL A   1      32.507  25.920  25.886  1.00  0.00     0.046 A 
ATOM     18  O   UNL A   1      31.438  24.279  27.182  1.00  0.00    -0.289 OA
ATOM     19  C   UNL A   1      33.250  26.162  24.727  1.00  0.00     0.049 A 
ATOM     20  H   UNL A   1      34.058  25.308  23.038  1.00  0.00     0.166 HD
ATOM     21  C   UNL A   1      32.176  26.957  26.763  1.00  0.00     0.014 A 
ATOM     22  C   UNL A   1      33.682  27.464  24.463  1.00  0.00     0.027 A 
ATOM     23  C   UNL A   1      32.596  28.255  26.480  1.00  0.00     0.001 A 
ATOM     24  C   UNL A   1      33.353  28.507  25.335  1.00  0.00     0.002 A 
ENDBRANCH  11  12
ENDBRANCH   5  11
ENDBRANCH   3   5
ENDBRANCH   2   3
ENDBRANCH   1   2
BRANCH   1  25
ATOM     25  C   UNL A   1      37.095  20.688  24.990  1.00  0.00     0.275 C 
BRANCH  25  26
ATOM     26  O   UNL A   1      37.964  21.783  25.327  1.00  0.00    -0.458 OA
BRANCH  26  27
ATOM     27  C   UNL A   1      39.051  21.431  26.052  1.00  0.00     0.338 C 
ATOM     28  O   UNL A   1      39.584  20.338  26.109  1.00  0.00    -0.246 OA
BRANCH  27  29
ATOM     29  C   UNL A   1      39.656  22.629  26.647  1.00  0.00     0.060 A 
ATOM     30  C   UNL A   1      40.657  22.550  27.608  1.00  0.00     0.016 A 
ATOM     31  C   UNL A   1      39.240  23.867  26.151  1.00  0.00     0.016 A 
ATOM     32  C   UNL A   1      41.246  23.732  28.062  1.00  0.00     0.010 A 
ATOM     33  C   UNL A   1      39.845  25.041  26.575  1.00  0.00     0.010 A 
ATOM     34  C   UNL A   1      40.853  24.979  27.537  1.00  0.00    -0.014 A 
BRANCH  34  35
ATOM     35  C   UNL A   1      41.558  26.211  27.941  1.00  0.00     0.031 A 
ATOM     36  C   UNL A   1      42.959  26.478  27.488  1.00  0.00     0.074 A 
ATOM     37  C   UNL A   1      40.910  27.082  28.735  1.00  0.00     0.049 A 
ATOM     38  N   UNL A   1      43.652  27.584  27.580  1.00  0.00    -0.248 NA
ATOM     39  C   UNL A   1      43.690  25.360  26.871  1.00  0.00     0.031 C 
ATOM     40  C   UNL A   1      39.589  26.855  29.323  1.00  0.00     0.029 A 
ATOM     41  N   UNL A   1      41.258  28.337  29.162  1.00  0.00    -0.354 N 
ATOM     42  C   UNL A   1      44.882  27.305  27.004  1.00  0.00     0.074 A 
ATOM     43  C   UNL A   1      44.876  25.906  26.639  1.00  0.00     0.031 C 
ATOM     44  C   UNL A   1      39.205  27.964  29.972  1.00  0.00     0.029 A 
ATOM     45  C   UNL A   1      40.254  28.970  29.852  1.00  0.00     0.049 A 
ATOM     46  H   UNL A   1      42.138  28.743  28.990  1.00  0.00     0.167 HD
ATOM     47  C   UNL A   1      45.903  28.161  26.764  1.00  0.00     0.037 A 
ATOM     48  C   UNL A   1      40.178  30.239  30.296  1.00  0.00     0.037 A 
ATOM     49  C   UNL A   1      45.883  29.550  27.138  1.00  0.00     0.049 A 
ATOM     50  C   UNL A   1      41.321  31.172  30.014  1.00  0.00     0.074 A 
ATOM     51  C   UNL A   1      46.826  30.527  26.881  1.00  0.00     0.029 A 
ATOM     52  N   UNL A   1      44.863  30.154  27.860  1.00  0.00    -0.354 N 
ATOM     53  N   UNL A   1      42.423  30.945  29.342  1.00  0.00    -0.248 NA
ATOM     54  C   UNL A   1      41.207  32.538  30.540  1.00  0.00     0.031 C 
ATOM     55  C   UNL A   1      46.401  31.712  27.488  1.00  0.00     0.029 A 
ATOM     56  C   UNL A   1      45.170  31.484  28.089  1.00  0.00     0.049 A 
ATOM     57  H   UNL A   1      44.043  29.703  28.166  1.00  0.00     0.167 HD
ATOM     58  C   UNL A   1      43.132  32.137  29.357  1.00  0.00     0.074 A 
ATOM     59  C   UNL A   1      42.323  33.094  30.085  1.00  0.00     0.031 C 
ATOM     60  C   UNL A   1      44.348  32.412  28.824  1.00  0.00     0.037 A 
BRANCH  47  61
ATOM     61  C   UNL A   1      47.101  27.635  26.033  1.00  0.00     0.064 A 
ATOM     62  C   UNL A   1      47.172  27.678  24.631  1.00  0.00     0.173 A 
ATOM     63  C   UNL A   1      48.215  27.143  26.729  1.00  0.00     0.173 A 
ATOM     64  F   UNL A   1      46.132  28.133  23.917  1.00  0.00    -0.203 F 
ATOM     65  C   UNL A   1      48.304  27.231  23.955  1.00  0.00     0.198 A 
ATOM     66  C   UNL A   1      49.356  26.721  26.049  1.00  0.00     0.198 A 
ATOM     67  F   UNL A   1      48.203  27.086  28.070  1.00  0.00    -0.203 F 
ATOM     68  F   UNL A   1      48.332  27.251  22.615  1.00  0.00    -0.200 F 
ATOM     69  C   UNL A   1      49.397  26.761  24.664  1.00  0.00     0.200 A 
ATOM     70  F   UNL A   1      50.418  26.278  26.738  1.00  0.00    -0.200 F 
ATOM     71  F   UNL A   1      50.491  26.344  24.012  1.00  0.00    -0.200 F 
ENDBRANCH  47  61
BRANCH  48  72
ATOM     72  C   UNL A   1      38.937  30.702  30.967  1.00  0.00     0.064 A 
ATOM     73  C   UNL A   1      37.844  31.154  30.214  1.00  0.00     0.173 A 
ATOM     74  C   UNL A   1      38.793  30.650  32.361  1.00  0.00     0.173 A 
ATOM     75  F   UNL A   1      37.938  31.230  28.878  1.00  0.00    -0.203 F 
ATOM     76  C   UNL A   1      36.656  31.541  30.831  1.00  0.00     0.198 A 
ATOM     77  C   UNL A   1      37.597  31.014  32.974  1.00  0.00     0.198 A 
ATOM     78  F   UNL A   1      39.807  30.214  33.124  1.00  0.00    -0.203 F 
ATOM     79  F   UNL A   1      35.634  31.989  30.088  1.00  0.00    -0.200 F 
ATOM     80  C   UNL A   1      36.531  31.462  32.209  1.00  0.00     0.200 A 
ATOM     81  F   UNL A   1      37.472  30.921  34.305  1.00  0.00    -0.200 F 
ATOM     82  F   UNL A   1      35.382  31.819  32.800  1.00  0.00    -0.200 F 
ENDBRANCH  48  72
BRANCH  60  83
ATOM     83  C   UNL A   1      44.894  33.793  29.021  1.00  0.00     0.064 A 
ATOM     84  C   UNL A   1      44.576  34.828  28.131  1.00  0.00     0.173 A 
ATOM     85  C   UNL A   1      45.642  34.109  30.165  1.00  0.00     0.173 A 
ATOM     86  F   UNL A   1      43.873  34.570  27.018  1.00  0.00    -0.203 F 
ATOM     87  C   UNL A   1      44.988  36.134  28.380  1.00  0.00     0.198 A 
ATOM     88  C   UNL A   1      46.030  35.421  30.423  1.00  0.00     0.198 A 
ATOM     89  F   UNL A   1      45.963  33.153  31.049  1.00  0.00    -0.203 F 
ATOM     90  F   UNL A   1      44.687  37.106  27.508  1.00  0.00    -0.200 F 
ATOM     91  C   UNL A   1      45.702  36.432  29.531  1.00  0.00     0.200 A 
ATOM     92  F   UNL A   1      46.705  35.709  31.544  1.00  0.00    -0.200 F 
ATOM     93  F   UNL A   1      46.072  37.694  29.783  1.00  0.00    -0.200 F 
ENDBRANCH  60  83
ENDBRANCH  34  35
ENDBRANCH  27  29
ENDBRANCH  26  27
ENDBRANCH  25  26
ENDBRANCH   1  25
TORSDOF 14
ENDMDL
