MODEL 1
REMARK VINA RESULT:     -14.7      0.000      0.000
REMARK SMILES Cc1cc(N2CC[NH+]([C@@H](C(=O)OCCOC(=O)c3ccc(-c4c5nc(c(-c6c(F)c(F)c(F)c(F)c6F)c6ccc([nH]6)c(-c6c(F)c(F)c(F)c(F)c6F)c6nc(c(-c7c(F)c(F)c(F)c(F)c7F)c7ccc4[nH]7)C=C6)C=C5)cc3)c3c[nH]c4ccccc34)CC2)nc2ccccc12
REMARK SMILES IDX 13 1 12 2 10 3 11 4 9 5 8 6 5 7 6 8 91 9 7 10 90 11 4 13
REMARK SMILES IDX 1 14 2 15 3 16 98 17 93 18 97 19 92 20 94 21 96 22 95 23
REMARK SMILES IDX 81 24 82 25 89 26 83 27 84 28 88 29 85 31 87 32 86 33 14 34
REMARK SMILES IDX 15 35 16 36 17 37 18 38 19 39 80 40 20 41 79 42 21 43 22 44
REMARK SMILES IDX 23 45 73 46 24 47 78 48 72 49 74 50 25 51 77 52 71 53 70 54
REMARK SMILES IDX 26 56 58 57 38 58 57 59 39 60 42 61 56 62 75 63 40 64 41 65
REMARK SMILES IDX 55 67 76 68 43 69 27 70 28 71 36 72 29 73 30 74 34 75 37 76
REMARK SMILES IDX 31 77 32 78 35 79 33 80 59 81 60 82 68 83 61 84 62 85 66 86
REMARK SMILES IDX 69 87 63 88 64 89 67 90 65 91 44 92 45 93 53 94 46 95 47 96
REMARK SMILES IDX 51 97 54 98 48 99 49 100 52 101 50 102
REMARK H PARENT 8 12 83 30 74 55 42 66
REMARK Flexibility Score: inf
ROOT
ATOM      1  C   UNL A   1      31.778  28.543  27.015  1.00  0.00     0.274 C 
ENDROOT
BRANCH   1   2
ATOM      2  O   UNL A   1      32.933  27.853  26.475  1.00  0.00    -0.457 OA
BRANCH   2   3
ATOM      3  C   UNL A   1      32.735  27.123  25.349  1.00  0.00     0.370 C 
ATOM      4  O   UNL A   1      33.658  26.629  24.698  1.00  0.00    -0.245 OA
BRANCH   3   5
ATOM      5  C   UNL A   1      31.295  27.097  24.832  1.00  0.00     0.328 C 
BRANCH   5   6
ATOM      6  N   UNL A   1      30.553  25.791  24.927  1.00  0.00    -0.316 N 
ATOM      7  N   UNL A   1      32.379  23.532  24.890  1.00  0.00    -0.345 N 
ATOM      8  C   UNL A   1      32.034  24.224  23.656  1.00  0.00     0.179 C 
ATOM      9  C   UNL A   1      31.595  23.712  26.109  1.00  0.00     0.179 C 
ATOM     10  C   UNL A   1      30.664  24.884  23.778  1.00  0.00     0.285 C 
ATOM     11  C   UNL A   1      30.770  25.039  26.173  1.00  0.00     0.285 C 
ATOM     12  H   UNL A   1      29.595  26.142  24.924  1.00  0.00     0.349 HD
BRANCH   7  13
ATOM     13  C   UNL A   1      33.098  22.377  24.645  1.00  0.00     0.129 A 
ATOM     14  C   UNL A   1      36.564  21.082  25.376  1.00  0.00     0.045 C 
ATOM     15  C   UNL A   1      35.122  21.107  24.953  1.00  0.00    -0.038 A 
ATOM     16  C   UNL A   1      34.454  22.332  24.934  1.00  0.00     0.051 A 
ATOM     17  C   UNL A   1      34.403  19.937  24.626  1.00  0.00     0.003 A 
ATOM     18  C   UNL A   1      33.031  20.081  24.323  1.00  0.00     0.073 A 
ATOM     19  C   UNL A   1      34.978  18.646  24.605  1.00  0.00     0.010 A 
ATOM     20  N   UNL A   1      32.400  21.265  24.346  1.00  0.00    -0.231 NA
ATOM     21  C   UNL A   1      32.292  18.948  24.013  1.00  0.00     0.029 A 
ATOM     22  C   UNL A   1      34.213  17.524  24.288  1.00  0.00     0.001 A 
ATOM     23  C   UNL A   1      32.866  17.675  23.992  1.00  0.00     0.002 A 
ENDBRANCH   7  13
ENDBRANCH   5   6
BRANCH   5  24
ATOM     24  C   UNL A   1      30.904  27.840  23.559  1.00  0.00     0.046 A 
ATOM     25  C   UNL A   1      31.863  28.429  22.743  1.00  0.00     0.094 A 
ATOM     26  C   UNL A   1      29.634  28.355  23.094  1.00  0.00     0.009 A 
ATOM     27  N   UNL A   1      31.280  29.466  22.073  1.00  0.00    -0.361 N 
ATOM     28  C   UNL A   1      29.933  29.494  22.335  1.00  0.00     0.046 A 
ATOM     29  C   UNL A   1      28.270  28.110  23.368  1.00  0.00     0.011 A 
ATOM     30  H   UNL A   1      31.755  30.099  21.488  1.00  0.00     0.166 HD
ATOM     31  C   UNL A   1      28.983  30.467  21.998  1.00  0.00     0.026 A 
ATOM     32  C   UNL A   1      27.293  29.033  22.962  1.00  0.00     0.001 A 
ATOM     33  C   UNL A   1      27.653  30.219  22.334  1.00  0.00     0.002 A 
ENDBRANCH   5  24
ENDBRANCH   3   5
ENDBRANCH   2   3
ENDBRANCH   1   2
BRANCH   1  34
ATOM     34  C   UNL A   1      31.825  30.030  26.688  1.00  0.00     0.275 C 
BRANCH  34  35
ATOM     35  O   UNL A   1      33.198  30.384  26.471  1.00  0.00    -0.458 OA
BRANCH  35  36
ATOM     36  C   UNL A   1      33.674  31.374  27.254  1.00  0.00     0.338 C 
ATOM     37  O   UNL A   1      33.087  32.401  27.575  1.00  0.00    -0.246 OA
BRANCH  36  38
ATOM     38  C   UNL A   1      34.988  30.991  27.816  1.00  0.00     0.060 A 
ATOM     39  C   UNL A   1      35.217  29.703  28.308  1.00  0.00     0.016 A 
ATOM     40  C   UNL A   1      35.957  31.979  28.001  1.00  0.00     0.016 A 
ATOM     41  C   UNL A   1      36.343  29.428  29.076  1.00  0.00     0.010 A 
ATOM     42  C   UNL A   1      37.138  31.676  28.682  1.00  0.00     0.010 A 
ATOM     43  C   UNL A   1      37.328  30.405  29.248  1.00  0.00    -0.014 A 
BRANCH  43  44
ATOM     44  C   UNL A   1      38.590  30.090  29.958  1.00  0.00     0.031 A 
ATOM     45  C   UNL A   1      39.587  29.140  29.369  1.00  0.00     0.074 A 
ATOM     46  C   UNL A   1      38.806  30.628  31.172  1.00  0.00     0.049 A 
ATOM     47  N   UNL A   1      40.609  28.553  29.942  1.00  0.00    -0.248 NA
ATOM     48  C   UNL A   1      39.408  28.793  27.953  1.00  0.00     0.031 C 
ATOM     49  C   UNL A   1      37.931  31.595  31.834  1.00  0.00     0.029 A 
ATOM     50  N   UNL A   1      39.817  30.416  32.075  1.00  0.00    -0.354 N 
ATOM     51  C   UNL A   1      41.168  27.735  28.971  1.00  0.00     0.074 A 
ATOM     52  C   UNL A   1      40.378  27.907  27.769  1.00  0.00     0.031 C 
ATOM     53  C   UNL A   1      38.437  31.894  33.037  1.00  0.00     0.029 A 
ATOM     54  C   UNL A   1      39.621  31.072  33.264  1.00  0.00     0.049 A 
ATOM     55  H   UNL A   1      40.602  29.852  31.890  1.00  0.00     0.167 HD
ATOM     56  C   UNL A   1      42.238  26.909  29.088  1.00  0.00     0.037 A 
ATOM     57  C   UNL A   1      40.277  30.981  34.434  1.00  0.00     0.037 A 
ATOM     58  C   UNL A   1      43.029  26.770  30.288  1.00  0.00     0.049 A 
ATOM     59  C   UNL A   1      41.446  30.055  34.547  1.00  0.00     0.074 A 
ATOM     60  C   UNL A   1      44.137  25.969  30.506  1.00  0.00     0.029 A 
ATOM     61  N   UNL A   1      42.799  27.457  31.472  1.00  0.00    -0.354 N 
ATOM     62  N   UNL A   1      41.929  29.227  33.653  1.00  0.00    -0.248 NA
ATOM     63  C   UNL A   1      42.158  30.046  35.828  1.00  0.00     0.031 C 
ATOM     64  C   UNL A   1      44.558  26.147  31.830  1.00  0.00     0.029 A 
ATOM     65  C   UNL A   1      43.742  27.096  32.424  1.00  0.00     0.049 A 
ATOM     66  H   UNL A   1      42.073  28.106  31.616  1.00  0.00     0.167 HD
ATOM     67  C   UNL A   1      43.004  28.598  34.259  1.00  0.00     0.074 A 
ATOM     68  C   UNL A   1      43.115  29.159  35.593  1.00  0.00     0.031 C 
ATOM     69  C   UNL A   1      43.822  27.641  33.756  1.00  0.00     0.037 A 
BRANCH  56  70
ATOM     70  C   UNL A   1      42.595  26.058  27.903  1.00  0.00     0.064 A 
ATOM     71  C   UNL A   1      41.936  24.851  27.628  1.00  0.00     0.173 A 
ATOM     72  C   UNL A   1      43.581  26.486  27.000  1.00  0.00     0.173 A 
ATOM     73  F   UNL A   1      40.994  24.387  28.465  1.00  0.00    -0.203 F 
ATOM     74  C   UNL A   1      42.262  24.097  26.502  1.00  0.00     0.198 A 
ATOM     75  C   UNL A   1      43.885  25.744  25.862  1.00  0.00     0.198 A 
ATOM     76  F   UNL A   1      44.239  27.636  27.212  1.00  0.00    -0.203 F 
ATOM     77  F   UNL A   1      41.645  22.928  26.278  1.00  0.00    -0.200 F 
ATOM     78  C   UNL A   1      43.230  24.548  25.616  1.00  0.00     0.200 A 
ATOM     79  F   UNL A   1      44.810  26.189  24.999  1.00  0.00    -0.200 F 
ATOM     80  F   UNL A   1      43.532  23.827  24.527  1.00  0.00    -0.200 F 
ENDBRANCH  56  70
BRANCH  57  81
ATOM     81  C   UNL A   1      39.786  31.781  35.581  1.00  0.00     0.064 A 
ATOM     82  C   UNL A   1      40.267  33.074  35.815  1.00  0.00     0.173 A 
ATOM     83  C   UNL A   1      38.739  31.311  36.389  1.00  0.00     0.173 A 
ATOM     84  F   UNL A   1      41.279  33.556  35.080  1.00  0.00    -0.203 F 
ATOM     85  C   UNL A   1      39.704  33.878  36.804  1.00  0.00     0.198 A 
ATOM     86  C   UNL A   1      38.158  32.125  37.357  1.00  0.00     0.198 A 
ATOM     87  F   UNL A   1      38.240  30.082  36.193  1.00  0.00    -0.203 F 
ATOM     88  F   UNL A   1      40.181  35.112  37.013  1.00  0.00    -0.200 F 
ATOM     89  C   UNL A   1      38.639  33.408  37.561  1.00  0.00     0.200 A 
ATOM     90  F   UNL A   1      37.115  31.676  38.069  1.00  0.00    -0.200 F 
ATOM     91  F   UNL A   1      38.073  34.198  38.484  1.00  0.00    -0.200 F 
ENDBRANCH  57  81
BRANCH  69  92
ATOM     92  C   UNL A   1      44.918  27.158  34.661  1.00  0.00     0.064 A 
ATOM     93  C   UNL A   1      46.176  27.778  34.684  1.00  0.00     0.173 A 
ATOM     94  C   UNL A   1      44.713  26.050  35.495  1.00  0.00     0.173 A 
ATOM     95  F   UNL A   1      46.425  28.831  33.891  1.00  0.00    -0.203 F 
ATOM     96  C   UNL A   1      47.204  27.278  35.480  1.00  0.00     0.198 A 
ATOM     97  C   UNL A   1      45.734  25.569  36.309  1.00  0.00     0.198 A 
ATOM     98  F   UNL A   1      43.526  25.426  35.512  1.00  0.00    -0.203 F 
ATOM     99  F   UNL A   1      48.417  27.846  35.440  1.00  0.00    -0.200 F 
ATOM    100  C   UNL A   1      46.982  26.175  36.291  1.00  0.00     0.200 A 
ATOM    101  F   UNL A   1      45.518  24.507  37.096  1.00  0.00    -0.200 F 
ATOM    102  F   UNL A   1      47.976  25.687  37.046  1.00  0.00    -0.200 F 
ENDBRANCH  69  92
ENDBRANCH  43  44
ENDBRANCH  36  38
ENDBRANCH  35  36
ENDBRANCH  34  35
ENDBRANCH   1  34
TORSDOF 14
ENDMDL
MODEL 2
REMARK VINA RESULT:     -14.6      0.591      1.624
REMARK SMILES Cc1cc(N2CC[NH+]([C@@H](C(=O)OCCOC(=O)c3ccc(-c4c5nc(c(-c6c(F)c(F)c(F)c(F)c6F)c6ccc([nH]6)c(-c6c(F)c(F)c(F)c(F)c6F)c6nc(c(-c7c(F)c(F)c(F)c(F)c7F)c7ccc4[nH]7)C=C6)C=C5)cc3)c3c[nH]c4ccccc34)CC2)nc2ccccc12
REMARK SMILES IDX 13 1 12 2 10 3 11 4 9 5 8 6 5 7 6 8 91 9 7 10 90 11 4 13
REMARK SMILES IDX 1 14 2 15 3 16 98 17 93 18 97 19 92 20 94 21 96 22 95 23
REMARK SMILES IDX 81 24 82 25 89 26 83 27 84 28 88 29 85 31 87 32 86 33 14 34
REMARK SMILES IDX 15 35 16 36 17 37 18 38 19 39 80 40 20 41 79 42 21 43 22 44
REMARK SMILES IDX 23 45 73 46 24 47 78 48 72 49 74 50 25 51 77 52 71 53 70 54
REMARK SMILES IDX 26 56 58 57 38 58 57 59 39 60 42 61 56 62 75 63 40 64 41 65
REMARK SMILES IDX 55 67 76 68 43 69 27 70 28 71 36 72 29 73 30 74 34 75 37 76
REMARK SMILES IDX 31 77 32 78 35 79 33 80 59 81 60 82 68 83 61 84 62 85 66 86
REMARK SMILES IDX 69 87 63 88 64 89 67 90 65 91 44 92 45 93 53 94 46 95 47 96
REMARK SMILES IDX 51 97 54 98 48 99 49 100 52 101 50 102
REMARK H PARENT 8 12 83 30 74 55 42 66
REMARK Flexibility Score: inf
ROOT
ATOM      1  C   UNL A   1      32.010  28.470  27.571  1.00  0.00     0.274 C 
ENDROOT
BRANCH   1   2
ATOM      2  O   UNL A   1      31.279  27.257  27.264  1.00  0.00    -0.457 OA
BRANCH   2   3
ATOM      3  C   UNL A   1      31.610  26.621  26.112  1.00  0.00     0.370 C 
ATOM      4  O   UNL A   1      32.765  26.292  25.833  1.00  0.00    -0.245 OA
BRANCH   3   5
ATOM      5  C   UNL A   1      30.478  26.491  25.090  1.00  0.00     0.328 C 
BRANCH   5   6
ATOM      6  N   UNL A   1      29.889  25.121  24.886  1.00  0.00    -0.316 N 
ATOM      7  N   UNL A   1      31.946  23.070  24.908  1.00  0.00    -0.345 N 
ATOM      8  C   UNL A   1      31.737  23.895  23.726  1.00  0.00     0.179 C 
ATOM      9  C   UNL A   1      30.951  23.002  25.975  1.00  0.00     0.179 C 
ATOM     10  C   UNL A   1      30.299  24.400  23.675  1.00  0.00     0.285 C 
ATOM     11  C   UNL A   1      29.978  24.224  26.049  1.00  0.00     0.285 C 
ATOM     12  H   UNL A   1      28.910  25.378  24.750  1.00  0.00     0.349 HD
BRANCH   7  13
ATOM     13  C   UNL A   1      32.826  22.034  24.659  1.00  0.00     0.129 A 
ATOM     14  C   UNL A   1      36.429  21.233  25.435  1.00  0.00     0.045 C 
ATOM     15  C   UNL A   1      35.006  21.060  24.986  1.00  0.00    -0.038 A 
ATOM     16  C   UNL A   1      34.170  22.177  24.973  1.00  0.00     0.051 A 
ATOM     17  C   UNL A   1      34.466  19.806  24.629  1.00  0.00     0.003 A 
ATOM     18  C   UNL A   1      33.092  19.758  24.302  1.00  0.00     0.073 A 
ATOM     19  C   UNL A   1      35.220  18.610  24.599  1.00  0.00     0.010 A 
ATOM     20  N   UNL A   1      32.299  20.839  24.331  1.00  0.00    -0.231 NA
ATOM     21  C   UNL A   1      32.528  18.536  23.963  1.00  0.00     0.029 A 
ATOM     22  C   UNL A   1      34.628  17.396  24.252  1.00  0.00     0.001 A 
ATOM     23  C   UNL A   1      33.278  17.359  23.933  1.00  0.00     0.002 A 
ENDBRANCH   7  13
ENDBRANCH   5   6
BRANCH   5  24
ATOM     24  C   UNL A   1      30.520  27.254  23.771  1.00  0.00     0.046 A 
ATOM     25  C   UNL A   1      31.725  27.531  23.134  1.00  0.00     0.094 A 
ATOM     26  C   UNL A   1      29.532  28.066  23.094  1.00  0.00     0.009 A 
ATOM     27  N   UNL A   1      31.562  28.655  22.376  1.00  0.00    -0.361 N 
ATOM     28  C   UNL A   1      30.248  29.051  22.401  1.00  0.00     0.046 A 
ATOM     29  C   UNL A   1      28.126  28.203  23.126  1.00  0.00     0.011 A 
ATOM     30  H   UNL A   1      32.281  29.113  21.884  1.00  0.00     0.166 HD
ATOM     31  C   UNL A   1      29.665  30.225  21.907  1.00  0.00     0.026 A 
ATOM     32  C   UNL A   1      27.515  29.333  22.560  1.00  0.00     0.001 A 
ATOM     33  C   UNL A   1      28.281  30.353  22.007  1.00  0.00     0.002 A 
ENDBRANCH   5  24
ENDBRANCH   3   5
ENDBRANCH   2   3
ENDBRANCH   1   2
BRANCH   1  34
ATOM     34  C   UNL A   1      31.778  29.535  26.507  1.00  0.00     0.275 C 
BRANCH  34  35
ATOM     35  O   UNL A   1      33.049  30.124  26.198  1.00  0.00    -0.458 OA
BRANCH  35  36
ATOM     36  C   UNL A   1      33.426  31.144  26.997  1.00  0.00     0.338 C 
ATOM     37  O   UNL A   1      32.754  32.120  27.307  1.00  0.00    -0.246 OA
BRANCH  36  38
ATOM     38  C   UNL A   1      34.753  30.860  27.591  1.00  0.00     0.060 A 
ATOM     39  C   UNL A   1      35.115  29.563  27.966  1.00  0.00     0.016 A 
ATOM     40  C   UNL A   1      35.585  31.930  27.924  1.00  0.00     0.016 A 
ATOM     41  C   UNL A   1      36.231  29.343  28.765  1.00  0.00     0.010 A 
ATOM     42  C   UNL A   1      36.764  31.697  28.636  1.00  0.00     0.010 A 
ATOM     43  C   UNL A   1      37.083  30.406  29.085  1.00  0.00    -0.014 A 
BRANCH  43  44
ATOM     44  C   UNL A   1      38.341  30.168  29.829  1.00  0.00     0.031 A 
ATOM     45  C   UNL A   1      39.399  29.260  29.281  1.00  0.00     0.074 A 
ATOM     46  C   UNL A   1      38.501  30.736  31.038  1.00  0.00     0.049 A 
ATOM     47  N   UNL A   1      40.436  28.737  29.888  1.00  0.00    -0.248 NA
ATOM     48  C   UNL A   1      39.272  28.881  27.868  1.00  0.00     0.031 C 
ATOM     49  C   UNL A   1      37.563  31.669  31.662  1.00  0.00     0.029 A 
ATOM     50  N   UNL A   1      39.499  30.592  31.968  1.00  0.00    -0.354 N 
ATOM     51  C   UNL A   1      41.059  27.932  28.945  1.00  0.00     0.074 A 
ATOM     52  C   UNL A   1      40.290  28.043  27.722  1.00  0.00     0.031 C 
ATOM     53  C   UNL A   1      38.024  32.013  32.871  1.00  0.00     0.029 A 
ATOM     54  C   UNL A   1      39.242  31.258  33.140  1.00  0.00     0.049 A 
ATOM     55  H   UNL A   1      40.316  30.066  31.811  1.00  0.00     0.167 HD
ATOM     56  C   UNL A   1      42.166  27.164  29.100  1.00  0.00     0.037 A 
ATOM     57  C   UNL A   1      39.874  31.220  34.325  1.00  0.00     0.037 A 
ATOM     58  C   UNL A   1      42.935  27.086  30.320  1.00  0.00     0.049 A 
ATOM     59  C   UNL A   1      41.086  30.357  34.482  1.00  0.00     0.074 A 
ATOM     60  C   UNL A   1      44.077  26.347  30.578  1.00  0.00     0.029 A 
ATOM     61  N   UNL A   1      42.642  27.781  31.487  1.00  0.00    -0.354 N 
ATOM     62  N   UNL A   1      41.632  29.541  33.615  1.00  0.00    -0.248 NA
ATOM     63  C   UNL A   1      41.767  30.407  35.779  1.00  0.00     0.031 C 
ATOM     64  C   UNL A   1      44.457  26.569  31.908  1.00  0.00     0.029 A 
ATOM     65  C   UNL A   1      43.580  27.485  32.466  1.00  0.00     0.049 A 
ATOM     66  H   UNL A   1      41.881  28.394  31.602  1.00  0.00     0.167 HD
ATOM     67  C   UNL A   1      42.722  28.977  34.257  1.00  0.00     0.074 A 
ATOM     68  C   UNL A   1      42.773  29.566  35.582  1.00  0.00     0.031 C 
ATOM     69  C   UNL A   1      43.600  28.055  33.790  1.00  0.00     0.037 A 
BRANCH  56  70
ATOM     70  C   UNL A   1      42.594  26.313  27.940  1.00  0.00     0.064 A 
ATOM     71  C   UNL A   1      42.058  25.036  27.715  1.00  0.00     0.173 A 
ATOM     72  C   UNL A   1      43.521  26.806  27.008  1.00  0.00     0.173 A 
ATOM     73  F   UNL A   1      41.178  24.510  28.581  1.00  0.00    -0.203 F 
ATOM     74  C   UNL A   1      42.446  24.281  26.610  1.00  0.00     0.198 A 
ATOM     75  C   UNL A   1      43.887  26.059  25.891  1.00  0.00     0.198 A 
ATOM     76  F   UNL A   1      44.063  28.023  27.172  1.00  0.00    -0.203 F 
ATOM     77  F   UNL A   1      41.948  23.048  26.435  1.00  0.00    -0.200 F 
ATOM     78  C   UNL A   1      43.353  24.795  25.695  1.00  0.00     0.200 A 
ATOM     79  F   UNL A   1      44.751  26.565  25.001  1.00  0.00    -0.200 F 
ATOM     80  F   UNL A   1      43.714  24.071  24.627  1.00  0.00    -0.200 F 
ENDBRANCH  56  70
BRANCH  57  81
ATOM     81  C   UNL A   1      39.316  32.014  35.447  1.00  0.00     0.064 A 
ATOM     82  C   UNL A   1      38.484  31.421  36.403  1.00  0.00     0.173 A 
ATOM     83  C   UNL A   1      39.708  33.347  35.648  1.00  0.00     0.173 A 
ATOM     84  F   UNL A   1      38.071  30.156  36.240  1.00  0.00    -0.203 F 
ATOM     85  C   UNL A   1      38.077  32.128  37.532  1.00  0.00     0.198 A 
ATOM     86  C   UNL A   1      39.325  34.042  36.791  1.00  0.00     0.198 A 
ATOM     87  F   UNL A   1      40.513  33.951  34.762  1.00  0.00    -0.203 F 
ATOM     88  F   UNL A   1      37.278  31.543  38.434  1.00  0.00    -0.200 F 
ATOM     89  C   UNL A   1      38.512  33.431  37.733  1.00  0.00     0.200 A 
ATOM     90  F   UNL A   1      39.766  35.292  36.992  1.00  0.00    -0.200 F 
ATOM     91  F   UNL A   1      38.153  34.095  38.840  1.00  0.00    -0.200 F 
ENDBRANCH  57  81
BRANCH  69  92
ATOM     92  C   UNL A   1      44.697  27.645  34.728  1.00  0.00     0.064 A 
ATOM     93  C   UNL A   1      44.554  26.548  35.589  1.00  0.00     0.173 A 
ATOM     94  C   UNL A   1      45.894  28.374  34.782  1.00  0.00     0.173 A 
ATOM     95  F   UNL A   1      43.420  25.831  35.587  1.00  0.00    -0.203 F 
ATOM     96  C   UNL A   1      45.554  26.220  36.501  1.00  0.00     0.198 A 
ATOM     97  C   UNL A   1      46.903  28.027  35.676  1.00  0.00     0.198 A 
ATOM     98  F   UNL A   1      46.081  29.429  33.975  1.00  0.00    -0.203 F 
ATOM     99  F   UNL A   1      45.371  25.207  37.359  1.00  0.00    -0.200 F 
ATOM    100  C   UNL A   1      46.727  26.959  36.543  1.00  0.00     0.200 A 
ATOM    101  F   UNL A   1      48.038  28.739  35.713  1.00  0.00    -0.200 F 
ATOM    102  F   UNL A   1      47.682  26.651  37.431  1.00  0.00    -0.200 F 
ENDBRANCH  69  92
ENDBRANCH  43  44
ENDBRANCH  36  38
ENDBRANCH  35  36
ENDBRANCH  34  35
ENDBRANCH   1  34
TORSDOF 14
ENDMDL
MODEL 3
REMARK VINA RESULT:     -14.4      1.138      2.459
REMARK SMILES Cc1cc(N2CC[NH+]([C@@H](C(=O)OCCOC(=O)c3ccc(-c4c5nc(c(-c6c(F)c(F)c(F)c(F)c6F)c6ccc([nH]6)c(-c6c(F)c(F)c(F)c(F)c6F)c6nc(c(-c7c(F)c(F)c(F)c(F)c7F)c7ccc4[nH]7)C=C6)C=C5)cc3)c3c[nH]c4ccccc34)CC2)nc2ccccc12
REMARK SMILES IDX 13 1 12 2 10 3 11 4 9 5 8 6 5 7 6 8 91 9 7 10 90 11 4 13
REMARK SMILES IDX 1 14 2 15 3 16 98 17 93 18 97 19 92 20 94 21 96 22 95 23
REMARK SMILES IDX 81 24 82 25 89 26 83 27 84 28 88 29 85 31 87 32 86 33 14 34
REMARK SMILES IDX 15 35 16 36 17 37 18 38 19 39 80 40 20 41 79 42 21 43 22 44
REMARK SMILES IDX 23 45 73 46 24 47 78 48 72 49 74 50 25 51 77 52 71 53 70 54
REMARK SMILES IDX 26 56 58 57 38 58 57 59 39 60 42 61 56 62 75 63 40 64 41 65
REMARK SMILES IDX 55 67 76 68 43 69 27 70 28 71 36 72 29 73 30 74 34 75 37 76
REMARK SMILES IDX 31 77 32 78 35 79 33 80 59 81 60 82 68 83 61 84 62 85 66 86
REMARK SMILES IDX 69 87 63 88 64 89 67 90 65 91 44 92 45 93 53 94 46 95 47 96
REMARK SMILES IDX 51 97 54 98 48 99 49 100 52 101 50 102
REMARK H PARENT 8 12 83 30 74 55 42 66
REMARK Flexibility Score: inf
ROOT
ATOM      1  C   UNL A   1      31.581  28.400  26.555  1.00  0.00     0.274 C 
ENDROOT
BRANCH   1   2
ATOM      2  O   UNL A   1      32.084  27.354  25.687  1.00  0.00    -0.457 OA
BRANCH   2   3
ATOM      3  C   UNL A   1      31.265  26.293  25.474  1.00  0.00     0.370 C 
ATOM      4  O   UNL A   1      31.043  25.433  26.329  1.00  0.00    -0.245 OA
BRANCH   3   5
ATOM      5  C   UNL A   1      30.768  26.130  24.035  1.00  0.00     0.328 C 
BRANCH   5   6
ATOM      6  N   UNL A   1      31.331  24.986  23.237  1.00  0.00    -0.316 N 
ATOM      7  N   UNL A   1      33.441  23.618  24.694  1.00  0.00    -0.345 N 
ATOM      8  C   UNL A   1      33.706  24.884  24.022  1.00  0.00     0.179 C 
ATOM      9  C   UNL A   1      32.246  22.834  24.396  1.00  0.00     0.179 C 
ATOM     10  C   UNL A   1      32.745  25.080  22.854  1.00  0.00     0.285 C 
ATOM     11  C   UNL A   1      31.058  23.648  23.787  1.00  0.00     0.285 C 
ATOM     12  H   UNL A   1      30.793  25.098  22.378  1.00  0.00     0.349 HD
BRANCH   7  13
ATOM     13  C   UNL A   1      34.604  23.035  25.159  1.00  0.00     0.129 A 
ATOM     14  C   UNL A   1      36.351  19.711  24.805  1.00  0.00     0.045 C 
ATOM     15  C   UNL A   1      36.108  21.152  25.155  1.00  0.00    -0.038 A 
ATOM     16  C   UNL A   1      34.836  21.685  24.941  1.00  0.00     0.051 A 
ATOM     17  C   UNL A   1      37.126  22.001  25.641  1.00  0.00     0.003 A 
ATOM     18  C   UNL A   1      36.793  23.357  25.856  1.00  0.00     0.073 A 
ATOM     19  C   UNL A   1      38.446  21.570  25.902  1.00  0.00     0.010 A 
ATOM     20  N   UNL A   1      35.572  23.856  25.609  1.00  0.00    -0.231 NA
ATOM     21  C   UNL A   1      37.776  24.222  26.318  1.00  0.00     0.029 A 
ATOM     22  C   UNL A   1      39.414  22.458  26.368  1.00  0.00     0.001 A 
ATOM     23  C   UNL A   1      39.078  23.789  26.576  1.00  0.00     0.002 A 
ENDBRANCH   7  13
ENDBRANCH   5   6
BRANCH   5  24
ATOM     24  C   UNL A   1      30.545  27.344  23.140  1.00  0.00     0.046 A 
ATOM     25  C   UNL A   1      31.613  28.013  22.550  1.00  0.00     0.094 A 
ATOM     26  C   UNL A   1      29.400  28.207  22.953  1.00  0.00     0.009 A 
ATOM     27  N   UNL A   1      31.240  29.309  22.332  1.00  0.00    -0.361 N 
ATOM     28  C   UNL A   1      29.915  29.474  22.647  1.00  0.00     0.046 A 
ATOM     29  C   UNL A   1      28.008  28.123  23.181  1.00  0.00     0.011 A 
ATOM     30  H   UNL A   1      31.835  30.017  21.996  1.00  0.00     0.166 HD
ATOM     31  C   UNL A   1      29.164  30.654  22.731  1.00  0.00     0.026 A 
ATOM     32  C   UNL A   1      27.222  29.287  23.185  1.00  0.00     0.001 A 
ATOM     33  C   UNL A   1      27.804  30.538  23.015  1.00  0.00     0.002 A 
ENDBRANCH   5  24
ENDBRANCH   3   5
ENDBRANCH   2   3
ENDBRANCH   1   2
BRANCH   1  34
ATOM     34  C   UNL A   1      31.714  29.768  25.900  1.00  0.00     0.275 C 
BRANCH  34  35
ATOM     35  O   UNL A   1      33.090  30.163  25.995  1.00  0.00    -0.458 OA
BRANCH  35  36
ATOM     36  C   UNL A   1      33.359  31.117  26.910  1.00  0.00     0.338 C 
ATOM     37  O   UNL A   1      32.593  31.986  27.311  1.00  0.00    -0.246 OA
BRANCH  36  38
ATOM     38  C   UNL A   1      34.698  30.892  27.500  1.00  0.00     0.060 A 
ATOM     39  C   UNL A   1      35.131  29.608  27.843  1.00  0.00     0.016 A 
ATOM     40  C   UNL A   1      35.469  31.997  27.863  1.00  0.00     0.016 A 
ATOM     41  C   UNL A   1      36.257  29.430  28.639  1.00  0.00     0.010 A 
ATOM     42  C   UNL A   1      36.658  31.812  28.572  1.00  0.00     0.010 A 
ATOM     43  C   UNL A   1      37.048  30.529  28.989  1.00  0.00    -0.014 A 
BRANCH  43  44
ATOM     44  C   UNL A   1      38.317  30.342  29.730  1.00  0.00     0.031 A 
ATOM     45  C   UNL A   1      39.421  29.502  29.166  1.00  0.00     0.074 A 
ATOM     46  C   UNL A   1      38.446  30.894  30.950  1.00  0.00     0.049 A 
ATOM     47  N   UNL A   1      40.483  29.021  29.764  1.00  0.00    -0.248 NA
ATOM     48  C   UNL A   1      39.314  29.145  27.745  1.00  0.00     0.031 C 
ATOM     49  C   UNL A   1      37.460  31.764  31.591  1.00  0.00     0.029 A 
ATOM     50  N   UNL A   1      39.450  30.784  31.878  1.00  0.00    -0.354 N 
ATOM     51  C   UNL A   1      41.147  28.268  28.806  1.00  0.00     0.074 A 
ATOM     52  C   UNL A   1      40.374  28.363  27.584  1.00  0.00     0.031 C 
ATOM     53  C   UNL A   1      37.902  32.108  32.807  1.00  0.00     0.029 A 
ATOM     54  C   UNL A   1      39.158  31.412  33.063  1.00  0.00     0.049 A 
ATOM     55  H   UNL A   1      40.293  30.304  31.712  1.00  0.00     0.167 HD
ATOM     56  C   UNL A   1      42.293  27.556  28.948  1.00  0.00     0.037 A 
ATOM     57  C   UNL A   1      39.791  31.384  34.248  1.00  0.00     0.037 A 
ATOM     58  C   UNL A   1      43.064  27.494  30.167  1.00  0.00     0.049 A 
ATOM     59  C   UNL A   1      41.045  30.582  34.390  1.00  0.00     0.074 A 
ATOM     60  C   UNL A   1      44.243  26.810  30.412  1.00  0.00     0.029 A 
ATOM     61  N   UNL A   1      42.735  28.149  31.347  1.00  0.00    -0.354 N 
ATOM     62  N   UNL A   1      41.633  29.812  33.507  1.00  0.00    -0.248 NA
ATOM     63  C   UNL A   1      41.723  30.642  35.689  1.00  0.00     0.031 C 
ATOM     64  C   UNL A   1      44.610  27.025  31.748  1.00  0.00     0.029 A 
ATOM     65  C   UNL A   1      43.686  27.883  32.322  1.00  0.00     0.049 A 
ATOM     66  H   UNL A   1      41.943  28.720  31.473  1.00  0.00     0.167 HD
ATOM     67  C   UNL A   1      42.751  29.294  34.140  1.00  0.00     0.074 A 
ATOM     68  C   UNL A   1      42.771  29.858  35.476  1.00  0.00     0.031 C 
ATOM     69  C   UNL A   1      43.676  28.428  33.656  1.00  0.00     0.037 A 
BRANCH  56  70
ATOM     70  C   UNL A   1      42.765  26.751  27.772  1.00  0.00     0.064 A 
ATOM     71  C   UNL A   1      43.617  27.289  26.796  1.00  0.00     0.173 A 
ATOM     72  C   UNL A   1      42.398  25.402  27.648  1.00  0.00     0.173 A 
ATOM     73  F   UNL A   1      43.989  28.577  26.857  1.00  0.00    -0.203 F 
ATOM     74  C   UNL A   1      44.070  26.510  25.733  1.00  0.00     0.198 A 
ATOM     75  C   UNL A   1      42.875  24.619  26.599  1.00  0.00     0.198 A 
ATOM     76  F   UNL A   1      41.589  24.835  28.556  1.00  0.00    -0.203 F 
ATOM     77  F   UNL A   1      44.854  27.056  24.791  1.00  0.00    -0.200 F 
ATOM     78  C   UNL A   1      43.706  25.175  25.639  1.00  0.00     0.200 A 
ATOM     79  F   UNL A   1      42.533  23.326  26.520  1.00  0.00    -0.200 F 
ATOM     80  F   UNL A   1      44.154  24.426  24.622  1.00  0.00    -0.200 F 
ENDBRANCH  56  70
BRANCH  57  81
ATOM     81  C   UNL A   1      39.192  32.125  35.384  1.00  0.00     0.064 A 
ATOM     82  C   UNL A   1      38.418  31.466  36.345  1.00  0.00     0.173 A 
ATOM     83  C   UNL A   1      39.488  33.482  35.593  1.00  0.00     0.173 A 
ATOM     84  F   UNL A   1      38.096  30.175  36.176  1.00  0.00    -0.203 F 
ATOM     85  C   UNL A   1      37.976  32.132  37.486  1.00  0.00     0.198 A 
ATOM     86  C   UNL A   1      39.071  34.138  36.747  1.00  0.00     0.198 A 
ATOM     87  F   UNL A   1      40.235  34.150  34.702  1.00  0.00    -0.203 F 
ATOM     88  F   UNL A   1      37.234  31.482  38.393  1.00  0.00    -0.200 F 
ATOM     89  C   UNL A   1      38.318  33.461  37.694  1.00  0.00     0.200 A 
ATOM     90  F   UNL A   1      39.423  35.414  36.955  1.00  0.00    -0.200 F 
ATOM     91  F   UNL A   1      37.926  34.088  38.812  1.00  0.00    -0.200 F 
ENDBRANCH  57  81
BRANCH  69  92
ATOM     92  C   UNL A   1      44.793  28.057  34.588  1.00  0.00     0.064 A 
ATOM     93  C   UNL A   1      45.977  28.805  34.648  1.00  0.00     0.173 A 
ATOM     94  C   UNL A   1      44.684  26.927  35.411  1.00  0.00     0.173 A 
ATOM     95  F   UNL A   1      46.135  29.884  33.866  1.00  0.00    -0.203 F 
ATOM     96  C   UNL A   1      47.031  28.411  35.468  1.00  0.00     0.198 A 
ATOM     97  C   UNL A   1      45.729  26.550  36.249  1.00  0.00     0.198 A 
ATOM     98  F   UNL A   1      43.570  26.182  35.393  1.00  0.00    -0.203 F 
ATOM     99  F   UNL A   1      48.178  29.103  35.464  1.00  0.00    -0.200 F 
ATOM    100  C   UNL A   1      46.905  27.285  36.268  1.00  0.00     0.200 A 
ATOM    101  F   UNL A   1      45.605  25.465  37.026  1.00  0.00    -0.200 F 
ATOM    102  F   UNL A   1      47.925  26.898  37.047  1.00  0.00    -0.200 F 
ENDBRANCH  69  92
ENDBRANCH  43  44
ENDBRANCH  36  38
ENDBRANCH  35  36
ENDBRANCH  34  35
ENDBRANCH   1  34
TORSDOF 14
ENDMDL
