MODEL 1
REMARK VINA RESULT:     -12.5      0.000      0.000
REMARK SMILES O=C(OCCOC(=O)c1cc(N2CCN(c3ccc(F)cc3)CC2)ccc1NC(=O)C1CCCC1)c1ccc(-c2c3nc(c(-c4c(F)c(F)c(F)c(F)c4F)c4ccc([nH]4)c(-c4c(F)c(F)c(F)c(F)c4F)c4nc(c(-c5c(F)c(F)c(F)c(F)c5F)c5ccc2[nH]5)C=C4)C=C3)cc1
REMARK SMILES IDX 4 1 3 2 2 3 1 4 36 5 37 6 98 7 38 8 97 9 39 10 40 11 41 12
REMARK SMILES IDX 91 13 42 14 96 15 90 16 92 17 43 18 95 19 89 20 88 21 44 23
REMARK SMILES IDX 76 24 56 25 75 26 57 27 60 28 74 29 93 30 58 31 59 32 73 34
REMARK SMILES IDX 94 35 61 36 45 37 46 38 54 39 47 40 48 41 52 42 55 43 49 44
REMARK SMILES IDX 50 45 53 46 51 47 77 48 78 49 86 50 79 51 80 52 84 53 87 54
REMARK SMILES IDX 81 55 82 56 85 57 83 58 62 59 63 60 71 61 64 62 65 63 69 64
REMARK SMILES IDX 72 65 66 66 67 67 70 68 68 69 5 70 6 71 7 72 8 73 9 74 10 75
REMARK SMILES IDX 27 76 11 77 26 78 25 79 28 80 29 81 30 83 31 84 32 85 35 86
REMARK SMILES IDX 33 87 34 88 12 89 13 90 24 91 14 92 23 93 15 94 16 95 17 96
REMARK SMILES IDX 22 97 18 98 21 99 19 100 20 101
REMARK H PARENT 92 22 60 33 28 82
REMARK Flexibility Score: inf
ROOT
ATOM      1  C   UNL A   1      32.888  30.527  26.344  1.00  0.00     0.275 C 
ENDROOT
BRANCH   1   2
ATOM      2  O   UNL A   1      34.009  30.028  27.097  1.00  0.00    -0.458 OA
BRANCH   2   3
ATOM      3  C   UNL A   1      34.738  30.612  28.077  1.00  0.00     0.338 C 
ATOM      4  O   UNL A   1      34.298  31.621  28.627  1.00  0.00    -0.246 OA
BRANCH   3   5
ATOM      5  C   UNL A   1      36.113  30.165  28.459  1.00  0.00     0.060 A 
ATOM      6  C   UNL A   1      36.505  29.744  29.730  1.00  0.00     0.016 A 
ATOM      7  C   UNL A   1      37.092  30.194  27.448  1.00  0.00     0.016 A 
ATOM      8  C   UNL A   1      37.798  29.278  29.972  1.00  0.00     0.010 A 
ATOM      9  C   UNL A   1      38.392  29.729  27.686  1.00  0.00     0.010 A 
ATOM     10  C   UNL A   1      38.751  29.252  28.955  1.00  0.00    -0.014 A 
BRANCH  10  11
ATOM     11  C   UNL A   1      40.147  28.870  29.277  1.00  0.00     0.031 A 
ATOM     12  C   UNL A   1      41.014  29.876  29.973  1.00  0.00     0.074 A 
ATOM     13  C   UNL A   1      40.604  27.616  29.078  1.00  0.00     0.049 A 
ATOM     14  N   UNL A   1      42.241  29.741  30.399  1.00  0.00    -0.248 NA
ATOM     15  C   UNL A   1      40.396  31.172  30.309  1.00  0.00     0.031 C 
ATOM     16  C   UNL A   1      39.804  26.484  28.623  1.00  0.00     0.029 A 
ATOM     17  N   UNL A   1      41.866  27.083  29.203  1.00  0.00    -0.354 N 
ATOM     18  C   UNL A   1      42.494  30.873  31.156  1.00  0.00     0.074 A 
ATOM     19  C   UNL A   1      41.354  31.751  31.017  1.00  0.00     0.031 C 
ATOM     20  C   UNL A   1      40.610  25.433  28.383  1.00  0.00     0.029 A 
ATOM     21  C   UNL A   1      41.981  25.820  28.660  1.00  0.00     0.049 A 
ATOM     22  H   UNL A   1      42.613  27.555  29.638  1.00  0.00     0.167 HD
ATOM     23  C   UNL A   1      43.552  31.110  31.963  1.00  0.00     0.037 A 
ATOM     24  C   UNL A   1      43.081  25.099  28.369  1.00  0.00     0.037 A 
ATOM     25  C   UNL A   1      44.697  30.245  32.047  1.00  0.00     0.049 A 
ATOM     26  C   UNL A   1      44.374  25.563  28.954  1.00  0.00     0.074 A 
ATOM     27  C   UNL A   1      45.842  30.392  32.806  1.00  0.00     0.029 A 
ATOM     28  N   UNL A   1      44.849  29.071  31.317  1.00  0.00    -0.354 N 
ATOM     29  N   UNL A   1      44.612  26.635  29.665  1.00  0.00    -0.248 NA
ATOM     30  C   UNL A   1      45.517  24.661  28.795  1.00  0.00     0.031 C 
ATOM     31  C   UNL A   1      46.714  29.343  32.487  1.00  0.00     0.029 A 
ATOM     32  C   UNL A   1      46.089  28.509  31.574  1.00  0.00     0.049 A 
ATOM     33  H   UNL A   1      44.175  28.695  30.708  1.00  0.00     0.167 HD
ATOM     34  C   UNL A   1      45.908  26.496  30.126  1.00  0.00     0.074 A 
ATOM     35  C   UNL A   1      46.416  25.256  29.565  1.00  0.00     0.031 C 
ATOM     36  C   UNL A   1      46.588  27.292  30.985  1.00  0.00     0.037 A 
BRANCH  23  37
ATOM     37  C   UNL A   1      43.493  32.340  32.816  1.00  0.00     0.064 A 
ATOM     38  C   UNL A   1      42.888  32.319  34.085  1.00  0.00     0.173 A 
ATOM     39  C   UNL A   1      44.040  33.550  32.372  1.00  0.00     0.173 A 
ATOM     40  F   UNL A   1      42.327  31.190  34.547  1.00  0.00    -0.203 F 
ATOM     41  C   UNL A   1      42.814  33.469  34.864  1.00  0.00     0.198 A 
ATOM     42  C   UNL A   1      43.987  34.693  33.164  1.00  0.00     0.198 A 
ATOM     43  F   UNL A   1      44.621  33.625  31.165  1.00  0.00    -0.203 F 
ATOM     44  F   UNL A   1      42.188  33.436  36.050  1.00  0.00    -0.200 F 
ATOM     45  C   UNL A   1      43.368  34.654  34.406  1.00  0.00     0.200 A 
ATOM     46  F   UNL A   1      44.525  35.838  32.723  1.00  0.00    -0.200 F 
ATOM     47  F   UNL A   1      43.297  35.763  35.156  1.00  0.00    -0.200 F 
ENDBRANCH  23  37
BRANCH  24  48
ATOM     48  C   UNL A   1      43.043  23.887  27.506  1.00  0.00     0.064 A 
ATOM     49  C   UNL A   1      43.301  23.934  26.133  1.00  0.00     0.173 A 
ATOM     50  C   UNL A   1      42.652  22.648  28.043  1.00  0.00     0.173 A 
ATOM     51  F   UNL A   1      43.561  25.110  25.545  1.00  0.00    -0.203 F 
ATOM     52  C   UNL A   1      43.221  22.782  25.345  1.00  0.00     0.198 A 
ATOM     53  C   UNL A   1      42.640  21.486  27.274  1.00  0.00     0.198 A 
ATOM     54  F   UNL A   1      42.230  22.573  29.314  1.00  0.00    -0.203 F 
ATOM     55  F   UNL A   1      43.403  22.866  24.021  1.00  0.00    -0.200 F 
ATOM     56  C   UNL A   1      42.921  21.556  25.922  1.00  0.00     0.200 A 
ATOM     57  F   UNL A   1      42.329  20.312  27.840  1.00  0.00    -0.200 F 
ATOM     58  F   UNL A   1      42.860  20.449  25.166  1.00  0.00    -0.200 F 
ENDBRANCH  24  48
BRANCH  36  59
ATOM     59  C   UNL A   1      47.936  26.799  31.408  1.00  0.00     0.064 A 
ATOM     60  C   UNL A   1      49.109  27.200  30.756  1.00  0.00     0.173 A 
ATOM     61  C   UNL A   1      48.044  25.882  32.465  1.00  0.00     0.173 A 
ATOM     62  F   UNL A   1      49.049  28.051  29.720  1.00  0.00    -0.203 F 
ATOM     63  C   UNL A   1      50.340  26.664  31.117  1.00  0.00     0.198 A 
ATOM     64  C   UNL A   1      49.281  25.382  32.850  1.00  0.00     0.198 A 
ATOM     65  F   UNL A   1      46.948  25.465  33.117  1.00  0.00    -0.203 F 
ATOM     66  F   UNL A   1      51.439  26.996  30.425  1.00  0.00    -0.200 F 
ATOM     67  C   UNL A   1      50.427  25.762  32.167  1.00  0.00     0.200 A 
ATOM     68  F   UNL A   1      49.365  24.519  33.872  1.00  0.00    -0.200 F 
ATOM     69  F   UNL A   1      51.615  25.244  32.510  1.00  0.00    -0.200 F 
ENDBRANCH  36  59
ENDBRANCH  10  11
ENDBRANCH   3   5
ENDBRANCH   2   3
ENDBRANCH   1   2
BRANCH   1  70
ATOM     70  C   UNL A   1      31.774  29.510  26.060  1.00  0.00     0.275 C 
BRANCH  70  71
ATOM     71  O   UNL A   1      32.243  28.160  25.907  1.00  0.00    -0.458 OA
BRANCH  71  72
ATOM     72  C   UNL A   1      31.601  27.231  26.669  1.00  0.00     0.340 C 
ATOM     73  O   UNL A   1      31.052  27.437  27.739  1.00  0.00    -0.246 OA
BRANCH  72  74
ATOM     74  C   UNL A   1      31.515  25.948  25.930  1.00  0.00     0.085 A 
ATOM     75  C   UNL A   1      32.464  24.964  26.273  1.00  0.00     0.043 A 
ATOM     76  C   UNL A   1      30.565  25.675  24.934  1.00  0.00     0.055 A 
ATOM     77  C   UNL A   1      32.418  23.684  25.711  1.00  0.00     0.038 A 
ATOM     78  C   UNL A   1      30.447  24.355  24.531  1.00  0.00     0.029 A 
ATOM     79  C   UNL A   1      31.352  23.371  24.891  1.00  0.00     0.028 A 
BRANCH  76  80
ATOM     80  N   UNL A   1      29.783  26.691  24.359  1.00  0.00    -0.325 N 
ATOM     81  C   UNL A   1      29.925  27.491  23.264  1.00  0.00     0.227 C 
ATOM     82  H   UNL A   1      28.950  26.862  24.855  1.00  0.00     0.169 HD
ATOM     83  O   UNL A   1      28.991  28.288  23.070  1.00  0.00    -0.274 OA
BRANCH  81  84
ATOM     84  C   UNL A   1      31.122  27.554  22.302  1.00  0.00     0.079 C 
ATOM     85  C   UNL A   1      32.317  28.371  22.776  1.00  0.00     0.013 C 
ATOM     86  C   UNL A   1      31.689  26.260  21.719  1.00  0.00     0.013 C 
ATOM     87  C   UNL A   1      33.491  27.857  21.951  1.00  0.00     0.001 C 
ATOM     88  C   UNL A   1      33.208  26.386  21.701  1.00  0.00     0.001 C 
ENDBRANCH  81  84
ENDBRANCH  76  80
BRANCH  77  89
ATOM     89  N   UNL A   1      33.456  22.792  25.896  1.00  0.00    -0.368 N 
ATOM     90  C   UNL A   1      33.791  21.817  24.835  1.00  0.00     0.138 C 
ATOM     91  C   UNL A   1      34.589  23.332  26.676  1.00  0.00     0.138 C 
ATOM     92  C   UNL A   1      35.032  22.207  23.989  1.00  0.00     0.138 C 
ATOM     93  C   UNL A   1      35.783  23.738  25.783  1.00  0.00     0.138 C 
ATOM     94  N   UNL A   1      36.144  22.671  24.839  1.00  0.00    -0.368 N 
BRANCH  94  95
ATOM     95  C   UNL A   1      37.188  21.804  25.108  1.00  0.00     0.037 A 
ATOM     96  C   UNL A   1      38.325  22.268  25.791  1.00  0.00     0.029 A 
ATOM     97  C   UNL A   1      37.158  20.448  24.750  1.00  0.00     0.029 A 
ATOM     98  C   UNL A   1      39.379  21.410  26.121  1.00  0.00     0.041 A 
ATOM     99  C   UNL A   1      38.215  19.587  25.059  1.00  0.00     0.041 A 
ATOM    100  C   UNL A   1      39.313  20.076  25.748  1.00  0.00     0.123 A 
ATOM    101  F   UNL A   1      40.319  19.248  26.062  1.00  0.00    -0.207 F 
ENDBRANCH  94  95
ENDBRANCH  77  89
ENDBRANCH  72  74
ENDBRANCH  71  72
ENDBRANCH  70  71
ENDBRANCH   1  70
TORSDOF 15
ENDMDL
MODEL 2
REMARK VINA RESULT:     -12.4      4.242      9.353
REMARK SMILES O=C(OCCOC(=O)c1cc(N2CCN(c3ccc(F)cc3)CC2)ccc1NC(=O)C1CCCC1)c1ccc(-c2c3nc(c(-c4c(F)c(F)c(F)c(F)c4F)c4ccc([nH]4)c(-c4c(F)c(F)c(F)c(F)c4F)c4nc(c(-c5c(F)c(F)c(F)c(F)c5F)c5ccc2[nH]5)C=C4)C=C3)cc1
REMARK SMILES IDX 4 1 3 2 2 3 1 4 36 5 37 6 98 7 38 8 97 9 39 10 40 11 41 12
REMARK SMILES IDX 91 13 42 14 96 15 90 16 92 17 43 18 95 19 89 20 88 21 44 23
REMARK SMILES IDX 76 24 56 25 75 26 57 27 60 28 74 29 93 30 58 31 59 32 73 34
REMARK SMILES IDX 94 35 61 36 45 37 46 38 54 39 47 40 48 41 52 42 55 43 49 44
REMARK SMILES IDX 50 45 53 46 51 47 77 48 78 49 86 50 79 51 80 52 84 53 87 54
REMARK SMILES IDX 81 55 82 56 85 57 83 58 62 59 63 60 71 61 64 62 65 63 69 64
REMARK SMILES IDX 72 65 66 66 67 67 70 68 68 69 5 70 6 71 7 72 8 73 9 74 10 75
REMARK SMILES IDX 27 76 11 77 26 78 25 79 28 80 29 81 30 83 31 84 32 85 35 86
REMARK SMILES IDX 33 87 34 88 12 89 13 90 24 91 14 92 23 93 15 94 16 95 17 96
REMARK SMILES IDX 22 97 18 98 21 99 19 100 20 101
REMARK H PARENT 92 22 60 33 28 82
REMARK Flexibility Score: inf
ROOT
ATOM      1  C   UNL A   1      38.565  20.498  25.141  1.00  0.00     0.275 C 
ENDROOT
BRANCH   1   2
ATOM      2  O   UNL A   1      39.480  19.817  26.019  1.00  0.00    -0.458 OA
BRANCH   2   3
ATOM      3  C   UNL A   1      40.748  20.127  26.379  1.00  0.00     0.338 C 
ATOM      4  O   UNL A   1      41.573  19.220  26.493  1.00  0.00    -0.246 OA
BRANCH   3   5
ATOM      5  C   UNL A   1      41.184  21.505  26.759  1.00  0.00     0.060 A 
ATOM      6  C   UNL A   1      41.224  22.014  28.057  1.00  0.00     0.016 A 
ATOM      7  C   UNL A   1      41.566  22.361  25.708  1.00  0.00     0.016 A 
ATOM      8  C   UNL A   1      41.714  23.295  28.318  1.00  0.00     0.010 A 
ATOM      9  C   UNL A   1      42.057  23.648  25.964  1.00  0.00     0.010 A 
ATOM     10  C   UNL A   1      42.148  24.120  27.281  1.00  0.00    -0.014 A 
BRANCH  10  11
ATOM     11  C   UNL A   1      42.543  25.517  27.582  1.00  0.00     0.031 A 
ATOM     12  C   UNL A   1      43.974  25.910  27.371  1.00  0.00     0.074 A 
ATOM     13  C   UNL A   1      41.632  26.457  27.911  1.00  0.00     0.049 A 
ATOM     14  N   UNL A   1      44.528  27.084  27.515  1.00  0.00    -0.248 NA
ATOM     15  C   UNL A   1      44.883  24.872  26.851  1.00  0.00     0.031 C 
ATOM     16  C   UNL A   1      40.186  26.266  27.930  1.00  0.00     0.029 A 
ATOM     17  N   UNL A   1      41.786  27.760  28.326  1.00  0.00    -0.354 N 
ATOM     18  C   UNL A   1      45.803  26.956  26.988  1.00  0.00     0.074 A 
ATOM     19  C   UNL A   1      45.995  25.563  26.651  1.00  0.00     0.031 C 
ATOM     20  C   UNL A   1      39.596  27.356  28.455  1.00  0.00     0.029 A 
ATOM     21  C   UNL A   1      40.623  28.316  28.816  1.00  0.00     0.049 A 
ATOM     22  H   UNL A   1      42.640  28.246  28.277  1.00  0.00     0.167 HD
ATOM     23  C   UNL A   1      46.694  27.938  26.730  1.00  0.00     0.037 A 
ATOM     24  C   UNL A   1      40.435  29.445  29.527  1.00  0.00     0.037 A 
ATOM     25  C   UNL A   1      46.501  29.309  27.117  1.00  0.00     0.049 A 
ATOM     26  C   UNL A   1      41.571  30.413  29.579  1.00  0.00     0.074 A 
ATOM     27  C   UNL A   1      47.344  30.389  26.937  1.00  0.00     0.029 A 
ATOM     28  N   UNL A   1      45.383  29.783  27.795  1.00  0.00    -0.354 N 
ATOM     29  N   UNL A   1      42.775  30.289  29.084  1.00  0.00    -0.248 NA
ATOM     30  C   UNL A   1      41.284  31.717  30.184  1.00  0.00     0.031 C 
ATOM     31  C   UNL A   1      46.767  31.501  27.561  1.00  0.00     0.029 A 
ATOM     32  C   UNL A   1      45.537  31.130  28.080  1.00  0.00     0.049 A 
ATOM     33  H   UNL A   1      44.598  29.241  28.036  1.00  0.00     0.167 HD
ATOM     34  C   UNL A   1      43.366  31.530  29.227  1.00  0.00     0.074 A 
ATOM     35  C   UNL A   1      42.399  32.375  29.904  1.00  0.00     0.031 C 
ATOM     36  C   UNL A   1      44.576  31.945  28.780  1.00  0.00     0.037 A 
BRANCH  23  37
ATOM     37  C   UNL A   1      47.934  27.550  25.983  1.00  0.00     0.064 A 
ATOM     38  C   UNL A   1      47.953  27.497  24.578  1.00  0.00     0.173 A 
ATOM     39  C   UNL A   1      49.113  27.228  26.667  1.00  0.00     0.173 A 
ATOM     40  F   UNL A   1      46.843  27.774  23.877  1.00  0.00    -0.203 F 
ATOM     41  C   UNL A   1      49.100  27.114  23.890  1.00  0.00     0.198 A 
ATOM     42  C   UNL A   1      50.266  26.869  25.975  1.00  0.00     0.198 A 
ATOM     43  F   UNL A   1      49.145  27.255  28.007  1.00  0.00    -0.203 F 
ATOM     44  F   UNL A   1      49.080  27.023  22.553  1.00  0.00    -0.200 F 
ATOM     45  C   UNL A   1      50.257  26.805  24.588  1.00  0.00     0.200 A 
ATOM     46  F   UNL A   1      51.386  26.573  26.649  1.00  0.00    -0.200 F 
ATOM     47  F   UNL A   1      51.363  26.435  23.926  1.00  0.00    -0.200 F 
ENDBRANCH  23  37
BRANCH  24  48
ATOM     48  C   UNL A   1      39.165  29.745  30.240  1.00  0.00     0.064 A 
ATOM     49  C   UNL A   1      38.871  29.224  31.504  1.00  0.00     0.173 A 
ATOM     50  C   UNL A   1      38.163  30.505  29.612  1.00  0.00     0.173 A 
ATOM     51  F   UNL A   1      39.739  28.394  32.100  1.00  0.00    -0.203 F 
ATOM     52  C   UNL A   1      37.651  29.496  32.130  1.00  0.00     0.198 A 
ATOM     53  C   UNL A   1      36.976  30.836  30.263  1.00  0.00     0.198 A 
ATOM     54  F   UNL A   1      38.316  30.891  28.337  1.00  0.00    -0.203 F 
ATOM     55  F   UNL A   1      37.365  28.928  33.309  1.00  0.00    -0.200 F 
ATOM     56  C   UNL A   1      36.719  30.326  31.522  1.00  0.00     0.200 A 
ATOM     57  F   UNL A   1      36.076  31.622  29.656  1.00  0.00    -0.200 F 
ATOM     58  F   UNL A   1      35.556  30.598  32.132  1.00  0.00    -0.200 F 
ENDBRANCH  24  48
BRANCH  36  59
ATOM     59  C   UNL A   1      44.879  33.399  28.964  1.00  0.00     0.064 A 
ATOM     60  C   UNL A   1      44.515  34.359  28.011  1.00  0.00     0.173 A 
ATOM     61  C   UNL A   1      45.578  33.828  30.104  1.00  0.00     0.173 A 
ATOM     62  F   UNL A   1      43.874  33.988  26.891  1.00  0.00    -0.203 F 
ATOM     63  C   UNL A   1      44.880  35.690  28.169  1.00  0.00     0.198 A 
ATOM     64  C   UNL A   1      45.903  35.167  30.278  1.00  0.00     0.198 A 
ATOM     65  F   UNL A   1      45.951  32.945  31.043  1.00  0.00    -0.203 F 
ATOM     66  F   UNL A   1      44.597  36.577  27.205  1.00  0.00    -0.200 F 
ATOM     67  C   UNL A   1      45.567  36.095  29.304  1.00  0.00     0.200 A 
ATOM     68  F   UNL A   1      46.557  35.557  31.381  1.00  0.00    -0.200 F 
ATOM     69  F   UNL A   1      45.922  37.379  29.451  1.00  0.00    -0.200 F 
ENDBRANCH  36  59
ENDBRANCH  10  11
ENDBRANCH   3   5
ENDBRANCH   2   3
ENDBRANCH   1   2
BRANCH   1  70
ATOM     70  C   UNL A   1      37.882  21.741  25.727  1.00  0.00     0.275 C 
BRANCH  70  71
ATOM     71  O   UNL A   1      37.277  22.594  24.741  1.00  0.00    -0.458 OA
BRANCH  71  72
ATOM     72  C   UNL A   1      36.469  23.573  25.236  1.00  0.00     0.340 C 
ATOM     73  O   UNL A   1      36.732  24.318  26.166  1.00  0.00    -0.246 OA
BRANCH  72  74
ATOM     74  C   UNL A   1      35.273  23.721  24.372  1.00  0.00     0.085 A 
ATOM     75  C   UNL A   1      34.771  25.030  24.219  1.00  0.00     0.043 A 
ATOM     76  C   UNL A   1      34.635  22.656  23.719  1.00  0.00     0.055 A 
ATOM     77  C   UNL A   1      33.707  25.303  23.352  1.00  0.00     0.038 A 
ATOM     78  C   UNL A   1      33.705  22.987  22.747  1.00  0.00     0.029 A 
ATOM     79  C   UNL A   1      33.230  24.275  22.563  1.00  0.00     0.028 A 
BRANCH  76  80
ATOM     80  N   UNL A   1      34.911  21.317  24.046  1.00  0.00    -0.325 N 
ATOM     81  C   UNL A   1      34.502  20.482  25.043  1.00  0.00     0.227 C 
ATOM     82  H   UNL A   1      35.536  20.889  23.418  1.00  0.00     0.169 HD
ATOM     83  O   UNL A   1      34.971  19.332  24.991  1.00  0.00    -0.274 OA
BRANCH  81  84
ATOM     84  C   UNL A   1      33.591  20.823  26.233  1.00  0.00     0.079 C 
ATOM     85  C   UNL A   1      34.233  21.627  27.356  1.00  0.00     0.013 C 
ATOM     86  C   UNL A   1      32.223  21.455  25.978  1.00  0.00     0.013 C 
ATOM     87  C   UNL A   1      33.062  22.260  28.099  1.00  0.00     0.001 C 
ATOM     88  C   UNL A   1      31.996  22.515  27.049  1.00  0.00     0.001 C 
ENDBRANCH  81  84
ENDBRANCH  76  80
BRANCH  77  89
ATOM     89  N   UNL A   1      33.092  26.539  23.354  1.00  0.00    -0.368 N 
ATOM     90  C   UNL A   1      32.540  27.092  22.098  1.00  0.00     0.138 C 
ATOM     91  C   UNL A   1      32.347  26.845  24.593  1.00  0.00     0.138 C 
ATOM     92  C   UNL A   1      30.998  26.960  21.976  1.00  0.00     0.138 C 
ATOM     93  C   UNL A   1      30.822  26.663  24.427  1.00  0.00     0.138 C 
ATOM     94  N   UNL A   1      30.320  27.347  23.227  1.00  0.00    -0.368 N 
BRANCH  94  95
ATOM     95  C   UNL A   1      29.733  28.597  23.311  1.00  0.00     0.037 A 
ATOM     96  C   UNL A   1      28.432  28.793  22.819  1.00  0.00     0.029 A 
ATOM     97  C   UNL A   1      30.373  29.696  23.903  1.00  0.00     0.029 A 
ATOM     98  C   UNL A   1      27.789  30.031  22.930  1.00  0.00     0.041 A 
ATOM     99  C   UNL A   1      29.746  30.942  24.001  1.00  0.00     0.041 A 
ATOM    100  C   UNL A   1      28.456  31.095  23.519  1.00  0.00     0.123 A 
ATOM    101  F   UNL A   1      27.847  32.283  23.629  1.00  0.00    -0.207 F 
ENDBRANCH  94  95
ENDBRANCH  77  89
ENDBRANCH  72  74
ENDBRANCH  71  72
ENDBRANCH  70  71
ENDBRANCH   1  70
TORSDOF 15
ENDMDL
MODEL 3
REMARK VINA RESULT:     -12.1      3.761      9.222
REMARK SMILES O=C(OCCOC(=O)c1cc(N2CCN(c3ccc(F)cc3)CC2)ccc1NC(=O)C1CCCC1)c1ccc(-c2c3nc(c(-c4c(F)c(F)c(F)c(F)c4F)c4ccc([nH]4)c(-c4c(F)c(F)c(F)c(F)c4F)c4nc(c(-c5c(F)c(F)c(F)c(F)c5F)c5ccc2[nH]5)C=C4)C=C3)cc1
REMARK SMILES IDX 4 1 3 2 2 3 1 4 36 5 37 6 98 7 38 8 97 9 39 10 40 11 41 12
REMARK SMILES IDX 91 13 42 14 96 15 90 16 92 17 43 18 95 19 89 20 88 21 44 23
REMARK SMILES IDX 76 24 56 25 75 26 57 27 60 28 74 29 93 30 58 31 59 32 73 34
REMARK SMILES IDX 94 35 61 36 45 37 46 38 54 39 47 40 48 41 52 42 55 43 49 44
REMARK SMILES IDX 50 45 53 46 51 47 77 48 78 49 86 50 79 51 80 52 84 53 87 54
REMARK SMILES IDX 81 55 82 56 85 57 83 58 62 59 63 60 71 61 64 62 65 63 69 64
REMARK SMILES IDX 72 65 66 66 67 67 70 68 68 69 5 70 6 71 7 72 8 73 9 74 10 75
REMARK SMILES IDX 27 76 11 77 26 78 25 79 28 80 29 81 30 83 31 84 32 85 35 86
REMARK SMILES IDX 33 87 34 88 12 89 13 90 24 91 14 92 23 93 15 94 16 95 17 96
REMARK SMILES IDX 22 97 18 98 21 99 19 100 20 101
REMARK H PARENT 92 22 60 33 28 82
REMARK Flexibility Score: inf
ROOT
ATOM      1  C   UNL A   1      37.543  21.122  25.298  1.00  0.00     0.275 C 
ENDROOT
BRANCH   1   2
ATOM      2  O   UNL A   1      38.149  22.347  25.750  1.00  0.00    -0.458 OA
BRANCH   2   3
ATOM      3  C   UNL A   1      39.249  22.555  26.513  1.00  0.00     0.338 C 
ATOM      4  O   UNL A   1      39.842  21.582  26.979  1.00  0.00    -0.246 OA
BRANCH   3   5
ATOM      5  C   UNL A   1      39.726  23.912  26.920  1.00  0.00     0.060 A 
ATOM      6  C   UNL A   1      40.157  24.914  26.050  1.00  0.00     0.016 A 
ATOM      7  C   UNL A   1      39.758  24.184  28.300  1.00  0.00     0.016 A 
ATOM      8  C   UNL A   1      40.519  26.176  26.523  1.00  0.00     0.010 A 
ATOM      9  C   UNL A   1      40.123  25.449  28.780  1.00  0.00     0.010 A 
ATOM     10  C   UNL A   1      40.493  26.464  27.887  1.00  0.00    -0.014 A 
BRANCH  10  11
ATOM     11  C   UNL A   1      41.004  27.772  28.363  1.00  0.00     0.031 A 
ATOM     12  C   UNL A   1      42.483  27.930  28.549  1.00  0.00     0.074 A 
ATOM     13  C   UNL A   1      40.194  28.841  28.505  1.00  0.00     0.049 A 
ATOM     14  N   UNL A   1      43.152  28.995  28.901  1.00  0.00    -0.248 NA
ATOM     15  C   UNL A   1      43.327  26.768  28.216  1.00  0.00     0.031 C 
ATOM     16  C   UNL A   1      38.781  28.889  28.142  1.00  0.00     0.029 A 
ATOM     17  N   UNL A   1      40.431  30.093  29.023  1.00  0.00    -0.354 N 
ATOM     18  C   UNL A   1      44.486  28.671  28.710  1.00  0.00     0.074 A 
ATOM     19  C   UNL A   1      44.545  27.272  28.349  1.00  0.00     0.031 C 
ATOM     20  C   UNL A   1      38.248  30.050  28.564  1.00  0.00     0.029 A 
ATOM     21  C   UNL A   1      39.278  30.823  29.233  1.00  0.00     0.049 A 
ATOM     22  H   UNL A   1      41.331  30.435  29.224  1.00  0.00     0.167 HD
ATOM     23  C   UNL A   1      45.553  29.499  28.748  1.00  0.00     0.037 A 
ATOM     24  C   UNL A   1      39.086  31.954  29.940  1.00  0.00     0.037 A 
ATOM     25  C   UNL A   1      45.476  30.876  29.156  1.00  0.00     0.049 A 
ATOM     26  C   UNL A   1      40.302  32.722  30.339  1.00  0.00     0.074 A 
ATOM     27  C   UNL A   1      46.492  31.807  29.262  1.00  0.00     0.029 A 
ATOM     28  N   UNL A   1      44.306  31.513  29.553  1.00  0.00    -0.354 N 
ATOM     29  N   UNL A   1      41.560  32.413  30.162  1.00  0.00    -0.248 NA
ATOM     30  C   UNL A   1      40.069  34.043  30.928  1.00  0.00     0.031 C 
ATOM     31  C   UNL A   1      45.948  32.986  29.785  1.00  0.00     0.029 A 
ATOM     32  C   UNL A   1      44.583  32.811  29.948  1.00  0.00     0.049 A 
ATOM     33  H   UNL A   1      43.412  31.101  29.552  1.00  0.00     0.167 HD
ATOM     34  C   UNL A   1      42.275  33.538  30.525  1.00  0.00     0.074 A 
ATOM     35  C   UNL A   1      41.305  34.517  30.983  1.00  0.00     0.031 C 
ATOM     36  C   UNL A   1      43.608  33.759  30.428  1.00  0.00     0.037 A 
BRANCH  23  37
ATOM     37  C   UNL A   1      46.870  28.929  28.321  1.00  0.00     0.064 A 
ATOM     38  C   UNL A   1      47.824  28.509  29.265  1.00  0.00     0.173 A 
ATOM     39  C   UNL A   1      47.190  28.796  26.963  1.00  0.00     0.173 A 
ATOM     40  F   UNL A   1      47.576  28.637  30.578  1.00  0.00    -0.203 F 
ATOM     41  C   UNL A   1      49.056  28.001  28.864  1.00  0.00     0.198 A 
ATOM     42  C   UNL A   1      48.414  28.264  26.565  1.00  0.00     0.198 A 
ATOM     43  F   UNL A   1      46.319  29.189  26.023  1.00  0.00    -0.203 F 
ATOM     44  F   UNL A   1      49.968  27.654  29.783  1.00  0.00    -0.200 F 
ATOM     45  C   UNL A   1      49.348  27.873  27.515  1.00  0.00     0.200 A 
ATOM     46  F   UNL A   1      48.695  28.138  25.261  1.00  0.00    -0.200 F 
ATOM     47  F   UNL A   1      50.535  27.384  27.128  1.00  0.00    -0.200 F 
ENDBRANCH  23  37
BRANCH  24  48
ATOM     48  C   UNL A   1      37.734  32.443  30.322  1.00  0.00     0.064 A 
ATOM     49  C   UNL A   1      37.067  31.993  31.465  1.00  0.00     0.173 A 
ATOM     50  C   UNL A   1      37.036  33.325  29.478  1.00  0.00     0.173 A 
ATOM     51  F   UNL A   1      37.634  31.060  32.243  1.00  0.00    -0.203 F 
ATOM     52  C   UNL A   1      35.781  32.446  31.775  1.00  0.00     0.198 A 
ATOM     53  C   UNL A   1      35.784  33.832  29.821  1.00  0.00     0.198 A 
ATOM     54  F   UNL A   1      37.553  33.661  28.287  1.00  0.00    -0.203 F 
ATOM     55  F   UNL A   1      35.135  31.947  32.837  1.00  0.00    -0.200 F 
ATOM     56  C   UNL A   1      35.154  33.387  30.969  1.00  0.00     0.200 A 
ATOM     57  F   UNL A   1      35.182  34.725  29.023  1.00  0.00    -0.200 F 
ATOM     58  F   UNL A   1      33.928  33.833  31.277  1.00  0.00    -0.200 F 
ENDBRANCH  24  48
BRANCH  36  59
ATOM     59  C   UNL A   1      44.071  35.140  30.772  1.00  0.00     0.064 A 
ATOM     60  C   UNL A   1      44.490  35.480  32.065  1.00  0.00     0.173 A 
ATOM     61  C   UNL A   1      44.060  36.145  29.792  1.00  0.00     0.173 A 
ATOM     62  F   UNL A   1      44.486  34.557  33.040  1.00  0.00    -0.203 F 
ATOM     63  C   UNL A   1      44.838  36.788  32.377  1.00  0.00     0.198 A 
ATOM     64  C   UNL A   1      44.449  37.442  30.099  1.00  0.00     0.198 A 
ATOM     65  F   UNL A   1      43.662  35.869  28.541  1.00  0.00    -0.203 F 
ATOM     66  F   UNL A   1      45.154  37.110  33.640  1.00  0.00    -0.200 F 
ATOM     67  C   UNL A   1      44.824  37.767  31.394  1.00  0.00     0.200 A 
ATOM     68  F   UNL A   1      44.446  38.384  29.145  1.00  0.00    -0.200 F 
ATOM     69  F   UNL A   1      45.156  39.029  31.700  1.00  0.00    -0.200 F 
ENDBRANCH  36  59
ENDBRANCH  10  11
ENDBRANCH   3   5
ENDBRANCH   2   3
ENDBRANCH   1   2
BRANCH   1  70
ATOM     70  C   UNL A   1      36.188  21.272  24.594  1.00  0.00     0.275 C 
BRANCH  70  71
ATOM     71  O   UNL A   1      35.658  22.608  24.630  1.00  0.00    -0.458 OA
BRANCH  71  72
ATOM     72  C   UNL A   1      35.560  23.228  23.421  1.00  0.00     0.340 C 
ATOM     73  O   UNL A   1      36.305  23.064  22.468  1.00  0.00    -0.246 OA
BRANCH  72  74
ATOM     74  C   UNL A   1      34.307  24.019  23.362  1.00  0.00     0.085 A 
ATOM     75  C   UNL A   1      34.426  25.399  23.623  1.00  0.00     0.043 A 
ATOM     76  C   UNL A   1      33.046  23.478  23.071  1.00  0.00     0.055 A 
ATOM     77  C   UNL A   1      33.329  26.259  23.502  1.00  0.00     0.038 A 
ATOM     78  C   UNL A   1      32.030  24.377  22.795  1.00  0.00     0.029 A 
ATOM     79  C   UNL A   1      32.147  25.740  23.012  1.00  0.00     0.028 A 
BRANCH  76  80
ATOM     80  N   UNL A   1      32.818  22.090  23.076  1.00  0.00    -0.325 N 
ATOM     81  C   UNL A   1      32.350  21.211  24.007  1.00  0.00     0.227 C 
ATOM     82  H   UNL A   1      33.044  21.661  22.221  1.00  0.00     0.169 HD
ATOM     83  O   UNL A   1      32.280  20.030  23.626  1.00  0.00    -0.274 OA
BRANCH  81  84
ATOM     84  C   UNL A   1      31.968  21.509  25.466  1.00  0.00     0.079 C 
ATOM     85  C   UNL A   1      33.125  21.801  26.412  1.00  0.00     0.013 C 
ATOM     86  C   UNL A   1      30.893  22.554  25.764  1.00  0.00     0.013 C 
ATOM     87  C   UNL A   1      32.493  22.551  27.579  1.00  0.00     0.001 C 
ATOM     88  C   UNL A   1      31.345  23.348  26.984  1.00  0.00     0.001 C 
ENDBRANCH  81  84
ENDBRANCH  76  80
BRANCH  77  89
ATOM     89  N   UNL A   1      33.400  27.564  23.946  1.00  0.00    -0.368 N 
ATOM     90  C   UNL A   1      32.324  28.520  23.608  1.00  0.00     0.138 C 
ATOM     91  C   UNL A   1      34.026  27.720  25.277  1.00  0.00     0.138 C 
ATOM     92  C   UNL A   1      31.325  28.781  24.767  1.00  0.00     0.138 C 
ATOM     93  C   UNL A   1      32.986  27.940  26.398  1.00  0.00     0.138 C 
ATOM     94  N   UNL A   1      32.024  28.995  26.047  1.00  0.00    -0.368 N 
BRANCH  94  95
ATOM     95  C   UNL A   1      32.178  30.286  26.520  1.00  0.00     0.037 A 
ATOM     96  C   UNL A   1      33.300  30.618  27.297  1.00  0.00     0.029 A 
ATOM     97  C   UNL A   1      31.264  31.311  26.233  1.00  0.00     0.029 A 
ATOM     98  C   UNL A   1      33.512  31.923  27.752  1.00  0.00     0.041 A 
ATOM     99  C   UNL A   1      31.458  32.615  26.699  1.00  0.00     0.041 A 
ATOM    100  C   UNL A   1      32.585  32.909  27.450  1.00  0.00     0.123 A 
ATOM    101  F   UNL A   1      32.782  34.162  27.881  1.00  0.00    -0.207 F 
ENDBRANCH  94  95
ENDBRANCH  77  89
ENDBRANCH  72  74
ENDBRANCH  71  72
ENDBRANCH  70  71
ENDBRANCH   1  70
TORSDOF 15
ENDMDL
