MODEL 1
REMARK VINA RESULT:     -13.5      0.000      0.000
REMARK SMILES O=C(COc1ccc2c(=O)c(-c3ccc4c(c3)OCCO4)coc2c1)OCCOC(=O)c1ccc(-c2c3nc(c(-c4c(F)c(F)c(F)c(F)c4F)c4ccc([nH]4)c(-c4c(F)c(F)c(F)c(F)c4F)c4nc(c(-c5c(F)c(F)c(F)c(F)c5F)c5ccc2[nH]5)C=C4)C=C3)cc1
REMARK SMILES IDX 27 1 26 2 2 3 1 4 3 5 4 6 5 7 6 8 25 9 7 10 24 11 8 12 23 13
REMARK SMILES IDX 9 14 22 15 10 16 11 17 12 18 13 19 17 20 14 21 16 22 15 23
REMARK SMILES IDX 18 24 21 25 19 26 20 27 28 28 29 29 30 30 31 31 32 32 33 33
REMARK SMILES IDX 94 34 34 35 93 36 35 37 36 38 37 39 87 40 38 41 92 42 86 43
REMARK SMILES IDX 88 44 39 45 91 46 85 47 84 48 40 50 72 51 52 52 71 53 53 54
REMARK SMILES IDX 56 55 70 56 89 57 54 58 55 59 69 61 90 62 57 63 41 64 42 65
REMARK SMILES IDX 50 66 43 67 44 68 48 69 51 70 45 71 46 72 49 73 47 74 73 75
REMARK SMILES IDX 74 76 82 77 75 78 76 79 80 80 83 81 77 82 78 83 81 84 79 85
REMARK SMILES IDX 58 86 59 87 67 88 60 89 61 90 65 91 68 92 62 93 63 94 66 95
REMARK SMILES IDX 64 96
REMARK H PARENT 88 49 56 60
REMARK Flexibility Score: inf
ROOT
ATOM      1  C   UNL A   1      42.076  20.046  26.199  1.00  0.00     0.274 C 
ENDROOT
BRANCH   1   2
ATOM      2  O   UNL A   1      40.806  20.649  26.525  1.00  0.00    -0.460 OA
BRANCH   2   3
ATOM      3  C   UNL A   1      39.665  20.401  25.838  1.00  0.00     0.344 C 
ATOM      4  O   UNL A   1      39.454  19.288  25.357  1.00  0.00    -0.248 OA
BRANCH   3   5
ATOM      5  C   UNL A   1      38.629  21.514  25.727  1.00  0.00     0.351 C 
BRANCH   5   6
ATOM      6  O   UNL A   1      37.717  21.393  24.639  1.00  0.00    -0.482 OA
BRANCH   6   7
ATOM      7  C   UNL A   1      36.800  22.409  24.666  1.00  0.00     0.123 A 
ATOM      8  C   UNL A   1      36.720  23.271  25.761  1.00  0.00     0.047 A 
ATOM      9  C   UNL A   1      35.973  22.575  23.556  1.00  0.00     0.094 A 
ATOM     10  C   UNL A   1      35.754  24.268  25.779  1.00  0.00     0.020 A 
ATOM     11  C   UNL A   1      35.021  23.591  23.564  1.00  0.00     0.141 A 
ATOM     12  C   UNL A   1      34.908  24.420  24.679  1.00  0.00     0.066 A 
ATOM     13  O   UNL A   1      34.225  23.731  22.455  1.00  0.00    -0.463 OA
ATOM     14  C   UNL A   1      33.900  25.482  24.680  1.00  0.00     0.200 A 
ATOM     15  C   UNL A   1      33.381  24.820  22.413  1.00  0.00     0.208 A 
ATOM     16  O   UNL A   1      33.700  26.156  25.684  1.00  0.00    -0.288 OA
ATOM     17  C   UNL A   1      33.170  25.697  23.405  1.00  0.00     0.065 A 
BRANCH  17  18
ATOM     18  C   UNL A   1      32.303  26.869  23.249  1.00  0.00    -0.007 A 
ATOM     19  C   UNL A   1      32.788  28.081  22.744  1.00  0.00     0.013 A 
ATOM     20  C   UNL A   1      30.936  26.733  23.528  1.00  0.00     0.059 A 
ATOM     21  C   UNL A   1      31.907  29.138  22.498  1.00  0.00     0.051 A 
ATOM     22  C   UNL A   1      30.060  27.780  23.262  1.00  0.00     0.161 A 
ATOM     23  C   UNL A   1      30.546  28.988  22.757  1.00  0.00     0.161 A 
ATOM     24  O   UNL A   1      28.732  27.541  23.502  1.00  0.00    -0.486 OA
ATOM     25  O   UNL A   1      29.737  30.056  22.464  1.00  0.00    -0.486 OA
ATOM     26  C   UNL A   1      27.914  28.469  22.784  1.00  0.00     0.271 C 
ATOM     27  C   UNL A   1      28.420  29.887  22.999  1.00  0.00     0.271 C 
ENDBRANCH  17  18
ENDBRANCH   6   7
ENDBRANCH   5   6
ENDBRANCH   3   5
ENDBRANCH   2   3
ENDBRANCH   1   2
BRANCH   1  28
ATOM     28  C   UNL A   1      43.056  21.107  25.696  1.00  0.00     0.275 C 
BRANCH  28  29
ATOM     29  O   UNL A   1      42.352  22.344  25.474  1.00  0.00    -0.458 OA
BRANCH  29  30
ATOM     30  C   UNL A   1      43.119  23.444  25.266  1.00  0.00     0.338 C 
ATOM     31  O   UNL A   1      43.953  23.608  24.396  1.00  0.00    -0.246 OA
BRANCH  30  32
ATOM     32  C   UNL A   1      42.629  24.515  26.161  1.00  0.00     0.060 A 
ATOM     33  C   UNL A   1      43.180  25.799  26.044  1.00  0.00     0.016 A 
ATOM     34  C   UNL A   1      41.610  24.266  27.085  1.00  0.00     0.016 A 
ATOM     35  C   UNL A   1      42.727  26.833  26.867  1.00  0.00     0.010 A 
ATOM     36  C   UNL A   1      41.168  25.295  27.915  1.00  0.00     0.010 A 
ATOM     37  C   UNL A   1      41.741  26.576  27.828  1.00  0.00    -0.014 A 
BRANCH  37  38
ATOM     38  C   UNL A   1      41.421  27.563  28.883  1.00  0.00     0.031 A 
ATOM     39  C   UNL A   1      42.195  27.500  30.167  1.00  0.00     0.074 A 
ATOM     40  C   UNL A   1      40.407  28.433  28.745  1.00  0.00     0.049 A 
ATOM     41  N   UNL A   1      41.989  28.126  31.297  1.00  0.00    -0.248 NA
ATOM     42  C   UNL A   1      43.352  26.590  30.180  1.00  0.00     0.031 C 
ATOM     43  C   UNL A   1      39.595  28.603  27.544  1.00  0.00     0.029 A 
ATOM     44  N   UNL A   1      39.866  29.313  29.651  1.00  0.00    -0.354 N 
ATOM     45  C   UNL A   1      42.978  27.673  32.159  1.00  0.00     0.074 A 
ATOM     46  C   UNL A   1      43.772  26.708  31.429  1.00  0.00     0.031 C 
ATOM     47  C   UNL A   1      38.631  29.507  27.797  1.00  0.00     0.029 A 
ATOM     48  C   UNL A   1      38.741  29.948  29.189  1.00  0.00     0.049 A 
ATOM     49  H   UNL A   1      40.248  29.472  30.545  1.00  0.00     0.167 HD
ATOM     50  C   UNL A   1      43.201  28.028  33.446  1.00  0.00     0.037 A 
ATOM     51  C   UNL A   1      37.879  30.762  29.829  1.00  0.00     0.037 A 
ATOM     52  C   UNL A   1      42.407  28.978  34.173  1.00  0.00     0.049 A 
ATOM     53  C   UNL A   1      38.114  31.106  31.278  1.00  0.00     0.074 A 
ATOM     54  C   UNL A   1      42.571  29.428  35.470  1.00  0.00     0.029 A 
ATOM     55  N   UNL A   1      41.284  29.616  33.666  1.00  0.00    -0.354 N 
ATOM     56  N   UNL A   1      39.070  30.705  32.079  1.00  0.00    -0.248 NA
ATOM     57  C   UNL A   1      37.147  32.015  31.912  1.00  0.00     0.031 C 
ATOM     58  C   UNL A   1      41.520  30.305  35.764  1.00  0.00     0.029 A 
ATOM     59  C   UNL A   1      40.729  30.435  34.633  1.00  0.00     0.049 A 
ATOM     60  H   UNL A   1      40.934  29.501  32.753  1.00  0.00     0.167 HD
ATOM     61  C   UNL A   1      38.839  31.329  33.298  1.00  0.00     0.074 A 
ATOM     62  C   UNL A   1      37.649  32.139  33.133  1.00  0.00     0.031 C 
ATOM     63  C   UNL A   1      39.550  31.243  34.449  1.00  0.00     0.037 A 
BRANCH  50  64
ATOM     64  C   UNL A   1      44.332  27.343  34.152  1.00  0.00     0.064 A 
ATOM     65  C   UNL A   1      44.155  26.117  34.809  1.00  0.00     0.173 A 
ATOM     66  C   UNL A   1      45.604  27.933  34.187  1.00  0.00     0.173 A 
ATOM     67  F   UNL A   1      42.952  25.525  34.821  1.00  0.00    -0.203 F 
ATOM     68  C   UNL A   1      45.204  25.521  35.503  1.00  0.00     0.198 A 
ATOM     69  C   UNL A   1      46.657  27.321  34.860  1.00  0.00     0.198 A 
ATOM     70  F   UNL A   1      45.823  29.107  33.576  1.00  0.00    -0.203 F 
ATOM     71  F   UNL A   1      44.999  24.378  36.173  1.00  0.00    -0.200 F 
ATOM     72  C   UNL A   1      46.454  26.121  35.526  1.00  0.00     0.200 A 
ATOM     73  F   UNL A   1      47.866  27.900  34.876  1.00  0.00    -0.200 F 
ATOM     74  F   UNL A   1      47.461  25.551  36.201  1.00  0.00    -0.200 F 
ENDBRANCH  50  64
BRANCH  51  75
ATOM     75  C   UNL A   1      36.698  31.293  29.105  1.00  0.00     0.064 A 
ATOM     76  C   UNL A   1      36.648  32.629  28.685  1.00  0.00     0.173 A 
ATOM     77  C   UNL A   1      35.598  30.473  28.811  1.00  0.00     0.173 A 
ATOM     78  F   UNL A   1      37.663  33.457  28.967  1.00  0.00    -0.203 F 
ATOM     79  C   UNL A   1      35.539  33.127  28.003  1.00  0.00     0.198 A 
ATOM     80  C   UNL A   1      34.500  30.966  28.110  1.00  0.00     0.198 A 
ATOM     81  F   UNL A   1      35.598  29.188  29.194  1.00  0.00    -0.203 F 
ATOM     82  F   UNL A   1      35.502  34.416  27.640  1.00  0.00    -0.200 F 
ATOM     83  C   UNL A   1      34.469  32.293  27.710  1.00  0.00     0.200 A 
ATOM     84  F   UNL A   1      33.473  30.155  27.820  1.00  0.00    -0.200 F 
ATOM     85  F   UNL A   1      33.408  32.771  27.046  1.00  0.00    -0.200 F 
ENDBRANCH  51  75
BRANCH  63  86
ATOM     86  C   UNL A   1      39.093  32.069  35.615  1.00  0.00     0.064 A 
ATOM     87  C   UNL A   1      38.264  31.540  36.613  1.00  0.00     0.173 A 
ATOM     88  C   UNL A   1      39.560  33.384  35.776  1.00  0.00     0.173 A 
ATOM     89  F   UNL A   1      37.783  30.293  36.498  1.00  0.00    -0.203 F 
ATOM     90  C   UNL A   1      37.909  32.299  37.725  1.00  0.00     0.198 A 
ATOM     91  C   UNL A   1      39.223  34.132  36.900  1.00  0.00     0.198 A 
ATOM     92  F   UNL A   1      40.362  33.933  34.851  1.00  0.00    -0.203 F 
ATOM     93  F   UNL A   1      37.093  31.783  38.655  1.00  0.00    -0.200 F 
ATOM     94  C   UNL A   1      38.397  33.590  37.872  1.00  0.00     0.200 A 
ATOM     95  F   UNL A   1      39.704  35.374  37.046  1.00  0.00    -0.200 F 
ATOM     96  F   UNL A   1      38.067  34.313  38.951  1.00  0.00    -0.200 F 
ENDBRANCH  63  86
ENDBRANCH  37  38
ENDBRANCH  30  32
ENDBRANCH  29  30
ENDBRANCH  28  29
ENDBRANCH   1  28
TORSDOF 14
ENDMDL
MODEL 2
REMARK VINA RESULT:     -13.5      0.597      1.795
REMARK SMILES O=C(COc1ccc2c(=O)c(-c3ccc4c(c3)OCCO4)coc2c1)OCCOC(=O)c1ccc(-c2c3nc(c(-c4c(F)c(F)c(F)c(F)c4F)c4ccc([nH]4)c(-c4c(F)c(F)c(F)c(F)c4F)c4nc(c(-c5c(F)c(F)c(F)c(F)c5F)c5ccc2[nH]5)C=C4)C=C3)cc1
REMARK SMILES IDX 27 1 26 2 2 3 1 4 3 5 4 6 5 7 6 8 25 9 7 10 24 11 8 12 23 13
REMARK SMILES IDX 9 14 22 15 10 16 11 17 12 18 13 19 17 20 14 21 16 22 15 23
REMARK SMILES IDX 18 24 21 25 19 26 20 27 28 28 29 29 30 30 31 31 32 32 33 33
REMARK SMILES IDX 94 34 34 35 93 36 35 37 36 38 37 39 87 40 38 41 92 42 86 43
REMARK SMILES IDX 88 44 39 45 91 46 85 47 84 48 40 50 72 51 52 52 71 53 53 54
REMARK SMILES IDX 56 55 70 56 89 57 54 58 55 59 69 61 90 62 57 63 41 64 42 65
REMARK SMILES IDX 50 66 43 67 44 68 48 69 51 70 45 71 46 72 49 73 47 74 73 75
REMARK SMILES IDX 74 76 82 77 75 78 76 79 80 80 83 81 77 82 78 83 81 84 79 85
REMARK SMILES IDX 58 86 59 87 67 88 60 89 61 90 65 91 68 92 62 93 63 94 66 95
REMARK SMILES IDX 64 96
REMARK H PARENT 88 49 56 60
REMARK Flexibility Score: inf
ROOT
ATOM      1  C   UNL A   1      41.212  20.642  26.868  1.00  0.00     0.274 C 
ENDROOT
BRANCH   1   2
ATOM      2  O   UNL A   1      39.992  21.196  26.331  1.00  0.00    -0.460 OA
BRANCH   2   3
ATOM      3  C   UNL A   1      39.062  20.457  25.679  1.00  0.00     0.344 C 
ATOM      4  O   UNL A   1      39.293  19.287  25.378  1.00  0.00    -0.248 OA
BRANCH   3   5
ATOM      5  C   UNL A   1      37.708  21.092  25.384  1.00  0.00     0.351 C 
BRANCH   5   6
ATOM      6  O   UNL A   1      37.734  22.190  24.477  1.00  0.00    -0.482 OA
BRANCH   6   7
ATOM      7  C   UNL A   1      36.554  22.882  24.528  1.00  0.00     0.123 A 
ATOM      8  C   UNL A   1      36.140  23.502  25.708  1.00  0.00     0.047 A 
ATOM      9  C   UNL A   1      35.799  22.976  23.360  1.00  0.00     0.094 A 
ATOM     10  C   UNL A   1      34.920  24.165  25.742  1.00  0.00     0.020 A 
ATOM     11  C   UNL A   1      34.587  23.662  23.389  1.00  0.00     0.141 A 
ATOM     12  C   UNL A   1      34.150  24.238  24.580  1.00  0.00     0.066 A 
ATOM     13  O   UNL A   1      33.868  23.741  22.222  1.00  0.00    -0.463 OA
ATOM     14  C   UNL A   1      32.872  24.953  24.601  1.00  0.00     0.200 A 
ATOM     15  C   UNL A   1      32.741  24.534  22.223  1.00  0.00     0.208 A 
ATOM     16  O   UNL A   1      32.406  25.374  25.653  1.00  0.00    -0.288 OA
ATOM     17  C   UNL A   1      32.205  25.147  23.288  1.00  0.00     0.065 A 
BRANCH  17  18
ATOM     18  C   UNL A   1      31.040  26.030  23.185  1.00  0.00    -0.007 A 
ATOM     19  C   UNL A   1      29.866  25.786  23.907  1.00  0.00     0.013 A 
ATOM     20  C   UNL A   1      31.149  27.196  22.414  1.00  0.00     0.059 A 
ATOM     21  C   UNL A   1      28.820  26.714  23.876  1.00  0.00     0.051 A 
ATOM     22  C   UNL A   1      30.115  28.126  22.403  1.00  0.00     0.161 A 
ATOM     23  C   UNL A   1      28.945  27.882  23.124  1.00  0.00     0.161 A 
ATOM     24  O   UNL A   1      30.330  29.268  21.676  1.00  0.00    -0.486 OA
ATOM     25  O   UNL A   1      27.892  28.759  23.164  1.00  0.00    -0.486 OA
ATOM     26  C   UNL A   1      29.443  30.309  22.097  1.00  0.00     0.271 C 
ATOM     27  C   UNL A   1      28.019  29.785  22.171  1.00  0.00     0.271 C 
ENDBRANCH  17  18
ENDBRANCH   6   7
ENDBRANCH   5   6
ENDBRANCH   3   5
ENDBRANCH   2   3
ENDBRANCH   1   2
BRANCH   1  28
ATOM     28  C   UNL A   1      42.425  21.214  26.133  1.00  0.00     0.275 C 
BRANCH  28  29
ATOM     29  O   UNL A   1      42.039  22.409  25.427  1.00  0.00    -0.458 OA
BRANCH  29  30
ATOM     30  C   UNL A   1      42.964  23.402  25.375  1.00  0.00     0.338 C 
ATOM     31  O   UNL A   1      43.917  23.483  24.624  1.00  0.00    -0.246 OA
BRANCH  30  32
ATOM     32  C   UNL A   1      42.505  24.496  26.260  1.00  0.00     0.060 A 
ATOM     33  C   UNL A   1      43.156  25.735  26.193  1.00  0.00     0.016 A 
ATOM     34  C   UNL A   1      41.420  24.313  27.122  1.00  0.00     0.016 A 
ATOM     35  C   UNL A   1      42.736  26.790  27.007  1.00  0.00     0.010 A 
ATOM     36  C   UNL A   1      41.011  25.362  27.943  1.00  0.00     0.010 A 
ATOM     37  C   UNL A   1      41.682  26.597  27.908  1.00  0.00    -0.014 A 
BRANCH  37  38
ATOM     38  C   UNL A   1      41.378  27.593  28.961  1.00  0.00     0.031 A 
ATOM     39  C   UNL A   1      42.154  27.523  30.244  1.00  0.00     0.074 A 
ATOM     40  C   UNL A   1      40.376  28.477  28.822  1.00  0.00     0.049 A 
ATOM     41  N   UNL A   1      41.959  28.156  31.371  1.00  0.00    -0.248 NA
ATOM     42  C   UNL A   1      43.297  26.596  30.258  1.00  0.00     0.031 C 
ATOM     43  C   UNL A   1      39.566  28.654  27.621  1.00  0.00     0.029 A 
ATOM     44  N   UNL A   1      39.850  29.367  29.725  1.00  0.00    -0.354 N 
ATOM     45  C   UNL A   1      42.942  27.692  32.234  1.00  0.00     0.074 A 
ATOM     46  C   UNL A   1      43.721  26.712  31.506  1.00  0.00     0.031 C 
ATOM     47  C   UNL A   1      38.615  29.572  27.873  1.00  0.00     0.029 A 
ATOM     48  C   UNL A   1      38.734  30.017  29.262  1.00  0.00     0.049 A 
ATOM     49  H   UNL A   1      40.236  29.524  30.617  1.00  0.00     0.167 HD
ATOM     50  C   UNL A   1      43.173  28.048  33.519  1.00  0.00     0.037 A 
ATOM     51  C   UNL A   1      37.885  30.846  29.901  1.00  0.00     0.037 A 
ATOM     52  C   UNL A   1      42.394  29.012  34.244  1.00  0.00     0.049 A 
ATOM     53  C   UNL A   1      38.127  31.191  31.348  1.00  0.00     0.074 A 
ATOM     54  C   UNL A   1      42.566  29.464  35.539  1.00  0.00     0.029 A 
ATOM     55  N   UNL A   1      41.279  29.664  33.736  1.00  0.00    -0.354 N 
ATOM     56  N   UNL A   1      39.079  30.779  32.149  1.00  0.00    -0.248 NA
ATOM     57  C   UNL A   1      37.174  32.117  31.980  1.00  0.00     0.031 C 
ATOM     58  C   UNL A   1      41.529  30.357  35.832  1.00  0.00     0.029 A 
ATOM     59  C   UNL A   1      40.738  30.495  34.702  1.00  0.00     0.049 A 
ATOM     60  H   UNL A   1      40.926  29.552  32.824  1.00  0.00     0.167 HD
ATOM     61  C   UNL A   1      38.858  31.411  33.367  1.00  0.00     0.074 A 
ATOM     62  C   UNL A   1      37.680  32.238  33.201  1.00  0.00     0.031 C 
ATOM     63  C   UNL A   1      39.570  31.319  34.516  1.00  0.00     0.037 A 
BRANCH  50  64
ATOM     64  C   UNL A   1      44.295  27.350  34.226  1.00  0.00     0.064 A 
ATOM     65  C   UNL A   1      45.598  27.867  34.229  1.00  0.00     0.173 A 
ATOM     66  C   UNL A   1      44.064  26.138  34.894  1.00  0.00     0.173 A 
ATOM     67  F   UNL A   1      45.872  29.012  33.586  1.00  0.00    -0.203 F 
ATOM     68  C   UNL A   1      46.638  27.178  34.847  1.00  0.00     0.198 A 
ATOM     69  C   UNL A   1      45.101  25.467  35.534  1.00  0.00     0.198 A 
ATOM     70  F   UNL A   1      42.835  25.602  34.918  1.00  0.00    -0.203 F 
ATOM     71  F   UNL A   1      47.887  27.661  34.788  1.00  0.00    -0.200 F 
ATOM     72  C   UNL A   1      46.389  25.982  35.502  1.00  0.00     0.200 A 
ATOM     73  F   UNL A   1      44.857  24.313  36.170  1.00  0.00    -0.200 F 
ATOM     74  F   UNL A   1      47.391  25.316  36.090  1.00  0.00    -0.200 F 
ENDBRANCH  50  64
BRANCH  51  75
ATOM     75  C   UNL A   1      36.710  31.392  29.176  1.00  0.00     0.064 A 
ATOM     76  C   UNL A   1      35.611  30.579  28.867  1.00  0.00     0.173 A 
ATOM     77  C   UNL A   1      36.659  32.738  28.786  1.00  0.00     0.173 A 
ATOM     78  F   UNL A   1      35.626  29.280  29.196  1.00  0.00    -0.203 F 
ATOM     79  C   UNL A   1      34.507  31.092  28.189  1.00  0.00     0.198 A 
ATOM     80  C   UNL A   1      35.545  33.255  28.128  1.00  0.00     0.198 A 
ATOM     81  F   UNL A   1      37.688  33.555  29.058  1.00  0.00    -0.203 F 
ATOM     82  F   UNL A   1      33.482  30.288  27.877  1.00  0.00    -0.200 F 
ATOM     83  C   UNL A   1      34.472  32.431  27.826  1.00  0.00     0.200 A 
ATOM     84  F   UNL A   1      35.513  34.551  27.788  1.00  0.00    -0.200 F 
ATOM     85  F   UNL A   1      33.406  32.925  27.182  1.00  0.00    -0.200 F 
ENDBRANCH  51  75
BRANCH  63  86
ATOM     86  C   UNL A   1      39.128  32.156  35.680  1.00  0.00     0.064 A 
ATOM     87  C   UNL A   1      38.281  31.646  36.675  1.00  0.00     0.173 A 
ATOM     88  C   UNL A   1      39.624  33.459  35.842  1.00  0.00     0.173 A 
ATOM     89  F   UNL A   1      37.772  30.411  36.558  1.00  0.00    -0.203 F 
ATOM     90  C   UNL A   1      37.939  32.414  37.785  1.00  0.00     0.198 A 
ATOM     91  C   UNL A   1      39.299  34.215  36.965  1.00  0.00     0.198 A 
ATOM     92  F   UNL A   1      40.443  33.990  34.922  1.00  0.00    -0.203 F 
ATOM     93  F   UNL A   1      37.108  31.917  38.711  1.00  0.00    -0.200 F 
ATOM     94  C   UNL A   1      38.456  33.693  37.934  1.00  0.00     0.200 A 
ATOM     95  F   UNL A   1      39.808  35.446  37.114  1.00  0.00    -0.200 F 
ATOM     96  F   UNL A   1      38.138  34.424  39.011  1.00  0.00    -0.200 F 
ENDBRANCH  63  86
ENDBRANCH  37  38
ENDBRANCH  30  32
ENDBRANCH  29  30
ENDBRANCH  28  29
ENDBRANCH   1  28
TORSDOF 14
ENDMDL
MODEL 3
REMARK VINA RESULT:     -13.4      5.249     10.871
REMARK SMILES O=C(COc1ccc2c(=O)c(-c3ccc4c(c3)OCCO4)coc2c1)OCCOC(=O)c1ccc(-c2c3nc(c(-c4c(F)c(F)c(F)c(F)c4F)c4ccc([nH]4)c(-c4c(F)c(F)c(F)c(F)c4F)c4nc(c(-c5c(F)c(F)c(F)c(F)c5F)c5ccc2[nH]5)C=C4)C=C3)cc1
REMARK SMILES IDX 27 1 26 2 2 3 1 4 3 5 4 6 5 7 6 8 25 9 7 10 24 11 8 12 23 13
REMARK SMILES IDX 9 14 22 15 10 16 11 17 12 18 13 19 17 20 14 21 16 22 15 23
REMARK SMILES IDX 18 24 21 25 19 26 20 27 28 28 29 29 30 30 31 31 32 32 33 33
REMARK SMILES IDX 94 34 34 35 93 36 35 37 36 38 37 39 87 40 38 41 92 42 86 43
REMARK SMILES IDX 88 44 39 45 91 46 85 47 84 48 40 50 72 51 52 52 71 53 53 54
REMARK SMILES IDX 56 55 70 56 89 57 54 58 55 59 69 61 90 62 57 63 41 64 42 65
REMARK SMILES IDX 50 66 43 67 44 68 48 69 51 70 45 71 46 72 49 73 47 74 73 75
REMARK SMILES IDX 74 76 82 77 75 78 76 79 80 80 83 81 77 82 78 83 81 84 79 85
REMARK SMILES IDX 58 86 59 87 67 88 60 89 61 90 65 91 68 92 62 93 63 94 66 95
REMARK SMILES IDX 64 96
REMARK H PARENT 88 49 56 60
REMARK Flexibility Score: inf
ROOT
ATOM      1  C   UNL A   1      34.586  35.766  32.534  1.00  0.00     0.274 C 
ENDROOT
BRANCH   1   2
ATOM      2  O   UNL A   1      33.538  35.239  31.694  1.00  0.00    -0.460 OA
BRANCH   2   3
ATOM      3  C   UNL A   1      33.150  35.820  30.533  1.00  0.00     0.344 C 
ATOM      4  O   UNL A   1      32.455  36.835  30.544  1.00  0.00    -0.248 OA
BRANCH   3   5
ATOM      5  C   UNL A   1      33.644  35.219  29.222  1.00  0.00     0.351 C 
BRANCH   5   6
ATOM      6  O   UNL A   1      32.627  34.714  28.361  1.00  0.00    -0.482 OA
BRANCH   6   7
ATOM      7  C   UNL A   1      32.906  33.426  27.993  1.00  0.00     0.123 A 
ATOM      8  C   UNL A   1      34.026  32.764  28.501  1.00  0.00     0.047 A 
ATOM      9  C   UNL A   1      32.023  32.787  27.124  1.00  0.00     0.094 A 
ATOM     10  C   UNL A   1      34.306  31.471  28.081  1.00  0.00     0.020 A 
ATOM     11  C   UNL A   1      32.291  31.481  26.722  1.00  0.00     0.141 A 
ATOM     12  C   UNL A   1      33.436  30.838  27.190  1.00  0.00     0.066 A 
ATOM     13  O   UNL A   1      31.401  30.878  25.869  1.00  0.00    -0.463 OA
ATOM     14  C   UNL A   1      33.712  29.466  26.757  1.00  0.00     0.200 A 
ATOM     15  C   UNL A   1      31.599  29.544  25.584  1.00  0.00     0.208 A 
ATOM     16  O   UNL A   1      34.762  28.913  27.060  1.00  0.00    -0.288 OA
ATOM     17  C   UNL A   1      32.648  28.801  25.963  1.00  0.00     0.065 A 
BRANCH  17  18
ATOM     18  C   UNL A   1      32.744  27.367  25.672  1.00  0.00    -0.007 A 
ATOM     19  C   UNL A   1      33.626  26.870  24.705  1.00  0.00     0.013 A 
ATOM     20  C   UNL A   1      31.999  26.473  26.454  1.00  0.00     0.059 A 
ATOM     21  C   UNL A   1      33.776  25.490  24.539  1.00  0.00     0.051 A 
ATOM     22  C   UNL A   1      32.167  25.102  26.300  1.00  0.00     0.161 A 
ATOM     23  C   UNL A   1      33.048  24.607  25.335  1.00  0.00     0.161 A 
ATOM     24  O   UNL A   1      31.448  24.300  27.149  1.00  0.00    -0.486 OA
ATOM     25  O   UNL A   1      33.268  23.268  25.138  1.00  0.00    -0.486 OA
ATOM     26  C   UNL A   1      32.026  22.993  27.218  1.00  0.00     0.271 C 
ATOM     27  C   UNL A   1      32.296  22.465  25.819  1.00  0.00     0.271 C 
ENDBRANCH  17  18
ENDBRANCH   6   7
ENDBRANCH   5   6
ENDBRANCH   3   5
ENDBRANCH   2   3
ENDBRANCH   1   2
BRANCH   1  28
ATOM     28  C   UNL A   1      35.453  34.629  33.080  1.00  0.00     0.275 C 
BRANCH  28  29
ATOM     29  O   UNL A   1      36.000  33.874  31.982  1.00  0.00    -0.458 OA
BRANCH  29  30
ATOM     30  C   UNL A   1      35.624  32.573  31.901  1.00  0.00     0.338 C 
ATOM     31  O   UNL A   1      34.508  32.116  32.065  1.00  0.00    -0.246 OA
BRANCH  30  32
ATOM     32  C   UNL A   1      36.769  31.801  31.372  1.00  0.00     0.060 A 
ATOM     33  C   UNL A   1      37.580  31.092  32.271  1.00  0.00     0.016 A 
ATOM     34  C   UNL A   1      37.023  31.746  29.998  1.00  0.00     0.016 A 
ATOM     35  C   UNL A   1      38.661  30.344  31.798  1.00  0.00     0.010 A 
ATOM     36  C   UNL A   1      38.110  31.010  29.529  1.00  0.00     0.010 A 
ATOM     37  C   UNL A   1      38.948  30.327  30.427  1.00  0.00    -0.014 A 
BRANCH  37  38
ATOM     38  C   UNL A   1      40.220  29.768  29.916  1.00  0.00     0.031 A 
ATOM     39  C   UNL A   1      41.383  30.702  29.743  1.00  0.00     0.074 A 
ATOM     40  C   UNL A   1      40.317  28.486  29.526  1.00  0.00     0.049 A 
ATOM     41  N   UNL A   1      42.532  30.502  29.154  1.00  0.00    -0.248 NA
ATOM     42  C   UNL A   1      41.212  32.055  30.298  1.00  0.00     0.031 C 
ATOM     43  C   UNL A   1      39.268  27.480  29.660  1.00  0.00     0.029 A 
ATOM     44  N   UNL A   1      41.346  27.828  28.898  1.00  0.00    -0.354 N 
ATOM     45  C   UNL A   1      43.216  31.706  29.251  1.00  0.00     0.074 A 
ATOM     46  C   UNL A   1      42.346  32.636  29.939  1.00  0.00     0.031 C 
ATOM     47  C   UNL A   1      39.693  26.336  29.095  1.00  0.00     0.029 A 
ATOM     48  C   UNL A   1      41.027  26.544  28.532  1.00  0.00     0.049 A 
ATOM     49  H   UNL A   1      42.225  28.236  28.728  1.00  0.00     0.167 HD
ATOM     50  C   UNL A   1      44.456  32.010  28.804  1.00  0.00     0.037 A 
ATOM     51  C   UNL A   1      41.720  25.656  27.793  1.00  0.00     0.037 A 
ATOM     52  C   UNL A   1      45.315  31.090  28.111  1.00  0.00     0.049 A 
ATOM     53  C   UNL A   1      43.079  26.029  27.258  1.00  0.00     0.074 A 
ATOM     54  C   UNL A   1      46.601  31.292  27.646  1.00  0.00     0.029 A 
ATOM     55  N   UNL A   1      44.965  29.791  27.773  1.00  0.00    -0.354 N 
ATOM     56  N   UNL A   1      43.737  27.156  27.383  1.00  0.00    -0.248 NA
ATOM     57  C   UNL A   1      43.791  25.006  26.475  1.00  0.00     0.031 C 
ATOM     58  C   UNL A   1      47.013  30.130  26.984  1.00  0.00     0.029 A 
ATOM     59  C   UNL A   1      46.000  29.188  27.079  1.00  0.00     0.049 A 
ATOM     60  H   UNL A   1      44.107  29.362  27.993  1.00  0.00     0.167 HD
ATOM     61  C   UNL A   1      44.946  26.971  26.723  1.00  0.00     0.074 A 
ATOM     62  C   UNL A   1      44.933  25.622  26.197  1.00  0.00     0.031 C 
ATOM     63  C   UNL A   1      45.974  27.840  26.571  1.00  0.00     0.037 A 
BRANCH  50  64
ATOM     64  C   UNL A   1      44.930  33.415  29.019  1.00  0.00     0.064 A 
ATOM     65  C   UNL A   1      44.697  34.424  28.074  1.00  0.00     0.173 A 
ATOM     66  C   UNL A   1      45.643  33.750  30.179  1.00  0.00     0.173 A 
ATOM     67  F   UNL A   1      44.038  34.146  26.939  1.00  0.00    -0.203 F 
ATOM     68  C   UNL A   1      45.189  35.711  28.267  1.00  0.00     0.198 A 
ATOM     69  C   UNL A   1      46.111  35.045  30.381  1.00  0.00     0.198 A 
ATOM     70  F   UNL A   1      45.894  32.820  31.112  1.00  0.00    -0.203 F 
ATOM     71  F   UNL A   1      45.005  36.646  27.324  1.00  0.00    -0.200 F 
ATOM     72  C   UNL A   1      45.892  36.022  29.421  1.00  0.00     0.200 A 
ATOM     73  F   UNL A   1      46.786  35.345  31.500  1.00  0.00    -0.200 F 
ATOM     74  F   UNL A   1      46.373  37.259  29.602  1.00  0.00    -0.200 F 
ENDBRANCH  50  64
BRANCH  51  75
ATOM     75  C   UNL A   1      41.127  24.327  27.498  1.00  0.00     0.064 A 
ATOM     76  C   UNL A   1      40.081  24.192  26.576  1.00  0.00     0.173 A 
ATOM     77  C   UNL A   1      41.599  23.167  28.128  1.00  0.00     0.173 A 
ATOM     78  F   UNL A   1      39.579  25.277  25.970  1.00  0.00    -0.203 F 
ATOM     79  C   UNL A   1      39.526  22.944  26.298  1.00  0.00     0.198 A 
ATOM     80  C   UNL A   1      41.058  21.917  27.833  1.00  0.00     0.198 A 
ATOM     81  F   UNL A   1      42.597  23.245  29.021  1.00  0.00    -0.203 F 
ATOM     82  F   UNL A   1      38.506  22.845  25.435  1.00  0.00    -0.200 F 
ATOM     83  C   UNL A   1      40.020  21.807  26.921  1.00  0.00     0.200 A 
ATOM     84  F   UNL A   1      41.544  20.820  28.430  1.00  0.00    -0.200 F 
ATOM     85  F   UNL A   1      39.491  20.607  26.646  1.00  0.00    -0.200 F 
ENDBRANCH  51  75
BRANCH  63  86
ATOM     86  C   UNL A   1      47.193  27.358  25.841  1.00  0.00     0.064 A 
ATOM     87  C   UNL A   1      47.364  27.578  24.467  1.00  0.00     0.173 A 
ATOM     88  C   UNL A   1      48.239  26.738  26.543  1.00  0.00     0.173 A 
ATOM     89  F   UNL A   1      46.388  28.155  23.751  1.00  0.00    -0.203 F 
ATOM     90  C   UNL A   1      48.533  27.187  23.820  1.00  0.00     0.198 A 
ATOM     91  C   UNL A   1      49.416  26.370  25.898  1.00  0.00     0.198 A 
ATOM     92  F   UNL A   1      48.127  26.511  27.860  1.00  0.00    -0.203 F 
ATOM     93  F   UNL A   1      48.666  27.384  22.501  1.00  0.00    -0.200 F 
ATOM     94  C   UNL A   1      49.562  26.593  24.537  1.00  0.00     0.200 A 
ATOM     95  F   UNL A   1      50.413  25.807  26.595  1.00  0.00    -0.200 F 
ATOM     96  F   UNL A   1      50.692  26.232  23.915  1.00  0.00    -0.200 F 
ENDBRANCH  63  86
ENDBRANCH  37  38
ENDBRANCH  30  32
ENDBRANCH  29  30
ENDBRANCH  28  29
ENDBRANCH   1  28
TORSDOF 14
ENDMDL
