MODEL 1
REMARK VINA RESULT:     -12.5      0.000      0.000
REMARK SMILES C[C@H](CSc1ccc(C(=O)N(C)C)cn1)C(=O)OCCOC(=O)c1ccc(-c2c3nc(c(-c4c(F)c(F)c(F)c(F)c4F)c4ccc([nH]4)c(-c4c(F)c(F)c(F)c(F)c4F)c4nc(c(-c5c(F)c(F)c(F)c(F)c5F)c5ccc2[nH]5)C=C4)C=C3)cc1
REMARK SMILES IDX 19 1 18 2 16 3 17 4 2 5 1 6 3 7 4 8 5 9 6 10 15 11 7 12
REMARK SMILES IDX 14 13 8 14 9 15 10 16 11 17 12 18 13 19 20 20 21 21 22 22
REMARK SMILES IDX 23 23 24 24 25 25 86 26 26 27 85 28 27 29 28 30 29 31 79 32
REMARK SMILES IDX 30 33 84 34 78 35 80 36 31 37 83 38 77 39 76 40 32 42 64 43
REMARK SMILES IDX 44 44 63 45 45 46 48 47 62 48 81 49 46 50 47 51 61 53 82 54
REMARK SMILES IDX 49 55 33 56 34 57 42 58 35 59 36 60 40 61 43 62 37 63 38 64
REMARK SMILES IDX 41 65 39 66 65 67 66 68 74 69 67 70 68 71 72 72 75 73 69 74
REMARK SMILES IDX 70 75 73 76 71 77 50 78 51 79 59 80 52 81 53 82 57 83 60 84
REMARK SMILES IDX 54 85 55 86 58 87 56 88
REMARK H PARENT 80 41 48 52
REMARK Flexibility Score: inf
ROOT
ATOM      1  C   UNL A   1      32.427  29.739  25.553  1.00  0.00     0.274 C 
ENDROOT
BRANCH   1   2
ATOM      2  O   UNL A   1      32.250  28.382  26.018  1.00  0.00    -0.462 OA
BRANCH   2   3
ATOM      3  C   UNL A   1      33.386  27.695  26.273  1.00  0.00     0.309 C 
ATOM      4  O   UNL A   1      34.394  28.207  26.752  1.00  0.00    -0.252 OA
BRANCH   3   5
ATOM      5  C   UNL A   1      33.267  26.185  26.080  1.00  0.00     0.106 C 
ATOM      6  C   UNL A   1      34.178  25.726  24.946  1.00  0.00     0.021 C 
BRANCH   5   7
ATOM      7  C   UNL A   1      31.911  25.443  26.071  1.00  0.00     0.091 C 
BRANCH   7   8
ATOM      8  S   UNL A   1      31.161  24.693  24.604  1.00  0.00    -0.106 SA
BRANCH   8   9
ATOM      9  C   UNL A   1      30.270  26.050  23.881  1.00  0.00     0.096 A 
ATOM     10  C   UNL A   1      28.499  26.367  24.069  1.00  0.00     0.036 A 
ATOM     11  N   UNL A   1      31.308  27.207  23.048  1.00  0.00    -0.249 NA
ATOM     12  C   UNL A   1      27.809  27.910  23.423  1.00  0.00     0.018 A 
ATOM     13  C   UNL A   1      30.597  28.696  22.399  1.00  0.00     0.126 A 
ATOM     14  C   UNL A   1      28.855  29.075  22.542  1.00  0.00     0.058 A 
BRANCH  14  15
ATOM     15  C   UNL A   1      28.456  30.342  21.899  1.00  0.00     0.254 C 
ATOM     16  O   UNL A   1      28.077  30.232  20.731  1.00  0.00    -0.269 OA
ATOM     17  N   UNL A   1      28.542  31.579  22.530  1.00  0.00    -0.345 N 
ATOM     18  C   UNL A   1      29.063  31.837  23.856  1.00  0.00     0.146 C 
ATOM     19  C   UNL A   1      28.168  32.760  21.760  1.00  0.00     0.146 C 
ENDBRANCH  14  15
ENDBRANCH   8   9
ENDBRANCH   7   8
ENDBRANCH   5   7
ENDBRANCH   3   5
ENDBRANCH   2   3
ENDBRANCH   1   2
BRANCH   1  20
ATOM     20  C   UNL A   1      31.786  30.891  26.560  1.00  0.00     0.275 C 
BRANCH  20  21
ATOM     21  O   UNL A   1      32.683  32.538  27.306  1.00  0.00    -0.458 OA
BRANCH  21  22
ATOM     22  C   UNL A   1      32.963  33.736  28.010  1.00  0.00     0.338 C 
ATOM     23  O   UNL A   1      32.389  34.812  27.959  1.00  0.00    -0.246 OA
BRANCH  22  24
ATOM     24  C   UNL A   1      34.160  33.585  28.875  1.00  0.00     0.060 A 
ATOM     25  C   UNL A   1      35.369  34.223  28.560  1.00  0.00     0.016 A 
ATOM     26  C   UNL A   1      34.091  32.720  29.969  1.00  0.00     0.016 A 
ATOM     27  C   UNL A   1      36.504  34.023  29.354  1.00  0.00     0.010 A 
ATOM     28  C   UNL A   1      35.232  32.497  30.745  1.00  0.00     0.010 A 
ATOM     29  C   UNL A   1      36.449  33.128  30.429  1.00  0.00    -0.014 A 
BRANCH  29  30
ATOM     30  C   UNL A   1      37.694  32.642  31.074  1.00  0.00     0.031 A 
ATOM     31  C   UNL A   1      38.443  31.527  30.401  1.00  0.00     0.074 A 
ATOM     32  C   UNL A   1      38.134  33.128  32.246  1.00  0.00     0.049 A 
ATOM     33  N   UNL A   1      39.419  30.785  30.856  1.00  0.00    -0.248 NA
ATOM     34  C   UNL A   1      38.025  31.205  29.028  1.00  0.00     0.031 C 
ATOM     35  C   UNL A   1      37.555  34.254  32.970  1.00  0.00     0.029 A 
ATOM     36  N   UNL A   1      39.167  32.702  33.048  1.00  0.00    -0.354 N 
ATOM     37  C   UNL A   1      39.708  29.887  29.839  1.00  0.00     0.074 A 
ATOM     38  C   UNL A   1      38.812  30.181  28.741  1.00  0.00     0.031 C 
ATOM     39  C   UNL A   1      38.216  34.408  34.132  1.00  0.00     0.029 A 
ATOM     40  C   UNL A   1      39.228  33.357  34.252  1.00  0.00     0.049 A 
ATOM     41  H   UNL A   1      39.800  31.996  32.784  1.00  0.00     0.167 HD
ATOM     42  C   UNL A   1      40.627  28.894  29.824  1.00  0.00     0.037 A 
ATOM     43  C   UNL A   1      39.977  33.103  35.346  1.00  0.00     0.037 A 
ATOM     44  C   UNL A   1      41.518  28.594  30.910  1.00  0.00     0.049 A 
ATOM     45  C   UNL A   1      40.942  31.943  35.343  1.00  0.00     0.074 A 
ATOM     46  C   UNL A   1      42.491  27.614  30.984  1.00  0.00     0.029 A 
ATOM     47  N   UNL A   1      41.536  29.271  32.121  1.00  0.00    -0.354 N 
ATOM     48  N   UNL A   1      41.202  31.084  34.387  1.00  0.00    -0.248 NA
ATOM     49  C   UNL A   1      41.705  31.709  36.579  1.00  0.00     0.031 C 
ATOM     50  C   UNL A   1      43.069  27.670  32.256  1.00  0.00     0.029 A 
ATOM     51  C   UNL A   1      42.487  28.713  32.957  1.00  0.00     0.049 A 
ATOM     52  H   UNL A   1      40.958  30.034  32.350  1.00  0.00     0.167 HD
ATOM     53  C   UNL A   1      42.170  30.225  34.896  1.00  0.00     0.074 A 
ATOM     54  C   UNL A   1      42.455  30.666  36.244  1.00  0.00     0.031 C 
ATOM     55  C   UNL A   1      42.769  29.167  34.295  1.00  0.00     0.037 A 
BRANCH  42  56
ATOM     56  C   UNL A   1      40.664  28.023  28.606  1.00  0.00     0.064 A 
ATOM     57  C   UNL A   1      39.953  26.816  28.539  1.00  0.00     0.173 A 
ATOM     58  C   UNL A   1      41.435  28.399  27.497  1.00  0.00     0.173 A 
ATOM     59  F   UNL A   1      39.221  26.404  29.584  1.00  0.00    -0.203 F 
ATOM     60  C   UNL A   1      40.038  26.002  27.412  1.00  0.00     0.198 A 
ATOM     61  C   UNL A   1      41.496  27.597  26.363  1.00  0.00     0.198 A 
ATOM     62  F   UNL A   1      42.133  29.545  27.517  1.00  0.00    -0.203 F 
ATOM     63  F   UNL A   1      39.393  24.828  27.387  1.00  0.00    -0.200 F 
ATOM     64  C   UNL A   1      40.805  26.394  26.324  1.00  0.00     0.200 A 
ATOM     65  F   UNL A   1      42.232  27.980  25.311  1.00  0.00    -0.200 F 
ATOM     66  F   UNL A   1      40.887  25.609  25.242  1.00  0.00    -0.200 F 
ENDBRANCH  42  56
BRANCH  43  67
ATOM     67  C   UNL A   1      39.803  33.934  36.564  1.00  0.00     0.064 A 
ATOM     68  C   UNL A   1      40.464  35.162  36.704  1.00  0.00     0.173 A 
ATOM     69  C   UNL A   1      38.975  33.514  37.615  1.00  0.00     0.173 A 
ATOM     70  F   UNL A   1      41.291  35.591  35.739  1.00  0.00    -0.203 F 
ATOM     71  C   UNL A   1      40.305  35.937  37.852  1.00  0.00     0.198 A 
ATOM     72  C   UNL A   1      38.798  34.300  38.751  1.00  0.00     0.198 A 
ATOM     73  F   UNL A   1      38.326  32.343  37.530  1.00  0.00    -0.203 F 
ATOM     74  F   UNL A   1      40.973  37.091  37.976  1.00  0.00    -0.200 F 
ATOM     75  C   UNL A   1      39.466  35.508  38.871  1.00  0.00     0.200 A 
ATOM     76  F   UNL A   1      37.979  33.886  39.727  1.00  0.00    -0.200 F 
ATOM     77  F   UNL A   1      39.307  36.258  39.970  1.00  0.00    -0.200 F 
ENDBRANCH  43  67
BRANCH  55  78
ATOM     78  C   UNL A   1      43.821  28.426  35.068  1.00  0.00     0.064 A 
ATOM     79  C   UNL A   1      43.509  27.297  35.838  1.00  0.00     0.173 A 
ATOM     80  C   UNL A   1      45.168  28.806  34.970  1.00  0.00     0.173 A 
ATOM     81  F   UNL A   1      42.234  26.902  35.972  1.00  0.00    -0.203 F 
ATOM     82  C   UNL A   1      44.509  26.578  36.489  1.00  0.00     0.198 A 
ATOM     83  C   UNL A   1      46.167  28.071  35.603  1.00  0.00     0.198 A 
ATOM     84  F   UNL A   1      45.518  29.875  34.240  1.00  0.00    -0.203 F 
ATOM     85  F   UNL A   1      44.187  25.516  37.241  1.00  0.00    -0.200 F 
ATOM     86  C   UNL A   1      45.837  26.960  36.364  1.00  0.00     0.200 A 
ATOM     87  F   UNL A   1      47.450  28.435  35.473  1.00  0.00    -0.200 F 
ATOM     88  F   UNL A   1      46.799  26.258  36.979  1.00  0.00    -0.200 F 
ENDBRANCH  55  78
ENDBRANCH  29  30
ENDBRANCH  22  24
ENDBRANCH  21  22
ENDBRANCH  20  21
ENDBRANCH   1  20
TORSDOF 15
ENDMDL
MODEL 2
REMARK VINA RESULT:     -12.5      1.455      7.569
REMARK SMILES C[C@H](CSc1ccc(C(=O)N(C)C)cn1)C(=O)OCCOC(=O)c1ccc(-c2c3nc(c(-c4c(F)c(F)c(F)c(F)c4F)c4ccc([nH]4)c(-c4c(F)c(F)c(F)c(F)c4F)c4nc(c(-c5c(F)c(F)c(F)c(F)c5F)c5ccc2[nH]5)C=C4)C=C3)cc1
REMARK SMILES IDX 19 1 18 2 16 3 17 4 2 5 1 6 3 7 4 8 5 9 6 10 15 11 7 12
REMARK SMILES IDX 14 13 8 14 9 15 10 16 11 17 12 18 13 19 20 20 21 21 22 22
REMARK SMILES IDX 23 23 24 24 25 25 86 26 26 27 85 28 27 29 28 30 29 31 79 32
REMARK SMILES IDX 30 33 84 34 78 35 80 36 31 37 83 38 77 39 76 40 32 42 64 43
REMARK SMILES IDX 44 44 63 45 45 46 48 47 62 48 81 49 46 50 47 51 61 53 82 54
REMARK SMILES IDX 49 55 33 56 34 57 42 58 35 59 36 60 40 61 43 62 37 63 38 64
REMARK SMILES IDX 41 65 39 66 65 67 66 68 74 69 67 70 68 71 72 72 75 73 69 74
REMARK SMILES IDX 70 75 73 76 71 77 50 78 51 79 59 80 52 81 53 82 57 83 60 84
REMARK SMILES IDX 54 85 55 86 58 87 56 88
REMARK H PARENT 80 41 48 52
REMARK Flexibility Score: inf
ROOT
ATOM      1  C   UNL A   1      31.882  30.832  26.340  1.00  0.00     0.274 C 
ENDROOT
BRANCH   1   2
ATOM      2  O   UNL A   1      32.580  29.984  27.281  1.00  0.00    -0.462 OA
BRANCH   2   3
ATOM      3  C   UNL A   1      33.214  28.915  26.750  1.00  0.00     0.309 C 
ATOM      4  O   UNL A   1      34.433  28.851  26.610  1.00  0.00    -0.252 OA
BRANCH   3   5
ATOM      5  C   UNL A   1      32.312  27.710  26.491  1.00  0.00     0.106 C 
ATOM      6  C   UNL A   1      31.287  27.570  27.611  1.00  0.00     0.021 C 
BRANCH   5   7
ATOM      7  C   UNL A   1      32.854  26.340  26.026  1.00  0.00     0.091 C 
BRANCH   7   8
ATOM      8  S   UNL A   1      32.170  25.379  24.651  1.00  0.00    -0.106 SA
BRANCH   8   9
ATOM      9  C   UNL A   1      31.056  26.530  23.882  1.00  0.00     0.096 A 
ATOM     10  C   UNL A   1      29.253  26.509  24.029  1.00  0.00     0.036 A 
ATOM     11  N   UNL A   1      31.875  27.848  23.046  1.00  0.00    -0.249 NA
ATOM     12  C   UNL A   1      28.298  27.882  23.338  1.00  0.00     0.018 A 
ATOM     13  C   UNL A   1      30.911  29.164  22.351  1.00  0.00     0.126 A 
ATOM     14  C   UNL A   1      29.126  29.208  22.453  1.00  0.00     0.058 A 
BRANCH  14  15
ATOM     15  C   UNL A   1      28.509  30.366  21.775  1.00  0.00     0.254 C 
ATOM     16  O   UNL A   1      28.081  30.134  20.643  1.00  0.00    -0.269 OA
ATOM     17  N   UNL A   1      28.453  31.638  22.335  1.00  0.00    -0.345 N 
ATOM     18  C   UNL A   1      29.011  32.046  23.608  1.00  0.00     0.146 C 
ATOM     19  C   UNL A   1      27.867  32.707  21.535  1.00  0.00     0.146 C 
ENDBRANCH  14  15
ENDBRANCH   8   9
ENDBRANCH   7   8
ENDBRANCH   5   7
ENDBRANCH   3   5
ENDBRANCH   2   3
ENDBRANCH   1   2
BRANCH   1  20
ATOM     20  C   UNL A   1      31.652  32.387  26.868  1.00  0.00     0.275 C 
BRANCH  20  21
ATOM     21  O   UNL A   1      33.044  33.730  27.444  1.00  0.00    -0.458 OA
BRANCH  21  22
ATOM     22  C   UNL A   1      34.145  34.369  28.068  1.00  0.00     0.338 C 
ATOM     23  O   UNL A   1      34.324  35.557  28.287  1.00  0.00    -0.246 OA
BRANCH  22  24
ATOM     24  C   UNL A   1      35.197  33.389  28.439  1.00  0.00     0.060 A 
ATOM     25  C   UNL A   1      34.889  32.034  28.638  1.00  0.00     0.016 A 
ATOM     26  C   UNL A   1      36.492  33.853  28.677  1.00  0.00     0.016 A 
ATOM     27  C   UNL A   1      35.881  31.134  29.044  1.00  0.00     0.010 A 
ATOM     28  C   UNL A   1      37.476  32.961  29.111  1.00  0.00     0.010 A 
ATOM     29  C   UNL A   1      37.171  31.602  29.320  1.00  0.00    -0.014 A 
BRANCH  29  30
ATOM     30  C   UNL A   1      38.141  30.759  30.062  1.00  0.00     0.031 A 
ATOM     31  C   UNL A   1      38.345  31.045  31.522  1.00  0.00     0.074 A 
ATOM     32  C   UNL A   1      38.863  29.797  29.463  1.00  0.00     0.049 A 
ATOM     33  N   UNL A   1      39.273  30.610  32.334  1.00  0.00    -0.248 NA
ATOM     34  C   UNL A   1      37.369  31.953  32.145  1.00  0.00     0.031 C 
ATOM     35  C   UNL A   1      38.716  29.361  28.079  1.00  0.00     0.029 A 
ATOM     36  N   UNL A   1      39.895  29.033  29.954  1.00  0.00    -0.354 N 
ATOM     37  C   UNL A   1      39.012  31.218  33.554  1.00  0.00     0.074 A 
ATOM     38  C   UNL A   1      37.836  32.044  33.379  1.00  0.00     0.031 C 
ATOM     39  C   UNL A   1      39.653  28.431  27.816  1.00  0.00     0.029 A 
ATOM     40  C   UNL A   1      40.495  28.249  29.000  1.00  0.00     0.049 A 
ATOM     41  H   UNL A   1      40.177  29.047  30.897  1.00  0.00     0.167 HD
ATOM     42  C   UNL A   1      39.699  31.111  34.715  1.00  0.00     0.037 A 
ATOM     43  C   UNL A   1      41.623  27.512  29.061  1.00  0.00     0.037 A 
ATOM     44  C   UNL A   1      40.868  30.296  34.897  1.00  0.00     0.049 A 
ATOM     45  C   UNL A   1      42.423  27.465  30.340  1.00  0.00     0.074 A 
ATOM     46  C   UNL A   1      41.625  30.115  36.039  1.00  0.00     0.029 A 
ATOM     47  N   UNL A   1      41.453  29.530  33.900  1.00  0.00    -0.354 N 
ATOM     48  N   UNL A   1      42.185  28.053  31.488  1.00  0.00    -0.248 NA
ATOM     49  C   UNL A   1      43.657  26.664  30.325  1.00  0.00     0.031 C 
ATOM     50  C   UNL A   1      42.697  29.272  35.723  1.00  0.00     0.029 A 
ATOM     51  C   UNL A   1      42.579  28.894  34.396  1.00  0.00     0.049 A 
ATOM     52  H   UNL A   1      41.118  29.451  32.978  1.00  0.00     0.167 HD
ATOM     53  C   UNL A   1      43.222  27.678  32.333  1.00  0.00     0.074 A 
ATOM     54  C   UNL A   1      44.091  26.808  31.571  1.00  0.00     0.031 C 
ATOM     55  C   UNL A   1      43.432  28.023  33.628  1.00  0.00     0.037 A 
BRANCH  42  56
ATOM     56  C   UNL A   1      39.227  31.951  35.862  1.00  0.00     0.064 A 
ATOM     57  C   UNL A   1      38.314  31.464  36.808  1.00  0.00     0.173 A 
ATOM     58  C   UNL A   1      39.689  33.267  36.005  1.00  0.00     0.173 A 
ATOM     59  F   UNL A   1      37.828  30.220  36.699  1.00  0.00    -0.203 F 
ATOM     60  C   UNL A   1      37.857  32.279  37.841  1.00  0.00     0.198 A 
ATOM     61  C   UNL A   1      39.251  34.069  37.053  1.00  0.00     0.198 A 
ATOM     62  F   UNL A   1      40.563  33.776  35.123  1.00  0.00    -0.203 F 
ATOM     63  F   UNL A   1      36.945  31.813  38.706  1.00  0.00    -0.200 F 
ATOM     64  C   UNL A   1      38.329  33.578  37.966  1.00  0.00     0.200 A 
ATOM     65  F   UNL A   1      39.712  35.321  37.176  1.00  0.00    -0.200 F 
ATOM     66  F   UNL A   1      37.886  34.360  38.959  1.00  0.00    -0.200 F 
ENDBRANCH  42  56
BRANCH  43  67
ATOM     67  C   UNL A   1      42.100  26.798  27.849  1.00  0.00     0.064 A 
ATOM     68  C   UNL A   1      42.960  27.419  26.934  1.00  0.00     0.173 A 
ATOM     69  C   UNL A   1      41.698  25.482  27.580  1.00  0.00     0.173 A 
ATOM     70  F   UNL A   1      43.346  28.688  27.133  1.00  0.00    -0.203 F 
ATOM     71  C   UNL A   1      43.400  26.750  25.793  1.00  0.00     0.198 A 
ATOM     72  C   UNL A   1      42.156  24.806  26.452  1.00  0.00     0.198 A 
ATOM     73  F   UNL A   1      40.869  24.847  28.422  1.00  0.00    -0.203 F 
ATOM     74  F   UNL A   1      44.197  27.375  24.917  1.00  0.00    -0.200 F 
ATOM     75  C   UNL A   1      43.003  25.441  25.557  1.00  0.00     0.200 A 
ATOM     76  F   UNL A   1      41.778  23.539  26.233  1.00  0.00    -0.200 F 
ATOM     77  F   UNL A   1      43.433  24.795  24.464  1.00  0.00    -0.200 F 
ENDBRANCH  43  67
BRANCH  55  78
ATOM     78  C   UNL A   1      44.624  27.437  34.325  1.00  0.00     0.064 A 
ATOM     79  C   UNL A   1      45.847  28.120  34.391  1.00  0.00     0.173 A 
ATOM     80  C   UNL A   1      44.517  26.212  35.003  1.00  0.00     0.173 A 
ATOM     81  F   UNL A   1      46.003  29.287  33.749  1.00  0.00    -0.203 F 
ATOM     82  C   UNL A   1      46.921  27.595  35.105  1.00  0.00     0.198 A 
ATOM     83  C   UNL A   1      45.585  25.702  35.734  1.00  0.00     0.198 A 
ATOM     84  F   UNL A   1      43.367  25.524  34.975  1.00  0.00    -0.203 F 
ATOM     85  F   UNL A   1      48.090  28.251  35.135  1.00  0.00    -0.200 F 
ATOM     86  C   UNL A   1      46.788  26.392  35.782  1.00  0.00     0.200 A 
ATOM     87  F   UNL A   1      45.451  24.545  36.398  1.00  0.00    -0.200 F 
ATOM     88  F   UNL A   1      47.818  25.895  36.481  1.00  0.00    -0.200 F 
ENDBRANCH  55  78
ENDBRANCH  29  30
ENDBRANCH  22  24
ENDBRANCH  21  22
ENDBRANCH  20  21
ENDBRANCH   1  20
TORSDOF 15
ENDMDL
MODEL 3
REMARK VINA RESULT:     -12.5      2.019      3.735
REMARK SMILES C[C@H](CSc1ccc(C(=O)N(C)C)cn1)C(=O)OCCOC(=O)c1ccc(-c2c3nc(c(-c4c(F)c(F)c(F)c(F)c4F)c4ccc([nH]4)c(-c4c(F)c(F)c(F)c(F)c4F)c4nc(c(-c5c(F)c(F)c(F)c(F)c5F)c5ccc2[nH]5)C=C4)C=C3)cc1
REMARK SMILES IDX 19 1 18 2 16 3 17 4 2 5 1 6 3 7 4 8 5 9 6 10 15 11 7 12
REMARK SMILES IDX 14 13 8 14 9 15 10 16 11 17 12 18 13 19 20 20 21 21 22 22
REMARK SMILES IDX 23 23 24 24 25 25 86 26 26 27 85 28 27 29 28 30 29 31 79 32
REMARK SMILES IDX 30 33 84 34 78 35 80 36 31 37 83 38 77 39 76 40 32 42 64 43
REMARK SMILES IDX 44 44 63 45 45 46 48 47 62 48 81 49 46 50 47 51 61 53 82 54
REMARK SMILES IDX 49 55 33 56 34 57 42 58 35 59 36 60 40 61 43 62 37 63 38 64
REMARK SMILES IDX 41 65 39 66 65 67 66 68 74 69 67 70 68 71 72 72 75 73 69 74
REMARK SMILES IDX 70 75 73 76 71 77 50 78 51 79 59 80 52 81 53 82 57 83 60 84
REMARK SMILES IDX 54 85 55 86 58 87 56 88
REMARK H PARENT 80 41 48 52
REMARK Flexibility Score: inf
ROOT
ATOM      1  C   UNL A   1      32.025  30.492  26.372  1.00  0.00     0.274 C 
ENDROOT
BRANCH   1   2
ATOM      2  O   UNL A   1      33.467  30.451  26.460  1.00  0.00    -0.462 OA
BRANCH   2   3
ATOM      3  C   UNL A   1      34.015  29.220  26.566  1.00  0.00     0.309 C 
ATOM      4  O   UNL A   1      34.721  28.871  27.508  1.00  0.00    -0.252 OA
BRANCH   3   5
ATOM      5  C   UNL A   1      33.548  28.228  25.503  1.00  0.00     0.106 C 
ATOM      6  C   UNL A   1      33.475  26.823  26.091  1.00  0.00     0.021 C 
BRANCH   5   7
ATOM      7  C   UNL A   1      34.096  28.224  24.058  1.00  0.00     0.091 C 
BRANCH   7   8
ATOM      8  S   UNL A   1      33.130  27.772  22.595  1.00  0.00    -0.106 SA
BRANCH   8   9
ATOM      9  C   UNL A   1      32.748  26.062  22.888  1.00  0.00     0.096 A 
ATOM     10  C   UNL A   1      31.119  25.406  23.323  1.00  0.00     0.036 A 
ATOM     11  N   UNL A   1      34.098  24.975  22.566  1.00  0.00    -0.249 NA
ATOM     12  C   UNL A   1      30.881  23.613  23.386  1.00  0.00     0.018 A 
ATOM     13  C   UNL A   1      33.842  23.224  22.665  1.00  0.00     0.126 A 
ATOM     14  C   UNL A   1      32.262  22.503  23.094  1.00  0.00     0.058 A 
BRANCH  14  15
ATOM     15  C   UNL A   1      32.269  21.028  23.165  1.00  0.00     0.254 C 
ATOM     16  O   UNL A   1      31.913  20.459  22.132  1.00  0.00    -0.269 OA
ATOM     17  N   UNL A   1      32.599  20.321  24.317  1.00  0.00    -0.345 N 
ATOM     18  C   UNL A   1      32.934  20.883  25.609  1.00  0.00     0.146 C 
ATOM     19  C   UNL A   1      32.510  18.866  24.268  1.00  0.00     0.146 C 
ENDBRANCH  14  15
ENDBRANCH   8   9
ENDBRANCH   7   8
ENDBRANCH   5   7
ENDBRANCH   3   5
ENDBRANCH   2   3
ENDBRANCH   1   2
BRANCH   1  20
ATOM     20  C   UNL A   1      31.370  31.995  26.625  1.00  0.00     0.275 C 
BRANCH  20  21
ATOM     21  O   UNL A   1      32.085  33.492  27.774  1.00  0.00    -0.458 OA
BRANCH  21  22
ATOM     22  C   UNL A   1      32.934  34.384  28.476  1.00  0.00     0.338 C 
ATOM     23  O   UNL A   1      32.758  35.562  28.748  1.00  0.00    -0.246 OA
BRANCH  22  24
ATOM     24  C   UNL A   1      34.206  33.725  28.865  1.00  0.00     0.060 A 
ATOM     25  C   UNL A   1      34.211  32.460  29.472  1.00  0.00     0.016 A 
ATOM     26  C   UNL A   1      35.402  34.425  28.697  1.00  0.00     0.016 A 
ATOM     27  C   UNL A   1      35.414  31.877  29.885  1.00  0.00     0.010 A 
ATOM     28  C   UNL A   1      36.601  33.857  29.137  1.00  0.00     0.010 A 
ATOM     29  C   UNL A   1      36.612  32.592  29.754  1.00  0.00    -0.014 A 
BRANCH  29  30
ATOM     30  C   UNL A   1      37.835  32.158  30.473  1.00  0.00     0.031 A 
ATOM     31  C   UNL A   1      38.657  31.061  29.859  1.00  0.00     0.074 A 
ATOM     32  C   UNL A   1      38.194  32.676  31.660  1.00  0.00     0.049 A 
ATOM     33  N   UNL A   1      39.632  30.361  30.378  1.00  0.00    -0.248 NA
ATOM     34  C   UNL A   1      38.326  30.706  28.471  1.00  0.00     0.031 C 
ATOM     35  C   UNL A   1      37.538  33.791  32.333  1.00  0.00     0.029 A 
ATOM     36  N   UNL A   1      39.195  32.297  32.523  1.00  0.00    -0.354 N 
ATOM     37  C   UNL A   1      40.006  29.459  29.392  1.00  0.00     0.074 A 
ATOM     38  C   UNL A   1      39.162  29.707  28.243  1.00  0.00     0.031 C 
ATOM     39  C   UNL A   1      38.128  33.984  33.527  1.00  0.00     0.029 A 
ATOM     40  C   UNL A   1      39.168  32.971  33.718  1.00  0.00     0.049 A 
ATOM     41  H   UNL A   1      39.865  31.610  32.305  1.00  0.00     0.167 HD
ATOM     42  C   UNL A   1      40.959  28.499  29.442  1.00  0.00     0.037 A 
ATOM     43  C   UNL A   1      39.865  32.758  34.854  1.00  0.00     0.037 A 
ATOM     44  C   UNL A   1      41.799  28.246  30.580  1.00  0.00     0.049 A 
ATOM     45  C   UNL A   1      40.867  31.633  34.922  1.00  0.00     0.074 A 
ATOM     46  C   UNL A   1      42.799  27.302  30.721  1.00  0.00     0.029 A 
ATOM     47  N   UNL A   1      41.728  28.939  31.779  1.00  0.00    -0.354 N 
ATOM     48  N   UNL A   1      41.209  30.771  33.995  1.00  0.00    -0.248 NA
ATOM     49  C   UNL A   1      41.570  31.443  36.201  1.00  0.00     0.031 C 
ATOM     50  C   UNL A   1      43.305  27.395  32.022  1.00  0.00     0.029 A 
ATOM     51  C   UNL A   1      42.650  28.426  32.674  1.00  0.00     0.049 A 
ATOM     52  H   UNL A   1      41.112  29.685  31.964  1.00  0.00     0.167 HD
ATOM     53  C   UNL A   1      42.176  29.953  34.569  1.00  0.00     0.074 A 
ATOM     54  C   UNL A   1      42.372  30.422  35.923  1.00  0.00     0.031 C 
ATOM     55  C   UNL A   1      42.842  28.908  34.018  1.00  0.00     0.037 A 
BRANCH  42  56
ATOM     56  C   UNL A   1      41.092  27.613  28.242  1.00  0.00     0.064 A 
ATOM     57  C   UNL A   1      40.408  26.393  28.145  1.00  0.00     0.173 A 
ATOM     58  C   UNL A   1      41.928  27.989  27.182  1.00  0.00     0.173 A 
ATOM     59  F   UNL A   1      39.615  25.981  29.145  1.00  0.00    -0.203 F 
ATOM     60  C   UNL A   1      40.582  25.566  27.038  1.00  0.00     0.198 A 
ATOM     61  C   UNL A   1      42.079  27.174  26.065  1.00  0.00     0.198 A 
ATOM     62  F   UNL A   1      42.603  29.148  27.231  1.00  0.00    -0.203 F 
ATOM     63  F   UNL A   1      39.960  24.380  26.986  1.00  0.00    -0.200 F 
ATOM     64  C   UNL A   1      41.413  25.958  25.998  1.00  0.00     0.200 A 
ATOM     65  F   UNL A   1      42.876  27.557  25.059  1.00  0.00    -0.200 F 
ATOM     66  F   UNL A   1      41.580  25.160  24.935  1.00  0.00    -0.200 F 
ENDBRANCH  42  56
BRANCH  43  67
ATOM     67  C   UNL A   1      39.596  33.600  36.048  1.00  0.00     0.064 A 
ATOM     68  C   UNL A   1      38.691  33.188  37.036  1.00  0.00     0.173 A 
ATOM     69  C   UNL A   1      40.235  34.836  36.221  1.00  0.00     0.173 A 
ATOM     70  F   UNL A   1      38.032  32.028  36.899  1.00  0.00    -0.203 F 
ATOM     71  C   UNL A   1      38.434  33.983  38.152  1.00  0.00     0.198 A 
ATOM     72  C   UNL A   1      39.996  35.619  37.348  1.00  0.00     0.198 A 
ATOM     73  F   UNL A   1      41.104  35.277  35.299  1.00  0.00    -0.203 F 
ATOM     74  F   UNL A   1      37.542  33.583  39.066  1.00  0.00    -0.200 F 
ATOM     75  C   UNL A   1      39.093  35.195  38.309  1.00  0.00     0.200 A 
ATOM     76  F   UNL A   1      40.641  36.783  37.501  1.00  0.00    -0.200 F 
ATOM     77  F   UNL A   1      38.852  35.955  39.387  1.00  0.00    -0.200 F 
ENDBRANCH  43  67
BRANCH  55  78
ATOM     78  C   UNL A   1      43.875  28.216  34.858  1.00  0.00     0.064 A 
ATOM     79  C   UNL A   1      45.198  28.678  34.926  1.00  0.00     0.173 A 
ATOM     80  C   UNL A   1      43.517  27.125  35.665  1.00  0.00     0.173 A 
ATOM     81  F   UNL A   1      45.592  29.709  34.164  1.00  0.00    -0.203 F 
ATOM     82  C   UNL A   1      46.125  28.067  35.767  1.00  0.00     0.198 A 
ATOM     83  C   UNL A   1      44.440  26.533  36.521  1.00  0.00     0.198 A 
ATOM     84  F   UNL A   1      42.263  26.651  35.641  1.00  0.00    -0.203 F 
ATOM     85  F   UNL A   1      47.391  28.508  35.798  1.00  0.00    -0.200 F 
ATOM     86  C   UNL A   1      45.744  27.002  36.569  1.00  0.00     0.200 A 
ATOM     87  F   UNL A   1      44.068  25.512  37.305  1.00  0.00    -0.200 F 
ATOM     88  F   UNL A   1      46.634  26.426  37.390  1.00  0.00    -0.200 F 
ENDBRANCH  55  78
ENDBRANCH  29  30
ENDBRANCH  22  24
ENDBRANCH  21  22
ENDBRANCH  20  21
ENDBRANCH   1  20
TORSDOF 15
ENDMDL
