MODEL 1
REMARK VINA RESULT:     -13.7      0.000      0.000
REMARK SMILES O=C1O[C@@H](c2ccc(O)c(O)c2)[C@H](C(=O)OCCOC(=O)c2ccc(-c3c4nc(c(-c5c(F)c(F)c(F)c(F)c5F)c5ccc([nH]5)c(-c5c(F)c(F)c(F)c(F)c5F)c5nc(c(-c6c(F)c(F)c(F)c(F)c6F)c6ccc3[nH]6)C=C5)C=C4)cc2)/C1=C\c1ccc(O)c(O)c1
REMARK SMILES IDX 17 1 16 2 14 3 15 4 13 5 1 6 2 7 3 8 85 9 4 10 86 11 5 12
REMARK SMILES IDX 6 13 12 14 7 15 10 16 8 17 11 18 9 20 87 22 88 23 94 24
REMARK SMILES IDX 89 25 92 26 90 27 93 28 91 30 18 32 19 33 20 34 21 35 22 36
REMARK SMILES IDX 23 37 84 38 24 39 83 40 25 41 26 42 27 43 77 44 28 45 82 46
REMARK SMILES IDX 76 47 78 48 29 49 81 50 75 51 74 52 30 54 62 55 42 56 61 57
REMARK SMILES IDX 43 58 46 59 60 60 79 61 44 62 45 63 59 65 80 66 47 67 31 68
REMARK SMILES IDX 32 69 40 70 33 71 34 72 38 73 41 74 35 75 36 76 39 77 37 78
REMARK SMILES IDX 63 79 64 80 72 81 65 82 66 83 70 84 73 85 67 86 68 87 71 88
REMARK SMILES IDX 69 89 48 90 49 91 57 92 50 93 51 94 55 95 58 96 52 97 53 98
REMARK SMILES IDX 56 99 54 100
REMARK H PARENT 11 19 9 21 93 29 91 31 78 53 46 64
REMARK Flexibility Score: inf
ROOT
ATOM      1  C   UNL A   1      31.619  30.167  25.543  1.00  0.00     0.274 C 
ENDROOT
BRANCH   1   2
ATOM      2  O   UNL A   1      31.410  29.002  26.375  1.00  0.00    -0.461 OA
BRANCH   2   3
ATOM      3  C   UNL A   1      32.256  27.952  26.167  1.00  0.00     0.318 C 
ATOM      4  O   UNL A   1      33.270  27.751  26.819  1.00  0.00    -0.251 OA
BRANCH   3   5
ATOM      5  C   UNL A   1      31.818  27.128  24.959  1.00  0.00     0.182 C 
ATOM      6  O   UNL A   1      29.634  24.840  26.533  1.00  0.00    -0.247 OA
ATOM      7  C   UNL A   1      30.537  25.379  25.942  1.00  0.00     0.335 C 
ATOM      8  O   UNL A   1      31.851  25.002  25.952  1.00  0.00    -0.453 OA
ATOM      9  C   UNL A   1      30.437  26.580  25.072  1.00  0.00     0.056 C 
ATOM     10  C   UNL A   1      32.607  25.823  25.036  1.00  0.00     0.226 C 
ATOM     11  C   UNL A   1      29.272  26.869  24.468  1.00  0.00     0.020 C 
BRANCH  10  12
ATOM     12  C   UNL A   1      32.779  25.114  23.698  1.00  0.00    -0.002 A 
ATOM     13  C   UNL A   1      32.942  23.716  23.653  1.00  0.00     0.012 A 
ATOM     14  C   UNL A   1      32.766  25.828  22.487  1.00  0.00     0.057 A 
ATOM     15  C   UNL A   1      33.155  23.054  22.440  1.00  0.00     0.050 A 
ATOM     16  C   UNL A   1      32.973  25.162  21.287  1.00  0.00     0.157 A 
ATOM     17  C   UNL A   1      33.178  23.788  21.262  1.00  0.00     0.157 A 
BRANCH  16  18
ATOM     18  O   UNL A   1      32.982  25.877  20.125  1.00  0.00    -0.504 OA
ATOM     19  H   UNL A   1      32.363  25.680  19.450  1.00  0.00     0.293 HD
ENDBRANCH  16  18
BRANCH  17  20
ATOM     20  O   UNL A   1      33.399  23.199  20.050  1.00  0.00    -0.504 OA
ATOM     21  H   UNL A   1      32.719  22.702  19.638  1.00  0.00     0.293 HD
ENDBRANCH  17  20
ENDBRANCH  10  12
BRANCH  11  22
ATOM     22  C   UNL A   1      29.012  27.981  23.546  1.00  0.00    -0.021 A 
ATOM     23  C   UNL A   1      27.744  28.523  23.328  1.00  0.00     0.012 A 
ATOM     24  C   UNL A   1      30.095  28.565  22.893  1.00  0.00     0.058 A 
ATOM     25  C   UNL A   1      27.577  29.613  22.452  1.00  0.00     0.051 A 
ATOM     26  C   UNL A   1      29.929  29.593  21.982  1.00  0.00     0.157 A 
ATOM     27  C   UNL A   1      28.676  30.132  21.772  1.00  0.00     0.157 A 
BRANCH  26  28
ATOM     28  O   UNL A   1      31.015  30.068  21.300  1.00  0.00    -0.504 OA
ATOM     29  H   UNL A   1      30.986  30.140  20.366  1.00  0.00     0.293 HD
ENDBRANCH  26  28
BRANCH  27  30
ATOM     30  O   UNL A   1      28.589  31.178  20.899  1.00  0.00    -0.504 OA
ATOM     31  H   UNL A   1      27.790  31.665  20.829  1.00  0.00     0.293 HD
ENDBRANCH  27  30
ENDBRANCH  11  22
ENDBRANCH   3   5
ENDBRANCH   2   3
ENDBRANCH   1   2
BRANCH   1  32
ATOM     32  C   UNL A   1      31.574  31.472  26.348  1.00  0.00     0.275 C 
BRANCH  32  33
ATOM     33  O   UNL A   1      32.384  31.404  27.544  1.00  0.00    -0.458 OA
BRANCH  33  34
ATOM     34  C   UNL A   1      33.287  32.404  27.623  1.00  0.00     0.338 C 
ATOM     35  O   UNL A   1      33.019  33.591  27.739  1.00  0.00    -0.246 OA
BRANCH  34  36
ATOM     36  C   UNL A   1      34.688  31.940  27.655  1.00  0.00     0.060 A 
ATOM     37  C   UNL A   1      34.901  30.578  27.854  1.00  0.00     0.016 A 
ATOM     38  C   UNL A   1      35.701  32.852  27.970  1.00  0.00     0.016 A 
ATOM     39  C   UNL A   1      36.041  30.153  28.540  1.00  0.00     0.010 A 
ATOM     40  C   UNL A   1      36.898  32.402  28.560  1.00  0.00     0.010 A 
ATOM     41  C   UNL A   1      37.058  31.053  28.919  1.00  0.00    -0.014 A 
BRANCH  41  42
ATOM     42  C   UNL A   1      38.244  30.562  29.694  1.00  0.00     0.031 A 
ATOM     43  C   UNL A   1      39.280  29.615  29.116  1.00  0.00     0.074 A 
ATOM     44  C   UNL A   1      38.438  31.029  30.942  1.00  0.00     0.049 A 
ATOM     45  N   UNL A   1      40.295  29.021  29.705  1.00  0.00    -0.248 NA
ATOM     46  C   UNL A   1      39.180  29.305  27.687  1.00  0.00     0.031 C 
ATOM     47  C   UNL A   1      37.575  31.996  31.622  1.00  0.00     0.029 A 
ATOM     48  N   UNL A   1      39.428  30.768  31.858  1.00  0.00    -0.354 N 
ATOM     49  C   UNL A   1      40.929  28.257  28.725  1.00  0.00     0.074 A 
ATOM     50  C   UNL A   1      40.191  28.467  27.499  1.00  0.00     0.031 C 
ATOM     51  C   UNL A   1      38.096  32.288  32.816  1.00  0.00     0.029 A 
ATOM     52  C   UNL A   1      39.238  31.416  33.051  1.00  0.00     0.049 A 
ATOM     53  H   UNL A   1      40.193  30.177  31.677  1.00  0.00     0.167 HD
ATOM     54  C   UNL A   1      42.014  27.448  28.841  1.00  0.00     0.037 A 
ATOM     55  C   UNL A   1      39.845  31.274  34.243  1.00  0.00     0.037 A 
ATOM     56  C   UNL A   1      42.756  27.251  30.066  1.00  0.00     0.049 A 
ATOM     57  C   UNL A   1      40.961  30.290  34.385  1.00  0.00     0.074 A 
ATOM     58  C   UNL A   1      43.867  26.453  30.287  1.00  0.00     0.029 A 
ATOM     59  N   UNL A   1      42.458  27.856  31.277  1.00  0.00    -0.354 N 
ATOM     60  N   UNL A   1      41.500  29.516  33.477  1.00  0.00    -0.248 NA
ATOM     61  C   UNL A   1      41.541  30.148  35.724  1.00  0.00     0.031 C 
ATOM     62  C   UNL A   1      44.201  26.526  31.643  1.00  0.00     0.029 A 
ATOM     63  C   UNL A   1      43.341  27.422  32.256  1.00  0.00     0.049 A 
ATOM     64  H   UNL A   1      41.726  28.499  31.422  1.00  0.00     0.167 HD
ATOM     65  C   UNL A   1      42.489  28.799  34.129  1.00  0.00     0.074 A 
ATOM     66  C   UNL A   1      42.488  29.247  35.508  1.00  0.00     0.031 C 
ATOM     67  C   UNL A   1      43.321  27.853  33.629  1.00  0.00     0.037 A 
BRANCH  54  68
ATOM     68  C   UNL A   1      42.461  26.658  27.638  1.00  0.00     0.064 A 
ATOM     69  C   UNL A   1      43.459  27.118  26.766  1.00  0.00     0.173 A 
ATOM     70  C   UNL A   1      41.960  25.362  27.424  1.00  0.00     0.173 A 
ATOM     71  F   UNL A   1      43.977  28.346  26.919  1.00  0.00    -0.203 F 
ATOM     72  C   UNL A   1      43.932  26.316  25.726  1.00  0.00     0.198 A 
ATOM     73  C   UNL A   1      42.453  24.554  26.402  1.00  0.00     0.198 A 
ATOM     74  F   UNL A   1      41.015  24.861  28.233  1.00  0.00    -0.203 F 
ATOM     75  F   UNL A   1      44.872  26.783  24.893  1.00  0.00    -0.200 F 
ATOM     76  C   UNL A   1      43.437  25.032  25.551  1.00  0.00     0.200 A 
ATOM     77  F   UNL A   1      41.987  23.306  26.250  1.00  0.00    -0.200 F 
ATOM     78  F   UNL A   1      43.910  24.255  24.568  1.00  0.00    -0.200 F 
ENDBRANCH  54  68
BRANCH  55  79
ATOM     79  C   UNL A   1      39.310  32.033  35.401  1.00  0.00     0.064 A 
ATOM     80  C   UNL A   1      38.452  31.435  36.329  1.00  0.00     0.173 A 
ATOM     81  C   UNL A   1      39.727  33.353  35.645  1.00  0.00     0.173 A 
ATOM     82  F   UNL A   1      38.006  30.187  36.124  1.00  0.00    -0.203 F 
ATOM     83  C   UNL A   1      38.042  32.124  37.469  1.00  0.00     0.198 A 
ATOM     84  C   UNL A   1      39.351  34.024  36.802  1.00  0.00     0.198 A 
ATOM     85  F   UNL A   1      40.551  33.968  34.782  1.00  0.00    -0.203 F 
ATOM     86  F   UNL A   1      37.202  31.542  38.334  1.00  0.00    -0.200 F 
ATOM     87  C   UNL A   1      38.506  33.409  37.713  1.00  0.00     0.200 A 
ATOM     88  F   UNL A   1      39.825  35.253  37.044  1.00  0.00    -0.200 F 
ATOM     89  F   UNL A   1      38.140  34.057  38.827  1.00  0.00    -0.200 F 
ENDBRANCH  55  79
BRANCH  67  90
ATOM     90  C   UNL A   1      44.317  27.263  34.582  1.00  0.00     0.064 A 
ATOM     91  C   UNL A   1      44.046  26.082  35.291  1.00  0.00     0.173 A 
ATOM     92  C   UNL A   1      45.546  27.899  34.810  1.00  0.00     0.173 A 
ATOM     93  F   UNL A   1      42.877  25.446  35.121  1.00  0.00    -0.203 F 
ATOM     94  C   UNL A   1      44.950  25.587  36.226  1.00  0.00     0.198 A 
ATOM     95  C   UNL A   1      46.461  27.383  35.723  1.00  0.00     0.198 A 
ATOM     96  F   UNL A   1      45.857  29.027  34.154  1.00  0.00    -0.203 F 
ATOM     97  F   UNL A   1      44.639  24.498  36.944  1.00  0.00    -0.200 F 
ATOM     98  C   UNL A   1      46.157  26.235  36.440  1.00  0.00     0.200 A 
ATOM     99  F   UNL A   1      47.632  28.005  35.920  1.00  0.00    -0.200 F 
ATOM    100  F   UNL A   1      47.021  25.764  37.349  1.00  0.00    -0.200 F 
ENDBRANCH  67  90
ENDBRANCH  41  42
ENDBRANCH  34  36
ENDBRANCH  33  34
ENDBRANCH  32  33
ENDBRANCH   1  32
TORSDOF 17
ENDMDL
MODEL 2
REMARK VINA RESULT:     -13.6      4.542     10.284
REMARK SMILES O=C1O[C@@H](c2ccc(O)c(O)c2)[C@H](C(=O)OCCOC(=O)c2ccc(-c3c4nc(c(-c5c(F)c(F)c(F)c(F)c5F)c5ccc([nH]5)c(-c5c(F)c(F)c(F)c(F)c5F)c5nc(c(-c6c(F)c(F)c(F)c(F)c6F)c6ccc3[nH]6)C=C5)C=C4)cc2)/C1=C\c1ccc(O)c(O)c1
REMARK SMILES IDX 17 1 16 2 14 3 15 4 13 5 1 6 2 7 3 8 85 9 4 10 86 11 5 12
REMARK SMILES IDX 6 13 12 14 7 15 10 16 8 17 11 18 9 20 87 22 88 23 94 24
REMARK SMILES IDX 89 25 92 26 90 27 93 28 91 30 18 32 19 33 20 34 21 35 22 36
REMARK SMILES IDX 23 37 84 38 24 39 83 40 25 41 26 42 27 43 77 44 28 45 82 46
REMARK SMILES IDX 76 47 78 48 29 49 81 50 75 51 74 52 30 54 62 55 42 56 61 57
REMARK SMILES IDX 43 58 46 59 60 60 79 61 44 62 45 63 59 65 80 66 47 67 31 68
REMARK SMILES IDX 32 69 40 70 33 71 34 72 38 73 41 74 35 75 36 76 39 77 37 78
REMARK SMILES IDX 63 79 64 80 72 81 65 82 66 83 70 84 73 85 67 86 68 87 71 88
REMARK SMILES IDX 69 89 48 90 49 91 57 92 50 93 51 94 55 95 58 96 52 97 53 98
REMARK SMILES IDX 56 99 54 100
REMARK H PARENT 11 19 9 21 93 29 91 31 78 53 46 64
REMARK Flexibility Score: inf
ROOT
ATOM      1  C   UNL A   1      36.300  20.764  25.080  1.00  0.00     0.274 C 
ENDROOT
BRANCH   1   2
ATOM      2  O   UNL A   1      36.211  21.836  24.111  1.00  0.00    -0.461 OA
BRANCH   2   3
ATOM      3  C   UNL A   1      35.643  22.997  24.546  1.00  0.00     0.318 C 
ATOM      4  O   UNL A   1      36.279  23.982  24.892  1.00  0.00    -0.251 OA
BRANCH   3   5
ATOM      5  C   UNL A   1      34.125  22.865  24.633  1.00  0.00     0.182 C 
ATOM      6  O   UNL A   1      33.269  23.355  21.240  1.00  0.00    -0.247 OA
ATOM      7  C   UNL A   1      33.413  23.439  22.435  1.00  0.00     0.335 C 
ATOM      8  O   UNL A   1      33.536  24.592  23.158  1.00  0.00    -0.453 OA
ATOM      9  C   UNL A   1      33.497  22.311  23.400  1.00  0.00     0.056 C 
ATOM     10  C   UNL A   1      33.577  24.289  24.569  1.00  0.00     0.226 C 
ATOM     11  C   UNL A   1      32.923  21.134  23.099  1.00  0.00     0.020 C 
BRANCH  10  12
ATOM     12  C   UNL A   1      32.199  24.459  25.195  1.00  0.00    -0.002 A 
ATOM     13  C   UNL A   1      31.379  25.541  24.819  1.00  0.00     0.012 A 
ATOM     14  C   UNL A   1      31.709  23.544  26.142  1.00  0.00     0.057 A 
ATOM     15  C   UNL A   1      30.134  25.745  25.420  1.00  0.00     0.050 A 
ATOM     16  C   UNL A   1      30.470  23.751  26.731  1.00  0.00     0.157 A 
ATOM     17  C   UNL A   1      29.691  24.849  26.384  1.00  0.00     0.157 A 
BRANCH  16  18
ATOM     18  O   UNL A   1      30.023  22.865  27.667  1.00  0.00    -0.504 OA
ATOM     19  H   UNL A   1      29.104  22.769  27.821  1.00  0.00     0.293 HD
ENDBRANCH  16  18
BRANCH  17  20
ATOM     20  O   UNL A   1      28.492  25.005  27.018  1.00  0.00    -0.504 OA
ATOM     21  H   UNL A   1      28.041  25.826  26.975  1.00  0.00     0.293 HD
ENDBRANCH  17  20
ENDBRANCH  10  12
BRANCH  11  22
ATOM     22  C   UNL A   1      32.870  19.939  23.950  1.00  0.00    -0.021 A 
ATOM     23  C   UNL A   1      32.760  19.986  25.341  1.00  0.00     0.012 A 
ATOM     24  C   UNL A   1      32.875  18.689  23.336  1.00  0.00     0.058 A 
ATOM     25  C   UNL A   1      32.682  18.795  26.089  1.00  0.00     0.051 A 
ATOM     26  C   UNL A   1      32.865  17.516  24.068  1.00  0.00     0.157 A 
ATOM     27  C   UNL A   1      32.751  17.564  25.443  1.00  0.00     0.157 A 
BRANCH  26  28
ATOM     28  O   UNL A   1      32.965  16.318  23.419  1.00  0.00    -0.504 OA
ATOM     29  H   UNL A   1      32.255  16.012  22.889  1.00  0.00     0.293 HD
ENDBRANCH  26  28
BRANCH  27  30
ATOM     30  O   UNL A   1      32.693  16.370  26.102  1.00  0.00    -0.504 OA
ATOM     31  H   UNL A   1      32.335  16.329  26.968  1.00  0.00     0.293 HD
ENDBRANCH  27  30
ENDBRANCH  11  22
ENDBRANCH   3   5
ENDBRANCH   2   3
ENDBRANCH   1   2
BRANCH   1  32
ATOM     32  C   UNL A   1      37.674  20.083  25.067  1.00  0.00     0.275 C 
BRANCH  32  33
ATOM     33  O   UNL A   1      38.758  21.039  25.054  1.00  0.00    -0.458 OA
BRANCH  33  34
ATOM     34  C   UNL A   1      39.636  20.849  26.062  1.00  0.00     0.338 C 
ATOM     35  O   UNL A   1      40.317  19.848  26.227  1.00  0.00    -0.246 OA
BRANCH  34  36
ATOM     36  C   UNL A   1      39.796  22.024  26.941  1.00  0.00     0.060 A 
ATOM     37  C   UNL A   1      39.177  23.206  26.540  1.00  0.00     0.016 A 
ATOM     38  C   UNL A   1      40.886  22.076  27.817  1.00  0.00     0.016 A 
ATOM     39  C   UNL A   1      39.764  24.432  26.861  1.00  0.00     0.010 A 
ATOM     40  C   UNL A   1      41.403  23.320  28.228  1.00  0.00     0.010 A 
ATOM     41  C   UNL A   1      40.894  24.518  27.699  1.00  0.00    -0.014 A 
BRANCH  41  42
ATOM     42  C   UNL A   1      41.519  25.852  27.980  1.00  0.00     0.031 A 
ATOM     43  C   UNL A   1      40.818  26.951  28.759  1.00  0.00     0.074 A 
ATOM     44  C   UNL A   1      42.787  26.068  27.581  1.00  0.00     0.049 A 
ATOM     45  N   UNL A   1      41.194  28.191  28.983  1.00  0.00    -0.248 NA
ATOM     46  C   UNL A   1      39.538  26.613  29.387  1.00  0.00     0.031 C 
ATOM     47  C   UNL A   1      43.626  25.094  26.881  1.00  0.00     0.029 A 
ATOM     48  N   UNL A   1      43.599  27.168  27.714  1.00  0.00    -0.354 N 
ATOM     49  C   UNL A   1      40.187  28.777  29.750  1.00  0.00     0.074 A 
ATOM     50  C   UNL A   1      39.185  27.755  29.963  1.00  0.00     0.031 C 
ATOM     51  C   UNL A   1      44.842  25.613  26.695  1.00  0.00     0.029 A 
ATOM     52  C   UNL A   1      44.823  27.006  27.119  1.00  0.00     0.049 A 
ATOM     53  H   UNL A   1      43.329  27.988  28.187  1.00  0.00     0.167 HD
ATOM     54  C   UNL A   1      40.101  30.048  30.220  1.00  0.00     0.037 A 
ATOM     55  C   UNL A   1      45.802  27.888  26.851  1.00  0.00     0.037 A 
ATOM     56  C   UNL A   1      41.110  31.062  30.015  1.00  0.00     0.049 A 
ATOM     57  C   UNL A   1      45.639  29.313  27.269  1.00  0.00     0.074 A 
ATOM     58  C   UNL A   1      41.117  32.379  30.449  1.00  0.00     0.029 A 
ATOM     59  N   UNL A   1      42.291  30.873  29.314  1.00  0.00    -0.354 N 
ATOM     60  N   UNL A   1      44.653  29.875  27.922  1.00  0.00    -0.248 NA
ATOM     61  C   UNL A   1      46.720  30.232  26.897  1.00  0.00     0.031 C 
ATOM     62  C   UNL A   1      42.269  33.001  29.957  1.00  0.00     0.029 A 
ATOM     63  C   UNL A   1      43.015  32.057  29.273  1.00  0.00     0.049 A 
ATOM     64  H   UNL A   1      42.575  30.023  28.905  1.00  0.00     0.167 HD
ATOM     65  C   UNL A   1      44.994  31.211  28.047  1.00  0.00     0.074 A 
ATOM     66  C   UNL A   1      46.291  31.371  27.420  1.00  0.00     0.031 C 
ATOM     67  C   UNL A   1      44.293  32.215  28.629  1.00  0.00     0.037 A 
BRANCH  54  68
ATOM     68  C   UNL A   1      38.858  30.463  30.965  1.00  0.00     0.064 A 
ATOM     69  C   UNL A   1      38.781  30.448  32.365  1.00  0.00     0.173 A 
ATOM     70  C   UNL A   1      37.764  30.998  30.261  1.00  0.00     0.173 A 
ATOM     71  F   UNL A   1      39.793  29.951  33.092  1.00  0.00    -0.203 F 
ATOM     72  C   UNL A   1      37.659  30.944  33.030  1.00  0.00     0.198 A 
ATOM     73  C   UNL A   1      36.657  31.517  30.928  1.00  0.00     0.198 A 
ATOM     74  F   UNL A   1      37.785  31.053  28.921  1.00  0.00    -0.203 F 
ATOM     75  F   UNL A   1      37.599  30.902  34.368  1.00  0.00    -0.200 F 
ATOM     76  C   UNL A   1      36.603  31.487  32.312  1.00  0.00     0.200 A 
ATOM     77  F   UNL A   1      35.648  32.060  30.232  1.00  0.00    -0.200 F 
ATOM     78  F   UNL A   1      35.537  31.986  32.954  1.00  0.00    -0.200 F 
ENDBRANCH  54  68
BRANCH  55  79
ATOM     79  C   UNL A   1      46.968  27.428  26.055  1.00  0.00     0.064 A 
ATOM     80  C   UNL A   1      47.012  27.594  24.667  1.00  0.00     0.173 A 
ATOM     81  C   UNL A   1      48.100  26.891  26.691  1.00  0.00     0.173 A 
ATOM     82  F   UNL A   1      45.944  28.075  24.014  1.00  0.00    -0.203 F 
ATOM     83  C   UNL A   1      48.155  27.255  23.945  1.00  0.00     0.198 A 
ATOM     84  C   UNL A   1      49.254  26.593  25.975  1.00  0.00     0.198 A 
ATOM     85  F   UNL A   1      48.104  26.714  28.022  1.00  0.00    -0.203 F 
ATOM     86  F   UNL A   1      48.170  27.400  22.614  1.00  0.00    -0.200 F 
ATOM     87  C   UNL A   1      49.280  26.773  24.601  1.00  0.00     0.200 A 
ATOM     88  F   UNL A   1      50.344  26.156  26.619  1.00  0.00    -0.200 F 
ATOM     89  F   UNL A   1      50.390  26.483  23.910  1.00  0.00    -0.200 F 
ENDBRANCH  55  79
BRANCH  67  90
ATOM     90  C   UNL A   1      44.937  33.570  28.634  1.00  0.00     0.064 A 
ATOM     91  C   UNL A   1      44.680  34.509  27.623  1.00  0.00     0.173 A 
ATOM     92  C   UNL A   1      45.842  33.923  29.645  1.00  0.00     0.173 A 
ATOM     93  F   UNL A   1      43.836  34.211  26.623  1.00  0.00    -0.203 F 
ATOM     94  C   UNL A   1      45.341  35.733  27.602  1.00  0.00     0.198 A 
ATOM     95  C   UNL A   1      46.477  35.161  29.637  1.00  0.00     0.198 A 
ATOM     96  F   UNL A   1      46.117  33.063  30.638  1.00  0.00    -0.203 F 
ATOM     97  F   UNL A   1      45.135  36.586  26.588  1.00  0.00    -0.200 F 
ATOM     98  C   UNL A   1      46.237  36.060  28.608  1.00  0.00     0.200 A 
ATOM     99  F   UNL A   1      47.333  35.479  30.618  1.00  0.00    -0.200 F 
ATOM    100  F   UNL A   1      46.881  37.234  28.580  1.00  0.00    -0.200 F 
ENDBRANCH  67  90
ENDBRANCH  41  42
ENDBRANCH  34  36
ENDBRANCH  33  34
ENDBRANCH  32  33
ENDBRANCH   1  32
TORSDOF 17
ENDMDL
MODEL 3
REMARK VINA RESULT:     -13.2      4.652     10.238
REMARK SMILES O=C1O[C@@H](c2ccc(O)c(O)c2)[C@H](C(=O)OCCOC(=O)c2ccc(-c3c4nc(c(-c5c(F)c(F)c(F)c(F)c5F)c5ccc([nH]5)c(-c5c(F)c(F)c(F)c(F)c5F)c5nc(c(-c6c(F)c(F)c(F)c(F)c6F)c6ccc3[nH]6)C=C5)C=C4)cc2)/C1=C\c1ccc(O)c(O)c1
REMARK SMILES IDX 17 1 16 2 14 3 15 4 13 5 1 6 2 7 3 8 85 9 4 10 86 11 5 12
REMARK SMILES IDX 6 13 12 14 7 15 10 16 8 17 11 18 9 20 87 22 88 23 94 24
REMARK SMILES IDX 89 25 92 26 90 27 93 28 91 30 18 32 19 33 20 34 21 35 22 36
REMARK SMILES IDX 23 37 84 38 24 39 83 40 25 41 26 42 27 43 77 44 28 45 82 46
REMARK SMILES IDX 76 47 78 48 29 49 81 50 75 51 74 52 30 54 62 55 42 56 61 57
REMARK SMILES IDX 43 58 46 59 60 60 79 61 44 62 45 63 59 65 80 66 47 67 31 68
REMARK SMILES IDX 32 69 40 70 33 71 34 72 38 73 41 74 35 75 36 76 39 77 37 78
REMARK SMILES IDX 63 79 64 80 72 81 65 82 66 83 70 84 73 85 67 86 68 87 71 88
REMARK SMILES IDX 69 89 48 90 49 91 57 92 50 93 51 94 55 95 58 96 52 97 53 98
REMARK SMILES IDX 56 99 54 100
REMARK H PARENT 11 19 9 21 93 29 91 31 78 53 46 64
REMARK Flexibility Score: inf
ROOT
ATOM      1  C   UNL A   1      36.503  20.984  25.274  1.00  0.00     0.274 C 
ENDROOT
BRANCH   1   2
ATOM      2  O   UNL A   1      36.237  21.959  24.238  1.00  0.00    -0.461 OA
BRANCH   2   3
ATOM      3  C   UNL A   1      35.651  23.123  24.640  1.00  0.00     0.318 C 
ATOM      4  O   UNL A   1      36.273  24.119  24.982  1.00  0.00    -0.251 OA
BRANCH   3   5
ATOM      5  C   UNL A   1      34.133  22.980  24.700  1.00  0.00     0.182 C 
ATOM      6  O   UNL A   1      33.336  23.480  21.293  1.00  0.00    -0.247 OA
ATOM      7  C   UNL A   1      33.457  23.559  22.492  1.00  0.00     0.335 C 
ATOM      8  O   UNL A   1      33.559  24.710  23.221  1.00  0.00    -0.453 OA
ATOM      9  C   UNL A   1      33.531  22.428  23.453  1.00  0.00     0.056 C 
ATOM     10  C   UNL A   1      33.577  24.401  24.632  1.00  0.00     0.226 C 
ATOM     11  C   UNL A   1      32.971  21.248  23.137  1.00  0.00     0.020 C 
BRANCH  10  12
ATOM     12  C   UNL A   1      32.186  24.560  25.233  1.00  0.00    -0.002 A 
ATOM     13  C   UNL A   1      31.388  25.667  24.888  1.00  0.00     0.012 A 
ATOM     14  C   UNL A   1      31.665  23.609  26.126  1.00  0.00     0.057 A 
ATOM     15  C   UNL A   1      30.131  25.859  25.469  1.00  0.00     0.050 A 
ATOM     16  C   UNL A   1      30.414  23.804  26.695  1.00  0.00     0.157 A 
ATOM     17  C   UNL A   1      29.656  24.925  26.381  1.00  0.00     0.157 A 
BRANCH  16  18
ATOM     18  O   UNL A   1      29.936  22.881  27.580  1.00  0.00    -0.504 OA
ATOM     19  H   UNL A   1      30.337  22.036  27.638  1.00  0.00     0.293 HD
ENDBRANCH  16  18
BRANCH  17  20
ATOM     20  O   UNL A   1      28.444  25.067  26.994  1.00  0.00    -0.504 OA
ATOM     21  H   UNL A   1      28.105  24.377  27.529  1.00  0.00     0.293 HD
ENDBRANCH  17  20
ENDBRANCH  10  12
BRANCH  11  22
ATOM     22  C   UNL A   1      32.911  20.050  23.982  1.00  0.00    -0.021 A 
ATOM     23  C   UNL A   1      32.874  20.089  25.377  1.00  0.00     0.012 A 
ATOM     24  C   UNL A   1      32.831  18.806  23.360  1.00  0.00     0.058 A 
ATOM     25  C   UNL A   1      32.784  18.896  26.120  1.00  0.00     0.051 A 
ATOM     26  C   UNL A   1      32.808  17.628  24.085  1.00  0.00     0.157 A 
ATOM     27  C   UNL A   1      32.766  17.668  25.464  1.00  0.00     0.157 A 
BRANCH  26  28
ATOM     28  O   UNL A   1      32.822  16.432  23.423  1.00  0.00    -0.504 OA
ATOM     29  H   UNL A   1      33.382  15.741  23.718  1.00  0.00     0.293 HD
ENDBRANCH  26  28
BRANCH  27  30
ATOM     30  O   UNL A   1      32.691  16.472  26.117  1.00  0.00    -0.504 OA
ATOM     31  H   UNL A   1      31.857  16.129  26.373  1.00  0.00     0.293 HD
ENDBRANCH  27  30
ENDBRANCH  11  22
ENDBRANCH   3   5
ENDBRANCH   2   3
ENDBRANCH   1   2
BRANCH   1  32
ATOM     32  C   UNL A   1      37.924  20.414  25.184  1.00  0.00     0.275 C 
BRANCH  32  33
ATOM     33  O   UNL A   1      38.932  21.449  25.237  1.00  0.00    -0.458 OA
BRANCH  33  34
ATOM     34  C   UNL A   1      39.822  21.265  26.235  1.00  0.00     0.338 C 
ATOM     35  O   UNL A   1      40.506  20.265  26.396  1.00  0.00    -0.246 OA
BRANCH  34  36
ATOM     36  C   UNL A   1      39.988  22.442  27.109  1.00  0.00     0.060 A 
ATOM     37  C   UNL A   1      39.363  23.622  26.711  1.00  0.00     0.016 A 
ATOM     38  C   UNL A   1      41.087  22.500  27.973  1.00  0.00     0.016 A 
ATOM     39  C   UNL A   1      39.950  24.850  27.022  1.00  0.00     0.010 A 
ATOM     40  C   UNL A   1      41.606  23.746  28.375  1.00  0.00     0.010 A 
ATOM     41  C   UNL A   1      41.089  24.941  27.848  1.00  0.00    -0.014 A 
BRANCH  41  42
ATOM     42  C   UNL A   1      41.714  26.277  28.119  1.00  0.00     0.031 A 
ATOM     43  C   UNL A   1      40.996  27.398  28.848  1.00  0.00     0.074 A 
ATOM     44  C   UNL A   1      42.996  26.476  27.757  1.00  0.00     0.049 A 
ATOM     45  N   UNL A   1      41.373  28.642  29.055  1.00  0.00    -0.248 NA
ATOM     46  C   UNL A   1      39.693  27.084  29.441  1.00  0.00     0.031 C 
ATOM     47  C   UNL A   1      43.850  25.479  27.108  1.00  0.00     0.029 A 
ATOM     48  N   UNL A   1      43.811  27.573  27.891  1.00  0.00    -0.354 N 
ATOM     49  C   UNL A   1      40.345  29.252  29.774  1.00  0.00     0.074 A 
ATOM     50  C   UNL A   1      39.330  28.242  29.978  1.00  0.00     0.031 C 
ATOM     51  C   UNL A   1      45.076  25.986  26.951  1.00  0.00     0.029 A 
ATOM     52  C   UNL A   1      45.053  27.389  27.341  1.00  0.00     0.049 A 
ATOM     53  H   UNL A   1      43.532  28.405  28.336  1.00  0.00     0.167 HD
ATOM     54  C   UNL A   1      40.253  30.534  30.211  1.00  0.00     0.037 A 
ATOM     55  C   UNL A   1      46.047  28.258  27.085  1.00  0.00     0.037 A 
ATOM     56  C   UNL A   1      41.276  31.537  30.016  1.00  0.00     0.049 A 
ATOM     57  C   UNL A   1      45.880  29.694  27.464  1.00  0.00     0.074 A 
ATOM     58  C   UNL A   1      41.278  32.863  30.419  1.00  0.00     0.029 A 
ATOM     59  N   UNL A   1      42.477  31.323  29.360  1.00  0.00    -0.354 N 
ATOM     60  N   UNL A   1      44.877  30.277  28.070  1.00  0.00    -0.248 NA
ATOM     61  C   UNL A   1      46.980  30.596  27.107  1.00  0.00     0.031 C 
ATOM     62  C   UNL A   1      42.450  33.466  29.952  1.00  0.00     0.029 A 
ATOM     63  C   UNL A   1      43.211  32.501  29.315  1.00  0.00     0.049 A 
ATOM     64  H   UNL A   1      42.769  30.462  28.980  1.00  0.00     0.167 HD
ATOM     65  C   UNL A   1      45.223  31.614  28.175  1.00  0.00     0.074 A 
ATOM     66  C   UNL A   1      46.542  31.750  27.588  1.00  0.00     0.031 C 
ATOM     67  C   UNL A   1      44.511  32.635  28.710  1.00  0.00     0.037 A 
BRANCH  54  68
ATOM     68  C   UNL A   1      38.989  30.975  30.905  1.00  0.00     0.064 A 
ATOM     69  C   UNL A   1      37.863  31.423  30.199  1.00  0.00     0.173 A 
ATOM     70  C   UNL A   1      38.868  30.832  32.299  1.00  0.00     0.173 A 
ATOM     71  F   UNL A   1      37.917  31.579  28.868  1.00  0.00    -0.203 F 
ATOM     72  C   UNL A   1      36.669  31.716  30.861  1.00  0.00     0.198 A 
ATOM     73  C   UNL A   1      37.667  31.099  32.952  1.00  0.00     0.198 A 
ATOM     74  F   UNL A   1      39.906  30.393  33.026  1.00  0.00    -0.203 F 
ATOM     75  F   UNL A   1      35.611  32.161  30.169  1.00  0.00    -0.200 F 
ATOM     76  C   UNL A   1      36.569  31.544  32.234  1.00  0.00     0.200 A 
ATOM     77  F   UNL A   1      37.568  30.911  34.276  1.00  0.00    -0.200 F 
ATOM     78  F   UNL A   1      35.414  31.802  32.863  1.00  0.00    -0.200 F 
ENDBRANCH  54  68
BRANCH  55  79
ATOM     79  C   UNL A   1      47.235  27.772  26.339  1.00  0.00     0.064 A 
ATOM     80  C   UNL A   1      48.332  27.213  27.002  1.00  0.00     0.173 A 
ATOM     81  C   UNL A   1      47.248  27.778  24.934  1.00  0.00     0.173 A 
ATOM     82  F   UNL A   1      48.376  27.210  28.343  1.00  0.00    -0.203 F 
ATOM     83  C   UNL A   1      49.394  26.663  26.286  1.00  0.00     0.198 A 
ATOM     84  C   UNL A   1      48.287  27.192  24.221  1.00  0.00     0.198 A 
ATOM     85  F   UNL A   1      46.216  28.304  24.255  1.00  0.00    -0.203 F 
ATOM     86  F   UNL A   1      50.445  26.154  26.940  1.00  0.00    -0.200 F 
ATOM     87  C   UNL A   1      49.361  26.637  24.899  1.00  0.00     0.200 A 
ATOM     88  F   UNL A   1      48.236  27.146  22.884  1.00  0.00    -0.200 F 
ATOM     89  F   UNL A   1      50.365  26.075  24.213  1.00  0.00    -0.200 F 
ENDBRANCH  55  79
BRANCH  67  90
ATOM     90  C   UNL A   1      45.164  33.986  28.704  1.00  0.00     0.064 A 
ATOM     91  C   UNL A   1      46.025  34.389  29.737  1.00  0.00     0.173 A 
ATOM     92  C   UNL A   1      44.905  34.897  27.670  1.00  0.00     0.173 A 
ATOM     93  F   UNL A   1      46.290  33.560  30.758  1.00  0.00    -0.203 F 
ATOM     94  C   UNL A   1      46.565  35.672  29.755  1.00  0.00     0.198 A 
ATOM     95  C   UNL A   1      45.473  36.168  27.676  1.00  0.00     0.198 A 
ATOM     96  F   UNL A   1      44.094  34.558  26.657  1.00  0.00    -0.203 F 
ATOM     97  F   UNL A   1      47.327  36.061  30.788  1.00  0.00    -0.200 F 
ATOM     98  C   UNL A   1      46.291  36.559  28.726  1.00  0.00     0.200 A 
ATOM     99  F   UNL A   1      45.214  37.019  26.674  1.00  0.00    -0.200 F 
ATOM    100  F   UNL A   1      46.801  37.797  28.751  1.00  0.00    -0.200 F 
ENDBRANCH  67  90
ENDBRANCH  41  42
ENDBRANCH  34  36
ENDBRANCH  33  34
ENDBRANCH  32  33
ENDBRANCH   1  32
TORSDOF 17
ENDMDL
