MODEL 1
REMARK VINA RESULT:     -13.8      0.000      0.000
REMARK SMILES C[C@@]12CC/C(=N\OCC(=O)N[C@@H](CO)C(=O)OCCOC(=O)c3ccc(-c4c5nc(c(-c6c(F)c(F)c(F)c(F)c6F)c6ccc([nH]6)c(-c6c(F)c(F)c(F)c(F)c6F)c6nc(c(-c7c(F)c(F)c(F)c(F)c7F)c7ccc4[nH]7)C=C6)C=C5)cc3)C=C1CC[C@H]1[C@H]2CC[C@]2(C)[C@H]1CC[C@@]2(C)O
REMARK SMILES IDX 17 1 15 2 16 3 12 4 11 5 9 6 10 7 8 9 7 10 6 11 1 12 2 13
REMARK SMILES IDX 3 14 87 15 91 16 4 17 86 18 88 19 90 20 92 21 5 22 89 23
REMARK SMILES IDX 96 24 93 25 94 26 97 27 99 28 95 29 98 30 100 31 101 32
REMARK SMILES IDX 13 34 14 35 18 37 19 38 20 39 21 40 22 41 23 42 24 43 85 44
REMARK SMILES IDX 25 45 84 46 26 47 27 48 28 49 78 50 29 51 83 52 77 53 79 54
REMARK SMILES IDX 30 55 82 56 76 57 75 58 31 60 63 61 43 62 62 63 44 64 47 65
REMARK SMILES IDX 61 66 80 67 45 68 46 69 60 71 81 72 48 73 32 74 33 75 41 76
REMARK SMILES IDX 34 77 35 78 39 79 42 80 36 81 37 82 40 83 38 84 64 85 65 86
REMARK SMILES IDX 73 87 66 88 67 89 71 90 74 91 68 92 69 93 72 94 70 95 49 96
REMARK SMILES IDX 50 97 58 98 51 99 52 100 56 101 59 102 53 103 54 104 57 105
REMARK SMILES IDX 55 106
REMARK H PARENT 11 8 101 33 14 36 79 59 47 70
REMARK Flexibility Score: inf
ROOT
ATOM      1  O   UNL A   1      42.929  22.583  26.117  1.00  0.00    -0.460 OA
ENDROOT
BRANCH   1   2
ATOM      2  C   UNL A   1      42.411  21.305  25.910  1.00  0.00     0.331 C 
ATOM      3  O   UNL A   1      43.057  20.404  25.375  1.00  0.00    -0.250 OA
BRANCH   2   4
ATOM      4  C   UNL A   1      41.059  20.999  26.693  1.00  0.00     0.218 C 
BRANCH   4   5
ATOM      5  N   UNL A   1      40.095  22.058  27.098  1.00  0.00    -0.338 N 
ATOM      6  C   UNL A   1      39.116  22.853  26.538  1.00  0.00     0.261 C 
ATOM      7  O   UNL A   1      38.882  23.847  27.254  1.00  0.00    -0.271 OA
ATOM      8  H   UNL A   1      40.182  22.248  28.061  1.00  0.00     0.164 HD
BRANCH   6   9
ATOM      9  C   UNL A   1      38.083  22.600  25.275  1.00  0.00     0.363 C 
BRANCH   9  10
ATOM     10  O   UNL A   1      36.698  22.244  25.012  1.00  0.00    -0.385 OA
BRANCH  10  11
ATOM     11  N   UNL A   1      35.887  21.836  26.124  1.00  0.00    -0.091 NA
ATOM     12  C   UNL A   1      34.108  23.926  25.838  1.00  0.00     0.016 C 
ATOM     13  C   UNL A   1      33.087  23.029  25.107  1.00  0.00    -0.008 C 
ATOM     14  C   UNL A   1      33.625  22.078  23.958  1.00  0.00     0.018 C 
ATOM     15  C   UNL A   1      32.622  22.244  26.302  1.00  0.00    -0.062 C 
ATOM     16  C   UNL A   1      32.065  23.988  24.457  1.00  0.00     0.002 C 
ATOM     17  C   UNL A   1      34.373  20.839  24.414  1.00  0.00     0.061 C 
ATOM     18  C   UNL A   1      33.507  21.283  26.718  1.00  0.00     0.027 C 
ATOM     19  C   UNL A   1      31.501  22.924  27.107  1.00  0.00     0.032 C 
ATOM     20  C   UNL A   1      31.575  25.023  25.480  1.00  0.00    -0.003 C 
ATOM     21  C   UNL A   1      32.702  24.575  23.221  1.00  0.00     0.005 C 
ATOM     22  C   UNL A   1      34.770  21.209  25.804  1.00  0.00     0.080 C 
ATOM     23  C   UNL A   1      30.759  24.203  26.501  1.00  0.00     0.008 C 
ATOM     24  C   UNL A   1      31.041  26.349  24.904  1.00  0.00     0.001 C 
ATOM     25  C   UNL A   1      31.948  25.751  22.690  1.00  0.00     0.010 C 
ATOM     26  C   UNL A   1      31.821  26.915  23.669  1.00  0.00    -0.001 C 
ATOM     27  C   UNL A   1      29.600  26.386  24.406  1.00  0.00     0.007 C 
ATOM     28  C   UNL A   1      30.899  28.206  23.391  1.00  0.00     0.068 C 
ATOM     29  C   UNL A   1      33.263  27.262  23.922  1.00  0.00     0.015 C 
ATOM     30  C   UNL A   1      29.520  27.553  23.402  1.00  0.00     0.036 C 
ATOM     31  C   UNL A   1      30.978  29.224  22.231  1.00  0.00     0.042 C 
BRANCH  28  32
ATOM     32  O   UNL A   1      31.030  29.067  24.545  1.00  0.00    -0.390 OA
ATOM     33  H   UNL A   1      31.675  28.686  25.161  1.00  0.00     0.211 HD
ENDBRANCH  28  32
ENDBRANCH  10  11
ENDBRANCH   9  10
ENDBRANCH   6   9
ENDBRANCH   4   5
BRANCH   4  34
ATOM     34  C   UNL A   1      40.333  19.745  26.125  1.00  0.00     0.193 C 
BRANCH  34  35
ATOM     35  O   UNL A   1      41.154  18.593  25.981  1.00  0.00    -0.394 OA
ATOM     36  H   UNL A   1      41.866  18.779  25.347  1.00  0.00     0.210 HD
ENDBRANCH  34  35
ENDBRANCH   4  34
ENDBRANCH   2   4
ENDBRANCH   1   2
BRANCH   1  37
ATOM     37  C   UNL A   1      43.406  23.272  24.906  1.00  0.00     0.274 C 
BRANCH  37  38
ATOM     38  C   UNL A   1      43.898  24.822  25.001  1.00  0.00     0.275 C 
BRANCH  38  39
ATOM     39  O   UNL A   1      43.018  26.141  25.150  1.00  0.00    -0.458 OA
BRANCH  39  40
ATOM     40  C   UNL A   1      42.238  27.233  25.341  1.00  0.00     0.338 C 
ATOM     41  O   UNL A   1      42.531  28.201  24.626  1.00  0.00    -0.246 OA
BRANCH  40  42
ATOM     42  C   UNL A   1      41.035  27.609  26.277  1.00  0.00     0.060 A 
ATOM     43  C   UNL A   1      40.512  28.855  26.503  1.00  0.00     0.016 A 
ATOM     44  C   UNL A   1      40.568  26.723  27.257  1.00  0.00     0.016 A 
ATOM     45  C   UNL A   1      39.983  29.328  27.755  1.00  0.00     0.010 A 
ATOM     46  C   UNL A   1      39.944  27.167  28.486  1.00  0.00     0.010 A 
ATOM     47  C   UNL A   1      39.858  28.525  28.858  1.00  0.00    -0.014 A 
BRANCH  47  48
ATOM     48  C   UNL A   1      39.754  29.043  30.317  1.00  0.00     0.031 A 
ATOM     49  C   UNL A   1      38.626  30.025  30.597  1.00  0.00     0.074 A 
ATOM     50  C   UNL A   1      40.398  28.655  31.462  1.00  0.00     0.049 A 
ATOM     51  N   UNL A   1      38.575  31.054  31.404  1.00  0.00    -0.248 NA
ATOM     52  C   UNL A   1      37.392  29.820  29.821  1.00  0.00     0.031 C 
ATOM     53  C   UNL A   1      41.268  27.496  31.679  1.00  0.00     0.029 A 
ATOM     54  N   UNL A   1      40.404  29.251  32.729  1.00  0.00    -0.354 N 
ATOM     55  C   UNL A   1      37.401  31.725  31.073  1.00  0.00     0.074 A 
ATOM     56  C   UNL A   1      36.749  30.956  30.037  1.00  0.00     0.031 C 
ATOM     57  C   UNL A   1      41.732  27.482  32.941  1.00  0.00     0.029 A 
ATOM     58  C   UNL A   1      41.300  28.689  33.625  1.00  0.00     0.049 A 
ATOM     59  H   UNL A   1      39.819  30.009  32.965  1.00  0.00     0.167 HD
ATOM     60  C   UNL A   1      36.944  32.901  31.565  1.00  0.00     0.037 A 
ATOM     61  C   UNL A   1      41.795  29.115  34.813  1.00  0.00     0.037 A 
ATOM     62  C   UNL A   1      37.512  33.550  32.718  1.00  0.00     0.049 A 
ATOM     63  C   UNL A   1      41.371  30.468  35.336  1.00  0.00     0.074 A 
ATOM     64  C   UNL A   1      37.184  34.766  33.287  1.00  0.00     0.029 A 
ATOM     65  N   UNL A   1      38.491  32.983  33.519  1.00  0.00    -0.354 N 
ATOM     66  N   UNL A   1      40.470  31.291  34.856  1.00  0.00    -0.248 NA
ATOM     67  C   UNL A   1      42.061  30.976  36.534  1.00  0.00     0.031 C 
ATOM     68  C   UNL A   1      37.995  34.953  34.412  1.00  0.00     0.029 A 
ATOM     69  C   UNL A   1      38.785  33.825  34.575  1.00  0.00     0.049 A 
ATOM     70  H   UNL A   1      38.917  32.109  33.359  1.00  0.00     0.167 HD
ATOM     71  C   UNL A   1      40.471  32.397  35.699  1.00  0.00     0.074 A 
ATOM     72  C   UNL A   1      41.448  32.135  36.733  1.00  0.00     0.031 C 
ATOM     73  C   UNL A   1      39.738  33.534  35.614  1.00  0.00     0.037 A 
BRANCH  60  74
ATOM     74  C   UNL A   1      35.871  33.606  30.784  1.00  0.00     0.064 A 
ATOM     75  C   UNL A   1      34.653  34.018  31.342  1.00  0.00     0.173 A 
ATOM     76  C   UNL A   1      36.065  33.831  29.409  1.00  0.00     0.173 A 
ATOM     77  F   UNL A   1      34.403  33.814  32.644  1.00  0.00    -0.203 F 
ATOM     78  C   UNL A   1      33.653  34.578  30.546  1.00  0.00     0.198 A 
ATOM     79  C   UNL A   1      35.081  34.426  28.627  1.00  0.00     0.198 A 
ATOM     80  F   UNL A   1      37.213  33.460  28.820  1.00  0.00    -0.203 F 
ATOM     81  F   UNL A   1      32.466  34.886  31.086  1.00  0.00    -0.200 F 
ATOM     82  C   UNL A   1      33.869  34.784  29.191  1.00  0.00     0.200 A 
ATOM     83  F   UNL A   1      35.301  34.635  27.320  1.00  0.00    -0.200 F 
ATOM     84  F   UNL A   1      32.903  35.314  28.428  1.00  0.00    -0.200 F 
ENDBRANCH  60  74
BRANCH  61  85
ATOM     85  C   UNL A   1      42.859  28.344  35.549  1.00  0.00     0.064 A 
ATOM     86  C   UNL A   1      44.225  28.492  35.248  1.00  0.00     0.173 A 
ATOM     87  C   UNL A   1      42.528  27.375  36.512  1.00  0.00     0.173 A 
ATOM     88  F   UNL A   1      44.612  29.359  34.301  1.00  0.00    -0.203 F 
ATOM     89  C   UNL A   1      45.202  27.704  35.867  1.00  0.00     0.198 A 
ATOM     90  C   UNL A   1      43.508  26.616  37.159  1.00  0.00     0.198 A 
ATOM     91  F   UNL A   1      41.244  27.155  36.830  1.00  0.00    -0.203 F 
ATOM     92  F   UNL A   1      46.488  27.827  35.509  1.00  0.00    -0.200 F 
ATOM     93  C   UNL A   1      44.843  26.774  36.829  1.00  0.00     0.200 A 
ATOM     94  F   UNL A   1      43.151  25.725  38.094  1.00  0.00    -0.200 F 
ATOM     95  F   UNL A   1      45.777  26.020  37.425  1.00  0.00    -0.200 F 
ENDBRANCH  61  85
BRANCH  73  96
ATOM     96  C   UNL A   1      39.907  34.552  36.701  1.00  0.00     0.064 A 
ATOM     97  C   UNL A   1      39.097  34.557  37.845  1.00  0.00     0.173 A 
ATOM     98  C   UNL A   1      40.940  35.500  36.621  1.00  0.00     0.173 A 
ATOM     99  F   UNL A   1      38.086  33.682  37.960  1.00  0.00    -0.203 F 
ATOM    100  C   UNL A   1      39.302  35.486  38.863  1.00  0.00     0.198 A 
ATOM    101  C   UNL A   1      41.162  36.406  37.654  1.00  0.00     0.198 A 
ATOM    102  F   UNL A   1      41.744  35.533  35.548  1.00  0.00    -0.203 F 
ATOM    103  F   UNL A   1      38.491  35.500  39.928  1.00  0.00    -0.200 F 
ATOM    104  C   UNL A   1      40.341  36.402  38.770  1.00  0.00     0.200 A 
ATOM    105  F   UNL A   1      42.175  37.279  37.569  1.00  0.00    -0.200 F 
ATOM    106  F   UNL A   1      40.547  37.284  39.757  1.00  0.00    -0.200 F 
ENDBRANCH  73  96
ENDBRANCH  47  48
ENDBRANCH  40  42
ENDBRANCH  39  40
ENDBRANCH  38  39
ENDBRANCH  37  38
ENDBRANCH   1  37
TORSDOF 18
ENDMDL
MODEL 2
REMARK VINA RESULT:     -13.7      5.333     11.094
REMARK SMILES C[C@@]12CC/C(=N\OCC(=O)N[C@@H](CO)C(=O)OCCOC(=O)c3ccc(-c4c5nc(c(-c6c(F)c(F)c(F)c(F)c6F)c6ccc([nH]6)c(-c6c(F)c(F)c(F)c(F)c6F)c6nc(c(-c7c(F)c(F)c(F)c(F)c7F)c7ccc4[nH]7)C=C6)C=C5)cc3)C=C1CC[C@H]1[C@H]2CC[C@]2(C)[C@H]1CC[C@@]2(C)O
REMARK SMILES IDX 17 1 15 2 16 3 12 4 11 5 9 6 10 7 8 9 7 10 6 11 1 12 2 13
REMARK SMILES IDX 3 14 87 15 91 16 4 17 86 18 88 19 90 20 92 21 5 22 89 23
REMARK SMILES IDX 96 24 93 25 94 26 97 27 99 28 95 29 98 30 100 31 101 32
REMARK SMILES IDX 13 34 14 35 18 37 19 38 20 39 21 40 22 41 23 42 24 43 85 44
REMARK SMILES IDX 25 45 84 46 26 47 27 48 28 49 78 50 29 51 83 52 77 53 79 54
REMARK SMILES IDX 30 55 82 56 76 57 75 58 31 60 63 61 43 62 62 63 44 64 47 65
REMARK SMILES IDX 61 66 80 67 45 68 46 69 60 71 81 72 48 73 32 74 33 75 41 76
REMARK SMILES IDX 34 77 35 78 39 79 42 80 36 81 37 82 40 83 38 84 64 85 65 86
REMARK SMILES IDX 73 87 66 88 67 89 71 90 74 91 68 92 69 93 72 94 70 95 49 96
REMARK SMILES IDX 50 97 58 98 51 99 52 100 56 101 59 102 53 103 54 104 57 105
REMARK SMILES IDX 55 106
REMARK H PARENT 11 8 101 33 14 36 79 59 47 70
REMARK Flexibility Score: inf
ROOT
ATOM      1  O   UNL A   1      34.173  35.329  30.550  1.00  0.00    -0.460 OA
ENDROOT
BRANCH   1   2
ATOM      2  C   UNL A   1      34.249  33.993  30.159  1.00  0.00     0.331 C 
ATOM      3  O   UNL A   1      33.979  33.062  30.917  1.00  0.00    -0.250 OA
BRANCH   2   4
ATOM      4  C   UNL A   1      34.396  33.765  28.591  1.00  0.00     0.218 C 
BRANCH   4   5
ATOM      5  N   UNL A   1      35.106  32.597  28.000  1.00  0.00    -0.338 N 
ATOM      6  C   UNL A   1      34.905  31.248  27.788  1.00  0.00     0.261 C 
ATOM      7  O   UNL A   1      35.988  30.658  27.597  1.00  0.00    -0.271 OA
ATOM      8  H   UNL A   1      35.987  32.870  27.656  1.00  0.00     0.164 HD
BRANCH   6   9
ATOM      9  C   UNL A   1      33.535  30.370  27.511  1.00  0.00     0.363 C 
BRANCH   9  10
ATOM     10  O   UNL A   1      32.979  29.428  26.552  1.00  0.00    -0.385 OA
BRANCH  10  11
ATOM     11  N   UNL A   1      33.256  29.647  25.160  1.00  0.00    -0.091 NA
ATOM     12  C   UNL A   1      33.683  26.972  24.630  1.00  0.00     0.016 C 
ATOM     13  C   UNL A   1      32.263  26.804  24.048  1.00  0.00    -0.008 C 
ATOM     14  C   UNL A   1      31.051  27.429  24.859  1.00  0.00     0.018 C 
ATOM     15  C   UNL A   1      32.494  27.530  22.752  1.00  0.00    -0.062 C 
ATOM     16  C   UNL A   1      32.014  25.282  23.965  1.00  0.00     0.002 C 
ATOM     17  C   UNL A   1      30.899  28.936  24.772  1.00  0.00     0.061 C 
ATOM     18  C   UNL A   1      32.527  28.895  22.874  1.00  0.00     0.027 C 
ATOM     19  C   UNL A   1      33.092  26.655  21.637  1.00  0.00     0.032 C 
ATOM     20  C   UNL A   1      33.201  24.579  23.292  1.00  0.00    -0.003 C 
ATOM     21  C   UNL A   1      31.694  24.788  25.355  1.00  0.00     0.005 C 
ATOM     22  C   UNL A   1      32.262  29.363  24.339  1.00  0.00     0.080 C 
ATOM     23  C   UNL A   1      33.164  25.071  21.829  1.00  0.00     0.008 C 
ATOM     24  C   UNL A   1      33.393  23.090  23.634  1.00  0.00     0.001 C 
ATOM     25  C   UNL A   1      31.753  23.299  25.463  1.00  0.00     0.010 C 
ATOM     26  C   UNL A   1      33.111  22.694  25.123  1.00  0.00    -0.001 C 
ATOM     27  C   UNL A   1      32.556  22.066  22.876  1.00  0.00     0.007 C 
ATOM     28  C   UNL A   1      33.364  21.109  24.989  1.00  0.00     0.068 C 
ATOM     29  C   UNL A   1      34.003  23.349  26.143  1.00  0.00     0.015 C 
ATOM     30  C   UNL A   1      32.502  20.808  23.765  1.00  0.00     0.036 C 
ATOM     31  C   UNL A   1      33.163  20.001  26.046  1.00  0.00     0.042 C 
BRANCH  28  32
ATOM     32  O   UNL A   1      34.758  20.937  24.645  1.00  0.00    -0.390 OA
ATOM     33  H   UNL A   1      35.046  21.673  24.083  1.00  0.00     0.211 HD
ENDBRANCH  28  32
ENDBRANCH  10  11
ENDBRANCH   9  10
ENDBRANCH   6   9
ENDBRANCH   4   5
BRANCH   4  34
ATOM     34  C   UNL A   1      33.073  34.077  27.833  1.00  0.00     0.193 C 
BRANCH  34  35
ATOM     35  O   UNL A   1      32.353  35.200  28.328  1.00  0.00    -0.394 OA
ATOM     36  H   UNL A   1      31.551  34.896  28.783  1.00  0.00     0.210 HD
ENDBRANCH  34  35
ENDBRANCH   4  34
ENDBRANCH   2   4
ENDBRANCH   1   2
BRANCH   1  37
ATOM     37  C   UNL A   1      33.944  35.552  31.988  1.00  0.00     0.274 C 
BRANCH  37  38
ATOM     38  C   UNL A   1      35.051  35.044  33.070  1.00  0.00     0.275 C 
BRANCH  38  39
ATOM     39  O   UNL A   1      35.930  33.717  33.048  1.00  0.00    -0.458 OA
BRANCH  39  40
ATOM     40  C   UNL A   1      36.636  32.562  32.969  1.00  0.00     0.338 C 
ATOM     41  O   UNL A   1      37.198  32.234  34.023  1.00  0.00    -0.246 OA
BRANCH  40  42
ATOM     42  C   UNL A   1      36.952  31.508  31.849  1.00  0.00     0.060 A 
ATOM     43  C   UNL A   1      36.963  30.143  31.967  1.00  0.00     0.016 A 
ATOM     44  C   UNL A   1      37.595  31.878  30.660  1.00  0.00     0.016 A 
ATOM     45  C   UNL A   1      37.864  29.250  31.290  1.00  0.00     0.010 A 
ATOM     46  C   UNL A   1      38.433  30.971  29.904  1.00  0.00     0.010 A 
ATOM     47  C   UNL A   1      38.772  29.679  30.356  1.00  0.00    -0.014 A 
BRANCH  47  48
ATOM     48  C   UNL A   1      40.048  28.898  29.946  1.00  0.00     0.031 A 
ATOM     49  C   UNL A   1      41.370  29.621  30.161  1.00  0.00     0.074 A 
ATOM     50  C   UNL A   1      40.228  27.594  29.569  1.00  0.00     0.049 A 
ATOM     51  N   UNL A   1      42.475  29.598  29.460  1.00  0.00    -0.248 NA
ATOM     52  C   UNL A   1      41.426  30.522  31.324  1.00  0.00     0.031 C 
ATOM     53  C   UNL A   1      39.269  26.486  29.609  1.00  0.00     0.029 A 
ATOM     54  N   UNL A   1      41.363  26.963  29.046  1.00  0.00    -0.354 N 
ATOM     55  C   UNL A   1      43.260  30.627  29.975  1.00  0.00     0.074 A 
ATOM     56  C   UNL A   1      42.528  31.211  31.075  1.00  0.00     0.031 C 
ATOM     57  C   UNL A   1      39.824  25.362  29.120  1.00  0.00     0.029 A 
ATOM     58  C   UNL A   1      41.152  25.663  28.613  1.00  0.00     0.049 A 
ATOM     59  H   UNL A   1      42.241  27.407  28.990  1.00  0.00     0.167 HD
ATOM     60  C   UNL A   1      44.461  31.065  29.527  1.00  0.00     0.037 A 
ATOM     61  C   UNL A   1      41.880  24.829  27.831  1.00  0.00     0.037 A 
ATOM     62  C   UNL A   1      45.248  30.356  28.553  1.00  0.00     0.049 A 
ATOM     63  C   UNL A   1      43.179  25.331  27.244  1.00  0.00     0.074 A 
ATOM     64  C   UNL A   1      46.451  30.713  27.973  1.00  0.00     0.029 A 
ATOM     65  N   UNL A   1      44.927  29.096  28.070  1.00  0.00    -0.354 N 
ATOM     66  N   UNL A   1      43.803  26.461  27.469  1.00  0.00    -0.248 NA
ATOM     67  C   UNL A   1      43.854  24.467  26.260  1.00  0.00     0.031 C 
ATOM     68  C   UNL A   1      46.839  29.684  27.106  1.00  0.00     0.029 A 
ATOM     69  C   UNL A   1      45.905  28.662  27.194  1.00  0.00     0.049 A 
ATOM     70  H   UNL A   1      44.121  28.586  28.313  1.00  0.00     0.167 HD
ATOM     71  C   UNL A   1      44.945  26.436  26.676  1.00  0.00     0.074 A 
ATOM     72  C   UNL A   1      44.941  25.170  25.976  1.00  0.00     0.031 C 
ATOM     73  C   UNL A   1      45.902  27.384  26.530  1.00  0.00     0.037 A 
BRANCH  60  74
ATOM     74  C   UNL A   1      44.920  32.418  29.993  1.00  0.00     0.064 A 
ATOM     75  C   UNL A   1      44.609  33.611  29.328  1.00  0.00     0.173 A 
ATOM     76  C   UNL A   1      45.745  32.503  31.130  1.00  0.00     0.173 A 
ATOM     77  F   UNL A   1      43.843  33.591  28.227  1.00  0.00    -0.203 F 
ATOM     78  C   UNL A   1      45.146  34.828  29.749  1.00  0.00     0.198 A 
ATOM     79  C   UNL A   1      46.246  33.723  31.570  1.00  0.00     0.198 A 
ATOM     80  F   UNL A   1      46.075  31.394  31.809  1.00  0.00    -0.203 F 
ATOM     81  F   UNL A   1      44.902  35.943  29.047  1.00  0.00    -0.200 F 
ATOM     82  C   UNL A   1      45.961  34.883  30.870  1.00  0.00     0.200 A 
ATOM     83  F   UNL A   1      47.022  33.772  32.663  1.00  0.00    -0.200 F 
ATOM     84  F   UNL A   1      46.483  36.052  31.267  1.00  0.00    -0.200 F 
ENDBRANCH  60  74
BRANCH  61  85
ATOM     85  C   UNL A   1      41.362  23.477  27.419  1.00  0.00     0.064 A 
ATOM     86  C   UNL A   1      41.976  22.285  27.845  1.00  0.00     0.173 A 
ATOM     87  C   UNL A   1      40.290  23.345  26.518  1.00  0.00     0.173 A 
ATOM     88  F   UNL A   1      43.037  22.335  28.663  1.00  0.00    -0.203 F 
ATOM     89  C   UNL A   1      41.550  21.035  27.383  1.00  0.00     0.198 A 
ATOM     90  C   UNL A   1      39.840  22.094  26.088  1.00  0.00     0.198 A 
ATOM     91  F   UNL A   1      39.675  24.437  26.044  1.00  0.00    -0.203 F 
ATOM     92  F   UNL A   1      42.200  19.924  27.760  1.00  0.00    -0.200 F 
ATOM     93  C   UNL A   1      40.477  20.940  26.513  1.00  0.00     0.200 A 
ATOM     94  F   UNL A   1      38.796  22.012  25.253  1.00  0.00    -0.200 F 
ATOM     95  F   UNL A   1      40.065  19.743  26.072  1.00  0.00    -0.200 F 
ENDBRANCH  61  85
BRANCH  73  96
ATOM     96  C   UNL A   1      47.063  27.068  25.636  1.00  0.00     0.064 A 
ATOM     97  C   UNL A   1      47.108  27.494  24.301  1.00  0.00     0.173 A 
ATOM     98  C   UNL A   1      48.175  26.379  26.146  1.00  0.00     0.173 A 
ATOM     99  F   UNL A   1      46.062  28.141  23.762  1.00  0.00    -0.203 F 
ATOM    100  C   UNL A   1      48.217  27.226  23.503  1.00  0.00     0.198 A 
ATOM    101  C   UNL A   1      49.295  26.141  25.355  1.00  0.00     0.198 A 
ATOM    102  F   UNL A   1      48.181  25.954  27.418  1.00  0.00    -0.203 F 
ATOM    103  F   UNL A   1      48.223  27.605  22.218  1.00  0.00    -0.200 F 
ATOM    104  C   UNL A   1      49.313  26.560  24.033  1.00  0.00     0.200 A 
ATOM    105  F   UNL A   1      50.357  25.511  25.874  1.00  0.00    -0.200 F 
ATOM    106  F   UNL A   1      50.386  26.317  23.268  1.00  0.00    -0.200 F 
ENDBRANCH  73  96
ENDBRANCH  47  48
ENDBRANCH  40  42
ENDBRANCH  39  40
ENDBRANCH  38  39
ENDBRANCH  37  38
ENDBRANCH   1  37
TORSDOF 18
ENDMDL
MODEL 3
REMARK VINA RESULT:     -13.2      5.611     10.912
REMARK SMILES C[C@@]12CC/C(=N\OCC(=O)N[C@@H](CO)C(=O)OCCOC(=O)c3ccc(-c4c5nc(c(-c6c(F)c(F)c(F)c(F)c6F)c6ccc([nH]6)c(-c6c(F)c(F)c(F)c(F)c6F)c6nc(c(-c7c(F)c(F)c(F)c(F)c7F)c7ccc4[nH]7)C=C6)C=C5)cc3)C=C1CC[C@H]1[C@H]2CC[C@]2(C)[C@H]1CC[C@@]2(C)O
REMARK SMILES IDX 17 1 15 2 16 3 12 4 11 5 9 6 10 7 8 9 7 10 6 11 1 12 2 13
REMARK SMILES IDX 3 14 87 15 91 16 4 17 86 18 88 19 90 20 92 21 5 22 89 23
REMARK SMILES IDX 96 24 93 25 94 26 97 27 99 28 95 29 98 30 100 31 101 32
REMARK SMILES IDX 13 34 14 35 18 37 19 38 20 39 21 40 22 41 23 42 24 43 85 44
REMARK SMILES IDX 25 45 84 46 26 47 27 48 28 49 78 50 29 51 83 52 77 53 79 54
REMARK SMILES IDX 30 55 82 56 76 57 75 58 31 60 63 61 43 62 62 63 44 64 47 65
REMARK SMILES IDX 61 66 80 67 45 68 46 69 60 71 81 72 48 73 32 74 33 75 41 76
REMARK SMILES IDX 34 77 35 78 39 79 42 80 36 81 37 82 40 83 38 84 64 85 65 86
REMARK SMILES IDX 73 87 66 88 67 89 71 90 74 91 68 92 69 93 72 94 70 95 49 96
REMARK SMILES IDX 50 97 58 98 51 99 52 100 56 101 59 102 53 103 54 104 57 105
REMARK SMILES IDX 55 106
REMARK H PARENT 11 8 101 33 14 36 79 59 47 70
REMARK Flexibility Score: inf
ROOT
ATOM      1  O   UNL A   1      49.273  28.195  23.526  1.00  0.00    -0.460 OA
ENDROOT
BRANCH   1   2
ATOM      2  C   UNL A   1      47.970  27.884  23.140  1.00  0.00     0.331 C 
ATOM      3  O   UNL A   1      47.656  27.674  21.969  1.00  0.00    -0.250 OA
BRANCH   2   4
ATOM      4  C   UNL A   1      46.993  27.504  24.338  1.00  0.00     0.218 C 
BRANCH   4   5
ATOM      5  N   UNL A   1      45.546  27.855  24.351  1.00  0.00    -0.338 N 
ATOM      6  C   UNL A   1      44.508  27.987  25.251  1.00  0.00     0.261 C 
ATOM      7  O   UNL A   1      43.404  27.927  24.674  1.00  0.00    -0.271 OA
ATOM      8  H   UNL A   1      45.235  28.055  23.438  1.00  0.00     0.164 HD
BRANCH   6   9
ATOM      9  C   UNL A   1      44.481  28.433  26.840  1.00  0.00     0.363 C 
BRANCH   9  10
ATOM     10  O   UNL A   1      43.787  28.125  28.081  1.00  0.00    -0.385 OA
BRANCH  10  11
ATOM     11  N   UNL A   1      42.380  27.850  28.012  1.00  0.00    -0.091 NA
ATOM     12  C   UNL A   1      42.715  25.494  26.613  1.00  0.00     0.016 C 
ATOM     13  C   UNL A   1      42.548  24.647  27.892  1.00  0.00    -0.008 C 
ATOM     14  C   UNL A   1      43.339  25.100  29.190  1.00  0.00     0.018 C 
ATOM     15  C   UNL A   1      41.064  24.828  28.057  1.00  0.00    -0.062 C 
ATOM     16  C   UNL A   1      43.046  23.230  27.533  1.00  0.00     0.002 C 
ATOM     17  C   UNL A   1      42.778  26.303  29.925  1.00  0.00     0.061 C 
ATOM     18  C   UNL A   1      40.703  26.055  28.552  1.00  0.00     0.027 C 
ATOM     19  C   UNL A   1      40.214  23.836  27.247  1.00  0.00     0.032 C 
ATOM     20  C   UNL A   1      42.413  22.756  26.217  1.00  0.00    -0.003 C 
ATOM     21  C   UNL A   1      44.555  23.254  27.533  1.00  0.00     0.005 C 
ATOM     22  C   UNL A   1      41.941  26.950  28.872  1.00  0.00     0.080 C 
ATOM     23  C   UNL A   1      40.915  22.581  26.548  1.00  0.00     0.008 C 
ATOM     24  C   UNL A   1      43.192  21.683  25.434  1.00  0.00     0.001 C 
ATOM     25  C   UNL A   1      45.149  22.044  26.890  1.00  0.00     0.010 C 
ATOM     26  C   UNL A   1      44.751  21.844  25.431  1.00  0.00    -0.001 C 
ATOM     27  C   UNL A   1      43.030  20.227  25.857  1.00  0.00     0.007 C 
ATOM     28  C   UNL A   1      45.114  20.519  24.590  1.00  0.00     0.068 C 
ATOM     29  C   UNL A   1      45.266  23.106  24.795  1.00  0.00     0.015 C 
ATOM     30  C   UNL A   1      44.285  19.488  25.351  1.00  0.00     0.036 C 
ATOM     31  C   UNL A   1      46.502  19.925  24.265  1.00  0.00     0.042 C 
BRANCH  28  32
ATOM     32  O   UNL A   1      44.556  20.698  23.268  1.00  0.00    -0.390 OA
ATOM     33  H   UNL A   1      43.603  20.515  23.292  1.00  0.00     0.211 HD
ENDBRANCH  28  32
ENDBRANCH  10  11
ENDBRANCH   9  10
ENDBRANCH   6   9
ENDBRANCH   4   5
BRANCH   4  34
ATOM     34  C   UNL A   1      47.238  26.055  24.849  1.00  0.00     0.193 C 
BRANCH  34  35
ATOM     35  O   UNL A   1      47.863  25.189  23.910  1.00  0.00    -0.394 OA
ATOM     36  H   UNL A   1      48.136  24.371  24.356  1.00  0.00     0.210 HD
ENDBRANCH  34  35
ENDBRANCH   4  34
ENDBRANCH   2   4
ENDBRANCH   1   2
BRANCH   1  37
ATOM     37  C   UNL A   1      50.335  27.521  22.760  1.00  0.00     0.274 C 
BRANCH  37  38
ATOM     38  C   UNL A   1      51.593  26.847  23.546  1.00  0.00     0.275 C 
BRANCH  38  39
ATOM     39  O   UNL A   1      51.585  25.977  24.879  1.00  0.00    -0.458 OA
BRANCH  39  40
ATOM     40  C   UNL A   1      51.610  25.297  26.052  1.00  0.00     0.338 C 
ATOM     41  O   UNL A   1      52.500  24.439  26.126  1.00  0.00    -0.246 OA
BRANCH  40  42
ATOM     42  C   UNL A   1      50.765  25.300  27.375  1.00  0.00     0.060 A 
ATOM     43  C   UNL A   1      49.485  24.842  27.548  1.00  0.00     0.016 A 
ATOM     44  C   UNL A   1      51.127  26.095  28.471  1.00  0.00     0.016 A 
ATOM     45  C   UNL A   1      48.496  25.424  28.416  1.00  0.00     0.010 A 
ATOM     46  C   UNL A   1      50.163  26.618  29.417  1.00  0.00     0.010 A 
ATOM     47  C   UNL A   1      48.770  26.474  29.254  1.00  0.00    -0.014 A 
BRANCH  47  48
ATOM     48  C   UNL A   1      47.701  27.432  29.843  1.00  0.00     0.031 A 
ATOM     49  C   UNL A   1      47.113  27.029  31.187  1.00  0.00     0.074 A 
ATOM     50  C   UNL A   1      47.293  28.680  29.452  1.00  0.00     0.049 A 
ATOM     51  N   UNL A   1      45.903  27.178  31.664  1.00  0.00    -0.248 NA
ATOM     52  C   UNL A   1      48.029  26.331  32.103  1.00  0.00     0.031 C 
ATOM     53  C   UNL A   1      47.881  29.565  28.443  1.00  0.00     0.029 A 
ATOM     54  N   UNL A   1      46.213  29.448  29.904  1.00  0.00    -0.354 N 
ATOM     55  C   UNL A   1      45.869  26.412  32.827  1.00  0.00     0.074 A 
ATOM     56  C   UNL A   1      47.189  25.852  33.006  1.00  0.00     0.031 C 
ATOM     57  C   UNL A   1      47.165  30.698  28.332  1.00  0.00     0.029 A 
ATOM     58  C   UNL A   1      45.985  30.605  29.174  1.00  0.00     0.049 A 
ATOM     59  H   UNL A   1      45.660  29.189  30.677  1.00  0.00     0.167 HD
ATOM     60  C   UNL A   1      44.810  26.169  33.635  1.00  0.00     0.037 A 
ATOM     61  C   UNL A   1      44.928  31.452  29.107  1.00  0.00     0.037 A 
ATOM     62  C   UNL A   1      43.562  26.880  33.539  1.00  0.00     0.049 A 
ATOM     63  C   UNL A   1      43.698  31.147  29.932  1.00  0.00     0.074 A 
ATOM     64  C   UNL A   1      42.394  26.697  34.255  1.00  0.00     0.029 A 
ATOM     65  N   UNL A   1      43.355  27.968  32.705  1.00  0.00    -0.354 N 
ATOM     66  N   UNL A   1      43.519  30.209  30.830  1.00  0.00    -0.248 NA
ATOM     67  C   UNL A   1      42.508  31.984  29.703  1.00  0.00     0.031 C 
ATOM     68  C   UNL A   1      41.465  27.651  33.824  1.00  0.00     0.029 A 
ATOM     69  C   UNL A   1      42.077  28.465  32.883  1.00  0.00     0.049 A 
ATOM     70  H   UNL A   1      44.020  28.333  32.077  1.00  0.00     0.167 HD
ATOM     71  C   UNL A   1      42.214  30.354  31.284  1.00  0.00     0.074 A 
ATOM     72  C   UNL A   1      41.647  31.483  30.578  1.00  0.00     0.031 C 
ATOM     73  C   UNL A   1      41.540  29.610  32.194  1.00  0.00     0.037 A 
BRANCH  60  74
ATOM     74  C   UNL A   1      44.922  25.016  34.593  1.00  0.00     0.064 A 
ATOM     75  C   UNL A   1      45.336  25.154  35.924  1.00  0.00     0.173 A 
ATOM     76  C   UNL A   1      44.645  23.717  34.129  1.00  0.00     0.173 A 
ATOM     77  F   UNL A   1      45.633  26.366  36.417  1.00  0.00    -0.203 F 
ATOM     78  C   UNL A   1      45.519  24.036  36.738  1.00  0.00     0.198 A 
ATOM     79  C   UNL A   1      44.789  22.607  34.956  1.00  0.00     0.198 A 
ATOM     80  F   UNL A   1      44.242  23.523  32.864  1.00  0.00    -0.203 F 
ATOM     81  F   UNL A   1      45.996  24.186  37.981  1.00  0.00    -0.200 F 
ATOM     82  C   UNL A   1      45.243  22.765  36.254  1.00  0.00     0.200 A 
ATOM     83  F   UNL A   1      44.508  21.383  34.486  1.00  0.00    -0.200 F 
ATOM     84  F   UNL A   1      45.427  21.692  37.036  1.00  0.00    -0.200 F 
ENDBRANCH  60  74
BRANCH  61  85
ATOM     85  C   UNL A   1      44.894  32.599  28.134  1.00  0.00     0.064 A 
ATOM     86  C   UNL A   1      44.333  32.468  26.850  1.00  0.00     0.173 A 
ATOM     87  C   UNL A   1      45.501  33.833  28.432  1.00  0.00     0.173 A 
ATOM     88  F   UNL A   1      43.784  31.303  26.477  1.00  0.00    -0.203 F 
ATOM     89  C   UNL A   1      44.390  33.507  25.915  1.00  0.00     0.198 A 
ATOM     90  C   UNL A   1      45.521  34.884  27.511  1.00  0.00     0.198 A 
ATOM     91  F   UNL A   1      46.084  34.023  29.624  1.00  0.00    -0.203 F 
ATOM     92  F   UNL A   1      43.902  33.324  24.680  1.00  0.00    -0.200 F 
ATOM     93  C   UNL A   1      44.975  34.717  26.250  1.00  0.00     0.200 A 
ATOM     94  F   UNL A   1      46.083  36.053  27.847  1.00  0.00    -0.200 F 
ATOM     95  F   UNL A   1      45.027  35.715  25.356  1.00  0.00    -0.200 F 
ENDBRANCH  61  85
BRANCH  73  96
ATOM     96  C   UNL A   1      40.141  30.027  32.535  1.00  0.00     0.064 A 
ATOM     97  C   UNL A   1      39.873  30.970  33.537  1.00  0.00     0.173 A 
ATOM     98  C   UNL A   1      39.058  29.517  31.802  1.00  0.00     0.173 A 
ATOM     99  F   UNL A   1      40.872  31.473  34.277  1.00  0.00    -0.203 F 
ATOM    100  C   UNL A   1      38.567  31.375  33.805  1.00  0.00     0.198 A 
ATOM    101  C   UNL A   1      37.758  29.948  32.051  1.00  0.00     0.198 A 
ATOM    102  F   UNL A   1      39.265  28.615  30.831  1.00  0.00    -0.203 F 
ATOM    103  F   UNL A   1      38.328  32.246  34.794  1.00  0.00    -0.200 F 
ATOM    104  C   UNL A   1      37.513  30.871  33.055  1.00  0.00     0.200 A 
ATOM    105  F   UNL A   1      36.745  29.471  31.316  1.00  0.00    -0.200 F 
ATOM    106  F   UNL A   1      36.260  31.274  33.304  1.00  0.00    -0.200 F 
ENDBRANCH  73  96
ENDBRANCH  47  48
ENDBRANCH  40  42
ENDBRANCH  39  40
ENDBRANCH  38  39
ENDBRANCH  37  38
ENDBRANCH   1  37
TORSDOF 18
ENDMDL
