MODEL 1
REMARK VINA RESULT:     -11.4      0.000      0.000
REMARK SMILES CC[C@](C)(NC(=O)CCOc1ccc(Cl)c(Cl)c1)C(=O)OCCOC(=O)c1ccc(-c2c3nc(c(-c4c(F)c(F)c(F)c(F)c4F)c4ccc([nH]4)c(-c4c(F)c(F)c(F)c(F)c4F)c4nc(c(-c5c(F)c(F)c(F)c(F)c5F)c5ccc2[nH]5)C=C4)C=C3)cc1
REMARK SMILES IDX 21 1 19 2 20 3 3 4 4 5 2 6 1 7 5 8 6 9 7 11 8 12 9 13 10 14
REMARK SMILES IDX 11 15 12 16 18 17 13 18 16 19 14 20 17 21 15 22 22 23 23 24
REMARK SMILES IDX 24 25 25 26 26 27 27 28 28 29 89 30 29 31 88 32 30 33 31 34
REMARK SMILES IDX 32 35 82 36 33 37 87 38 81 39 83 40 34 41 86 42 80 43 79 44
REMARK SMILES IDX 35 46 67 47 47 48 66 49 48 50 51 51 65 52 84 53 49 54 50 55
REMARK SMILES IDX 64 57 85 58 52 59 36 60 37 61 45 62 38 63 39 64 43 65 46 66
REMARK SMILES IDX 40 67 41 68 44 69 42 70 68 71 69 72 77 73 70 74 71 75 75 76
REMARK SMILES IDX 78 77 72 78 73 79 76 80 74 81 53 82 54 83 62 84 55 85 56 86
REMARK SMILES IDX 60 87 63 88 57 89 58 90 61 91 59 92
REMARK H PARENT 5 10 83 45 51 56
REMARK Flexibility Score: inf
ROOT
ATOM      1  O   UNL A   1      32.257  27.939  25.228  1.00  0.00    -0.460 OA
ENDROOT
BRANCH   1   2
ATOM      2  C   UNL A   1      31.316  27.426  24.395  1.00  0.00     0.331 C 
ATOM      3  O   UNL A   1      30.422  26.665  24.763  1.00  0.00    -0.249 OA
BRANCH   2   4
ATOM      4  C   UNL A   1      31.441  27.888  22.915  1.00  0.00     0.135 C 
ATOM      5  C   UNL A   1      32.523  28.972  22.914  1.00  0.00     0.047 C 
BRANCH   4   6
ATOM      6  C   UNL A   1      30.053  28.522  22.572  1.00  0.00     0.037 C 
ATOM      7  C   UNL A   1      29.753  29.838  23.287  1.00  0.00     0.007 C 
ENDBRANCH   4   6
BRANCH   4   8
ATOM      8  N   UNL A   1      31.730  26.887  21.850  1.00  0.00    -0.340 N 
ATOM      9  C   UNL A   1      32.758  26.024  21.631  1.00  0.00     0.224 C 
ATOM     10  H   UNL A   1      31.029  26.840  21.160  1.00  0.00     0.164 HD
ATOM     11  O   UNL A   1      32.898  25.588  20.485  1.00  0.00    -0.275 OA
BRANCH   9  12
ATOM     12  C   UNL A   1      33.642  25.547  22.752  1.00  0.00     0.141 C 
BRANCH  12  13
ATOM     13  C   UNL A   1      33.038  24.401  23.560  1.00  0.00     0.239 C 
BRANCH  13  14
ATOM     14  O   UNL A   1      33.639  24.276  24.856  1.00  0.00    -0.493 OA
BRANCH  14  15
ATOM     15  C   UNL A   1      34.711  23.451  25.025  1.00  0.00     0.120 A 
ATOM     16  C   UNL A   1      34.811  22.126  24.609  1.00  0.00     0.048 A 
ATOM     17  C   UNL A   1      35.813  24.058  25.639  1.00  0.00     0.068 A 
ATOM     18  C   UNL A   1      36.019  21.435  24.745  1.00  0.00     0.026 A 
ATOM     19  C   UNL A   1      37.027  23.377  25.766  1.00  0.00     0.063 A 
ATOM     20  C   UNL A   1      37.134  22.062  25.307  1.00  0.00     0.059 A 
ATOM     21  Cl  UNL A   1      38.361  24.239  26.443  1.00  0.00    -0.083 Cl
ATOM     22  Cl  UNL A   1      38.609  21.168  25.379  1.00  0.00    -0.083 Cl
ENDBRANCH  14  15
ENDBRANCH  13  14
ENDBRANCH  12  13
ENDBRANCH   9  12
ENDBRANCH   4   8
ENDBRANCH   2   4
ENDBRANCH   1   2
BRANCH   1  23
ATOM     23  C   UNL A   1      31.751  28.391  26.504  1.00  0.00     0.274 C 
BRANCH  23  24
ATOM     24  C   UNL A   1      31.779  29.915  26.616  1.00  0.00     0.275 C 
BRANCH  24  25
ATOM     25  O   UNL A   1      33.088  30.436  26.306  1.00  0.00    -0.458 OA
BRANCH  25  26
ATOM     26  C   UNL A   1      33.573  31.322  27.205  1.00  0.00     0.338 C 
ATOM     27  O   UNL A   1      33.054  32.371  27.553  1.00  0.00    -0.246 OA
BRANCH  26  28
ATOM     28  C   UNL A   1      34.888  30.915  27.728  1.00  0.00     0.060 A 
ATOM     29  C   UNL A   1      35.150  29.610  28.142  1.00  0.00     0.016 A 
ATOM     30  C   UNL A   1      35.825  31.927  27.954  1.00  0.00     0.016 A 
ATOM     31  C   UNL A   1      36.312  29.338  28.874  1.00  0.00     0.010 A 
ATOM     32  C   UNL A   1      37.022  31.637  28.606  1.00  0.00     0.010 A 
ATOM     33  C   UNL A   1      37.267  30.345  29.096  1.00  0.00    -0.014 A 
BRANCH  33  34
ATOM     34  C   UNL A   1      38.573  30.060  29.747  1.00  0.00     0.031 A 
ATOM     35  C   UNL A   1      39.550  29.090  29.147  1.00  0.00     0.074 A 
ATOM     36  C   UNL A   1      38.823  30.603  30.954  1.00  0.00     0.049 A 
ATOM     37  N   UNL A   1      40.593  28.518  29.697  1.00  0.00    -0.248 NA
ATOM     38  C   UNL A   1      39.320  28.698  27.747  1.00  0.00     0.031 C 
ATOM     39  C   UNL A   1      37.956  31.561  31.639  1.00  0.00     0.029 A 
ATOM     40  N   UNL A   1      39.859  30.400  31.831  1.00  0.00    -0.354 N 
ATOM     41  C   UNL A   1      41.119  27.671  28.730  1.00  0.00     0.074 A 
ATOM     42  C   UNL A   1      40.287  27.809  27.553  1.00  0.00     0.031 C 
ATOM     43  C   UNL A   1      38.491  31.865  32.828  1.00  0.00     0.029 A 
ATOM     44  C   UNL A   1      39.689  31.055  33.025  1.00  0.00     0.049 A 
ATOM     45  H   UNL A   1      40.643  29.843  31.625  1.00  0.00     0.167 HD
ATOM     46  C   UNL A   1      42.192  26.848  28.831  1.00  0.00     0.037 A 
ATOM     47  C   UNL A   1      40.373  30.972  34.179  1.00  0.00     0.037 A 
ATOM     48  C   UNL A   1      43.032  26.743  29.999  1.00  0.00     0.049 A 
ATOM     49  C   UNL A   1      41.538  30.038  34.278  1.00  0.00     0.074 A 
ATOM     50  C   UNL A   1      44.170  25.974  30.180  1.00  0.00     0.029 A 
ATOM     51  N   UNL A   1      42.823  27.430  31.186  1.00  0.00    -0.354 N 
ATOM     52  N   UNL A   1      42.011  29.219  33.372  1.00  0.00    -0.248 NA
ATOM     53  C   UNL A   1      42.252  30.002  35.559  1.00  0.00     0.031 C 
ATOM     54  C   UNL A   1      44.627  26.169  31.489  1.00  0.00     0.029 A 
ATOM     55  C   UNL A   1      43.797  27.086  32.112  1.00  0.00     0.049 A 
ATOM     56  H   UNL A   1      42.091  28.069  31.348  1.00  0.00     0.167 HD
ATOM     57  C   UNL A   1      43.075  28.565  33.971  1.00  0.00     0.074 A 
ATOM     58  C   UNL A   1      43.190  29.097  35.314  1.00  0.00     0.031 C 
ATOM     59  C   UNL A   1      43.882  27.609  33.452  1.00  0.00     0.037 A 
BRANCH  46  60
ATOM     60  C   UNL A   1      42.509  25.961  27.661  1.00  0.00     0.064 A 
ATOM     61  C   UNL A   1      43.472  26.308  26.705  1.00  0.00     0.173 A 
ATOM     62  C   UNL A   1      41.880  24.712  27.536  1.00  0.00     0.173 A 
ATOM     63  F   UNL A   1      44.099  27.492  26.776  1.00  0.00    -0.203 F 
ATOM     64  C   UNL A   1      43.785  25.443  25.657  1.00  0.00     0.198 A 
ATOM     65  C   UNL A   1      42.209  23.842  26.499  1.00  0.00     0.198 A 
ATOM     66  F   UNL A   1      40.956  24.327  28.430  1.00  0.00    -0.203 F 
ATOM     67  F   UNL A   1      44.691  25.806  24.738  1.00  0.00    -0.200 F 
ATOM     68  C   UNL A   1      43.158  24.210  25.558  1.00  0.00     0.200 A 
ATOM     69  F   UNL A   1      41.610  22.645  26.414  1.00  0.00    -0.200 F 
ATOM     70  F   UNL A   1      43.466  23.377  24.555  1.00  0.00    -0.200 F 
ENDBRANCH  46  60
BRANCH  47  71
ATOM     71  C   UNL A   1      39.906  31.772  35.337  1.00  0.00     0.064 A 
ATOM     72  C   UNL A   1      40.398  33.062  35.564  1.00  0.00     0.173 A 
ATOM     73  C   UNL A   1      38.875  31.304  36.166  1.00  0.00     0.173 A 
ATOM     74  F   UNL A   1      41.394  33.543  34.804  1.00  0.00    -0.203 F 
ATOM     75  C   UNL A   1      39.864  33.864  36.571  1.00  0.00     0.198 A 
ATOM     76  C   UNL A   1      38.326  32.114  37.155  1.00  0.00     0.198 A 
ATOM     77  F   UNL A   1      38.365  30.078  35.975  1.00  0.00    -0.203 F 
ATOM     78  F   UNL A   1      40.351  35.095  36.773  1.00  0.00    -0.200 F 
ATOM     79  C   UNL A   1      38.819  33.394  37.355  1.00  0.00     0.200 A 
ATOM     80  F   UNL A   1      37.301  31.666  37.892  1.00  0.00    -0.200 F 
ATOM     81  F   UNL A   1      38.281  34.179  38.298  1.00  0.00    -0.200 F 
ENDBRANCH  47  71
BRANCH  59  82
ATOM     82  C   UNL A   1      44.961  27.080  34.345  1.00  0.00     0.064 A 
ATOM     83  C   UNL A   1      44.749  25.952  35.151  1.00  0.00     0.173 A 
ATOM     84  C   UNL A   1      46.220  27.694  34.384  1.00  0.00     0.173 A 
ATOM     85  F   UNL A   1      43.553  25.345  35.161  1.00  0.00    -0.203 F 
ATOM     86  C   UNL A   1      45.759  25.468  35.978  1.00  0.00     0.198 A 
ATOM     87  C   UNL A   1      47.233  27.195  35.197  1.00  0.00     0.198 A 
ATOM     88  F   UNL A   1      46.467  28.776  33.630  1.00  0.00    -0.203 F 
ATOM     89  F   UNL A   1      45.525  24.412  36.770  1.00  0.00    -0.200 F 
ATOM     90  C   UNL A   1      46.999  26.087  35.997  1.00  0.00     0.200 A 
ATOM     91  F   UNL A   1      48.433  27.792  35.213  1.00  0.00    -0.200 F 
ATOM     92  F   UNL A   1      47.970  25.620  36.796  1.00  0.00    -0.200 F 
ENDBRANCH  59  82
ENDBRANCH  33  34
ENDBRANCH  26  28
ENDBRANCH  25  26
ENDBRANCH  24  25
ENDBRANCH  23  24
ENDBRANCH   1  23
TORSDOF 17
ENDMDL
MODEL 2
REMARK VINA RESULT:     -11.1      4.484      9.760
REMARK SMILES CC[C@](C)(NC(=O)CCOc1ccc(Cl)c(Cl)c1)C(=O)OCCOC(=O)c1ccc(-c2c3nc(c(-c4c(F)c(F)c(F)c(F)c4F)c4ccc([nH]4)c(-c4c(F)c(F)c(F)c(F)c4F)c4nc(c(-c5c(F)c(F)c(F)c(F)c5F)c5ccc2[nH]5)C=C4)C=C3)cc1
REMARK SMILES IDX 21 1 19 2 20 3 3 4 4 5 2 6 1 7 5 8 6 9 7 11 8 12 9 13 10 14
REMARK SMILES IDX 11 15 12 16 18 17 13 18 16 19 14 20 17 21 15 22 22 23 23 24
REMARK SMILES IDX 24 25 25 26 26 27 27 28 28 29 89 30 29 31 88 32 30 33 31 34
REMARK SMILES IDX 32 35 82 36 33 37 87 38 81 39 83 40 34 41 86 42 80 43 79 44
REMARK SMILES IDX 35 46 67 47 47 48 66 49 48 50 51 51 65 52 84 53 49 54 50 55
REMARK SMILES IDX 64 57 85 58 52 59 36 60 37 61 45 62 38 63 39 64 43 65 46 66
REMARK SMILES IDX 40 67 41 68 44 69 42 70 68 71 69 72 77 73 70 74 71 75 75 76
REMARK SMILES IDX 78 77 72 78 73 79 76 80 74 81 53 82 54 83 62 84 55 85 56 86
REMARK SMILES IDX 60 87 63 88 57 89 58 90 61 91 59 92
REMARK H PARENT 5 10 83 45 51 56
REMARK Flexibility Score: inf
ROOT
ATOM      1  O   UNL A   1      35.153  22.650  24.976  1.00  0.00    -0.460 OA
ENDROOT
BRANCH   1   2
ATOM      2  C   UNL A   1      33.879  22.406  24.574  1.00  0.00     0.331 C 
ATOM      3  O   UNL A   1      33.414  22.800  23.506  1.00  0.00    -0.249 OA
BRANCH   2   4
ATOM      4  C   UNL A   1      33.037  21.563  25.574  1.00  0.00     0.135 C 
ATOM      5  C   UNL A   1      33.983  21.232  26.731  1.00  0.00     0.047 C 
BRANCH   4   6
ATOM      6  C   UNL A   1      32.672  20.258  24.794  1.00  0.00     0.037 C 
ATOM      7  C   UNL A   1      32.900  18.962  25.569  1.00  0.00     0.007 C 
ENDBRANCH   4   6
BRANCH   4   8
ATOM      8  N   UNL A   1      31.759  22.113  26.110  1.00  0.00    -0.340 N 
ATOM      9  C   UNL A   1      31.427  23.281  26.722  1.00  0.00     0.224 C 
ATOM     10  H   UNL A   1      30.995  21.502  25.997  1.00  0.00     0.164 HD
ATOM     11  O   UNL A   1      30.381  23.301  27.377  1.00  0.00    -0.275 OA
BRANCH   9  12
ATOM     12  C   UNL A   1      32.249  24.528  26.544  1.00  0.00     0.141 C 
BRANCH  12  13
ATOM     13  C   UNL A   1      31.723  25.457  25.451  1.00  0.00     0.239 C 
BRANCH  13  14
ATOM     14  O   UNL A   1      32.736  26.343  24.959  1.00  0.00    -0.493 OA
BRANCH  14  15
ATOM     15  C   UNL A   1      32.832  27.605  25.467  1.00  0.00     0.120 A 
ATOM     16  C   UNL A   1      31.846  28.586  25.441  1.00  0.00     0.048 A 
ATOM     17  C   UNL A   1      34.045  27.874  26.111  1.00  0.00     0.068 A 
ATOM     18  C   UNL A   1      32.043  29.800  26.108  1.00  0.00     0.026 A 
ATOM     19  C   UNL A   1      34.244  29.079  26.791  1.00  0.00     0.063 A 
ATOM     20  C   UNL A   1      33.233  30.043  26.798  1.00  0.00     0.059 A 
ATOM     21  Cl  UNL A   1      35.731  29.282  27.644  1.00  0.00    -0.083 Cl
ATOM     22  Cl  UNL A   1      33.375  31.535  27.655  1.00  0.00    -0.083 Cl
ENDBRANCH  14  15
ENDBRANCH  13  14
ENDBRANCH  12  13
ENDBRANCH   9  12
ENDBRANCH   4   8
ENDBRANCH   2   4
ENDBRANCH   1   2
BRANCH   1  23
ATOM     23  C   UNL A   1      36.165  22.343  23.992  1.00  0.00     0.274 C 
BRANCH  23  24
ATOM     24  C   UNL A   1      37.132  21.269  24.490  1.00  0.00     0.275 C 
BRANCH  24  25
ATOM     25  O   UNL A   1      37.546  21.530  25.847  1.00  0.00    -0.458 OA
BRANCH  25  26
ATOM     26  C   UNL A   1      38.875  21.412  26.067  1.00  0.00     0.338 C 
ATOM     27  O   UNL A   1      39.558  20.413  25.905  1.00  0.00    -0.246 OA
BRANCH  26  28
ATOM     28  C   UNL A   1      39.459  22.653  26.601  1.00  0.00     0.060 A 
ATOM     29  C   UNL A   1      39.067  23.912  26.148  1.00  0.00     0.016 A 
ATOM     30  C   UNL A   1      40.549  22.524  27.466  1.00  0.00     0.016 A 
ATOM     31  C   UNL A   1      39.830  25.036  26.484  1.00  0.00     0.010 A 
ATOM     32  C   UNL A   1      41.255  23.655  27.870  1.00  0.00     0.010 A 
ATOM     33  C   UNL A   1      40.921  24.920  27.363  1.00  0.00    -0.014 A 
BRANCH  33  34
ATOM     34  C   UNL A   1      41.667  26.110  27.850  1.00  0.00     0.031 A 
ATOM     35  C   UNL A   1      40.984  27.195  28.633  1.00  0.00     0.074 A 
ATOM     36  C   UNL A   1      42.953  26.259  27.480  1.00  0.00     0.049 A 
ATOM     37  N   UNL A   1      41.397  28.409  28.898  1.00  0.00    -0.248 NA
ATOM     38  C   UNL A   1      39.655  26.880  29.181  1.00  0.00     0.031 C 
ATOM     39  C   UNL A   1      43.728  25.276  26.723  1.00  0.00     0.029 A 
ATOM     40  N   UNL A   1      43.822  27.307  27.657  1.00  0.00    -0.354 N 
ATOM     41  C   UNL A   1      40.368  29.018  29.605  1.00  0.00     0.074 A 
ATOM     42  C   UNL A   1      39.312  28.036  29.738  1.00  0.00     0.031 C 
ATOM     43  C   UNL A   1      44.956  25.762  26.500  1.00  0.00     0.029 A 
ATOM     44  C   UNL A   1      45.022  27.124  27.018  1.00  0.00     0.049 A 
ATOM     45  H   UNL A   1      43.606  28.107  28.188  1.00  0.00     0.167 HD
ATOM     46  C   UNL A   1      40.315  30.285  30.084  1.00  0.00     0.037 A 
ATOM     47  C   UNL A   1      46.044  27.972  26.806  1.00  0.00     0.037 A 
ATOM     48  C   UNL A   1      41.386  31.245  29.972  1.00  0.00     0.049 A 
ATOM     49  C   UNL A   1      45.954  29.375  27.320  1.00  0.00     0.074 A 
ATOM     50  C   UNL A   1      41.445  32.537  30.468  1.00  0.00     0.029 A 
ATOM     51  N   UNL A   1      42.588  31.014  29.319  1.00  0.00    -0.354 N 
ATOM     52  N   UNL A   1      44.967  29.952  27.960  1.00  0.00    -0.248 NA
ATOM     53  C   UNL A   1      47.106  30.248  27.069  1.00  0.00     0.031 C 
ATOM     54  C   UNL A   1      42.668  33.099  30.081  1.00  0.00     0.029 A 
ATOM     55  C   UNL A   1      43.386  32.147  29.378  1.00  0.00     0.049 A 
ATOM     56  H   UNL A   1      42.837  30.169  28.877  1.00  0.00     0.167 HD
ATOM     57  C   UNL A   1      45.374  31.257  28.187  1.00  0.00     0.074 A 
ATOM     58  C   UNL A   1      46.707  31.381  27.631  1.00  0.00     0.031 C 
ATOM     59  C   UNL A   1      44.700  32.260  28.799  1.00  0.00     0.037 A 
BRANCH  46  60
ATOM     60  C   UNL A   1      39.043  30.733  30.746  1.00  0.00     0.064 A 
ATOM     61  C   UNL A   1      37.966  31.249  30.013  1.00  0.00     0.173 A 
ATOM     62  C   UNL A   1      38.879  30.578  32.132  1.00  0.00     0.173 A 
ATOM     63  F   UNL A   1      38.072  31.422  28.687  1.00  0.00    -0.203 F 
ATOM     64  C   UNL A   1      36.776  31.608  30.645  1.00  0.00     0.198 A 
ATOM     65  C   UNL A   1      37.682  30.919  32.757  1.00  0.00     0.198 A 
ATOM     66  F   UNL A   1      39.876  30.079  32.878  1.00  0.00    -0.203 F 
ATOM     67  F   UNL A   1      35.768  32.125  29.929  1.00  0.00    -0.200 F 
ATOM     68  C   UNL A   1      36.634  31.438  32.014  1.00  0.00     0.200 A 
ATOM     69  F   UNL A   1      37.543  30.741  34.079  1.00  0.00    -0.200 F 
ATOM     70  F   UNL A   1      35.486  31.776  32.619  1.00  0.00    -0.200 F 
ENDBRANCH  46  60
BRANCH  47  71
ATOM     71  C   UNL A   1      47.204  27.498  26.014  1.00  0.00     0.064 A 
ATOM     72  C   UNL A   1      47.231  27.642  24.622  1.00  0.00     0.173 A 
ATOM     73  C   UNL A   1      48.353  27.001  26.649  1.00  0.00     0.173 A 
ATOM     74  F   UNL A   1      46.149  28.100  23.975  1.00  0.00    -0.203 F 
ATOM     75  C   UNL A   1      48.374  27.321  23.893  1.00  0.00     0.198 A 
ATOM     76  C   UNL A   1      49.502  26.703  25.922  1.00  0.00     0.198 A 
ATOM     77  F   UNL A   1      48.375  26.859  27.982  1.00  0.00    -0.203 F 
ATOM     78  F   UNL A   1      48.378  27.464  22.561  1.00  0.00    -0.200 F 
ATOM     79  C   UNL A   1      49.512  26.866  24.545  1.00  0.00     0.200 A 
ATOM     80  F   UNL A   1      50.605  26.288  26.558  1.00  0.00    -0.200 F 
ATOM     81  F   UNL A   1      50.622  26.592  23.846  1.00  0.00    -0.200 F 
ENDBRANCH  47  71
BRANCH  59  82
ATOM     82  C   UNL A   1      45.401  33.579  28.898  1.00  0.00     0.064 A 
ATOM     83  C   UNL A   1      46.256  33.869  29.970  1.00  0.00     0.173 A 
ATOM     84  C   UNL A   1      45.230  34.553  27.904  1.00  0.00     0.173 A 
ATOM     85  F   UNL A   1      46.433  32.974  30.954  1.00  0.00    -0.203 F 
ATOM     86  C   UNL A   1      46.903  35.099  30.053  1.00  0.00     0.198 A 
ATOM     87  C   UNL A   1      45.895  35.774  27.981  1.00  0.00     0.198 A 
ATOM     88  F   UNL A   1      44.422  34.319  26.860  1.00  0.00    -0.203 F 
ATOM     89  F   UNL A   1      47.687  35.373  31.106  1.00  0.00    -0.200 F 
ATOM     90  C   UNL A   1      46.725  36.047  29.057  1.00  0.00     0.200 A 
ATOM     91  F   UNL A   1      45.725  36.689  27.016  1.00  0.00    -0.200 F 
ATOM     92  F   UNL A   1      47.348  37.232  29.139  1.00  0.00    -0.200 F 
ENDBRANCH  59  82
ENDBRANCH  33  34
ENDBRANCH  26  28
ENDBRANCH  25  26
ENDBRANCH  24  25
ENDBRANCH  23  24
ENDBRANCH   1  23
TORSDOF 17
ENDMDL
MODEL 3
REMARK VINA RESULT:     -10.9      0.759      1.758
REMARK SMILES CC[C@](C)(NC(=O)CCOc1ccc(Cl)c(Cl)c1)C(=O)OCCOC(=O)c1ccc(-c2c3nc(c(-c4c(F)c(F)c(F)c(F)c4F)c4ccc([nH]4)c(-c4c(F)c(F)c(F)c(F)c4F)c4nc(c(-c5c(F)c(F)c(F)c(F)c5F)c5ccc2[nH]5)C=C4)C=C3)cc1
REMARK SMILES IDX 21 1 19 2 20 3 3 4 4 5 2 6 1 7 5 8 6 9 7 11 8 12 9 13 10 14
REMARK SMILES IDX 11 15 12 16 18 17 13 18 16 19 14 20 17 21 15 22 22 23 23 24
REMARK SMILES IDX 24 25 25 26 26 27 27 28 28 29 89 30 29 31 88 32 30 33 31 34
REMARK SMILES IDX 32 35 82 36 33 37 87 38 81 39 83 40 34 41 86 42 80 43 79 44
REMARK SMILES IDX 35 46 67 47 47 48 66 49 48 50 51 51 65 52 84 53 49 54 50 55
REMARK SMILES IDX 64 57 85 58 52 59 36 60 37 61 45 62 38 63 39 64 43 65 46 66
REMARK SMILES IDX 40 67 41 68 44 69 42 70 68 71 69 72 77 73 70 74 71 75 75 76
REMARK SMILES IDX 78 77 72 78 73 79 76 80 74 81 53 82 54 83 62 84 55 85 56 86
REMARK SMILES IDX 60 87 63 88 57 89 58 90 61 91 59 92
REMARK H PARENT 5 10 83 45 51 56
REMARK Flexibility Score: inf
ROOT
ATOM      1  O   UNL A   1      32.384  27.621  25.290  1.00  0.00    -0.460 OA
ENDROOT
BRANCH   1   2
ATOM      2  C   UNL A   1      31.572  27.192  24.290  1.00  0.00     0.331 C 
ATOM      3  O   UNL A   1      30.664  26.378  24.451  1.00  0.00    -0.249 OA
BRANCH   2   4
ATOM      4  C   UNL A   1      31.868  27.827  22.900  1.00  0.00     0.135 C 
ATOM      5  C   UNL A   1      33.018  28.811  23.135  1.00  0.00     0.047 C 
BRANCH   4   6
ATOM      6  C   UNL A   1      30.566  28.610  22.529  1.00  0.00     0.037 C 
ATOM      7  C   UNL A   1      30.133  29.658  23.553  1.00  0.00     0.007 C 
ENDBRANCH   4   6
BRANCH   4   8
ATOM      8  N   UNL A   1      32.185  26.948  21.739  1.00  0.00    -0.340 N 
ATOM      9  C   UNL A   1      32.691  25.691  21.628  1.00  0.00     0.224 C 
ATOM     10  H   UNL A   1      31.986  27.366  20.870  1.00  0.00     0.164 HD
ATOM     11  O   UNL A   1      33.182  25.371  20.542  1.00  0.00    -0.275 OA
BRANCH   9  12
ATOM     12  C   UNL A   1      32.583  24.694  22.750  1.00  0.00     0.141 C 
BRANCH  12  13
ATOM     13  C   UNL A   1      33.841  23.849  22.939  1.00  0.00     0.239 C 
BRANCH  13  14
ATOM     14  O   UNL A   1      34.659  24.327  24.014  1.00  0.00    -0.493 OA
BRANCH  14  15
ATOM     15  C   UNL A   1      35.670  23.546  24.491  1.00  0.00     0.120 A 
ATOM     16  C   UNL A   1      35.983  22.254  24.080  1.00  0.00     0.048 A 
ATOM     17  C   UNL A   1      36.474  24.170  25.452  1.00  0.00     0.068 A 
ATOM     18  C   UNL A   1      37.125  21.615  24.575  1.00  0.00     0.026 A 
ATOM     19  C   UNL A   1      37.624  23.542  25.941  1.00  0.00     0.063 A 
ATOM     20  C   UNL A   1      37.956  22.262  25.492  1.00  0.00     0.059 A 
ATOM     21  Cl  UNL A   1      38.611  24.428  27.046  1.00  0.00    -0.083 Cl
ATOM     22  Cl  UNL A   1      39.384  21.438  26.005  1.00  0.00    -0.083 Cl
ENDBRANCH  14  15
ENDBRANCH  13  14
ENDBRANCH  12  13
ENDBRANCH   9  12
ENDBRANCH   4   8
ENDBRANCH   2   4
ENDBRANCH   1   2
BRANCH   1  23
ATOM     23  C   UNL A   1      31.720  27.836  26.555  1.00  0.00     0.274 C 
BRANCH  23  24
ATOM     24  C   UNL A   1      31.757  29.306  26.972  1.00  0.00     0.275 C 
BRANCH  24  25
ATOM     25  O   UNL A   1      32.851  30.000  26.338  1.00  0.00    -0.458 OA
BRANCH  25  26
ATOM     26  C   UNL A   1      33.331  31.056  27.033  1.00  0.00     0.338 C 
ATOM     27  O   UNL A   1      32.799  32.146  27.169  1.00  0.00    -0.246 OA
BRANCH  26  28
ATOM     28  C   UNL A   1      34.659  30.782  27.607  1.00  0.00     0.060 A 
ATOM     29  C   UNL A   1      35.033  29.509  28.036  1.00  0.00     0.016 A 
ATOM     30  C   UNL A   1      35.481  31.881  27.866  1.00  0.00     0.016 A 
ATOM     31  C   UNL A   1      36.186  29.353  28.813  1.00  0.00     0.010 A 
ATOM     32  C   UNL A   1      36.675  31.710  28.564  1.00  0.00     0.010 A 
ATOM     33  C   UNL A   1      37.028  30.450  29.069  1.00  0.00    -0.014 A 
BRANCH  33  34
ATOM     34  C   UNL A   1      38.329  30.295  29.770  1.00  0.00     0.031 A 
ATOM     35  C   UNL A   1      39.414  29.413  29.220  1.00  0.00     0.074 A 
ATOM     36  C   UNL A   1      38.482  30.872  30.977  1.00  0.00     0.049 A 
ATOM     37  N   UNL A   1      40.484  28.949  29.816  1.00  0.00    -0.248 NA
ATOM     38  C   UNL A   1      39.273  28.986  27.819  1.00  0.00     0.031 C 
ATOM     39  C   UNL A   1      37.505  31.753  31.617  1.00  0.00     0.029 A 
ATOM     40  N   UNL A   1      39.499  30.778  31.894  1.00  0.00    -0.354 N 
ATOM     41  C   UNL A   1      41.123  28.143  28.882  1.00  0.00     0.074 A 
ATOM     42  C   UNL A   1      40.326  28.189  27.673  1.00  0.00     0.031 C 
ATOM     43  C   UNL A   1      37.964  32.119  32.819  1.00  0.00     0.029 A 
ATOM     44  C   UNL A   1      39.224  31.427  33.071  1.00  0.00     0.049 A 
ATOM     45  H   UNL A   1      40.339  30.293  31.725  1.00  0.00     0.167 HD
ATOM     46  C   UNL A   1      42.263  27.425  29.033  1.00  0.00     0.037 A 
ATOM     47  C   UNL A   1      39.869  31.421  34.251  1.00  0.00     0.037 A 
ATOM     48  C   UNL A   1      43.065  27.412  30.233  1.00  0.00     0.049 A 
ATOM     49  C   UNL A   1      41.112  30.602  34.405  1.00  0.00     0.074 A 
ATOM     50  C   UNL A   1      44.261  26.755  30.466  1.00  0.00     0.029 A 
ATOM     51  N   UNL A   1      42.749  28.090  31.401  1.00  0.00    -0.354 N 
ATOM     52  N   UNL A   1      41.692  29.820  33.529  1.00  0.00    -0.248 NA
ATOM     53  C   UNL A   1      41.777  30.647  35.712  1.00  0.00     0.031 C 
ATOM     54  C   UNL A   1      44.650  27.006  31.788  1.00  0.00     0.029 A 
ATOM     55  C   UNL A   1      43.715  27.849  32.366  1.00  0.00     0.049 A 
ATOM     56  H   UNL A   1      41.954  28.659  31.526  1.00  0.00     0.167 HD
ATOM     57  C   UNL A   1      42.790  29.275  34.175  1.00  0.00     0.074 A 
ATOM     58  C   UNL A   1      42.804  29.831  35.514  1.00  0.00     0.031 C 
ATOM     59  C   UNL A   1      43.701  28.393  33.700  1.00  0.00     0.037 A 
BRANCH  46  60
ATOM     60  C   UNL A   1      42.704  26.559  27.889  1.00  0.00     0.064 A 
ATOM     61  C   UNL A   1      42.253  25.241  27.738  1.00  0.00     0.173 A 
ATOM     62  C   UNL A   1      43.542  27.084  26.892  1.00  0.00     0.173 A 
ATOM     63  F   UNL A   1      41.455  24.689  28.664  1.00  0.00    -0.203 F 
ATOM     64  C   UNL A   1      42.636  24.474  26.638  1.00  0.00     0.198 A 
ATOM     65  C   UNL A   1      43.906  26.322  25.784  1.00  0.00     0.198 A 
ATOM     66  F   UNL A   1      43.994  28.343  26.983  1.00  0.00    -0.203 F 
ATOM     67  F   UNL A   1      42.215  23.206  26.527  1.00  0.00    -0.200 F 
ATOM     68  C   UNL A   1      43.457  25.017  25.661  1.00  0.00     0.200 A 
ATOM     69  F   UNL A   1      44.689  26.853  24.834  1.00  0.00    -0.200 F 
ATOM     70  F   UNL A   1      43.817  24.281  24.600  1.00  0.00    -0.200 F 
ENDBRANCH  46  60
BRANCH  47  71
ATOM     71  C   UNL A   1      39.287  32.187  35.379  1.00  0.00     0.064 A 
ATOM     72  C   UNL A   1      38.476  31.559  36.331  1.00  0.00     0.173 A 
ATOM     73  C   UNL A   1      39.629  33.532  35.587  1.00  0.00     0.173 A 
ATOM     74  F   UNL A   1      38.113  30.280  36.162  1.00  0.00    -0.203 F 
ATOM     75  C   UNL A   1      38.040  32.246  37.462  1.00  0.00     0.198 A 
ATOM     76  C   UNL A   1      39.214  34.209  36.730  1.00  0.00     0.198 A 
ATOM     77  F   UNL A   1      40.416  34.169  34.707  1.00  0.00    -0.203 F 
ATOM     78  F   UNL A   1      37.262  31.627  38.360  1.00  0.00    -0.200 F 
ATOM     79  C   UNL A   1      38.421  33.565  37.667  1.00  0.00     0.200 A 
ATOM     80  F   UNL A   1      39.605  35.474  36.935  1.00  0.00    -0.200 F 
ATOM     81  F   UNL A   1      38.031  34.213  38.773  1.00  0.00    -0.200 F 
ENDBRANCH  47  71
BRANCH  59  82
ATOM     82  C   UNL A   1      44.790  27.977  34.640  1.00  0.00     0.064 A 
ATOM     83  C   UNL A   1      44.659  26.837  35.445  1.00  0.00     0.173 A 
ATOM     84  C   UNL A   1      45.979  28.714  34.723  1.00  0.00     0.173 A 
ATOM     85  F   UNL A   1      43.529  26.114  35.413  1.00  0.00    -0.203 F 
ATOM     86  C   UNL A   1      45.677  26.459  36.316  1.00  0.00     0.198 A 
ATOM     87  C   UNL A   1      47.003  28.321  35.580  1.00  0.00     0.198 A 
ATOM     88  F   UNL A   1      46.148  29.812  33.971  1.00  0.00    -0.203 F 
ATOM     89  F   UNL A   1      45.518  25.388  37.106  1.00  0.00    -0.200 F 
ATOM     90  C   UNL A   1      46.849  27.198  36.379  1.00  0.00     0.200 A 
ATOM     91  F   UNL A   1      48.137  29.034  35.639  1.00  0.00    -0.200 F 
ATOM     92  F   UNL A   1      47.828  26.833  37.219  1.00  0.00    -0.200 F 
ENDBRANCH  59  82
ENDBRANCH  33  34
ENDBRANCH  26  28
ENDBRANCH  25  26
ENDBRANCH  24  25
ENDBRANCH  23  24
ENDBRANCH   1  23
TORSDOF 17
ENDMDL
