MODEL 1
REMARK VINA RESULT:     -11.6      0.000      0.000
REMARK SMILES COCC1CC[NH+]([C@@H]2CCC[C@@]([NH3+])(C(=O)OCCOC(=O)c3ccc(-c4c5nc(c(-c6c(F)c(F)c(F)c(F)c6F)c6ccc([nH]6)c(-c6c(F)c(F)c(F)c(F)c6F)c6nc(c(-c7c(F)c(F)c(F)c(F)c7F)c7ccc4[nH]7)C=C6)C=C5)cc3)C2)CC1
REMARK SMILES IDX 17 1 16 2 14 3 15 4 12 5 8 6 9 7 85 8 10 9 11 10 7 11 4 12
REMARK SMILES IDX 5 13 87 14 6 15 86 16 3 18 2 19 1 20 13 21 18 25 19 26 20 27
REMARK SMILES IDX 21 28 22 29 23 30 84 31 24 32 83 33 25 34 26 35 27 36 77 37
REMARK SMILES IDX 28 38 82 39 76 40 78 41 29 42 81 43 75 44 74 45 30 47 62 48
REMARK SMILES IDX 42 49 61 50 43 51 46 52 60 53 79 54 44 55 45 56 59 58 80 59
REMARK SMILES IDX 47 60 31 61 32 62 40 63 33 64 34 65 38 66 41 67 35 68 36 69
REMARK SMILES IDX 39 70 37 71 63 72 64 73 72 74 65 75 66 76 70 77 73 78 67 79
REMARK SMILES IDX 68 80 71 81 69 82 48 83 49 84 57 85 50 86 51 87 55 88 58 89
REMARK SMILES IDX 52 90 53 91 56 92 54 93
REMARK H PARENT 7 17 13 22 13 23 13 24 78 46 46 57
REMARK Flexibility Score: inf
ROOT
ATOM      1  C   UNL A   1      31.696  30.439  26.382  1.00  0.00     0.274 C 
ENDROOT
BRANCH   1   2
ATOM      2  O   UNL A   1      31.206  30.092  25.073  1.00  0.00    -0.457 OA
BRANCH   2   3
ATOM      3  C   UNL A   1      32.028  29.313  24.323  1.00  0.00     0.368 C 
ATOM      4  O   UNL A   1      33.219  29.126  24.562  1.00  0.00    -0.245 OA
BRANCH   3   5
ATOM      5  C   UNL A   1      31.328  28.707  23.072  1.00  0.00     0.198 C 
ATOM      6  C   UNL A   1      31.817  26.231  23.572  1.00  0.00     0.190 C 
ATOM      7  C   UNL A   1      30.306  25.941  23.594  1.00  0.00     0.065 C 
ATOM      8  C   UNL A   1      32.098  27.439  22.650  1.00  0.00     0.145 C 
ATOM      9  C   UNL A   1      29.529  27.168  24.068  1.00  0.00     0.013 C 
ATOM     10  C   UNL A   1      29.826  28.406  23.225  1.00  0.00     0.081 C 
BRANCH   6  11
ATOM     11  N   UNL A   1      32.691  25.074  23.281  1.00  0.00    -0.332 N 
ATOM     12  C   UNL A   1      34.284  22.602  23.506  1.00  0.00     0.026 C 
ATOM     13  C   UNL A   1      34.884  23.998  23.665  1.00  0.00     0.067 C 
ATOM     14  C   UNL A   1      33.014  22.696  22.658  1.00  0.00     0.067 C 
ATOM     15  C   UNL A   1      33.873  25.024  24.155  1.00  0.00     0.262 C 
ATOM     16  C   UNL A   1      32.040  23.768  23.167  1.00  0.00     0.262 C 
ATOM     17  H   UNL A   1      33.003  25.267  22.328  1.00  0.00     0.348 HD
BRANCH  12  18
ATOM     18  C   UNL A   1      34.012  21.923  24.856  1.00  0.00     0.163 C 
BRANCH  18  19
ATOM     19  O   UNL A   1      34.630  20.642  24.951  1.00  0.00    -0.384 OA
ATOM     20  C   UNL A   1      36.044  20.716  25.033  1.00  0.00     0.194 C 
ENDBRANCH  18  19
ENDBRANCH  12  18
ENDBRANCH   6  11
BRANCH   5  21
ATOM     21  N   UNL A   1      31.462  29.727  21.992  1.00  0.00    -0.343 N 
ATOM     22  H   UNL A   1      31.672  29.262  21.109  1.00  0.00     0.345 HD
ATOM     23  H   UNL A   1      32.218  30.371  22.224  1.00  0.00     0.345 HD
ATOM     24  H   UNL A   1      30.588  30.247  21.904  1.00  0.00     0.345 HD
ENDBRANCH   5  21
ENDBRANCH   3   5
ENDBRANCH   2   3
ENDBRANCH   1   2
BRANCH   1  25
ATOM     25  C   UNL A   1      31.396  31.902  26.691  1.00  0.00     0.275 C 
BRANCH  25  26
ATOM     26  O   UNL A   1      32.585  32.694  26.514  1.00  0.00    -0.458 OA
BRANCH  26  27
ATOM     27  C   UNL A   1      33.068  33.260  27.645  1.00  0.00     0.338 C 
ATOM     28  O   UNL A   1      32.538  34.148  28.292  1.00  0.00    -0.246 OA
BRANCH  27  29
ATOM     29  C   UNL A   1      34.367  32.656  28.028  1.00  0.00     0.060 A 
ATOM     30  C   UNL A   1      34.466  31.315  28.382  1.00  0.00     0.016 A 
ATOM     31  C   UNL A   1      35.492  33.481  28.155  1.00  0.00     0.016 A 
ATOM     32  C   UNL A   1      35.637  30.846  28.983  1.00  0.00     0.010 A 
ATOM     33  C   UNL A   1      36.699  32.975  28.666  1.00  0.00     0.010 A 
ATOM     34  C   UNL A   1      36.776  31.664  29.153  1.00  0.00    -0.014 A 
BRANCH  34  35
ATOM     35  C   UNL A   1      37.971  31.140  29.907  1.00  0.00     0.031 A 
ATOM     36  C   UNL A   1      38.230  31.502  31.364  1.00  0.00     0.074 A 
ATOM     37  C   UNL A   1      38.769  30.217  29.328  1.00  0.00     0.049 A 
ATOM     38  N   UNL A   1      39.153  31.042  32.184  1.00  0.00    -0.248 NA
ATOM     39  C   UNL A   1      37.328  32.475  32.001  1.00  0.00     0.031 C 
ATOM     40  C   UNL A   1      38.648  29.746  27.947  1.00  0.00     0.029 A 
ATOM     41  N   UNL A   1      39.821  29.485  29.831  1.00  0.00    -0.354 N 
ATOM     42  C   UNL A   1      38.927  31.651  33.417  1.00  0.00     0.074 A 
ATOM     43  C   UNL A   1      37.794  32.532  33.242  1.00  0.00     0.031 C 
ATOM     44  C   UNL A   1      39.540  28.769  27.732  1.00  0.00     0.029 A 
ATOM     45  C   UNL A   1      40.363  28.604  28.925  1.00  0.00     0.049 A 
ATOM     46  H   UNL A   1      40.153  29.582  30.753  1.00  0.00     0.167 HD
ATOM     47  C   UNL A   1      39.571  31.466  34.597  1.00  0.00     0.037 A 
ATOM     48  C   UNL A   1      41.427  27.782  29.012  1.00  0.00     0.037 A 
ATOM     49  C   UNL A   1      40.683  30.576  34.801  1.00  0.00     0.049 A 
ATOM     50  C   UNL A   1      42.213  27.716  30.289  1.00  0.00     0.074 A 
ATOM     51  C   UNL A   1      41.371  30.308  35.974  1.00  0.00     0.029 A 
ATOM     52  N   UNL A   1      41.275  29.813  33.810  1.00  0.00    -0.354 N 
ATOM     53  N   UNL A   1      41.956  28.273  31.445  1.00  0.00    -0.248 NA
ATOM     54  C   UNL A   1      43.452  26.925  30.265  1.00  0.00     0.031 C 
ATOM     55  C   UNL A   1      42.388  29.393  35.691  1.00  0.00     0.029 A 
ATOM     56  C   UNL A   1      42.340  29.100  34.340  1.00  0.00     0.049 A 
ATOM     57  H   UNL A   1      40.984  29.780  32.871  1.00  0.00     0.167 HD
ATOM     58  C   UNL A   1      42.999  27.905  32.282  1.00  0.00     0.074 A 
ATOM     59  C   UNL A   1      43.878  27.049  31.515  1.00  0.00     0.031 C 
ATOM     60  C   UNL A   1      43.215  28.259  33.571  1.00  0.00     0.037 A 
BRANCH  47  61
ATOM     61  C   UNL A   1      39.075  32.214  35.805  1.00  0.00     0.064 A 
ATOM     62  C   UNL A   1      38.224  31.583  36.727  1.00  0.00     0.173 A 
ATOM     63  C   UNL A   1      39.517  33.507  36.108  1.00  0.00     0.173 A 
ATOM     64  F   UNL A   1      37.846  30.312  36.531  1.00  0.00    -0.203 F 
ATOM     65  C   UNL A   1      37.796  32.233  37.880  1.00  0.00     0.198 A 
ATOM     66  C   UNL A   1      39.099  34.152  37.272  1.00  0.00     0.198 A 
ATOM     67  F   UNL A   1      40.363  34.141  35.283  1.00  0.00    -0.203 F 
ATOM     68  F   UNL A   1      36.974  31.606  38.734  1.00  0.00    -0.200 F 
ATOM     69  C   UNL A   1      38.232  33.518  38.152  1.00  0.00     0.200 A 
ATOM     70  F   UNL A   1      39.539  35.388  37.547  1.00  0.00    -0.200 F 
ATOM     71  F   UNL A   1      37.829  34.141  39.268  1.00  0.00    -0.200 F 
ENDBRANCH  47  61
BRANCH  48  72
ATOM     72  C   UNL A   1      41.865  27.016  27.814  1.00  0.00     0.064 A 
ATOM     73  C   UNL A   1      42.772  27.550  26.890  1.00  0.00     0.173 A 
ATOM     74  C   UNL A   1      41.363  25.728  27.567  1.00  0.00     0.173 A 
ATOM     75  F   UNL A   1      43.251  28.791  27.060  1.00  0.00    -0.203 F 
ATOM     76  C   UNL A   1      43.158  26.825  25.763  1.00  0.00     0.198 A 
ATOM     77  C   UNL A   1      41.777  24.991  26.462  1.00  0.00     0.198 A 
ATOM     78  F   UNL A   1      40.479  25.177  28.413  1.00  0.00    -0.203 F 
ATOM     79  F   UNL A   1      43.992  27.373  24.869  1.00  0.00    -0.200 F 
ATOM     80  C   UNL A   1      42.670  25.542  25.557  1.00  0.00     0.200 A 
ATOM     81  F   UNL A   1      41.311  23.749  26.277  1.00  0.00    -0.200 F 
ATOM     82  F   UNL A   1      43.050  24.842  24.480  1.00  0.00    -0.200 F 
ENDBRANCH  48  72
BRANCH  60  83
ATOM     83  C   UNL A   1      44.458  27.740  34.224  1.00  0.00     0.064 A 
ATOM     84  C   UNL A   1      45.639  28.498  34.226  1.00  0.00     0.173 A 
ATOM     85  C   UNL A   1      44.471  26.494  34.868  1.00  0.00     0.173 A 
ATOM     86  F   UNL A   1      45.676  29.688  33.609  1.00  0.00    -0.203 F 
ATOM     87  C   UNL A   1      46.797  28.014  34.829  1.00  0.00     0.198 A 
ATOM     88  C   UNL A   1      45.625  26.024  35.489  1.00  0.00     0.198 A 
ATOM     89  F   UNL A   1      43.364  25.737  34.899  1.00  0.00    -0.203 F 
ATOM     90  F   UNL A   1      47.925  28.735  34.780  1.00  0.00    -0.200 F 
ATOM     91  C   UNL A   1      46.788  26.781  35.463  1.00  0.00     0.200 A 
ATOM     92  F   UNL A   1      45.614  24.837  36.110  1.00  0.00    -0.200 F 
ATOM     93  F   UNL A   1      47.904  26.316  36.041  1.00  0.00    -0.200 F 
ENDBRANCH  60  83
ENDBRANCH  34  35
ENDBRANCH  27  29
ENDBRANCH  26  27
ENDBRANCH  25  26
ENDBRANCH   1  25
TORSDOF 15
ENDMDL
MODEL 2
REMARK VINA RESULT:     -11.5      0.380      1.675
REMARK SMILES COCC1CC[NH+]([C@@H]2CCC[C@@]([NH3+])(C(=O)OCCOC(=O)c3ccc(-c4c5nc(c(-c6c(F)c(F)c(F)c(F)c6F)c6ccc([nH]6)c(-c6c(F)c(F)c(F)c(F)c6F)c6nc(c(-c7c(F)c(F)c(F)c(F)c7F)c7ccc4[nH]7)C=C6)C=C5)cc3)C2)CC1
REMARK SMILES IDX 17 1 16 2 14 3 15 4 12 5 8 6 9 7 85 8 10 9 11 10 7 11 4 12
REMARK SMILES IDX 5 13 87 14 6 15 86 16 3 18 2 19 1 20 13 21 18 25 19 26 20 27
REMARK SMILES IDX 21 28 22 29 23 30 84 31 24 32 83 33 25 34 26 35 27 36 77 37
REMARK SMILES IDX 28 38 82 39 76 40 78 41 29 42 81 43 75 44 74 45 30 47 62 48
REMARK SMILES IDX 42 49 61 50 43 51 46 52 60 53 79 54 44 55 45 56 59 58 80 59
REMARK SMILES IDX 47 60 31 61 32 62 40 63 33 64 34 65 38 66 41 67 35 68 36 69
REMARK SMILES IDX 39 70 37 71 63 72 64 73 72 74 65 75 66 76 70 77 73 78 67 79
REMARK SMILES IDX 68 80 71 81 69 82 48 83 49 84 57 85 50 86 51 87 55 88 58 89
REMARK SMILES IDX 52 90 53 91 56 92 54 93
REMARK H PARENT 7 17 13 22 13 23 13 24 78 46 46 57
REMARK Flexibility Score: inf
ROOT
ATOM      1  C   UNL A   1      31.643  30.443  26.415  1.00  0.00     0.274 C 
ENDROOT
BRANCH   1   2
ATOM      2  O   UNL A   1      31.230  30.200  25.057  1.00  0.00    -0.457 OA
BRANCH   2   3
ATOM      3  C   UNL A   1      32.063  29.424  24.317  1.00  0.00     0.368 C 
ATOM      4  O   UNL A   1      33.261  29.274  24.546  1.00  0.00    -0.245 OA
BRANCH   3   5
ATOM      5  C   UNL A   1      31.364  28.767  23.091  1.00  0.00     0.198 C 
ATOM      6  C   UNL A   1      31.984  26.325  23.612  1.00  0.00     0.190 C 
ATOM      7  C   UNL A   1      30.490  25.963  23.672  1.00  0.00     0.065 C 
ATOM      8  C   UNL A   1      32.185  27.531  22.667  1.00  0.00     0.145 C 
ATOM      9  C   UNL A   1      29.666  27.157  24.149  1.00  0.00     0.013 C 
ATOM     10  C   UNL A   1      29.883  28.396  23.283  1.00  0.00     0.081 C 
BRANCH   6  11
ATOM     11  N   UNL A   1      32.907  25.207  23.314  1.00  0.00    -0.332 N 
ATOM     12  C   UNL A   1      34.435  22.688  23.442  1.00  0.00     0.026 C 
ATOM     13  C   UNL A   1      34.981  24.020  23.950  1.00  0.00     0.067 C 
ATOM     14  C   UNL A   1      33.365  22.956  22.382  1.00  0.00     0.067 C 
ATOM     15  C   UNL A   1      33.885  24.981  24.389  1.00  0.00     0.262 C 
ATOM     16  C   UNL A   1      32.300  23.956  22.854  1.00  0.00     0.262 C 
ATOM     17  H   UNL A   1      33.405  25.545  22.491  1.00  0.00     0.348 HD
BRANCH  12  18
ATOM     18  C   UNL A   1      33.896  21.804  24.577  1.00  0.00     0.163 C 
BRANCH  18  19
ATOM     19  O   UNL A   1      33.144  20.696  24.087  1.00  0.00    -0.384 OA
ATOM     20  C   UNL A   1      32.662  19.856  25.123  1.00  0.00     0.194 C 
ENDBRANCH  18  19
ENDBRANCH  12  18
ENDBRANCH   6  11
BRANCH   5  21
ATOM     21  N   UNL A   1      31.424  29.777  21.995  1.00  0.00    -0.343 N 
ATOM     22  H   UNL A   1      31.344  29.306  21.093  1.00  0.00     0.345 HD
ATOM     23  H   UNL A   1      32.313  30.275  22.040  1.00  0.00     0.345 HD
ATOM     24  H   UNL A   1      30.657  30.441  22.102  1.00  0.00     0.345 HD
ENDBRANCH   5  21
ENDBRANCH   3   5
ENDBRANCH   2   3
ENDBRANCH   1   2
BRANCH   1  25
ATOM     25  C   UNL A   1      31.429  31.907  26.782  1.00  0.00     0.275 C 
BRANCH  25  26
ATOM     26  O   UNL A   1      32.647  32.646  26.577  1.00  0.00    -0.458 OA
BRANCH  26  27
ATOM     27  C   UNL A   1      33.161  33.221  27.691  1.00  0.00     0.338 C 
ATOM     28  O   UNL A   1      32.657  34.128  28.333  1.00  0.00    -0.246 OA
BRANCH  27  29
ATOM     29  C   UNL A   1      34.456  32.602  28.060  1.00  0.00     0.060 A 
ATOM     30  C   UNL A   1      34.540  31.263  28.427  1.00  0.00     0.016 A 
ATOM     31  C   UNL A   1      35.596  33.411  28.161  1.00  0.00     0.016 A 
ATOM     32  C   UNL A   1      35.713  30.782  29.014  1.00  0.00     0.010 A 
ATOM     33  C   UNL A   1      36.803  32.891  28.657  1.00  0.00     0.010 A 
ATOM     34  C   UNL A   1      36.867  31.585  29.158  1.00  0.00    -0.014 A 
BRANCH  34  35
ATOM     35  C   UNL A   1      38.065  31.050  29.899  1.00  0.00     0.031 A 
ATOM     36  C   UNL A   1      38.350  31.419  31.350  1.00  0.00     0.074 A 
ATOM     37  C   UNL A   1      38.843  30.112  29.315  1.00  0.00     0.049 A 
ATOM     38  N   UNL A   1      39.278  30.953  32.159  1.00  0.00    -0.248 NA
ATOM     39  C   UNL A   1      37.469  32.409  31.991  1.00  0.00     0.031 C 
ATOM     40  C   UNL A   1      38.697  29.634  27.939  1.00  0.00     0.029 A 
ATOM     41  N   UNL A   1      39.892  29.371  29.809  1.00  0.00    -0.354 N 
ATOM     42  C   UNL A   1      39.077  31.573  33.391  1.00  0.00     0.074 A 
ATOM     43  C   UNL A   1      37.954  32.467  33.226  1.00  0.00     0.031 C 
ATOM     44  C   UNL A   1      39.573  28.643  27.719  1.00  0.00     0.029 A 
ATOM     45  C   UNL A   1      40.410  28.477  28.901  1.00  0.00     0.049 A 
ATOM     46  H   UNL A   1      40.239  29.470  30.725  1.00  0.00     0.167 HD
ATOM     47  C   UNL A   1      39.736  31.389  34.563  1.00  0.00     0.037 A 
ATOM     48  C   UNL A   1      41.464  27.641  28.980  1.00  0.00     0.037 A 
ATOM     49  C   UNL A   1      40.840  30.485  34.758  1.00  0.00     0.049 A 
ATOM     50  C   UNL A   1      42.267  27.573  30.246  1.00  0.00     0.074 A 
ATOM     51  C   UNL A   1      41.540  30.217  35.923  1.00  0.00     0.029 A 
ATOM     52  N   UNL A   1      41.407  29.707  33.764  1.00  0.00    -0.354 N 
ATOM     53  N   UNL A   1      42.034  28.142  31.401  1.00  0.00    -0.248 NA
ATOM     54  C   UNL A   1      43.496  26.766  30.210  1.00  0.00     0.031 C 
ATOM     55  C   UNL A   1      42.541  29.286  35.632  1.00  0.00     0.029 A 
ATOM     56  C   UNL A   1      42.470  28.985  34.284  1.00  0.00     0.049 A 
ATOM     57  H   UNL A   1      41.103  29.672  32.829  1.00  0.00     0.167 HD
ATOM     58  C   UNL A   1      43.084  27.766  32.226  1.00  0.00     0.074 A 
ATOM     59  C   UNL A   1      43.941  26.894  31.452  1.00  0.00     0.031 C 
ATOM     60  C   UNL A   1      43.323  28.127  33.509  1.00  0.00     0.037 A 
BRANCH  47  61
ATOM     61  C   UNL A   1      39.267  32.151  35.773  1.00  0.00     0.064 A 
ATOM     62  C   UNL A   1      39.686  33.475  35.980  1.00  0.00     0.173 A 
ATOM     63  C   UNL A   1      38.330  31.618  36.666  1.00  0.00     0.173 A 
ATOM     64  F   UNL A   1      40.511  34.064  35.104  1.00  0.00    -0.203 F 
ATOM     65  C   UNL A   1      39.224  34.220  37.060  1.00  0.00     0.198 A 
ATOM     66  C   UNL A   1      37.856  32.372  37.740  1.00  0.00     0.198 A 
ATOM     67  F   UNL A   1      37.865  30.373  36.491  1.00  0.00    -0.203 F 
ATOM     68  F   UNL A   1      39.654  35.478  37.236  1.00  0.00    -0.200 F 
ATOM     69  C   UNL A   1      38.310  33.668  37.941  1.00  0.00     0.200 A 
ATOM     70  F   UNL A   1      36.954  31.845  38.579  1.00  0.00    -0.200 F 
ATOM     71  F   UNL A   1      37.855  34.389  38.975  1.00  0.00    -0.200 F 
ENDBRANCH  47  61
BRANCH  48  72
ATOM     72  C   UNL A   1      41.875  26.861  27.781  1.00  0.00     0.064 A 
ATOM     73  C   UNL A   1      42.769  27.380  26.836  1.00  0.00     0.173 A 
ATOM     74  C   UNL A   1      41.360  25.574  27.555  1.00  0.00     0.173 A 
ATOM     75  F   UNL A   1      43.260  28.619  26.986  1.00  0.00    -0.203 F 
ATOM     76  C   UNL A   1      43.130  26.641  25.709  1.00  0.00     0.198 A 
ATOM     77  C   UNL A   1      41.749  24.824  26.450  1.00  0.00     0.198 A 
ATOM     78  F   UNL A   1      40.488  25.038  28.421  1.00  0.00    -0.203 F 
ATOM     79  F   UNL A   1      43.951  27.175  24.795  1.00  0.00    -0.200 F 
ATOM     80  C   UNL A   1      42.629  25.361  25.523  1.00  0.00     0.200 A 
ATOM     81  F   UNL A   1      41.271  23.584  26.284  1.00  0.00    -0.200 F 
ATOM     82  F   UNL A   1      42.985  24.648  24.447  1.00  0.00    -0.200 F 
ENDBRANCH  48  72
BRANCH  60  83
ATOM     83  C   UNL A   1      44.568  27.596  34.149  1.00  0.00     0.064 A 
ATOM     84  C   UNL A   1      44.574  26.343  34.780  1.00  0.00     0.173 A 
ATOM     85  C   UNL A   1      45.765  28.326  34.117  1.00  0.00     0.173 A 
ATOM     86  F   UNL A   1      43.448  25.617  34.847  1.00  0.00    -0.203 F 
ATOM     87  C   UNL A   1      45.730  25.850  35.378  1.00  0.00     0.198 A 
ATOM     88  C   UNL A   1      46.925  27.819  34.698  1.00  0.00     0.198 A 
ATOM     89  F   UNL A   1      45.811  29.525  33.519  1.00  0.00    -0.203 F 
ATOM     90  F   UNL A   1      45.702  24.671  36.014  1.00  0.00    -0.200 F 
ATOM     91  C   UNL A   1      46.905  26.586  35.333  1.00  0.00     0.200 A 
ATOM     92  F   UNL A   1      48.062  28.526  34.647  1.00  0.00    -0.200 F 
ATOM     93  F   UNL A   1      48.016  26.111  35.912  1.00  0.00    -0.200 F 
ENDBRANCH  60  83
ENDBRANCH  34  35
ENDBRANCH  27  29
ENDBRANCH  26  27
ENDBRANCH  25  26
ENDBRANCH   1  25
TORSDOF 15
ENDMDL
MODEL 3
REMARK VINA RESULT:     -11.5      1.623      3.962
REMARK SMILES COCC1CC[NH+]([C@@H]2CCC[C@@]([NH3+])(C(=O)OCCOC(=O)c3ccc(-c4c5nc(c(-c6c(F)c(F)c(F)c(F)c6F)c6ccc([nH]6)c(-c6c(F)c(F)c(F)c(F)c6F)c6nc(c(-c7c(F)c(F)c(F)c(F)c7F)c7ccc4[nH]7)C=C6)C=C5)cc3)C2)CC1
REMARK SMILES IDX 17 1 16 2 14 3 15 4 12 5 8 6 9 7 85 8 10 9 11 10 7 11 4 12
REMARK SMILES IDX 5 13 87 14 6 15 86 16 3 18 2 19 1 20 13 21 18 25 19 26 20 27
REMARK SMILES IDX 21 28 22 29 23 30 84 31 24 32 83 33 25 34 26 35 27 36 77 37
REMARK SMILES IDX 28 38 82 39 76 40 78 41 29 42 81 43 75 44 74 45 30 47 62 48
REMARK SMILES IDX 42 49 61 50 43 51 46 52 60 53 79 54 44 55 45 56 59 58 80 59
REMARK SMILES IDX 47 60 31 61 32 62 40 63 33 64 34 65 38 66 41 67 35 68 36 69
REMARK SMILES IDX 39 70 37 71 63 72 64 73 72 74 65 75 66 76 70 77 73 78 67 79
REMARK SMILES IDX 68 80 71 81 69 82 48 83 49 84 57 85 50 86 51 87 55 88 58 89
REMARK SMILES IDX 52 90 53 91 56 92 54 93
REMARK H PARENT 7 17 13 22 13 23 13 24 78 46 46 57
REMARK Flexibility Score: inf
ROOT
ATOM      1  C   UNL A   1      32.415  28.768  25.467  1.00  0.00     0.274 C 
ENDROOT
BRANCH   1   2
ATOM      2  O   UNL A   1      31.388  27.842  25.873  1.00  0.00    -0.457 OA
BRANCH   2   3
ATOM      3  C   UNL A   1      31.737  26.530  25.856  1.00  0.00     0.368 C 
ATOM      4  O   UNL A   1      32.705  26.059  26.448  1.00  0.00    -0.245 OA
BRANCH   3   5
ATOM      5  C   UNL A   1      30.811  25.660  24.955  1.00  0.00     0.198 C 
ATOM      6  C   UNL A   1      30.475  27.368  23.060  1.00  0.00     0.190 C 
ATOM      7  C   UNL A   1      31.082  26.370  22.059  1.00  0.00     0.065 C 
ATOM      8  C   UNL A   1      29.822  26.594  24.228  1.00  0.00     0.145 C 
ATOM      9  C   UNL A   1      32.110  25.474  22.748  1.00  0.00     0.013 C 
ATOM     10  C   UNL A   1      31.527  24.738  23.951  1.00  0.00     0.081 C 
BRANCH   6  11
ATOM     11  N   UNL A   1      29.580  28.395  22.485  1.00  0.00    -0.332 N 
ATOM     12  C   UNL A   1      27.881  30.775  22.100  1.00  0.00     0.026 C 
ATOM     13  C   UNL A   1      27.326  29.411  22.505  1.00  0.00     0.067 C 
ATOM     14  C   UNL A   1      29.210  30.578  21.369  1.00  0.00     0.067 C 
ATOM     15  C   UNL A   1      28.339  28.559  23.256  1.00  0.00     0.262 C 
ATOM     16  C   UNL A   1      30.187  29.683  22.145  1.00  0.00     0.262 C 
ATOM     17  H   UNL A   1      29.344  27.998  21.575  1.00  0.00     0.348 HD
BRANCH  12  18
ATOM     18  C   UNL A   1      28.031  31.726  23.297  1.00  0.00     0.163 C 
BRANCH  18  19
ATOM     19  O   UNL A   1      28.026  33.096  22.902  1.00  0.00    -0.384 OA
ATOM     20  C   UNL A   1      29.193  33.792  23.309  1.00  0.00     0.194 C 
ENDBRANCH  18  19
ENDBRANCH  12  18
ENDBRANCH   6  11
BRANCH   5  21
ATOM     21  N   UNL A   1      30.043  24.783  25.885  1.00  0.00    -0.343 N 
ATOM     22  H   UNL A   1      29.444  25.358  26.478  1.00  0.00     0.345 HD
ATOM     23  H   UNL A   1      30.691  24.254  26.468  1.00  0.00     0.345 HD
ATOM     24  H   UNL A   1      29.466  24.136  25.345  1.00  0.00     0.345 HD
ENDBRANCH   5  21
ENDBRANCH   3   5
ENDBRANCH   2   3
ENDBRANCH   1   2
BRANCH   1  25
ATOM     25  C   UNL A   1      32.009  30.197  25.813  1.00  0.00     0.275 C 
BRANCH  25  26
ATOM     26  O   UNL A   1      32.334  30.479  27.186  1.00  0.00    -0.458 OA
BRANCH  26  27
ATOM     27  C   UNL A   1      33.096  31.582  27.378  1.00  0.00     0.338 C 
ATOM     28  O   UNL A   1      32.729  32.741  27.271  1.00  0.00    -0.246 OA
BRANCH  27  29
ATOM     29  C   UNL A   1      34.483  31.213  27.749  1.00  0.00     0.060 A 
ATOM     30  C   UNL A   1      34.838  29.891  27.998  1.00  0.00     0.016 A 
ATOM     31  C   UNL A   1      35.423  32.227  27.972  1.00  0.00     0.016 A 
ATOM     32  C   UNL A   1      36.070  29.610  28.593  1.00  0.00     0.010 A 
ATOM     33  C   UNL A   1      36.699  31.924  28.475  1.00  0.00     0.010 A 
ATOM     34  C   UNL A   1      37.025  30.617  28.859  1.00  0.00    -0.014 A 
BRANCH  34  35
ATOM     35  C   UNL A   1      38.290  30.273  29.603  1.00  0.00     0.031 A 
ATOM     36  C   UNL A   1      38.573  30.802  31.004  1.00  0.00     0.074 A 
ATOM     37  C   UNL A   1      39.143  29.366  29.080  1.00  0.00     0.049 A 
ATOM     38  N   UNL A   1      39.564  30.508  31.819  1.00  0.00    -0.248 NA
ATOM     39  C   UNL A   1      37.615  31.757  31.584  1.00  0.00     0.031 C 
ATOM     40  C   UNL A   1      39.009  28.748  27.759  1.00  0.00     0.029 A 
ATOM     41  N   UNL A   1      40.273  28.780  29.602  1.00  0.00    -0.354 N 
ATOM     42  C   UNL A   1      39.334  31.218  32.996  1.00  0.00     0.074 A 
ATOM     43  C   UNL A   1      38.123  31.979  32.790  1.00  0.00     0.031 C 
ATOM     44  C   UNL A   1      39.974  27.832  27.599  1.00  0.00     0.029 A 
ATOM     45  C   UNL A   1      40.855  27.859  28.762  1.00  0.00     0.049 A 
ATOM     46  H   UNL A   1      40.632  28.998  30.493  1.00  0.00     0.167 HD
ATOM     47  C   UNL A   1      40.038  31.209  34.157  1.00  0.00     0.037 A 
ATOM     48  C   UNL A   1      41.989  27.141  28.879  1.00  0.00     0.037 A 
ATOM     49  C   UNL A   1      41.231  30.440  34.394  1.00  0.00     0.049 A 
ATOM     50  C   UNL A   1      42.828  27.272  30.117  1.00  0.00     0.074 A 
ATOM     51  C   UNL A   1      41.985  30.352  35.553  1.00  0.00     0.029 A 
ATOM     52  N   UNL A   1      41.848  29.632  33.455  1.00  0.00    -0.354 N 
ATOM     53  N   UNL A   1      42.568  27.921  31.223  1.00  0.00    -0.248 NA
ATOM     54  C   UNL A   1      44.129  26.588  30.111  1.00  0.00     0.031 C 
ATOM     55  C   UNL A   1      43.067  29.500  35.313  1.00  0.00     0.029 A 
ATOM     56  C   UNL A   1      42.992  29.068  34.001  1.00  0.00     0.049 A 
ATOM     57  H   UNL A   1      41.525  29.479  32.539  1.00  0.00     0.167 HD
ATOM     58  C   UNL A   1      43.672  27.728  32.041  1.00  0.00     0.074 A 
ATOM     59  C   UNL A   1      44.591  26.875  31.320  1.00  0.00     0.031 C 
ATOM     60  C   UNL A   1      43.906  28.229  33.278  1.00  0.00     0.037 A 
BRANCH  47  61
ATOM     61  C   UNL A   1      39.526  32.032  35.307  1.00  0.00     0.064 A 
ATOM     62  C   UNL A   1      39.830  33.401  35.388  1.00  0.00     0.173 A 
ATOM     63  C   UNL A   1      38.657  31.501  36.268  1.00  0.00     0.173 A 
ATOM     64  F   UNL A   1      40.583  33.979  34.442  1.00  0.00    -0.203 F 
ATOM     65  C   UNL A   1      39.324  34.196  36.412  1.00  0.00     0.198 A 
ATOM     66  C   UNL A   1      38.139  32.303  37.285  1.00  0.00     0.198 A 
ATOM     67  F   UNL A   1      38.301  30.209  36.214  1.00  0.00    -0.203 F 
ATOM     68  F   UNL A   1      39.644  35.497  36.467  1.00  0.00    -0.200 F 
ATOM     69  C   UNL A   1      38.479  33.646  37.361  1.00  0.00     0.200 A 
ATOM     70  F   UNL A   1      37.303  31.777  38.191  1.00  0.00    -0.200 F 
ATOM     71  F   UNL A   1      37.982  34.414  38.341  1.00  0.00    -0.200 F 
ENDBRANCH  47  61
BRANCH  48  72
ATOM     72  C   UNL A   1      42.445  26.297  27.741  1.00  0.00     0.064 A 
ATOM     73  C   UNL A   1      41.970  24.992  27.556  1.00  0.00     0.173 A 
ATOM     74  C   UNL A   1      43.388  26.786  26.822  1.00  0.00     0.173 A 
ATOM     75  F   UNL A   1      41.098  24.465  28.427  1.00  0.00    -0.203 F 
ATOM     76  C   UNL A   1      42.421  24.210  26.494  1.00  0.00     0.198 A 
ATOM     77  C   UNL A   1      43.809  26.017  25.742  1.00  0.00     0.198 A 
ATOM     78  F   UNL A   1      43.887  28.023  26.964  1.00  0.00    -0.203 F 
ATOM     79  F   UNL A   1      41.987  22.949  26.361  1.00  0.00    -0.200 F 
ATOM     80  C   UNL A   1      43.331  24.726  25.582  1.00  0.00     0.200 A 
ATOM     81  F   UNL A   1      44.678  26.527  24.859  1.00  0.00    -0.200 F 
ATOM     82  F   UNL A   1      43.756  23.977  24.556  1.00  0.00    -0.200 F 
ENDBRANCH  48  72
BRANCH  60  83
ATOM     83  C   UNL A   1      45.215  27.885  33.918  1.00  0.00     0.064 A 
ATOM     84  C   UNL A   1      46.328  28.727  33.777  1.00  0.00     0.173 A 
ATOM     85  C   UNL A   1      45.358  26.724  34.692  1.00  0.00     0.173 A 
ATOM     86  F   UNL A   1      46.240  29.840  33.034  1.00  0.00    -0.203 F 
ATOM     87  C   UNL A   1      47.546  28.406  34.368  1.00  0.00     0.198 A 
ATOM     88  C   UNL A   1      46.573  26.418  35.300  1.00  0.00     0.198 A 
ATOM     89  F   UNL A   1      44.321  25.891  34.861  1.00  0.00    -0.203 F 
ATOM     90  F   UNL A   1      48.608  29.203  34.184  1.00  0.00    -0.200 F 
ATOM     91  C   UNL A   1      47.667  27.255  35.132  1.00  0.00     0.200 A 
ATOM     92  F   UNL A   1      46.687  25.310  36.045  1.00  0.00    -0.200 F 
ATOM     93  F   UNL A   1      48.841  26.946  35.699  1.00  0.00    -0.200 F 
ENDBRANCH  60  83
ENDBRANCH  34  35
ENDBRANCH  27  29
ENDBRANCH  26  27
ENDBRANCH  25  26
ENDBRANCH   1  25
TORSDOF 15
ENDMDL
