MODEL 1
REMARK VINA RESULT:     -13.5      0.000      0.000
REMARK SMILES C[NH+]1CCC(C(=O)N2C[C@@H](C(=O)OCCOC(=O)c3ccc(-c4c5nc(c(-c6c(F)c(F)c(F)c(F)c6F)c6ccc([nH]6)c(-c6c(F)c(F)c(F)c(F)c6F)c6nc(c(-c7c(F)c(F)c(F)c(F)c7F)c7ccc4[nH]7)C=C6)C=C5)cc3)[C@H](c3ccc4c(c3)OCO4)C2)CC1
REMARK SMILES IDX 14 1 13 2 11 3 12 4 10 5 8 6 9 7 92 8 82 9 6 10 7 11 5 12
REMARK SMILES IDX 1 13 2 14 3 15 94 16 4 18 93 19 83 20 84 21 88 22 85 23
REMARK SMILES IDX 87 24 86 25 89 26 91 27 90 28 15 29 16 30 17 31 18 32 19 33
REMARK SMILES IDX 20 34 81 35 21 36 80 37 22 38 23 39 24 40 74 41 25 42 79 43
REMARK SMILES IDX 73 44 75 45 26 46 78 47 72 48 71 49 27 51 59 52 39 53 58 54
REMARK SMILES IDX 40 55 43 56 57 57 76 58 41 59 42 60 56 62 77 63 44 64 28 65
REMARK SMILES IDX 29 66 37 67 30 68 31 69 35 70 38 71 32 72 33 73 36 74 34 75
REMARK SMILES IDX 60 76 61 77 69 78 62 79 63 80 67 81 70 82 64 83 65 84 68 85
REMARK SMILES IDX 66 86 45 87 46 88 54 89 47 90 48 91 52 92 55 93 49 94 50 95
REMARK SMILES IDX 53 96 51 97
REMARK H PARENT 2 17 75 50 43 61
REMARK Flexibility Score: inf
ROOT
ATOM      1  C   UNL A   1      35.989  20.304  24.995  1.00  0.00     0.274 C 
ENDROOT
BRANCH   1   2
ATOM      2  O   UNL A   1      35.450  21.578  24.587  1.00  0.00    -0.462 OA
BRANCH   2   3
ATOM      3  C   UNL A   1      34.769  22.284  25.528  1.00  0.00     0.311 C 
ATOM      4  O   UNL A   1      35.214  22.624  26.617  1.00  0.00    -0.252 OA
BRANCH   3   5
ATOM      5  C   UNL A   1      33.357  22.557  25.075  1.00  0.00     0.128 C 
ATOM      6  N   UNL A   1      31.484  23.855  25.625  1.00  0.00    -0.341 N 
ATOM      7  C   UNL A   1      32.906  23.952  25.416  1.00  0.00     0.135 C 
ATOM      8  C   UNL A   1      31.115  22.506  26.036  1.00  0.00     0.128 C 
ATOM      9  C   UNL A   1      32.349  21.615  25.778  1.00  0.00     0.055 C 
BRANCH   6  10
ATOM     10  C   UNL A   1      30.618  24.917  25.787  1.00  0.00     0.226 C 
ATOM     11  O   UNL A   1      29.765  24.900  26.679  1.00  0.00    -0.275 OA
BRANCH  10  12
ATOM     12  C   UNL A   1      30.578  26.026  24.730  1.00  0.00     0.090 C 
ATOM     13  C   UNL A   1      29.992  29.917  22.994  1.00  0.00     0.332 C 
ATOM     14  N   UNL A   1      29.947  28.723  23.840  1.00  0.00    -0.337 N 
ATOM     15  C   UNL A   1      31.293  28.416  24.338  1.00  0.00     0.262 C 
ATOM     16  C   UNL A   1      29.390  27.575  23.110  1.00  0.00     0.262 C 
ATOM     17  H   UNL A   1      29.335  28.912  24.633  1.00  0.00     0.347 HD
ATOM     18  C   UNL A   1      31.219  27.278  25.342  1.00  0.00     0.075 C 
ATOM     19  C   UNL A   1      29.257  26.341  24.020  1.00  0.00     0.075 C 
ENDBRANCH  10  12
ENDBRANCH   6  10
BRANCH   9  20
ATOM     20  C   UNL A   1      32.255  20.386  24.882  1.00  0.00    -0.038 A 
ATOM     21  C   UNL A   1      32.171  20.465  23.476  1.00  0.00     0.008 A 
ATOM     22  C   UNL A   1      32.554  19.143  25.484  1.00  0.00     0.054 A 
ATOM     23  C   UNL A   1      32.477  19.355  22.677  1.00  0.00     0.051 A 
ATOM     24  C   UNL A   1      32.922  18.097  24.672  1.00  0.00     0.166 A 
ATOM     25  C   UNL A   1      32.897  18.204  23.305  1.00  0.00     0.165 A 
ATOM     26  O   UNL A   1      33.437  16.912  25.097  1.00  0.00    -0.454 OA
ATOM     27  O   UNL A   1      33.388  17.090  22.696  1.00  0.00    -0.454 OA
ATOM     28  C   UNL A   1      33.887  16.365  23.839  1.00  0.00     0.468 C 
ENDBRANCH   9  20
ENDBRANCH   3   5
ENDBRANCH   2   3
ENDBRANCH   1   2
BRANCH   1  29
ATOM     29  C   UNL A   1      37.505  20.277  24.824  1.00  0.00     0.275 C 
BRANCH  29  30
ATOM     30  O   UNL A   1      38.090  21.386  25.529  1.00  0.00    -0.458 OA
BRANCH  30  31
ATOM     31  C   UNL A   1      39.270  21.131  26.137  1.00  0.00     0.338 C 
ATOM     32  O   UNL A   1      39.902  20.090  26.143  1.00  0.00    -0.246 OA
BRANCH  31  33
ATOM     33  C   UNL A   1      39.780  22.365  26.747  1.00  0.00     0.060 A 
ATOM     34  C   UNL A   1      39.293  23.578  26.271  1.00  0.00     0.016 A 
ATOM     35  C   UNL A   1      40.840  22.342  27.646  1.00  0.00     0.016 A 
ATOM     36  C   UNL A   1      39.932  24.770  26.589  1.00  0.00     0.010 A 
ATOM     37  C   UNL A   1      41.412  23.552  28.057  1.00  0.00     0.010 A 
ATOM     38  C   UNL A   1      40.995  24.777  27.498  1.00  0.00    -0.014 A 
BRANCH  38  39
ATOM     39  C   UNL A   1      41.706  26.048  27.813  1.00  0.00     0.031 A 
ATOM     40  C   UNL A   1      41.028  27.094  28.658  1.00  0.00     0.074 A 
ATOM     41  C   UNL A   1      42.959  26.268  27.368  1.00  0.00     0.049 A 
ATOM     42  N   UNL A   1      41.370  28.340  28.869  1.00  0.00    -0.248 NA
ATOM     43  C   UNL A   1      39.790  26.690  29.344  1.00  0.00     0.031 C 
ATOM     44  C   UNL A   1      43.767  25.322  26.595  1.00  0.00     0.029 A 
ATOM     45  N   UNL A   1      43.781  27.360  27.512  1.00  0.00    -0.354 N 
ATOM     46  C   UNL A   1      40.351  28.887  29.638  1.00  0.00     0.074 A 
ATOM     47  C   UNL A   1      39.388  27.834  29.878  1.00  0.00     0.031 C 
ATOM     48  C   UNL A   1      44.977  25.858  26.368  1.00  0.00     0.029 A 
ATOM     49  C   UNL A   1      45.000  27.218  26.893  1.00  0.00     0.049 A 
ATOM     50  H   UNL A   1      43.521  28.168  28.009  1.00  0.00     0.167 HD
ATOM     51  C   UNL A   1      40.230  30.157  30.092  1.00  0.00     0.037 A 
ATOM     52  C   UNL A   1      46.006  28.097  26.725  1.00  0.00     0.037 A 
ATOM     53  C   UNL A   1      41.233  31.176  29.929  1.00  0.00     0.049 A 
ATOM     54  C   UNL A   1      45.850  29.498  27.248  1.00  0.00     0.074 A 
ATOM     55  C   UNL A   1      41.215  32.486  30.377  1.00  0.00     0.029 A 
ATOM     56  N   UNL A   1      42.450  30.989  29.290  1.00  0.00    -0.354 N 
ATOM     57  N   UNL A   1      44.850  30.028  27.909  1.00  0.00    -0.248 NA
ATOM     58  C   UNL A   1      46.953  30.431  26.978  1.00  0.00     0.031 C 
ATOM     59  C   UNL A   1      42.411  33.099  29.989  1.00  0.00     0.029 A 
ATOM     60  C   UNL A   1      43.187  32.161  29.328  1.00  0.00     0.049 A 
ATOM     61  H   UNL A   1      42.745  30.148  28.871  1.00  0.00     0.167 HD
ATOM     62  C   UNL A   1      45.207  31.347  28.145  1.00  0.00     0.074 A 
ATOM     63  C   UNL A   1      46.524  31.535  27.573  1.00  0.00     0.031 C 
ATOM     64  C   UNL A   1      44.503  32.321  28.770  1.00  0.00     0.037 A 
BRANCH  51  65
ATOM     65  C   UNL A   1      38.951  30.538  30.774  1.00  0.00     0.064 A 
ATOM     66  C   UNL A   1      38.801  30.477  32.165  1.00  0.00     0.173 A 
ATOM     67  C   UNL A   1      37.877  31.030  30.016  1.00  0.00     0.173 A 
ATOM     68  F   UNL A   1      39.792  29.996  32.932  1.00  0.00    -0.203 F 
ATOM     69  C   UNL A   1      37.616  30.883  32.774  1.00  0.00     0.198 A 
ATOM     70  C   UNL A   1      36.703  31.459  30.629  1.00  0.00     0.198 A 
ATOM     71  F   UNL A   1      37.973  31.111  28.681  1.00  0.00    -0.203 F 
ATOM     72  F   UNL A   1      37.480  30.787  34.104  1.00  0.00    -0.200 F 
ATOM     73  C   UNL A   1      36.572  31.381  32.007  1.00  0.00     0.200 A 
ATOM     74  F   UNL A   1      35.701  31.948  29.886  1.00  0.00    -0.200 F 
ATOM     75  F   UNL A   1      35.437  31.783  32.596  1.00  0.00    -0.200 F 
ENDBRANCH  51  65
BRANCH  52  76
ATOM     76  C   UNL A   1      47.232  27.696  25.988  1.00  0.00     0.064 A 
ATOM     77  C   UNL A   1      47.271  27.714  24.587  1.00  0.00     0.173 A 
ATOM     78  C   UNL A   1      48.385  27.270  26.666  1.00  0.00     0.173 A 
ATOM     79  F   UNL A   1      46.184  28.083  23.893  1.00  0.00    -0.203 F 
ATOM     80  C   UNL A   1      48.409  27.308  23.893  1.00  0.00     0.198 A 
ATOM     81  C   UNL A   1      49.532  26.895  25.972  1.00  0.00     0.198 A 
ATOM     82  F   UNL A   1      48.399  27.230  28.007  1.00  0.00    -0.203 F 
ATOM     83  F   UNL A   1      48.402  27.288  22.554  1.00  0.00    -0.200 F 
ATOM     84  C   UNL A   1      49.540  26.906  24.586  1.00  0.00     0.200 A 
ATOM     85  F   UNL A   1      50.627  26.518  26.647  1.00  0.00    -0.200 F 
ATOM     86  F   UNL A   1      50.636  26.519  23.918  1.00  0.00    -0.200 F 
ENDBRANCH  52  76
BRANCH  64  87
ATOM     87  C   UNL A   1      45.161  33.660  28.903  1.00  0.00     0.064 A 
ATOM     88  C   UNL A   1      44.968  34.668  27.948  1.00  0.00     0.173 A 
ATOM     89  C   UNL A   1      45.966  33.946  30.015  1.00  0.00     0.173 A 
ATOM     90  F   UNL A   1      44.219  34.432  26.861  1.00  0.00    -0.203 F 
ATOM     91  C   UNL A   1      45.578  35.910  28.090  1.00  0.00     0.198 A 
ATOM     92  C   UNL A   1      46.556  35.198  30.166  1.00  0.00     0.198 A 
ATOM     93  F   UNL A   1      46.175  33.015  30.956  1.00  0.00    -0.203 F 
ATOM     94  F   UNL A   1      45.414  36.848  27.146  1.00  0.00    -0.200 F 
ATOM     95  C   UNL A   1      46.367  36.176  29.201  1.00  0.00     0.200 A 
ATOM     96  F   UNL A   1      47.311  35.457  31.242  1.00  0.00    -0.200 F 
ATOM     97  F   UNL A   1      46.951  37.375  29.337  1.00  0.00    -0.200 F 
ENDBRANCH  64  87
ENDBRANCH  38  39
ENDBRANCH  31  33
ENDBRANCH  30  31
ENDBRANCH  29  30
ENDBRANCH   1  29
TORSDOF 14
ENDMDL
MODEL 2
REMARK VINA RESULT:     -13.4      4.341     10.142
REMARK SMILES C[NH+]1CCC(C(=O)N2C[C@@H](C(=O)OCCOC(=O)c3ccc(-c4c5nc(c(-c6c(F)c(F)c(F)c(F)c6F)c6ccc([nH]6)c(-c6c(F)c(F)c(F)c(F)c6F)c6nc(c(-c7c(F)c(F)c(F)c(F)c7F)c7ccc4[nH]7)C=C6)C=C5)cc3)[C@H](c3ccc4c(c3)OCO4)C2)CC1
REMARK SMILES IDX 14 1 13 2 11 3 12 4 10 5 8 6 9 7 92 8 82 9 6 10 7 11 5 12
REMARK SMILES IDX 1 13 2 14 3 15 94 16 4 18 93 19 83 20 84 21 88 22 85 23
REMARK SMILES IDX 87 24 86 25 89 26 91 27 90 28 15 29 16 30 17 31 18 32 19 33
REMARK SMILES IDX 20 34 81 35 21 36 80 37 22 38 23 39 24 40 74 41 25 42 79 43
REMARK SMILES IDX 73 44 75 45 26 46 78 47 72 48 71 49 27 51 59 52 39 53 58 54
REMARK SMILES IDX 40 55 43 56 57 57 76 58 41 59 42 60 56 62 77 63 44 64 28 65
REMARK SMILES IDX 29 66 37 67 30 68 31 69 35 70 38 71 32 72 33 73 36 74 34 75
REMARK SMILES IDX 60 76 61 77 69 78 62 79 63 80 67 81 70 82 64 83 65 84 68 85
REMARK SMILES IDX 66 86 45 87 46 88 54 89 47 90 48 91 52 92 55 93 49 94 50 95
REMARK SMILES IDX 53 96 51 97
REMARK H PARENT 2 17 75 50 43 61
REMARK Flexibility Score: inf
ROOT
ATOM      1  C   UNL A   1      31.779  28.684  27.095  1.00  0.00     0.274 C 
ENDROOT
BRANCH   1   2
ATOM      2  O   UNL A   1      32.125  27.487  26.369  1.00  0.00    -0.462 OA
BRANCH   2   3
ATOM      3  C   UNL A   1      31.128  26.588  26.159  1.00  0.00     0.311 C 
ATOM      4  O   UNL A   1      30.258  26.295  26.970  1.00  0.00    -0.252 OA
BRANCH   3   5
ATOM      5  C   UNL A   1      31.260  25.949  24.800  1.00  0.00     0.128 C 
ATOM      6  N   UNL A   1      32.832  24.866  23.439  1.00  0.00    -0.341 N 
ATOM      7  C   UNL A   1      32.301  24.861  24.778  1.00  0.00     0.135 C 
ATOM      8  C   UNL A   1      32.681  26.183  22.831  1.00  0.00     0.128 C 
ATOM      9  C   UNL A   1      31.718  26.978  23.737  1.00  0.00     0.055 C 
BRANCH   6  10
ATOM     10  C   UNL A   1      33.688  23.925  22.907  1.00  0.00     0.226 C 
ATOM     11  O   UNL A   1      33.595  23.591  21.722  1.00  0.00    -0.275 OA
BRANCH  10  12
ATOM     12  C   UNL A   1      34.618  23.139  23.838  1.00  0.00     0.090 C 
ATOM     13  C   UNL A   1      37.693  20.406  25.092  1.00  0.00     0.332 C 
ATOM     14  N   UNL A   1      36.644  21.117  24.359  1.00  0.00    -0.337 N 
ATOM     15  C   UNL A   1      37.045  22.512  24.146  1.00  0.00     0.262 C 
ATOM     16  C   UNL A   1      35.359  21.049  25.071  1.00  0.00     0.262 C 
ATOM     17  H   UNL A   1      36.519  20.666  23.453  1.00  0.00     0.347 HD
ATOM     18  C   UNL A   1      36.032  23.204  23.249  1.00  0.00     0.075 C 
ATOM     19  C   UNL A   1      34.233  21.718  24.263  1.00  0.00     0.075 C 
ENDBRANCH  10  12
ENDBRANCH   6  10
BRANCH   9  20
ATOM     20  C   UNL A   1      30.434  27.580  23.181  1.00  0.00    -0.038 A 
ATOM     21  C   UNL A   1      29.151  27.088  23.505  1.00  0.00     0.008 A 
ATOM     22  C   UNL A   1      30.547  28.843  22.557  1.00  0.00     0.054 A 
ATOM     23  C   UNL A   1      28.010  27.876  23.306  1.00  0.00     0.051 A 
ATOM     24  C   UNL A   1      29.418  29.619  22.446  1.00  0.00     0.166 A 
ATOM     25  C   UNL A   1      28.185  29.154  22.823  1.00  0.00     0.165 A 
ATOM     26  O   UNL A   1      29.394  30.926  22.069  1.00  0.00    -0.454 OA
ATOM     27  O   UNL A   1      27.223  30.111  22.720  1.00  0.00    -0.454 OA
ATOM     28  C   UNL A   1      28.035  31.266  22.416  1.00  0.00     0.468 C 
ENDBRANCH   9  20
ENDBRANCH   3   5
ENDBRANCH   2   3
ENDBRANCH   1   2
BRANCH   1  29
ATOM     29  C   UNL A   1      31.805  29.902  26.176  1.00  0.00     0.275 C 
BRANCH  29  30
ATOM     30  O   UNL A   1      33.142  30.428  26.108  1.00  0.00    -0.458 OA
BRANCH  30  31
ATOM     31  C   UNL A   1      33.456  31.340  27.054  1.00  0.00     0.338 C 
ATOM     32  O   UNL A   1      32.749  32.215  27.518  1.00  0.00    -0.246 OA
BRANCH  31  33
ATOM     33  C   UNL A   1      34.808  31.070  27.559  1.00  0.00     0.060 A 
ATOM     34  C   UNL A   1      35.136  29.756  27.877  1.00  0.00     0.016 A 
ATOM     35  C   UNL A   1      35.680  32.104  27.878  1.00  0.00     0.016 A 
ATOM     36  C   UNL A   1      36.274  29.472  28.622  1.00  0.00     0.010 A 
ATOM     37  C   UNL A   1      36.884  31.806  28.529  1.00  0.00     0.010 A 
ATOM     38  C   UNL A   1      37.173  30.492  28.950  1.00  0.00    -0.014 A 
BRANCH  38  39
ATOM     39  C   UNL A   1      38.374  30.197  29.779  1.00  0.00     0.031 A 
ATOM     40  C   UNL A   1      39.480  29.343  29.217  1.00  0.00     0.074 A 
ATOM     41  C   UNL A   1      38.496  30.701  31.024  1.00  0.00     0.049 A 
ATOM     42  N   UNL A   1      40.496  28.791  29.830  1.00  0.00    -0.248 NA
ATOM     43  C   UNL A   1      39.427  29.059  27.773  1.00  0.00     0.031 C 
ATOM     44  C   UNL A   1      37.539  31.595  31.679  1.00  0.00     0.029 A 
ATOM     45  N   UNL A   1      39.488  30.538  31.962  1.00  0.00    -0.354 N 
ATOM     46  C   UNL A   1      41.150  28.030  28.870  1.00  0.00     0.074 A 
ATOM     47  C   UNL A   1      40.433  28.208  27.626  1.00  0.00     0.031 C 
ATOM     48  C   UNL A   1      38.007  31.932  32.891  1.00  0.00     0.029 A 
ATOM     49  C   UNL A   1      39.247  31.206  33.139  1.00  0.00     0.049 A 
ATOM     50  H   UNL A   1      40.293  29.995  31.806  1.00  0.00     0.167 HD
ATOM     51  C   UNL A   1      42.245  27.248  29.020  1.00  0.00     0.037 A 
ATOM     52  C   UNL A   1      39.921  31.199  34.304  1.00  0.00     0.037 A 
ATOM     53  C   UNL A   1      43.009  27.145  30.236  1.00  0.00     0.049 A 
ATOM     54  C   UNL A   1      41.139  30.329  34.441  1.00  0.00     0.074 A 
ATOM     55  C   UNL A   1      44.151  26.400  30.479  1.00  0.00     0.029 A 
ATOM     56  N   UNL A   1      42.725  27.834  31.405  1.00  0.00    -0.354 N 
ATOM     57  N   UNL A   1      41.708  29.554  33.550  1.00  0.00    -0.248 NA
ATOM     58  C   UNL A   1      41.796  30.312  35.756  1.00  0.00     0.031 C 
ATOM     59  C   UNL A   1      44.544  26.620  31.802  1.00  0.00     0.029 A 
ATOM     60  C   UNL A   1      43.666  27.526  32.374  1.00  0.00     0.049 A 
ATOM     61  H   UNL A   1      41.966  28.450  31.528  1.00  0.00     0.167 HD
ATOM     62  C   UNL A   1      42.791  28.970  34.189  1.00  0.00     0.074 A 
ATOM     63  C   UNL A   1      42.815  29.493  35.538  1.00  0.00     0.031 C 
ATOM     64  C   UNL A   1      43.683  28.072  33.704  1.00  0.00     0.037 A 
BRANCH  51  65
ATOM     65  C   UNL A   1      42.666  26.402  27.857  1.00  0.00     0.064 A 
ATOM     66  C   UNL A   1      42.128  25.129  27.626  1.00  0.00     0.173 A 
ATOM     67  C   UNL A   1      43.585  26.908  26.924  1.00  0.00     0.173 A 
ATOM     68  F   UNL A   1      41.261  24.594  28.499  1.00  0.00    -0.203 F 
ATOM     69  C   UNL A   1      42.505  24.386  26.510  1.00  0.00     0.198 A 
ATOM     70  C   UNL A   1      43.940  26.174  25.796  1.00  0.00     0.198 A 
ATOM     71  F   UNL A   1      44.125  28.123  27.098  1.00  0.00    -0.203 F 
ATOM     72  F   UNL A   1      42.003  23.158  26.323  1.00  0.00    -0.200 F 
ATOM     73  C   UNL A   1      43.403  24.913  25.591  1.00  0.00     0.200 A 
ATOM     74  F   UNL A   1      44.801  26.689  24.906  1.00  0.00    -0.200 F 
ATOM     75  F   UNL A   1      43.754  24.201  24.510  1.00  0.00    -0.200 F 
ENDBRANCH  51  65
BRANCH  52  76
ATOM     76  C   UNL A   1      39.433  32.005  35.454  1.00  0.00     0.064 A 
ATOM     77  C   UNL A   1      39.879  33.319  35.654  1.00  0.00     0.173 A 
ATOM     78  C   UNL A   1      38.526  31.475  36.384  1.00  0.00     0.173 A 
ATOM     79  F   UNL A   1      40.771  33.858  34.810  1.00  0.00    -0.203 F 
ATOM     80  C   UNL A   1      39.448  34.066  36.748  1.00  0.00     0.198 A 
ATOM     81  C   UNL A   1      38.072  32.234  37.460  1.00  0.00     0.198 A 
ATOM     82  F   UNL A   1      38.072  30.222  36.239  1.00  0.00    -0.203 F 
ATOM     83  F   UNL A   1      39.928  35.301  36.944  1.00  0.00    -0.200 F 
ATOM     84  C   UNL A   1      38.539  33.525  37.645  1.00  0.00     0.200 A 
ATOM     85  F   UNL A   1      37.185  31.711  38.317  1.00  0.00    -0.200 F 
ATOM     86  F   UNL A   1      38.123  34.245  38.697  1.00  0.00    -0.200 F 
ENDBRANCH  52  76
BRANCH  64  87
ATOM     87  C   UNL A   1      44.778  27.634  34.627  1.00  0.00     0.064 A 
ATOM     88  C   UNL A   1      45.984  28.342  34.719  1.00  0.00     0.173 A 
ATOM     89  C   UNL A   1      44.605  26.512  35.449  1.00  0.00     0.173 A 
ATOM     90  F   UNL A   1      46.200  29.412  33.939  1.00  0.00    -0.203 F 
ATOM     91  C   UNL A   1      46.989  27.929  35.588  1.00  0.00     0.198 A 
ATOM     92  C   UNL A   1      45.603  26.114  36.335  1.00  0.00     0.198 A 
ATOM     93  F   UNL A   1      43.466  25.806  35.398  1.00  0.00    -0.203 F 
ATOM     94  F   UNL A   1      48.150  28.596  35.633  1.00  0.00    -0.200 F 
ATOM     95  C   UNL A   1      46.795  26.818  36.399  1.00  0.00     0.200 A 
ATOM     96  F   UNL A   1      45.412  25.047  37.122  1.00  0.00    -0.200 F 
ATOM     97  F   UNL A   1      47.764  26.423  37.237  1.00  0.00    -0.200 F 
ENDBRANCH  64  87
ENDBRANCH  38  39
ENDBRANCH  31  33
ENDBRANCH  30  31
ENDBRANCH  29  30
ENDBRANCH   1  29
TORSDOF 14
ENDMDL
MODEL 3
REMARK VINA RESULT:     -13.4      0.197      1.907
REMARK SMILES C[NH+]1CCC(C(=O)N2C[C@@H](C(=O)OCCOC(=O)c3ccc(-c4c5nc(c(-c6c(F)c(F)c(F)c(F)c6F)c6ccc([nH]6)c(-c6c(F)c(F)c(F)c(F)c6F)c6nc(c(-c7c(F)c(F)c(F)c(F)c7F)c7ccc4[nH]7)C=C6)C=C5)cc3)[C@H](c3ccc4c(c3)OCO4)C2)CC1
REMARK SMILES IDX 14 1 13 2 11 3 12 4 10 5 8 6 9 7 92 8 82 9 6 10 7 11 5 12
REMARK SMILES IDX 1 13 2 14 3 15 94 16 4 18 93 19 83 20 84 21 88 22 85 23
REMARK SMILES IDX 87 24 86 25 89 26 91 27 90 28 15 29 16 30 17 31 18 32 19 33
REMARK SMILES IDX 20 34 81 35 21 36 80 37 22 38 23 39 24 40 74 41 25 42 79 43
REMARK SMILES IDX 73 44 75 45 26 46 78 47 72 48 71 49 27 51 59 52 39 53 58 54
REMARK SMILES IDX 40 55 43 56 57 57 76 58 41 59 42 60 56 62 77 63 44 64 28 65
REMARK SMILES IDX 29 66 37 67 30 68 31 69 35 70 38 71 32 72 33 73 36 74 34 75
REMARK SMILES IDX 60 76 61 77 69 78 62 79 63 80 67 81 70 82 64 83 65 84 68 85
REMARK SMILES IDX 66 86 45 87 46 88 54 89 47 90 48 91 52 92 55 93 49 94 50 95
REMARK SMILES IDX 53 96 51 97
REMARK H PARENT 2 17 75 50 43 61
REMARK Flexibility Score: inf
ROOT
ATOM      1  C   UNL A   1      36.009  20.400  24.945  1.00  0.00     0.274 C 
ENDROOT
BRANCH   1   2
ATOM      2  O   UNL A   1      35.514  21.730  24.694  1.00  0.00    -0.462 OA
BRANCH   2   3
ATOM      3  C   UNL A   1      34.761  22.299  25.673  1.00  0.00     0.311 C 
ATOM      4  O   UNL A   1      35.131  22.502  26.822  1.00  0.00    -0.252 OA
BRANCH   3   5
ATOM      5  C   UNL A   1      33.374  22.607  25.169  1.00  0.00     0.128 C 
ATOM      6  N   UNL A   1      31.508  23.937  25.664  1.00  0.00    -0.341 N 
ATOM      7  C   UNL A   1      32.939  24.007  25.512  1.00  0.00     0.135 C 
ATOM      8  C   UNL A   1      31.096  22.590  26.042  1.00  0.00     0.128 C 
ATOM      9  C   UNL A   1      32.320  21.678  25.819  1.00  0.00     0.055 C 
BRANCH   6  10
ATOM     10  C   UNL A   1      30.659  25.014  25.808  1.00  0.00     0.226 C 
ATOM     11  O   UNL A   1      29.788  25.015  26.684  1.00  0.00    -0.275 OA
BRANCH  10  12
ATOM     12  C   UNL A   1      30.658  26.122  24.748  1.00  0.00     0.090 C 
ATOM     13  C   UNL A   1      29.969  29.957  22.930  1.00  0.00     0.332 C 
ATOM     14  N   UNL A   1      29.919  28.760  23.771  1.00  0.00    -0.337 N 
ATOM     15  C   UNL A   1      31.212  28.565  24.435  1.00  0.00     0.262 C 
ATOM     16  C   UNL A   1      29.556  27.573  22.983  1.00  0.00     0.262 C 
ATOM     17  H   UNL A   1      29.198  28.893  24.480  1.00  0.00     0.347 HD
ATOM     18  C   UNL A   1      31.110  27.420  25.428  1.00  0.00     0.075 C 
ATOM     19  C   UNL A   1      29.415  26.328  23.876  1.00  0.00     0.075 C 
ENDBRANCH  10  12
ENDBRANCH   6  10
BRANCH   9  20
ATOM     20  C   UNL A   1      32.236  20.463  24.903  1.00  0.00    -0.038 A 
ATOM     21  C   UNL A   1      32.103  20.565  23.502  1.00  0.00     0.008 A 
ATOM     22  C   UNL A   1      32.596  19.220  25.471  1.00  0.00     0.054 A 
ATOM     23  C   UNL A   1      32.417  19.480  22.672  1.00  0.00     0.051 A 
ATOM     24  C   UNL A   1      32.969  18.201  24.626  1.00  0.00     0.166 A 
ATOM     25  C   UNL A   1      32.895  18.332  23.263  1.00  0.00     0.165 A 
ATOM     26  O   UNL A   1      33.537  17.027  25.011  1.00  0.00    -0.454 OA
ATOM     27  O   UNL A   1      33.401  17.247  22.616  1.00  0.00    -0.454 OA
ATOM     28  C   UNL A   1      33.962  16.518  23.729  1.00  0.00     0.468 C 
ENDBRANCH   9  20
ENDBRANCH   3   5
ENDBRANCH   2   3
ENDBRANCH   1   2
BRANCH   1  29
ATOM     29  C   UNL A   1      37.528  20.350  24.806  1.00  0.00     0.275 C 
BRANCH  29  30
ATOM     30  O   UNL A   1      38.114  21.459  25.511  1.00  0.00    -0.458 OA
BRANCH  30  31
ATOM     31  C   UNL A   1      39.254  21.183  26.181  1.00  0.00     0.338 C 
ATOM     32  O   UNL A   1      39.847  20.122  26.252  1.00  0.00    -0.246 OA
BRANCH  31  33
ATOM     33  C   UNL A   1      39.783  22.420  26.770  1.00  0.00     0.060 A 
ATOM     34  C   UNL A   1      39.328  23.632  26.262  1.00  0.00     0.016 A 
ATOM     35  C   UNL A   1      40.830  22.395  27.684  1.00  0.00     0.016 A 
ATOM     36  C   UNL A   1      39.987  24.818  26.562  1.00  0.00     0.010 A 
ATOM     37  C   UNL A   1      41.423  23.602  28.076  1.00  0.00     0.010 A 
ATOM     38  C   UNL A   1      41.039  24.823  27.484  1.00  0.00    -0.014 A 
BRANCH  38  39
ATOM     39  C   UNL A   1      41.772  26.085  27.781  1.00  0.00     0.031 A 
ATOM     40  C   UNL A   1      41.126  27.140  28.639  1.00  0.00     0.074 A 
ATOM     41  C   UNL A   1      43.017  26.289  27.307  1.00  0.00     0.049 A 
ATOM     42  N   UNL A   1      41.488  28.382  28.841  1.00  0.00    -0.248 NA
ATOM     43  C   UNL A   1      39.900  26.752  29.355  1.00  0.00     0.031 C 
ATOM     44  C   UNL A   1      43.796  25.333  26.518  1.00  0.00     0.029 A 
ATOM     45  N   UNL A   1      43.855  27.372  27.430  1.00  0.00    -0.354 N 
ATOM     46  C   UNL A   1      40.494  28.943  29.632  1.00  0.00     0.074 A 
ATOM     47  C   UNL A   1      39.524  27.902  29.896  1.00  0.00     0.031 C 
ATOM     48  C   UNL A   1      45.006  25.853  26.262  1.00  0.00     0.029 A 
ATOM     49  C   UNL A   1      45.058  27.213  26.784  1.00  0.00     0.049 A 
ATOM     50  H   UNL A   1      43.616  28.183  27.932  1.00  0.00     0.167 HD
ATOM     51  C   UNL A   1      40.399  30.215  30.086  1.00  0.00     0.037 A 
ATOM     52  C   UNL A   1      46.070  28.080  26.592  1.00  0.00     0.037 A 
ATOM     53  C   UNL A   1      41.410  31.222  29.899  1.00  0.00     0.049 A 
ATOM     54  C   UNL A   1      45.943  29.483  27.116  1.00  0.00     0.074 A 
ATOM     55  C   UNL A   1      41.419  32.532  30.346  1.00  0.00     0.029 A 
ATOM     56  N   UNL A   1      42.610  31.019  29.232  1.00  0.00    -0.354 N 
ATOM     57  N   UNL A   1      44.966  30.027  27.799  1.00  0.00    -0.248 NA
ATOM     58  C   UNL A   1      47.051  30.403  26.819  1.00  0.00     0.031 C 
ATOM     59  C   UNL A   1      42.612  33.130  29.929  1.00  0.00     0.029 A 
ATOM     60  C   UNL A   1      43.362  32.182  29.252  1.00  0.00     0.049 A 
ATOM     61  H   UNL A   1      42.884  30.174  28.809  1.00  0.00     0.167 HD
ATOM     62  C   UNL A   1      45.344  31.342  28.024  1.00  0.00     0.074 A 
ATOM     63  C   UNL A   1      46.650  31.512  27.422  1.00  0.00     0.031 C 
ATOM     64  C   UNL A   1      44.667  32.325  28.664  1.00  0.00     0.037 A 
BRANCH  51  65
ATOM     65  C   UNL A   1      39.141  30.613  30.797  1.00  0.00     0.064 A 
ATOM     66  C   UNL A   1      38.018  31.096  30.113  1.00  0.00     0.173 A 
ATOM     67  C   UNL A   1      39.044  30.447  32.188  1.00  0.00     0.173 A 
ATOM     68  F   UNL A   1      38.067  31.289  28.787  1.00  0.00    -0.203 F 
ATOM     69  C   UNL A   1      36.847  31.412  30.798  1.00  0.00     0.198 A 
ATOM     70  C   UNL A   1      37.864  30.740  32.866  1.00  0.00     0.198 A 
ATOM     71  F   UNL A   1      40.091  29.984  32.888  1.00  0.00    -0.203 F 
ATOM     72  F   UNL A   1      35.794  31.903  30.129  1.00  0.00    -0.200 F 
ATOM     73  C   UNL A   1      36.768  31.226  32.171  1.00  0.00     0.200 A 
ATOM     74  F   UNL A   1      37.789  30.550  34.190  1.00  0.00    -0.200 F 
ATOM     75  F   UNL A   1      35.635  31.519  32.825  1.00  0.00    -0.200 F 
ENDBRANCH  51  65
BRANCH  52  76
ATOM     76  C   UNL A   1      47.275  27.663  25.827  1.00  0.00     0.064 A 
ATOM     77  C   UNL A   1      48.435  27.235  26.485  1.00  0.00     0.173 A 
ATOM     78  C   UNL A   1      47.297  27.700  24.424  1.00  0.00     0.173 A 
ATOM     79  F   UNL A   1      48.473  27.212  27.826  1.00  0.00    -0.203 F 
ATOM     80  C   UNL A   1      49.576  26.874  25.772  1.00  0.00     0.198 A 
ATOM     81  C   UNL A   1      48.427  27.309  23.711  1.00  0.00     0.198 A 
ATOM     82  F   UNL A   1      46.214  28.106  23.746  1.00  0.00    -0.203 F 
ATOM     83  F   UNL A   1      50.688  26.515  26.427  1.00  0.00    -0.200 F 
ATOM     84  C   UNL A   1      49.568  26.904  24.386  1.00  0.00     0.200 A 
ATOM     85  F   UNL A   1      48.411  27.329  22.372  1.00  0.00    -0.200 F 
ATOM     86  F   UNL A   1      50.665  26.554  23.699  1.00  0.00    -0.200 F 
ENDBRANCH  52  76
BRANCH  64  87
ATOM     87  C   UNL A   1      45.344  33.656  28.779  1.00  0.00     0.064 A 
ATOM     88  C   UNL A   1      46.201  33.950  29.849  1.00  0.00     0.173 A 
ATOM     89  C   UNL A   1      45.158  34.633  27.792  1.00  0.00     0.173 A 
ATOM     90  F   UNL A   1      46.396  33.050  30.825  1.00  0.00    -0.203 F 
ATOM     91  C   UNL A   1      46.831  35.187  29.938  1.00  0.00     0.198 A 
ATOM     92  C   UNL A   1      45.808  35.862  27.872  1.00  0.00     0.198 A 
ATOM     93  F   UNL A   1      44.350  34.395  26.748  1.00  0.00    -0.203 F 
ATOM     94  F   UNL A   1      47.616  35.464  30.989  1.00  0.00    -0.200 F 
ATOM     95  C   UNL A   1      46.638  36.140  28.947  1.00  0.00     0.200 A 
ATOM     96  F   UNL A   1      45.627  36.778  26.911  1.00  0.00    -0.200 F 
ATOM     97  F   UNL A   1      47.249  37.330  29.033  1.00  0.00    -0.200 F 
ENDBRANCH  64  87
ENDBRANCH  38  39
ENDBRANCH  31  33
ENDBRANCH  30  31
ENDBRANCH  29  30
ENDBRANCH   1  29
TORSDOF 14
ENDMDL
