MODEL 1
REMARK VINA RESULT:     -12.0      0.000      0.000
REMARK SMILES Cc1c(CC(=O)OCCOC(=O)c2ccc(-c3c4nc(c(-c5c(F)c(F)c(F)c(F)c5F)c5ccc([nH]5)c(-c5c(F)c(F)c(F)c(F)c5F)c5nc(c(-c6c(F)c(F)c(F)c(F)c6F)c6ccc3[nH]6)C=C5)C=C4)cc2)c(O)oc2cc(=O)cc(O)c1-2
REMARK SMILES IDX 8 1 7 2 5 3 6 4 4 5 3 6 1 7 2 8 86 9 76 10 79 11 84 12 78 13
REMARK SMILES IDX 80 14 83 15 81 16 82 17 77 18 85 20 9 22 10 23 11 24 12 25
REMARK SMILES IDX 13 26 14 27 75 28 15 29 74 30 16 31 17 32 18 33 68 34 19 35
REMARK SMILES IDX 73 36 67 37 69 38 20 39 72 40 66 41 65 42 21 44 53 45 33 46
REMARK SMILES IDX 52 47 34 48 37 49 51 50 70 51 35 52 36 53 50 55 71 56 38 57
REMARK SMILES IDX 22 58 23 59 31 60 24 61 25 62 29 63 32 64 26 65 27 66 30 67
REMARK SMILES IDX 28 68 54 69 55 70 63 71 56 72 57 73 61 74 64 75 58 76 59 77
REMARK SMILES IDX 62 78 60 79 39 80 40 81 48 82 41 83 42 84 46 85 49 86 43 87
REMARK SMILES IDX 44 88 47 89 45 90
REMARK H PARENT 77 19 85 21 69 43 37 54
REMARK Flexibility Score: inf
ROOT
ATOM      1  C   UNL A   1      31.196  29.546  24.367  1.00  0.00     0.274 C 
ENDROOT
BRANCH   1   2
ATOM      2  O   UNL A   1      31.689  28.664  23.337  1.00  0.00    -0.462 OA
BRANCH   2   3
ATOM      3  C   UNL A   1      30.743  28.109  22.538  1.00  0.00     0.310 C 
ATOM      4  O   UNL A   1      29.875  28.741  21.939  1.00  0.00    -0.252 OA
BRANCH   3   5
ATOM      5  C   UNL A   1      30.846  26.598  22.390  1.00  0.00     0.166 C 
BRANCH   5   6
ATOM      6  C   UNL A   1      32.066  25.923  22.982  1.00  0.00     0.048 A 
ATOM      7  C   UNL A   1      30.915  25.761  25.271  1.00  0.00     0.046 C 
ATOM      8  C   UNL A   1      32.066  25.393  24.366  1.00  0.00    -0.026 A 
ATOM      9  C   UNL A   1      33.109  24.628  24.796  1.00  0.00     0.063 A 
ATOM     10  C   UNL A   1      33.174  25.759  22.226  1.00  0.00     0.286 A 
ATOM     11  C   UNL A   1      34.307  24.535  23.945  1.00  0.00     0.146 A 
ATOM     12  C   UNL A   1      33.136  23.883  26.072  1.00  0.00     0.130 A 
ATOM     13  O   UNL A   1      34.288  25.090  22.680  1.00  0.00    -0.425 OA
ATOM     14  C   UNL A   1      35.443  23.988  24.394  1.00  0.00     0.100 A 
ATOM     15  C   UNL A   1      34.267  23.329  26.532  1.00  0.00     0.099 A 
ATOM     16  C   UNL A   1      35.517  23.415  25.749  1.00  0.00     0.186 A 
ATOM     17  O   UNL A   1      36.571  22.987  26.204  1.00  0.00    -0.290 OA
BRANCH  10  18
ATOM     18  O   UNL A   1      33.246  26.222  20.930  1.00  0.00    -0.480 OA
ATOM     19  H   UNL A   1      32.945  25.685  20.223  1.00  0.00     0.297 HD
ENDBRANCH  10  18
BRANCH  12  20
ATOM     20  O   UNL A   1      31.937  23.692  26.727  1.00  0.00    -0.507 OA
ATOM     21  H   UNL A   1      31.912  23.204  27.527  1.00  0.00     0.293 HD
ENDBRANCH  12  20
ENDBRANCH   5   6
ENDBRANCH   3   5
ENDBRANCH   2   3
ENDBRANCH   1   2
BRANCH   1  22
ATOM     22  C   UNL A   1      31.925  29.284  25.682  1.00  0.00     0.275 C 
BRANCH  22  23
ATOM     23  O   UNL A   1      33.115  30.090  25.737  1.00  0.00    -0.458 OA
BRANCH  23  24
ATOM     24  C   UNL A   1      33.129  31.041  26.698  1.00  0.00     0.338 C 
ATOM     25  O   UNL A   1      32.301  31.917  26.878  1.00  0.00    -0.246 OA
BRANCH  24  26
ATOM     26  C   UNL A   1      34.328  30.891  27.554  1.00  0.00     0.060 A 
ATOM     27  C   UNL A   1      35.164  31.972  27.850  1.00  0.00     0.016 A 
ATOM     28  C   UNL A   1      34.675  29.609  27.984  1.00  0.00     0.016 A 
ATOM     29  C   UNL A   1      36.374  31.760  28.514  1.00  0.00     0.010 A 
ATOM     30  C   UNL A   1      35.844  29.411  28.722  1.00  0.00     0.010 A 
ATOM     31  C   UNL A   1      36.719  30.480  28.975  1.00  0.00    -0.014 A 
BRANCH  31  32
ATOM     32  C   UNL A   1      37.979  30.241  29.728  1.00  0.00     0.031 A 
ATOM     33  C   UNL A   1      39.073  29.393  29.138  1.00  0.00     0.074 A 
ATOM     34  C   UNL A   1      38.133  30.755  30.964  1.00  0.00     0.049 A 
ATOM     35  N   UNL A   1      40.148  28.909  29.710  1.00  0.00    -0.248 NA
ATOM     36  C   UNL A   1      38.938  29.033  27.718  1.00  0.00     0.031 C 
ATOM     37  C   UNL A   1      37.173  31.623  31.644  1.00  0.00     0.029 A 
ATOM     38  N   UNL A   1      39.156  30.617  31.870  1.00  0.00    -0.354 N 
ATOM     39  C   UNL A   1      40.795  28.161  28.736  1.00  0.00     0.074 A 
ATOM     40  C   UNL A   1      39.991  28.246  27.536  1.00  0.00     0.031 C 
ATOM     41  C   UNL A   1      37.663  31.964  32.846  1.00  0.00     0.029 A 
ATOM     42  C   UNL A   1      38.933  31.277  33.053  1.00  0.00     0.049 A 
ATOM     43  H   UNL A   1      39.971  30.095  31.688  1.00  0.00     0.167 HD
ATOM     44  C   UNL A   1      41.954  27.468  28.837  1.00  0.00     0.037 A 
ATOM     45  C   UNL A   1      39.648  31.297  34.194  1.00  0.00     0.037 A 
ATOM     46  C   UNL A   1      42.773  27.412  30.021  1.00  0.00     0.049 A 
ATOM     47  C   UNL A   1      40.901  30.477  34.298  1.00  0.00     0.074 A 
ATOM     48  C   UNL A   1      43.971  26.742  30.210  1.00  0.00     0.029 A 
ATOM     49  N   UNL A   1      42.487  28.061  31.211  1.00  0.00    -0.354 N 
ATOM     50  N   UNL A   1      41.473  29.725  33.390  1.00  0.00    -0.248 NA
ATOM     51  C   UNL A   1      41.594  30.488  35.594  1.00  0.00     0.031 C 
ATOM     52  C   UNL A   1      44.394  26.963  31.525  1.00  0.00     0.029 A 
ATOM     53  C   UNL A   1      43.479  27.799  32.143  1.00  0.00     0.049 A 
ATOM     54  H   UNL A   1      41.696  28.626  31.371  1.00  0.00     0.167 HD
ATOM     55  C   UNL A   1      42.592  29.178  34.000  1.00  0.00     0.074 A 
ATOM     56  C   UNL A   1      42.631  29.699  35.350  1.00  0.00     0.031 C 
ATOM     57  C   UNL A   1      43.502  28.317  33.485  1.00  0.00     0.037 A 
BRANCH  44  58
ATOM     58  C   UNL A   1      42.414  26.695  27.637  1.00  0.00     0.064 A 
ATOM     59  C   UNL A   1      43.354  27.223  26.740  1.00  0.00     0.173 A 
ATOM     60  C   UNL A   1      41.966  25.382  27.426  1.00  0.00     0.173 A 
ATOM     61  F   UNL A   1      43.803  28.477  26.894  1.00  0.00    -0.203 F 
ATOM     62  C   UNL A   1      43.822  26.465  25.669  1.00  0.00     0.198 A 
ATOM     63  C   UNL A   1      42.452  24.621  26.366  1.00  0.00     0.198 A 
ATOM     64  F   UNL A   1      41.071  24.831  28.259  1.00  0.00    -0.203 F 
ATOM     65  F   UNL A   1      44.701  26.997  24.808  1.00  0.00    -0.200 F 
ATOM     66  C   UNL A   1      43.377  25.164  25.488  1.00  0.00     0.200 A 
ATOM     67  F   UNL A   1      42.030  23.360  26.198  1.00  0.00    -0.200 F 
ATOM     68  F   UNL A   1      43.840  24.432  24.465  1.00  0.00    -0.200 F 
ENDBRANCH  44  58
BRANCH  45  69
ATOM     69  C   UNL A   1      39.172  32.114  35.338  1.00  0.00     0.064 A 
ATOM     70  C   UNL A   1      38.405  31.535  36.357  1.00  0.00     0.173 A 
ATOM     71  C   UNL A   1      39.501  33.473  35.453  1.00  0.00     0.173 A 
ATOM     72  F   UNL A   1      38.047  30.246  36.275  1.00  0.00    -0.203 F 
ATOM     73  C   UNL A   1      37.985  32.287  37.452  1.00  0.00     0.198 A 
ATOM     74  C   UNL A   1      39.102  34.216  36.561  1.00  0.00     0.198 A 
ATOM     75  F   UNL A   1      40.233  34.069  34.501  1.00  0.00    -0.203 F 
ATOM     76  F   UNL A   1      37.232  31.717  38.402  1.00  0.00    -0.200 F 
ATOM     77  C   UNL A   1      38.341  33.623  37.558  1.00  0.00     0.200 A 
ATOM     78  F   UNL A   1      39.459  35.503  36.666  1.00  0.00    -0.200 F 
ATOM     79  F   UNL A   1      37.951  34.341  38.620  1.00  0.00    -0.200 F 
ENDBRANCH  45  69
BRANCH  57  80
ATOM     80  C   UNL A   1      44.624  27.888  34.381  1.00  0.00     0.064 A 
ATOM     81  C   UNL A   1      45.805  28.638  34.479  1.00  0.00     0.173 A 
ATOM     82  C   UNL A   1      44.499  26.744  35.183  1.00  0.00     0.173 A 
ATOM     83  F   UNL A   1      45.975  29.730  33.719  1.00  0.00    -0.203 F 
ATOM     84  C   UNL A   1      46.828  28.249  35.339  1.00  0.00     0.198 A 
ATOM     85  C   UNL A   1      45.516  26.370  36.058  1.00  0.00     0.198 A 
ATOM     86  F   UNL A   1      43.385  25.998  35.127  1.00  0.00    -0.203 F 
ATOM     87  F   UNL A   1      47.961  28.961  35.395  1.00  0.00    -0.200 F 
ATOM     88  C   UNL A   1      46.680  27.120  36.132  1.00  0.00     0.200 A 
ATOM     89  F   UNL A   1      45.367  25.285  36.830  1.00  0.00    -0.200 F 
ATOM     90  F   UNL A   1      47.663  26.751  36.965  1.00  0.00    -0.200 F 
ENDBRANCH  57  80
ENDBRANCH  31  32
ENDBRANCH  24  26
ENDBRANCH  23  24
ENDBRANCH  22  23
ENDBRANCH   1  22
TORSDOF 14
ENDMDL
MODEL 2
REMARK VINA RESULT:     -11.9      0.611      1.825
REMARK SMILES Cc1c(CC(=O)OCCOC(=O)c2ccc(-c3c4nc(c(-c5c(F)c(F)c(F)c(F)c5F)c5ccc([nH]5)c(-c5c(F)c(F)c(F)c(F)c5F)c5nc(c(-c6c(F)c(F)c(F)c(F)c6F)c6ccc3[nH]6)C=C5)C=C4)cc2)c(O)oc2cc(=O)cc(O)c1-2
REMARK SMILES IDX 8 1 7 2 5 3 6 4 4 5 3 6 1 7 2 8 86 9 76 10 79 11 84 12 78 13
REMARK SMILES IDX 80 14 83 15 81 16 82 17 77 18 85 20 9 22 10 23 11 24 12 25
REMARK SMILES IDX 13 26 14 27 75 28 15 29 74 30 16 31 17 32 18 33 68 34 19 35
REMARK SMILES IDX 73 36 67 37 69 38 20 39 72 40 66 41 65 42 21 44 53 45 33 46
REMARK SMILES IDX 52 47 34 48 37 49 51 50 70 51 35 52 36 53 50 55 71 56 38 57
REMARK SMILES IDX 22 58 23 59 31 60 24 61 25 62 29 63 32 64 26 65 27 66 30 67
REMARK SMILES IDX 28 68 54 69 55 70 63 71 56 72 57 73 61 74 64 75 58 76 59 77
REMARK SMILES IDX 62 78 60 79 39 80 40 81 48 82 41 83 42 84 46 85 49 86 43 87
REMARK SMILES IDX 44 88 47 89 45 90
REMARK H PARENT 77 19 85 21 69 43 37 54
REMARK Flexibility Score: inf
ROOT
ATOM      1  C   UNL A   1      31.383  29.600  24.318  1.00  0.00     0.274 C 
ENDROOT
BRANCH   1   2
ATOM      2  O   UNL A   1      30.019  29.404  23.892  1.00  0.00    -0.462 OA
BRANCH   2   3
ATOM      3  C   UNL A   1      29.851  28.594  22.817  1.00  0.00     0.310 C 
ATOM      4  O   UNL A   1      29.908  28.965  21.646  1.00  0.00    -0.252 OA
BRANCH   3   5
ATOM      5  C   UNL A   1      29.614  27.130  23.157  1.00  0.00     0.166 C 
BRANCH   5   6
ATOM      6  C   UNL A   1      30.832  26.275  23.439  1.00  0.00     0.048 A 
ATOM      7  C   UNL A   1      30.345  26.342  25.959  1.00  0.00     0.046 C 
ATOM      8  C   UNL A   1      31.132  25.775  24.802  1.00  0.00    -0.026 A 
ATOM      9  C   UNL A   1      32.124  24.858  24.981  1.00  0.00     0.063 A 
ATOM     10  C   UNL A   1      31.650  25.920  22.424  1.00  0.00     0.286 A 
ATOM     11  C   UNL A   1      33.013  24.557  23.846  1.00  0.00     0.146 A 
ATOM     12  C   UNL A   1      32.388  24.141  26.246  1.00  0.00     0.130 A 
ATOM     13  O   UNL A   1      32.731  25.086  22.602  1.00  0.00    -0.425 OA
ATOM     14  C   UNL A   1      34.132  23.839  24.006  1.00  0.00     0.100 A 
ATOM     15  C   UNL A   1      33.503  23.418  26.417  1.00  0.00     0.099 A 
ATOM     16  C   UNL A   1      34.488  23.285  25.324  1.00  0.00     0.186 A 
ATOM     17  O   UNL A   1      35.548  22.698  25.503  1.00  0.00    -0.290 OA
BRANCH  10  18
ATOM     18  O   UNL A   1      31.432  26.343  21.131  1.00  0.00    -0.480 OA
ATOM     19  H   UNL A   1      32.078  26.863  20.693  1.00  0.00     0.297 HD
ENDBRANCH  10  18
BRANCH  12  20
ATOM     20  O   UNL A   1      31.401  24.159  27.210  1.00  0.00    -0.507 OA
ATOM     21  H   UNL A   1      31.629  24.081  28.115  1.00  0.00     0.293 HD
ENDBRANCH  12  20
ENDBRANCH   5   6
ENDBRANCH   3   5
ENDBRANCH   2   3
ENDBRANCH   1   2
BRANCH   1  22
ATOM     22  C   UNL A   1      31.428  30.466  25.574  1.00  0.00     0.275 C 
BRANCH  22  23
ATOM     23  O   UNL A   1      32.667  30.240  26.267  1.00  0.00    -0.458 OA
BRANCH  23  24
ATOM     24  C   UNL A   1      33.121  31.281  27.001  1.00  0.00     0.338 C 
ATOM     25  O   UNL A   1      32.587  32.367  27.146  1.00  0.00    -0.246 OA
BRANCH  24  26
ATOM     26  C   UNL A   1      34.409  30.935  27.644  1.00  0.00     0.060 A 
ATOM     27  C   UNL A   1      34.764  29.610  27.919  1.00  0.00     0.016 A 
ATOM     28  C   UNL A   1      35.235  31.976  28.071  1.00  0.00     0.016 A 
ATOM     29  C   UNL A   1      35.904  29.334  28.678  1.00  0.00     0.010 A 
ATOM     30  C   UNL A   1      36.418  31.694  28.756  1.00  0.00     0.010 A 
ATOM     31  C   UNL A   1      36.754  30.372  29.088  1.00  0.00    -0.014 A 
BRANCH  31  32
ATOM     32  C   UNL A   1      38.000  30.096  29.854  1.00  0.00     0.031 A 
ATOM     33  C   UNL A   1      39.078  29.225  29.269  1.00  0.00     0.074 A 
ATOM     34  C   UNL A   1      38.154  30.599  31.094  1.00  0.00     0.049 A 
ATOM     35  N   UNL A   1      40.134  28.711  29.849  1.00  0.00    -0.248 NA
ATOM     36  C   UNL A   1      38.949  28.877  27.845  1.00  0.00     0.031 C 
ATOM     37  C   UNL A   1      37.208  31.486  31.771  1.00  0.00     0.029 A 
ATOM     38  N   UNL A   1      39.163  30.429  32.010  1.00  0.00    -0.354 N 
ATOM     39  C   UNL A   1      40.772  27.953  28.877  1.00  0.00     0.074 A 
ATOM     40  C   UNL A   1      39.984  28.065  27.669  1.00  0.00     0.031 C 
ATOM     41  C   UNL A   1      37.694  31.806  32.980  1.00  0.00     0.029 A 
ATOM     42  C   UNL A   1      38.944  31.086  33.195  1.00  0.00     0.049 A 
ATOM     43  H   UNL A   1      39.967  29.888  31.833  1.00  0.00     0.167 HD
ATOM     44  C   UNL A   1      41.913  27.230  28.984  1.00  0.00     0.037 A 
ATOM     45  C   UNL A   1      39.648  31.081  34.343  1.00  0.00     0.037 A 
ATOM     46  C   UNL A   1      42.718  27.145  30.176  1.00  0.00     0.049 A 
ATOM     47  C   UNL A   1      40.878  30.229  34.455  1.00  0.00     0.074 A 
ATOM     48  C   UNL A   1      43.896  26.444  30.374  1.00  0.00     0.029 A 
ATOM     49  N   UNL A   1      42.435  27.794  31.368  1.00  0.00    -0.354 N 
ATOM     50  N   UNL A   1      41.440  29.469  33.547  1.00  0.00    -0.248 NA
ATOM     51  C   UNL A   1      41.557  30.214  35.758  1.00  0.00     0.031 C 
ATOM     52  C   UNL A   1      44.311  26.645  31.695  1.00  0.00     0.029 A 
ATOM     53  C   UNL A   1      43.410  27.500  32.308  1.00  0.00     0.049 A 
ATOM     54  H   UNL A   1      41.657  28.377  31.524  1.00  0.00     0.167 HD
ATOM     55  C   UNL A   1      42.539  28.890  34.166  1.00  0.00     0.074 A 
ATOM     56  C   UNL A   1      42.577  29.400  35.520  1.00  0.00     0.031 C 
ATOM     57  C   UNL A   1      43.432  28.009  33.655  1.00  0.00     0.037 A 
BRANCH  44  58
ATOM     58  C   UNL A   1      42.366  26.453  27.784  1.00  0.00     0.064 A 
ATOM     59  C   UNL A   1      43.325  26.964  26.899  1.00  0.00     0.173 A 
ATOM     60  C   UNL A   1      41.889  25.152  27.562  1.00  0.00     0.173 A 
ATOM     61  F   UNL A   1      43.802  28.207  27.064  1.00  0.00    -0.203 F 
ATOM     62  C   UNL A   1      43.786  26.202  25.828  1.00  0.00     0.198 A 
ATOM     63  C   UNL A   1      42.368  24.386  26.501  1.00  0.00     0.198 A 
ATOM     64  F   UNL A   1      40.975  24.617  28.384  1.00  0.00    -0.203 F 
ATOM     65  F   UNL A   1      44.684  26.719  24.978  1.00  0.00    -0.200 F 
ATOM     66  C   UNL A   1      43.313  24.912  25.635  1.00  0.00     0.200 A 
ATOM     67  F   UNL A   1      41.918  23.136  26.323  1.00  0.00    -0.200 F 
ATOM     68  F   UNL A   1      43.768  24.176  24.612  1.00  0.00    -0.200 F 
ENDBRANCH  44  58
BRANCH  45  69
ATOM     69  C   UNL A   1      39.181  31.902  35.488  1.00  0.00     0.064 A 
ATOM     70  C   UNL A   1      39.537  33.253  35.589  1.00  0.00     0.173 A 
ATOM     71  C   UNL A   1      38.347  31.367  36.480  1.00  0.00     0.173 A 
ATOM     72  F   UNL A   1      40.352  33.800  34.676  1.00  0.00    -0.203 F 
ATOM     73  C   UNL A   1      39.074  34.040  36.640  1.00  0.00     0.198 A 
ATOM     74  C   UNL A   1      37.864  32.161  37.517  1.00  0.00     0.198 A 
ATOM     75  F   UNL A   1      37.980  30.078  36.425  1.00  0.00    -0.203 F 
ATOM     76  F   UNL A   1      39.448  35.323  36.728  1.00  0.00    -0.200 F 
ATOM     77  C   UNL A   1      38.230  33.496  37.598  1.00  0.00     0.200 A 
ATOM     78  F   UNL A   1      37.039  31.635  38.433  1.00  0.00    -0.200 F 
ATOM     79  F   UNL A   1      37.771  34.258  38.600  1.00  0.00    -0.200 F 
ENDBRANCH  45  69
BRANCH  57  80
ATOM     80  C   UNL A   1      44.534  27.546  34.559  1.00  0.00     0.064 A 
ATOM     81  C   UNL A   1      44.406  26.377  35.323  1.00  0.00     0.173 A 
ATOM     82  C   UNL A   1      45.745  28.249  34.624  1.00  0.00     0.173 A 
ATOM     83  F   UNL A   1      43.260  25.681  35.304  1.00  0.00    -0.203 F 
ATOM     84  C   UNL A   1      45.449  25.937  36.134  1.00  0.00     0.198 A 
ATOM     85  C   UNL A   1      46.794  27.794  35.420  1.00  0.00     0.198 A 
ATOM     86  F   UNL A   1      45.916  29.371  33.907  1.00  0.00    -0.203 F 
ATOM     87  F   UNL A   1      45.295  24.835  36.881  1.00  0.00    -0.200 F 
ATOM     88  C   UNL A   1      46.643  26.641  36.176  1.00  0.00     0.200 A 
ATOM     89  F   UNL A   1      47.950  28.471  35.453  1.00  0.00    -0.200 F 
ATOM     90  F   UNL A   1      47.649  26.212  36.952  1.00  0.00    -0.200 F 
ENDBRANCH  57  80
ENDBRANCH  31  32
ENDBRANCH  24  26
ENDBRANCH  23  24
ENDBRANCH  22  23
ENDBRANCH   1  22
TORSDOF 14
ENDMDL
MODEL 3
REMARK VINA RESULT:     -11.9      1.156      2.223
REMARK SMILES Cc1c(CC(=O)OCCOC(=O)c2ccc(-c3c4nc(c(-c5c(F)c(F)c(F)c(F)c5F)c5ccc([nH]5)c(-c5c(F)c(F)c(F)c(F)c5F)c5nc(c(-c6c(F)c(F)c(F)c(F)c6F)c6ccc3[nH]6)C=C5)C=C4)cc2)c(O)oc2cc(=O)cc(O)c1-2
REMARK SMILES IDX 8 1 7 2 5 3 6 4 4 5 3 6 1 7 2 8 86 9 76 10 79 11 84 12 78 13
REMARK SMILES IDX 80 14 83 15 81 16 82 17 77 18 85 20 9 22 10 23 11 24 12 25
REMARK SMILES IDX 13 26 14 27 75 28 15 29 74 30 16 31 17 32 18 33 68 34 19 35
REMARK SMILES IDX 73 36 67 37 69 38 20 39 72 40 66 41 65 42 21 44 53 45 33 46
REMARK SMILES IDX 52 47 34 48 37 49 51 50 70 51 35 52 36 53 50 55 71 56 38 57
REMARK SMILES IDX 22 58 23 59 31 60 24 61 25 62 29 63 32 64 26 65 27 66 30 67
REMARK SMILES IDX 28 68 54 69 55 70 63 71 56 72 57 73 61 74 64 75 58 76 59 77
REMARK SMILES IDX 62 78 60 79 39 80 40 81 48 82 41 83 42 84 46 85 49 86 43 87
REMARK SMILES IDX 44 88 47 89 45 90
REMARK H PARENT 77 19 85 21 69 43 37 54
REMARK Flexibility Score: inf
ROOT
ATOM      1  C   UNL A   1      31.823  28.807  24.258  1.00  0.00     0.274 C 
ENDROOT
BRANCH   1   2
ATOM      2  O   UNL A   1      32.371  27.627  24.880  1.00  0.00    -0.462 OA
BRANCH   2   3
ATOM      3  C   UNL A   1      31.464  26.767  25.407  1.00  0.00     0.310 C 
ATOM      4  O   UNL A   1      30.286  26.695  25.063  1.00  0.00    -0.252 OA
BRANCH   3   5
ATOM      5  C   UNL A   1      32.021  25.832  26.470  1.00  0.00     0.166 C 
BRANCH   5   6
ATOM      6  C   UNL A   1      32.205  24.377  26.090  1.00  0.00     0.048 A 
ATOM      7  C   UNL A   1      34.628  24.833  25.371  1.00  0.00     0.046 C 
ATOM      8  C   UNL A   1      33.523  23.847  25.666  1.00  0.00    -0.026 A 
ATOM      9  C   UNL A   1      33.693  22.503  25.516  1.00  0.00     0.063 A 
ATOM     10  C   UNL A   1      31.161  23.525  26.172  1.00  0.00     0.286 A 
ATOM     11  C   UNL A   1      32.503  21.637  25.565  1.00  0.00     0.146 A 
ATOM     12  C   UNL A   1      34.994  21.839  25.292  1.00  0.00     0.130 A 
ATOM     13  O   UNL A   1      31.280  22.179  25.911  1.00  0.00    -0.425 OA
ATOM     14  C   UNL A   1      32.561  20.347  25.212  1.00  0.00     0.100 A 
ATOM     15  C   UNL A   1      35.066  20.547  24.940  1.00  0.00     0.099 A 
ATOM     16  C   UNL A   1      33.839  19.737  24.803  1.00  0.00     0.186 A 
ATOM     17  O   UNL A   1      33.893  18.581  24.398  1.00  0.00    -0.290 OA
BRANCH  10  18
ATOM     18  O   UNL A   1      29.907  23.945  26.563  1.00  0.00    -0.480 OA
ATOM     19  H   UNL A   1      29.525  23.611  27.351  1.00  0.00     0.297 HD
ENDBRANCH  10  18
BRANCH  12  20
ATOM     20  O   UNL A   1      36.136  22.566  25.555  1.00  0.00    -0.507 OA
ATOM     21  H   UNL A   1      36.979  22.186  25.399  1.00  0.00     0.293 HD
ENDBRANCH  12  20
ENDBRANCH   5   6
ENDBRANCH   3   5
ENDBRANCH   2   3
ENDBRANCH   1   2
BRANCH   1  22
ATOM     22  C   UNL A   1      31.773  29.959  25.258  1.00  0.00     0.275 C 
BRANCH  22  23
ATOM     23  O   UNL A   1      33.066  30.119  25.868  1.00  0.00    -0.458 OA
BRANCH  23  24
ATOM     24  C   UNL A   1      33.166  31.128  26.763  1.00  0.00     0.338 C 
ATOM     25  O   UNL A   1      32.409  32.074  26.891  1.00  0.00    -0.246 OA
BRANCH  24  26
ATOM     26  C   UNL A   1      34.364  30.944  27.614  1.00  0.00     0.060 A 
ATOM     27  C   UNL A   1      35.191  32.015  27.967  1.00  0.00     0.016 A 
ATOM     28  C   UNL A   1      34.718  29.644  27.982  1.00  0.00     0.016 A 
ATOM     29  C   UNL A   1      36.400  31.779  28.623  1.00  0.00     0.010 A 
ATOM     30  C   UNL A   1      35.886  29.419  28.713  1.00  0.00     0.010 A 
ATOM     31  C   UNL A   1      36.753  30.480  29.021  1.00  0.00    -0.014 A 
BRANCH  31  32
ATOM     32  C   UNL A   1      38.012  30.213  29.767  1.00  0.00     0.031 A 
ATOM     33  C   UNL A   1      39.086  29.347  29.166  1.00  0.00     0.074 A 
ATOM     34  C   UNL A   1      38.183  30.719  31.004  1.00  0.00     0.049 A 
ATOM     35  N   UNL A   1      40.154  28.840  29.730  1.00  0.00    -0.248 NA
ATOM     36  C   UNL A   1      38.936  28.996  27.745  1.00  0.00     0.031 C 
ATOM     37  C   UNL A   1      37.243  31.602  31.694  1.00  0.00     0.029 A 
ATOM     38  N   UNL A   1      39.208  30.556  31.903  1.00  0.00    -0.354 N 
ATOM     39  C   UNL A   1      40.781  28.084  28.749  1.00  0.00     0.074 A 
ATOM     40  C   UNL A   1      39.972  28.190  27.554  1.00  0.00     0.031 C 
ATOM     41  C   UNL A   1      37.747  31.927  32.894  1.00  0.00     0.029 A 
ATOM     42  C   UNL A   1      39.004  31.214  33.090  1.00  0.00     0.049 A 
ATOM     43  H   UNL A   1      40.012  30.020  31.714  1.00  0.00     0.167 HD
ATOM     44  C   UNL A   1      41.927  27.368  28.840  1.00  0.00     0.037 A 
ATOM     45  C   UNL A   1      39.726  31.216  34.228  1.00  0.00     0.037 A 
ATOM     46  C   UNL A   1      42.752  27.290  30.019  1.00  0.00     0.049 A 
ATOM     47  C   UNL A   1      40.963  30.371  34.320  1.00  0.00     0.074 A 
ATOM     48  C   UNL A   1      43.937  26.597  30.198  1.00  0.00     0.029 A 
ATOM     49  N   UNL A   1      42.485  27.939  31.213  1.00  0.00    -0.354 N 
ATOM     50  N   UNL A   1      41.515  29.612  33.406  1.00  0.00    -0.248 NA
ATOM     51  C   UNL A   1      41.663  30.362  35.613  1.00  0.00     0.031 C 
ATOM     52  C   UNL A   1      44.372  26.802  31.512  1.00  0.00     0.029 A 
ATOM     53  C   UNL A   1      43.476  27.653  32.138  1.00  0.00     0.049 A 
ATOM     54  H   UNL A   1      41.706  28.518  31.381  1.00  0.00     0.167 HD
ATOM     55  C   UNL A   1      42.627  29.041  34.007  1.00  0.00     0.074 A 
ATOM     56  C   UNL A   1      42.684  29.554  35.360  1.00  0.00     0.031 C 
ATOM     57  C   UNL A   1      43.517  28.165  33.483  1.00  0.00     0.037 A 
BRANCH  44  58
ATOM     58  C   UNL A   1      42.366  26.592  27.634  1.00  0.00     0.064 A 
ATOM     59  C   UNL A   1      43.322  27.098  26.743  1.00  0.00     0.173 A 
ATOM     60  C   UNL A   1      41.877  25.295  27.410  1.00  0.00     0.173 A 
ATOM     61  F   UNL A   1      43.810  28.337  26.909  1.00  0.00    -0.203 F 
ATOM     62  C   UNL A   1      43.769  26.336  25.666  1.00  0.00     0.198 A 
ATOM     63  C   UNL A   1      42.342  24.529  26.344  1.00  0.00     0.198 A 
ATOM     64  F   UNL A   1      40.965  24.765  28.238  1.00  0.00    -0.203 F 
ATOM     65  F   UNL A   1      44.665  26.849  24.811  1.00  0.00    -0.200 F 
ATOM     66  C   UNL A   1      43.285  25.051  25.472  1.00  0.00     0.200 A 
ATOM     67  F   UNL A   1      41.881  23.283  26.165  1.00  0.00    -0.200 F 
ATOM     68  F   UNL A   1      43.727  24.314  24.444  1.00  0.00    -0.200 F 
ENDBRANCH  44  58
BRANCH  45  69
ATOM     69  C   UNL A   1      39.273  32.036  35.378  1.00  0.00     0.064 A 
ATOM     70  C   UNL A   1      39.619  33.391  35.468  1.00  0.00     0.173 A 
ATOM     71  C   UNL A   1      38.462  31.497  36.387  1.00  0.00     0.173 A 
ATOM     72  F   UNL A   1      40.413  33.942  34.539  1.00  0.00    -0.203 F 
ATOM     73  C   UNL A   1      39.168  34.177  36.526  1.00  0.00     0.198 A 
ATOM     74  C   UNL A   1      37.992  32.290  37.430  1.00  0.00     0.198 A 
ATOM     75  F   UNL A   1      38.107  30.205  36.342  1.00  0.00    -0.203 F 
ATOM     76  F   UNL A   1      39.532  35.464  36.603  1.00  0.00    -0.200 F 
ATOM     77  C   UNL A   1      38.347  33.628  37.500  1.00  0.00     0.200 A 
ATOM     78  F   UNL A   1      37.188  31.759  38.363  1.00  0.00    -0.200 F 
ATOM     79  F   UNL A   1      37.900  34.389  38.509  1.00  0.00    -0.200 F 
ENDBRANCH  45  69
BRANCH  57  80
ATOM     80  C   UNL A   1      44.636  27.709  34.370  1.00  0.00     0.064 A 
ATOM     81  C   UNL A   1      45.825  28.445  34.478  1.00  0.00     0.173 A 
ATOM     82  C   UNL A   1      44.499  26.555  35.155  1.00  0.00     0.173 A 
ATOM     83  F   UNL A   1      46.006  29.547  33.736  1.00  0.00    -0.203 F 
ATOM     84  C   UNL A   1      46.845  28.031  35.331  1.00  0.00     0.198 A 
ATOM     85  C   UNL A   1      45.513  26.156  36.022  1.00  0.00     0.198 A 
ATOM     86  F   UNL A   1      43.378  25.821  35.089  1.00  0.00    -0.203 F 
ATOM     87  F   UNL A   1      47.986  28.731  35.396  1.00  0.00    -0.200 F 
ATOM     88  C   UNL A   1      46.686  26.892  36.107  1.00  0.00     0.200 A 
ATOM     89  F   UNL A   1      45.354  25.060  36.777  1.00  0.00    -0.200 F 
ATOM     90  F   UNL A   1      47.666  26.500  36.932  1.00  0.00    -0.200 F 
ENDBRANCH  57  80
ENDBRANCH  31  32
ENDBRANCH  24  26
ENDBRANCH  23  24
ENDBRANCH  22  23
ENDBRANCH   1  22
TORSDOF 14
ENDMDL
