MODEL 1
REMARK VINA RESULT:     -10.3      0.000      0.000
REMARK SMILES CC(C)Oc1ccccc1NCc1cc(C(=O)OCCOC(=O)c2ccc(-c3c4nc(c(-c5c(F)c(F)c(F)c(F)c5F)c5ccc([nH]5)c(-c5c(F)c(F)c(F)c(F)c5F)c5nc(c(-c6c(F)c(F)c(F)c(F)c6F)c6ccc3[nH]6)C=C5)C=C4)cc2)cs1
REMARK SMILES IDX 18 1 16 2 17 3 15 4 13 5 14 6 88 7 87 8 12 9 11 10 10 12
REMARK SMILES IDX 5 13 6 14 7 15 9 16 8 17 4 18 2 19 1 20 3 21 19 22 20 23
REMARK SMILES IDX 21 24 22 25 23 26 24 27 25 28 86 29 26 30 85 31 27 32 28 33
REMARK SMILES IDX 29 34 79 35 30 36 84 37 78 38 80 39 31 40 83 41 77 42 76 43
REMARK SMILES IDX 32 45 64 46 44 47 63 48 45 49 48 50 62 51 81 52 46 53 47 54
REMARK SMILES IDX 61 56 82 57 49 58 33 59 34 60 42 61 35 62 36 63 40 64 43 65
REMARK SMILES IDX 37 66 38 67 41 68 39 69 65 70 66 71 74 72 67 73 68 74 72 75
REMARK SMILES IDX 75 76 69 77 70 78 73 79 71 80 50 81 51 82 59 83 52 84 53 85
REMARK SMILES IDX 57 86 60 87 54 88 55 89 58 90 56 91
REMARK H PARENT 11 11 80 44 48 55
REMARK Flexibility Score: inf
ROOT
ATOM      1  O   UNL A   1      32.884  34.182  29.190  1.00  0.00    -0.458 OA
ENDROOT
BRANCH   1   2
ATOM      2  C   UNL A   1      32.884  35.514  29.483  1.00  0.00     0.339 C 
ATOM      3  O   UNL A   1      32.535  36.395  28.704  1.00  0.00    -0.246 OA
BRANCH   2   4
ATOM      4  C   UNL A   1      33.302  35.805  30.853  1.00  0.00     0.071 A 
ATOM      5  C   UNL A   1      34.192  35.516  33.006  1.00  0.00     0.025 A 
ATOM      6  C   UNL A   1      33.768  34.883  31.850  1.00  0.00     0.033 A 
ATOM      7  S   UNL A   1      33.814  37.185  32.977  1.00  0.00    -0.146 S 
ATOM      8  C   UNL A   1      33.313  37.096  31.353  1.00  0.00     0.080 A 
BRANCH   5   9
ATOM      9  C   UNL A   1      34.953  34.941  34.168  1.00  0.00     0.160 C 
BRANCH   9  10
ATOM     10  N   UNL A   1      36.355  34.700  33.865  1.00  0.00    -0.377 N 
ATOM     11  H   UNL A   1      36.939  35.483  33.749  1.00  0.00     0.161 HD
BRANCH  10  12
ATOM     12  C   UNL A   1      36.926  33.441  33.728  1.00  0.00     0.077 A 
ATOM     13  C   UNL A   1      37.026  32.846  32.452  1.00  0.00     0.142 A 
ATOM     14  C   UNL A   1      37.488  31.535  32.291  1.00  0.00     0.048 A 
ATOM     15  C   UNL A   1      37.933  30.816  33.396  1.00  0.00     0.004 A 
ATOM     16  C   UNL A   1      37.397  32.701  34.819  1.00  0.00     0.029 A 
ATOM     17  C   UNL A   1      37.899  31.404  34.657  1.00  0.00     0.002 A 
BRANCH  13  18
ATOM     18  O   UNL A   1      36.567  33.512  31.345  1.00  0.00    -0.489 OA
BRANCH  18  19
ATOM     19  C   UNL A   1      37.555  34.000  30.414  1.00  0.00     0.167 C 
ATOM     20  C   UNL A   1      38.784  34.439  31.203  1.00  0.00     0.052 C 
ATOM     21  C   UNL A   1      37.967  33.105  29.241  1.00  0.00     0.052 C 
ENDBRANCH  18  19
ENDBRANCH  13  18
ENDBRANCH  10  12
ENDBRANCH   9  10
ENDBRANCH   5   9
ENDBRANCH   2   4
ENDBRANCH   1   2
BRANCH   1  22
ATOM     22  C   UNL A   1      34.022  33.710  28.444  1.00  0.00     0.275 C 
BRANCH  22  23
ATOM     23  C   UNL A   1      34.363  32.262  28.801  1.00  0.00     0.275 C 
BRANCH  23  24
ATOM     24  O   UNL A   1      34.651  31.491  27.618  1.00  0.00    -0.458 OA
BRANCH  24  25
ATOM     25  C   UNL A   1      34.817  30.163  27.811  1.00  0.00     0.338 C 
ATOM     26  O   UNL A   1      34.015  29.271  27.598  1.00  0.00    -0.246 OA
BRANCH  25  27
ATOM     27  C   UNL A   1      36.197  29.906  28.248  1.00  0.00     0.060 A 
ATOM     28  C   UNL A   1      37.226  30.117  27.332  1.00  0.00     0.016 A 
ATOM     29  C   UNL A   1      36.470  29.356  29.499  1.00  0.00     0.016 A 
ATOM     30  C   UNL A   1      38.534  29.767  27.646  1.00  0.00     0.010 A 
ATOM     31  C   UNL A   1      37.793  29.034  29.831  1.00  0.00     0.010 A 
ATOM     32  C   UNL A   1      38.832  29.222  28.901  1.00  0.00    -0.014 A 
BRANCH  32  33
ATOM     33  C   UNL A   1      40.225  28.804  29.204  1.00  0.00     0.031 A 
ATOM     34  C   UNL A   1      41.111  29.689  30.036  1.00  0.00     0.074 A 
ATOM     35  C   UNL A   1      40.684  27.615  28.771  1.00  0.00     0.049 A 
ATOM     36  N   UNL A   1      42.382  29.560  30.320  1.00  0.00    -0.248 NA
ATOM     37  C   UNL A   1      40.481  30.881  30.624  1.00  0.00     0.031 C 
ATOM     38  C   UNL A   1      39.908  26.638  28.007  1.00  0.00     0.029 A 
ATOM     39  N   UNL A   1      41.913  27.022  28.918  1.00  0.00    -0.354 N 
ATOM     40  C   UNL A   1      42.713  30.669  31.086  1.00  0.00     0.074 A 
ATOM     41  C   UNL A   1      41.512  31.467  31.216  1.00  0.00     0.031 C 
ATOM     42  C   UNL A   1      40.672  25.561  27.768  1.00  0.00     0.029 A 
ATOM     43  C   UNL A   1      42.010  25.797  28.304  1.00  0.00     0.049 A 
ATOM     44  H   UNL A   1      42.656  27.435  29.415  1.00  0.00     0.167 HD
ATOM     45  C   UNL A   1      43.912  30.991  31.629  1.00  0.00     0.037 A 
ATOM     46  C   UNL A   1      43.065  24.973  28.158  1.00  0.00     0.037 A 
ATOM     47  C   UNL A   1      45.094  30.176  31.530  1.00  0.00     0.049 A 
ATOM     48  C   UNL A   1      44.397  25.377  28.729  1.00  0.00     0.074 A 
ATOM     49  C   UNL A   1      46.351  30.408  32.062  1.00  0.00     0.029 A 
ATOM     50  N   UNL A   1      45.163  28.963  30.860  1.00  0.00    -0.354 N 
ATOM     51  N   UNL A   1      44.711  26.446  29.419  1.00  0.00    -0.248 NA
ATOM     52  C   UNL A   1      45.524  24.467  28.485  1.00  0.00     0.031 C 
ATOM     53  C   UNL A   1      47.189  29.354  31.681  1.00  0.00     0.029 A 
ATOM     54  C   UNL A   1      46.446  28.445  30.947  1.00  0.00     0.049 A 
ATOM     55  H   UNL A   1      44.411  28.533  30.392  1.00  0.00     0.167 HD
ATOM     56  C   UNL A   1      46.065  26.336  29.699  1.00  0.00     0.074 A 
ATOM     57  C   UNL A   1      46.510  25.083  29.124  1.00  0.00     0.031 C 
ATOM     58  C   UNL A   1      46.871  27.198  30.365  1.00  0.00     0.037 A 
BRANCH  45  59
ATOM     59  C   UNL A   1      44.015  32.302  32.350  1.00  0.00     0.064 A 
ATOM     60  C   UNL A   1      43.803  32.409  33.732  1.00  0.00     0.173 A 
ATOM     61  C   UNL A   1      44.361  33.466  31.647  1.00  0.00     0.173 A 
ATOM     62  F   UNL A   1      43.455  31.328  34.446  1.00  0.00    -0.203 F 
ATOM     63  C   UNL A   1      43.911  33.638  34.379  1.00  0.00     0.198 A 
ATOM     64  C   UNL A   1      44.493  34.688  32.302  1.00  0.00     0.198 A 
ATOM     65  F   UNL A   1      44.579  33.419  30.324  1.00  0.00    -0.203 F 
ATOM     66  F   UNL A   1      43.661  33.724  35.694  1.00  0.00    -0.200 F 
ATOM     67  C   UNL A   1      44.260  34.774  33.666  1.00  0.00     0.200 A 
ATOM     68  F   UNL A   1      44.843  35.783  31.612  1.00  0.00    -0.200 F 
ATOM     69  F   UNL A   1      44.368  35.954  34.292  1.00  0.00    -0.200 F 
ENDBRANCH  45  59
BRANCH  46  70
ATOM     70  C   UNL A   1      42.912  23.701  27.407  1.00  0.00     0.064 A 
ATOM     71  C   UNL A   1      43.303  23.603  26.065  1.00  0.00     0.173 A 
ATOM     72  C   UNL A   1      42.372  22.558  28.015  1.00  0.00     0.173 A 
ATOM     73  F   UNL A   1      43.798  24.677  25.432  1.00  0.00    -0.203 F 
ATOM     74  C   UNL A   1      43.152  22.412  25.358  1.00  0.00     0.198 A 
ATOM     75  C   UNL A   1      42.249  21.360  27.315  1.00  0.00     0.198 A 
ATOM     76  F   UNL A   1      41.978  22.601  29.296  1.00  0.00    -0.203 F 
ATOM     77  F   UNL A   1      43.497  22.355  24.063  1.00  0.00    -0.200 F 
ATOM     78  C   UNL A   1      42.633  21.290  25.985  1.00  0.00     0.200 A 
ATOM     79  F   UNL A   1      41.757  20.275  27.930  1.00  0.00    -0.200 F 
ATOM     80  F   UNL A   1      42.496  20.142  25.307  1.00  0.00    -0.200 F 
ENDBRANCH  46  70
BRANCH  58  81
ATOM     81  C   UNL A   1      48.311  26.808  30.519  1.00  0.00     0.064 A 
ATOM     82  C   UNL A   1      48.739  25.995  31.579  1.00  0.00     0.173 A 
ATOM     83  C   UNL A   1      49.266  27.222  29.579  1.00  0.00     0.173 A 
ATOM     84  F   UNL A   1      47.865  25.588  32.512  1.00  0.00    -0.203 F 
ATOM     85  C   UNL A   1      50.076  25.630  31.704  1.00  0.00     0.198 A 
ATOM     86  C   UNL A   1      50.598  26.833  29.693  1.00  0.00     0.198 A 
ATOM     87  F   UNL A   1      48.906  27.996  28.544  1.00  0.00    -0.203 F 
ATOM     88  F   UNL A   1      50.471  24.889  32.749  1.00  0.00    -0.200 F 
ATOM     89  C   UNL A   1      51.002  26.044  30.759  1.00  0.00     0.200 A 
ATOM     90  F   UNL A   1      51.490  27.226  28.774  1.00  0.00    -0.200 F 
ATOM     91  F   UNL A   1      52.289  25.686  30.879  1.00  0.00    -0.200 F 
ENDBRANCH  58  81
ENDBRANCH  32  33
ENDBRANCH  25  27
ENDBRANCH  24  25
ENDBRANCH  23  24
ENDBRANCH  22  23
ENDBRANCH   1  22
TORSDOF 16
ENDMDL
MODEL 2
REMARK VINA RESULT:     -10.3      5.762     11.591
REMARK SMILES CC(C)Oc1ccccc1NCc1cc(C(=O)OCCOC(=O)c2ccc(-c3c4nc(c(-c5c(F)c(F)c(F)c(F)c5F)c5ccc([nH]5)c(-c5c(F)c(F)c(F)c(F)c5F)c5nc(c(-c6c(F)c(F)c(F)c(F)c6F)c6ccc3[nH]6)C=C5)C=C4)cc2)cs1
REMARK SMILES IDX 18 1 16 2 17 3 15 4 13 5 14 6 88 7 87 8 12 9 11 10 10 12
REMARK SMILES IDX 5 13 6 14 7 15 9 16 8 17 4 18 2 19 1 20 3 21 19 22 20 23
REMARK SMILES IDX 21 24 22 25 23 26 24 27 25 28 86 29 26 30 85 31 27 32 28 33
REMARK SMILES IDX 29 34 79 35 30 36 84 37 78 38 80 39 31 40 83 41 77 42 76 43
REMARK SMILES IDX 32 45 64 46 44 47 63 48 45 49 48 50 62 51 81 52 46 53 47 54
REMARK SMILES IDX 61 56 82 57 49 58 33 59 34 60 42 61 35 62 36 63 40 64 43 65
REMARK SMILES IDX 37 66 38 67 41 68 39 69 65 70 66 71 74 72 67 73 68 74 72 75
REMARK SMILES IDX 75 76 69 77 70 78 73 79 71 80 50 81 51 82 59 83 52 84 53 85
REMARK SMILES IDX 57 86 60 87 54 88 55 89 58 90 56 91
REMARK H PARENT 11 11 80 44 48 55
REMARK Flexibility Score: inf
ROOT
ATOM      1  O   UNL A   1      40.986  19.919  26.427  1.00  0.00    -0.458 OA
ENDROOT
BRANCH   1   2
ATOM      2  C   UNL A   1      40.854  21.257  26.647  1.00  0.00     0.339 C 
ATOM      3  O   UNL A   1      41.731  21.972  27.122  1.00  0.00    -0.246 OA
BRANCH   2   4
ATOM      4  C   UNL A   1      39.564  21.790  26.215  1.00  0.00     0.071 A 
ATOM      5  C   UNL A   1      37.401  21.893  25.306  1.00  0.00     0.025 A 
ATOM      6  C   UNL A   1      38.553  21.135  25.434  1.00  0.00     0.033 A 
ATOM      7  S   UNL A   1      37.625  23.474  25.923  1.00  0.00    -0.146 S 
ATOM      8  C   UNL A   1      39.149  23.066  26.560  1.00  0.00     0.080 A 
BRANCH   5   9
ATOM      9  C   UNL A   1      36.056  21.478  24.779  1.00  0.00     0.160 C 
BRANCH   9  10
ATOM     10  N   UNL A   1      35.535  20.286  25.430  1.00  0.00    -0.377 N 
ATOM     11  H   UNL A   1      35.792  20.127  26.368  1.00  0.00     0.161 HD
BRANCH  10  12
ATOM     12  C   UNL A   1      34.702  19.356  24.822  1.00  0.00     0.077 A 
ATOM     13  C   UNL A   1      33.318  19.609  24.720  1.00  0.00     0.142 A 
ATOM     14  C   UNL A   1      32.434  18.647  24.219  1.00  0.00     0.048 A 
ATOM     15  C   UNL A   1      32.925  17.437  23.737  1.00  0.00     0.004 A 
ATOM     16  C   UNL A   1      35.171  18.138  24.314  1.00  0.00     0.029 A 
ATOM     17  C   UNL A   1      34.294  17.188  23.774  1.00  0.00     0.002 A 
BRANCH  13  18
ATOM     18  O   UNL A   1      32.794  20.776  25.213  1.00  0.00    -0.489 OA
BRANCH  18  19
ATOM     19  C   UNL A   1      32.078  21.618  24.287  1.00  0.00     0.167 C 
ATOM     20  C   UNL A   1      31.417  22.746  25.073  1.00  0.00     0.052 C 
ATOM     21  C   UNL A   1      32.825  22.182  23.073  1.00  0.00     0.052 C 
ENDBRANCH  18  19
ENDBRANCH  13  18
ENDBRANCH  10  12
ENDBRANCH   9  10
ENDBRANCH   5   9
ENDBRANCH   2   4
ENDBRANCH   1   2
BRANCH   1  22
ATOM     22  C   UNL A   1      42.120  19.294  27.060  1.00  0.00     0.275 C 
BRANCH  22  23
ATOM     23  C   UNL A   1      42.987  18.549  26.043  1.00  0.00     0.275 C 
BRANCH  23  24
ATOM     24  O   UNL A   1      43.116  19.302  24.822  1.00  0.00    -0.458 OA
BRANCH  24  25
ATOM     25  C   UNL A   1      44.383  19.571  24.431  1.00  0.00     0.338 C 
ATOM     26  O   UNL A   1      45.154  18.836  23.840  1.00  0.00    -0.246 OA
BRANCH  25  27
ATOM     27  C   UNL A   1      44.699  20.972  24.743  1.00  0.00     0.060 A 
ATOM     28  C   UNL A   1      45.266  21.256  25.984  1.00  0.00     0.016 A 
ATOM     29  C   UNL A   1      44.340  22.005  23.880  1.00  0.00     0.016 A 
ATOM     30  C   UNL A   1      45.465  22.572  26.385  1.00  0.00     0.010 A 
ATOM     31  C   UNL A   1      44.571  23.332  24.267  1.00  0.00     0.010 A 
ATOM     32  C   UNL A   1      45.120  23.626  25.530  1.00  0.00    -0.014 A 
BRANCH  32  33
ATOM     33  C   UNL A   1      45.289  25.028  25.991  1.00  0.00     0.031 A 
ATOM     34  C   UNL A   1      46.624  25.705  25.862  1.00  0.00     0.074 A 
ATOM     35  C   UNL A   1      44.238  25.707  26.487  1.00  0.00     0.049 A 
ATOM     36  N   UNL A   1      47.006  26.878  26.301  1.00  0.00    -0.248 NA
ATOM     37  C   UNL A   1      47.671  24.962  25.144  1.00  0.00     0.031 C 
ATOM     38  C   UNL A   1      42.877  25.185  26.611  1.00  0.00     0.029 A 
ATOM     39  N   UNL A   1      44.149  26.988  26.974  1.00  0.00    -0.354 N 
ATOM     40  C   UNL A   1      48.343  26.997  25.948  1.00  0.00     0.074 A 
ATOM     41  C   UNL A   1      48.710  25.774  25.264  1.00  0.00     0.031 C 
ATOM     42  C   UNL A   1      42.085  26.142  27.121  1.00  0.00     0.029 A 
ATOM     43  C   UNL A   1      42.894  27.320  27.421  1.00  0.00     0.049 A 
ATOM     44  H   UNL A   1      44.913  27.609  27.001  1.00  0.00     0.167 HD
ATOM     45  C   UNL A   1      49.186  28.033  26.175  1.00  0.00     0.037 A 
ATOM     46  C   UNL A   1      42.451  28.434  28.035  1.00  0.00     0.037 A 
ATOM     47  C   UNL A   1      48.807  29.263  26.820  1.00  0.00     0.049 A 
ATOM     48  C   UNL A   1      43.419  29.550  28.319  1.00  0.00     0.074 A 
ATOM     49  C   UNL A   1      49.584  30.378  27.079  1.00  0.00     0.029 A 
ATOM     50  N   UNL A   1      47.535  29.543  27.300  1.00  0.00    -0.354 N 
ATOM     51  N   UNL A   1      44.691  29.640  28.016  1.00  0.00    -0.248 NA
ATOM     52  C   UNL A   1      42.892  30.713  29.046  1.00  0.00     0.031 C 
ATOM     53  C   UNL A   1      48.793  31.317  27.751  1.00  0.00     0.029 A 
ATOM     54  C   UNL A   1      47.512  30.805  27.872  1.00  0.00     0.049 A 
ATOM     55  H   UNL A   1      46.763  28.934  27.242  1.00  0.00     0.167 HD
ATOM     56  C   UNL A   1      45.115  30.866  28.506  1.00  0.00     0.074 A 
ATOM     57  C   UNL A   1      43.958  31.499  29.106  1.00  0.00     0.031 C 
ATOM     58  C   UNL A   1      46.353  31.417  28.469  1.00  0.00     0.037 A 
BRANCH  45  59
ATOM     59  C   UNL A   1      50.616  27.867  25.755  1.00  0.00     0.064 A 
ATOM     60  C   UNL A   1      51.027  28.057  24.428  1.00  0.00     0.173 A 
ATOM     61  C   UNL A   1      51.595  27.539  26.706  1.00  0.00     0.173 A 
ATOM     62  F   UNL A   1      50.128  28.356  23.479  1.00  0.00    -0.203 F 
ATOM     63  C   UNL A   1      52.364  27.902  24.065  1.00  0.00     0.198 A 
ATOM     64  C   UNL A   1      52.933  27.410  26.343  1.00  0.00     0.198 A 
ATOM     65  F   UNL A   1      51.256  27.351  27.990  1.00  0.00    -0.203 F 
ATOM     66  F   UNL A   1      52.727  28.046  22.782  1.00  0.00    -0.200 F 
ATOM     67  C   UNL A   1      53.315  27.585  25.022  1.00  0.00     0.200 A 
ATOM     68  F   UNL A   1      53.853  27.115  27.272  1.00  0.00    -0.200 F 
ATOM     69  F   UNL A   1      54.600  27.441  24.670  1.00  0.00    -0.200 F 
ENDBRANCH  45  59
BRANCH  46  70
ATOM     70  C   UNL A   1      41.031  28.531  28.457  1.00  0.00     0.064 A 
ATOM     71  C   UNL A   1      40.627  28.122  29.735  1.00  0.00     0.173 A 
ATOM     72  C   UNL A   1      40.047  29.034  27.591  1.00  0.00     0.173 A 
ATOM     73  F   UNL A   1      41.525  27.608  30.588  1.00  0.00    -0.203 F 
ATOM     74  C   UNL A   1      39.293  28.206  30.129  1.00  0.00     0.198 A 
ATOM     75  C   UNL A   1      38.719  29.144  27.997  1.00  0.00     0.198 A 
ATOM     76  F   UNL A   1      40.381  29.433  26.356  1.00  0.00    -0.203 F 
ATOM     77  F   UNL A   1      38.926  27.771  31.343  1.00  0.00    -0.200 F 
ATOM     78  C   UNL A   1      38.342  28.724  29.263  1.00  0.00     0.200 A 
ATOM     79  F   UNL A   1      37.807  29.656  27.159  1.00  0.00    -0.200 F 
ATOM     80  F   UNL A   1      37.060  28.812  29.644  1.00  0.00    -0.200 F 
ENDBRANCH  46  70
BRANCH  58  81
ATOM     81  C   UNL A   1      46.515  32.775  29.084  1.00  0.00     0.064 A 
ATOM     82  C   UNL A   1      46.295  33.944  28.341  1.00  0.00     0.173 A 
ATOM     83  C   UNL A   1      46.860  32.909  30.437  1.00  0.00     0.173 A 
ATOM     84  F   UNL A   1      45.979  33.867  27.040  1.00  0.00    -0.203 F 
ATOM     85  C   UNL A   1      46.437  35.200  28.925  1.00  0.00     0.198 A 
ATOM     86  C   UNL A   1      46.976  34.165  31.024  1.00  0.00     0.198 A 
ATOM     87  F   UNL A   1      47.076  31.821  31.191  1.00  0.00    -0.203 F 
ATOM     88  F   UNL A   1      46.265  36.304  28.186  1.00  0.00    -0.200 F 
ATOM     89  C   UNL A   1      46.771  35.309  30.266  1.00  0.00     0.200 A 
ATOM     90  F   UNL A   1      47.289  34.270  32.322  1.00  0.00    -0.200 F 
ATOM     91  F   UNL A   1      46.903  36.519  30.829  1.00  0.00    -0.200 F 
ENDBRANCH  58  81
ENDBRANCH  32  33
ENDBRANCH  25  27
ENDBRANCH  24  25
ENDBRANCH  23  24
ENDBRANCH  22  23
ENDBRANCH   1  22
TORSDOF 16
ENDMDL
MODEL 3
REMARK VINA RESULT:     -10.3      4.465      8.072
REMARK SMILES CC(C)Oc1ccccc1NCc1cc(C(=O)OCCOC(=O)c2ccc(-c3c4nc(c(-c5c(F)c(F)c(F)c(F)c5F)c5ccc([nH]5)c(-c5c(F)c(F)c(F)c(F)c5F)c5nc(c(-c6c(F)c(F)c(F)c(F)c6F)c6ccc3[nH]6)C=C5)C=C4)cc2)cs1
REMARK SMILES IDX 18 1 16 2 17 3 15 4 13 5 14 6 88 7 87 8 12 9 11 10 10 12
REMARK SMILES IDX 5 13 6 14 7 15 9 16 8 17 4 18 2 19 1 20 3 21 19 22 20 23
REMARK SMILES IDX 21 24 22 25 23 26 24 27 25 28 86 29 26 30 85 31 27 32 28 33
REMARK SMILES IDX 29 34 79 35 30 36 84 37 78 38 80 39 31 40 83 41 77 42 76 43
REMARK SMILES IDX 32 45 64 46 44 47 63 48 45 49 48 50 62 51 81 52 46 53 47 54
REMARK SMILES IDX 61 56 82 57 49 58 33 59 34 60 42 61 35 62 36 63 40 64 43 65
REMARK SMILES IDX 37 66 38 67 41 68 39 69 65 70 66 71 74 72 67 73 68 74 72 75
REMARK SMILES IDX 75 76 69 77 70 78 73 79 71 80 50 81 51 82 59 83 52 84 53 85
REMARK SMILES IDX 57 86 60 87 54 88 55 89 58 90 56 91
REMARK H PARENT 11 11 80 44 48 55
REMARK Flexibility Score: inf
ROOT
ATOM      1  O   UNL A   1      33.631  33.955  28.940  1.00  0.00    -0.458 OA
ENDROOT
BRANCH   1   2
ATOM      2  C   UNL A   1      34.768  33.273  28.623  1.00  0.00     0.339 C 
ATOM      3  O   UNL A   1      35.905  33.697  28.804  1.00  0.00    -0.246 OA
BRANCH   2   4
ATOM      4  C   UNL A   1      34.511  31.942  28.075  1.00  0.00     0.071 A 
ATOM      5  C   UNL A   1      33.392  30.135  27.078  1.00  0.00     0.025 A 
ATOM      6  C   UNL A   1      33.255  31.386  27.657  1.00  0.00     0.033 A 
ATOM      7  S   UNL A   1      34.987  29.540  27.249  1.00  0.00    -0.146 S 
ATOM      8  C   UNL A   1      35.531  31.028  27.871  1.00  0.00     0.080 A 
BRANCH   5   9
ATOM      9  C   UNL A   1      32.372  29.337  26.314  1.00  0.00     0.160 C 
BRANCH   9  10
ATOM     10  N   UNL A   1      32.393  29.611  24.885  1.00  0.00    -0.377 N 
ATOM     11  H   UNL A   1      32.457  30.551  24.600  1.00  0.00     0.161 HD
BRANCH  10  12
ATOM     12  C   UNL A   1      32.329  28.638  23.896  1.00  0.00     0.077 A 
ATOM     13  C   UNL A   1      31.128  28.431  23.185  1.00  0.00     0.142 A 
ATOM     14  C   UNL A   1      30.993  27.385  22.265  1.00  0.00     0.048 A 
ATOM     15  C   UNL A   1      32.083  26.569  21.979  1.00  0.00     0.004 A 
ATOM     16  C   UNL A   1      33.414  27.813  23.575  1.00  0.00     0.029 A 
ATOM     17  C   UNL A   1      33.295  26.790  22.626  1.00  0.00     0.002 A 
BRANCH  13  18
ATOM     18  O   UNL A   1      30.024  29.195  23.464  1.00  0.00    -0.489 OA
BRANCH  18  19
ATOM     19  C   UNL A   1      29.074  29.393  22.396  1.00  0.00     0.167 C 
ATOM     20  C   UNL A   1      27.694  28.982  22.898  1.00  0.00     0.052 C 
ATOM     21  C   UNL A   1      29.007  30.763  21.713  1.00  0.00     0.052 C 
ENDBRANCH  18  19
ENDBRANCH  13  18
ENDBRANCH  10  12
ENDBRANCH   9  10
ENDBRANCH   5   9
ENDBRANCH   2   4
ENDBRANCH   1   2
BRANCH   1  22
ATOM     22  C   UNL A   1      33.627  35.353  28.590  1.00  0.00     0.275 C 
BRANCH  22  23
ATOM     23  C   UNL A   1      32.898  36.190  29.642  1.00  0.00     0.275 C 
BRANCH  23  24
ATOM     24  O   UNL A   1      32.376  35.357  30.696  1.00  0.00    -0.458 OA
BRANCH  24  25
ATOM     25  C   UNL A   1      32.624  35.781  31.956  1.00  0.00     0.338 C 
ATOM     26  O   UNL A   1      31.982  36.580  32.615  1.00  0.00    -0.246 OA
BRANCH  25  27
ATOM     27  C   UNL A   1      33.778  35.048  32.495  1.00  0.00     0.060 A 
ATOM     28  C   UNL A   1      35.032  35.652  32.425  1.00  0.00     0.016 A 
ATOM     29  C   UNL A   1      33.652  33.739  32.958  1.00  0.00     0.016 A 
ATOM     30  C   UNL A   1      36.174  34.954  32.798  1.00  0.00     0.010 A 
ATOM     31  C   UNL A   1      34.799  33.045  33.368  1.00  0.00     0.010 A 
ATOM     32  C   UNL A   1      36.070  33.642  33.275  1.00  0.00    -0.014 A 
BRANCH  32  33
ATOM     33  C   UNL A   1      37.303  32.890  33.622  1.00  0.00     0.031 A 
ATOM     34  C   UNL A   1      37.975  33.117  34.946  1.00  0.00     0.074 A 
ATOM     35  C   UNL A   1      37.798  31.973  32.768  1.00  0.00     0.049 A 
ATOM     36  N   UNL A   1      39.113  32.647  35.392  1.00  0.00    -0.248 NA
ATOM     37  C   UNL A   1      37.275  33.996  35.895  1.00  0.00     0.031 C 
ATOM     38  C   UNL A   1      37.207  31.614  31.479  1.00  0.00     0.029 A 
ATOM     39  N   UNL A   1      38.907  31.169  32.862  1.00  0.00    -0.354 N 
ATOM     40  C   UNL A   1      39.282  33.199  36.654  1.00  0.00     0.074 A 
ATOM     41  C   UNL A   1      38.135  34.048  36.901  1.00  0.00     0.031 C 
ATOM     42  C   UNL A   1      37.949  30.650  30.910  1.00  0.00     0.029 A 
ATOM     43  C   UNL A   1      39.101  30.370  31.762  1.00  0.00     0.049 A 
ATOM     44  H   UNL A   1      39.507  31.167  33.642  1.00  0.00     0.167 HD
ATOM     45  C   UNL A   1      40.304  33.015  37.524  1.00  0.00     0.037 A 
ATOM     46  C   UNL A   1      40.109  29.531  31.458  1.00  0.00     0.037 A 
ATOM     47  C   UNL A   1      41.422  32.140  37.291  1.00  0.00     0.049 A 
ATOM     48  C   UNL A   1      41.256  29.381  32.421  1.00  0.00     0.074 A 
ATOM     49  C   UNL A   1      42.498  31.871  38.120  1.00  0.00     0.029 A 
ATOM     50  N   UNL A   1      41.605  31.381  36.144  1.00  0.00    -0.354 N 
ATOM     51  N   UNL A   1      41.428  29.937  33.595  1.00  0.00    -0.248 NA
ATOM     52  C   UNL A   1      42.356  28.500  32.007  1.00  0.00     0.031 C 
ATOM     53  C   UNL A   1      43.350  30.981  37.459  1.00  0.00     0.029 A 
ATOM     54  C   UNL A   1      42.786  30.661  36.235  1.00  0.00     0.049 A 
ATOM     55  H   UNL A   1      40.987  31.357  35.378  1.00  0.00     0.167 HD
ATOM     56  C   UNL A   1      42.646  29.470  34.064  1.00  0.00     0.074 A 
ATOM     57  C   UNL A   1      43.162  28.565  33.057  1.00  0.00     0.031 C 
ATOM     58  C   UNL A   1      43.286  29.769  35.221  1.00  0.00     0.037 A 
BRANCH  45  59
ATOM     59  C   UNL A   1      40.277  33.804  38.799  1.00  0.00     0.064 A 
ATOM     60  C   UNL A   1      40.986  35.005  38.945  1.00  0.00     0.173 A 
ATOM     61  C   UNL A   1      39.503  33.363  39.884  1.00  0.00     0.173 A 
ATOM     62  F   UNL A   1      41.752  35.462  37.943  1.00  0.00    -0.203 F 
ATOM     63  C   UNL A   1      40.940  35.723  40.138  1.00  0.00     0.198 A 
ATOM     64  C   UNL A   1      39.439  34.096  41.065  1.00  0.00     0.198 A 
ATOM     65  F   UNL A   1      38.802  32.223  39.796  1.00  0.00    -0.203 F 
ATOM     66  F   UNL A   1      41.660  36.846  40.270  1.00  0.00    -0.200 F 
ATOM     67  C   UNL A   1      40.163  35.271  41.194  1.00  0.00     0.200 A 
ATOM     68  F   UNL A   1      38.678  33.664  42.081  1.00  0.00    -0.200 F 
ATOM     69  F   UNL A   1      40.117  35.967  42.339  1.00  0.00    -0.200 F 
ENDBRANCH  45  59
BRANCH  46  70
ATOM     70  C   UNL A   1      40.098  28.799  30.166  1.00  0.00     0.064 A 
ATOM     71  C   UNL A   1      39.491  27.541  30.053  1.00  0.00     0.173 A 
ATOM     72  C   UNL A   1      40.696  29.341  29.018  1.00  0.00     0.173 A 
ATOM     73  F   UNL A   1      38.932  26.969  31.130  1.00  0.00    -0.203 F 
ATOM     74  C   UNL A   1      39.488  26.851  28.842  1.00  0.00     0.198 A 
ATOM     75  C   UNL A   1      40.666  28.662  27.802  1.00  0.00     0.198 A 
ATOM     76  F   UNL A   1      41.295  30.539  29.075  1.00  0.00    -0.203 F 
ATOM     77  F   UNL A   1      38.935  25.631  28.770  1.00  0.00    -0.200 F 
ATOM     78  C   UNL A   1      40.068  27.414  27.717  1.00  0.00     0.200 A 
ATOM     79  F   UNL A   1      41.219  29.218  26.714  1.00  0.00    -0.200 F 
ATOM     80  F   UNL A   1      40.058  26.754  26.551  1.00  0.00    -0.200 F 
ENDBRANCH  46  70
BRANCH  58  81
ATOM     81  C   UNL A   1      44.607  29.100  35.464  1.00  0.00     0.064 A 
ATOM     82  C   UNL A   1      45.811  29.694  35.063  1.00  0.00     0.173 A 
ATOM     83  C   UNL A   1      44.670  27.870  36.135  1.00  0.00     0.173 A 
ATOM     84  F   UNL A   1      45.801  30.862  34.403  1.00  0.00    -0.203 F 
ATOM     85  C   UNL A   1      47.032  29.069  35.304  1.00  0.00     0.198 A 
ATOM     86  C   UNL A   1      45.893  27.260  36.397  1.00  0.00     0.198 A 
ATOM     87  F   UNL A   1      43.545  27.263  36.544  1.00  0.00    -0.203 F 
ATOM     88  F   UNL A   1      48.169  29.634  34.873  1.00  0.00    -0.200 F 
ATOM     89  C   UNL A   1      47.072  27.857  35.976  1.00  0.00     0.200 A 
ATOM     90  F   UNL A   1      45.932  26.094  37.055  1.00  0.00    -0.200 F 
ATOM     91  F   UNL A   1      48.249  27.260  36.211  1.00  0.00    -0.200 F 
ENDBRANCH  58  81
ENDBRANCH  32  33
ENDBRANCH  25  27
ENDBRANCH  24  25
ENDBRANCH  23  24
ENDBRANCH  22  23
ENDBRANCH   1  22
TORSDOF 16
ENDMDL
