MODEL 1
REMARK VINA RESULT:     -10.5      0.000      0.000
REMARK SMILES CN(C(=O)CCCCC(=O)OCCOC(=O)c1ccc(-c2c3nc(c(-c4c(F)c(F)c(F)c(F)c4F)c4ccc([nH]4)c(-c4c(F)c(F)c(F)c(F)c4F)c4nc(c(-c5c(F)c(F)c(F)c(F)c5F)c5ccc2[nH]5)C=C4)C=C3)cc1)C1CC[NH+](C)CC1
REMARK SMILES IDX 9 1 10 2 8 3 7 4 6 5 5 6 3 7 4 8 2 9 1 10 80 11 84 12 83 13
REMARK SMILES IDX 82 14 85 15 81 17 86 18 11 19 12 20 13 21 14 22 15 23 16 24
REMARK SMILES IDX 17 25 18 26 79 27 19 28 78 29 20 30 21 31 22 32 72 33 23 34
REMARK SMILES IDX 77 35 71 36 73 37 24 38 76 39 70 40 69 41 25 43 57 44 37 45
REMARK SMILES IDX 56 46 38 47 41 48 55 49 74 50 39 51 40 52 54 54 75 55 42 56
REMARK SMILES IDX 26 57 27 58 35 59 28 60 29 61 33 62 36 63 30 64 31 65 34 66
REMARK SMILES IDX 32 67 58 68 59 69 67 70 60 71 61 72 65 73 68 74 62 75 63 76
REMARK SMILES IDX 66 77 64 78 43 79 44 80 52 81 45 82 46 83 50 84 53 85 47 86
REMARK SMILES IDX 48 87 51 88 49 89
REMARK H PARENT 83 16 73 42 41 53
REMARK Flexibility Score: inf
ROOT
ATOM      1  C   UNL A   1      31.071  27.105  25.684  1.00  0.00     0.305 C 
ATOM      2  O   UNL A   1      31.266  26.704  26.826  1.00  0.00    -0.252 OA
ENDROOT
BRANCH   1   3
ATOM      3  C   UNL A   1      29.914  26.599  24.867  1.00  0.00     0.123 C 
BRANCH   3   4
ATOM      4  C   UNL A   1      30.214  25.953  23.516  1.00  0.00     0.012 C 
BRANCH   4   5
ATOM      5  C   UNL A   1      31.185  24.774  23.578  1.00  0.00     0.010 C 
BRANCH   5   6
ATOM      6  C   UNL A   1      32.537  24.967  22.887  1.00  0.00     0.100 C 
BRANCH   6   7
ATOM      7  C   UNL A   1      33.124  23.708  22.264  1.00  0.00     0.222 C 
ATOM      8  O   UNL A   1      33.329  23.727  21.048  1.00  0.00    -0.275 OA
BRANCH   7   9
ATOM      9  N   UNL A   1      33.421  22.603  23.058  1.00  0.00    -0.342 N 
ATOM     10  C   UNL A   1      32.543  21.453  23.228  1.00  0.00     0.147 C 
BRANCH   9  11
ATOM     11  C   UNL A   1      34.560  22.642  24.000  1.00  0.00     0.095 C 
ATOM     12  C   UNL A   1      38.339  21.957  25.895  1.00  0.00     0.332 C 
ATOM     13  N   UNL A   1      37.155  21.870  25.044  1.00  0.00    -0.337 N 
ATOM     14  C   UNL A   1      37.027  23.068  24.212  1.00  0.00     0.264 C 
ATOM     15  C   UNL A   1      35.945  21.630  25.841  1.00  0.00     0.264 C 
ATOM     16  H   UNL A   1      37.269  21.070  24.421  1.00  0.00     0.347 HD
ATOM     17  C   UNL A   1      35.860  22.930  23.244  1.00  0.00     0.086 C 
ATOM     18  C   UNL A   1      34.719  21.442  24.943  1.00  0.00     0.086 C 
ENDBRANCH   9  11
ENDBRANCH   7   9
ENDBRANCH   6   7
ENDBRANCH   5   6
ENDBRANCH   4   5
ENDBRANCH   3   4
ENDBRANCH   1   3
BRANCH   1  19
ATOM     19  O   UNL A   1      31.853  27.988  25.021  1.00  0.00    -0.462 OA
BRANCH  19  20
ATOM     20  C   UNL A   1      31.213  29.225  24.669  1.00  0.00     0.274 C 
BRANCH  20  21
ATOM     21  C   UNL A   1      31.496  30.307  25.714  1.00  0.00     0.275 C 
BRANCH  21  22
ATOM     22  O   UNL A   1      32.849  30.237  26.212  1.00  0.00    -0.458 OA
BRANCH  22  23
ATOM     23  C   UNL A   1      33.243  31.280  26.974  1.00  0.00     0.338 C 
ATOM     24  O   UNL A   1      32.609  32.293  27.239  1.00  0.00    -0.246 OA
BRANCH  23  25
ATOM     25  C   UNL A   1      34.564  31.015  27.557  1.00  0.00     0.060 A 
ATOM     26  C   UNL A   1      34.878  29.709  27.937  1.00  0.00     0.016 A 
ATOM     27  C   UNL A   1      35.433  32.061  27.862  1.00  0.00     0.016 A 
ATOM     28  C   UNL A   1      36.042  29.439  28.648  1.00  0.00     0.010 A 
ATOM     29  C   UNL A   1      36.624  31.785  28.543  1.00  0.00     0.010 A 
ATOM     30  C   UNL A   1      36.930  30.474  28.956  1.00  0.00    -0.014 A 
BRANCH  30  31
ATOM     31  C   UNL A   1      38.157  30.193  29.743  1.00  0.00     0.031 A 
ATOM     32  C   UNL A   1      39.230  29.315  29.166  1.00  0.00     0.074 A 
ATOM     33  C   UNL A   1      38.315  30.733  30.965  1.00  0.00     0.049 A 
ATOM     34  N   UNL A   1      40.284  28.802  29.750  1.00  0.00    -0.248 NA
ATOM     35  C   UNL A   1      39.100  28.967  27.744  1.00  0.00     0.031 C 
ATOM     36  C   UNL A   1      37.383  31.658  31.610  1.00  0.00     0.029 A 
ATOM     37  N   UNL A   1      39.321  30.578  31.887  1.00  0.00    -0.354 N 
ATOM     38  C   UNL A   1      40.915  28.034  28.780  1.00  0.00     0.074 A 
ATOM     39  C   UNL A   1      40.129  28.151  27.569  1.00  0.00     0.031 C 
ATOM     40  C   UNL A   1      37.863  31.995  32.817  1.00  0.00     0.029 A 
ATOM     41  C   UNL A   1      39.097  31.256  33.060  1.00  0.00     0.049 A 
ATOM     42  H   UNL A   1      40.125  30.034  31.722  1.00  0.00     0.167 HD
ATOM     43  C   UNL A   1      42.044  27.296  28.896  1.00  0.00     0.037 A 
ATOM     44  C   UNL A   1      39.785  31.246  34.217  1.00  0.00     0.037 A 
ATOM     45  C   UNL A   1      42.839  27.211  30.094  1.00  0.00     0.049 A 
ATOM     46  C   UNL A   1      41.004  30.376  34.339  1.00  0.00     0.074 A 
ATOM     47  C   UNL A   1      43.997  26.486  30.315  1.00  0.00     0.029 A 
ATOM     48  N   UNL A   1      42.562  27.889  31.272  1.00  0.00    -0.354 N 
ATOM     49  N   UNL A   1      41.560  29.601  33.440  1.00  0.00    -0.248 NA
ATOM     50  C   UNL A   1      41.680  30.363  35.645  1.00  0.00     0.031 C 
ATOM     51  C   UNL A   1      44.404  26.703  31.637  1.00  0.00     0.029 A 
ATOM     52  C   UNL A   1      43.521  27.593  32.226  1.00  0.00     0.049 A 
ATOM     53  H   UNL A   1      41.796  28.492  31.410  1.00  0.00     0.167 HD
ATOM     54  C   UNL A   1      42.656  29.021  34.062  1.00  0.00     0.074 A 
ATOM     55  C   UNL A   1      42.697  29.544  35.412  1.00  0.00     0.031 C 
ATOM     56  C   UNL A   1      43.546  28.129  33.563  1.00  0.00     0.037 A 
BRANCH  43  57
ATOM     57  C   UNL A   1      42.469  26.487  27.707  1.00  0.00     0.064 A 
ATOM     58  C   UNL A   1      43.429  26.956  26.799  1.00  0.00     0.173 A 
ATOM     59  C   UNL A   1      41.926  25.211  27.491  1.00  0.00     0.173 A 
ATOM     60  F   UNL A   1      43.965  28.176  26.952  1.00  0.00    -0.203 F 
ATOM     61  C   UNL A   1      43.816  26.184  25.706  1.00  0.00     0.198 A 
ATOM     62  C   UNL A   1      42.333  24.432  26.412  1.00  0.00     0.198 A 
ATOM     63  F   UNL A   1      41.007  24.717  28.334  1.00  0.00    -0.203 F 
ATOM     64  F   UNL A   1      44.705  26.667  24.828  1.00  0.00    -0.200 F 
ATOM     65  C   UNL A   1      43.273  24.921  25.518  1.00  0.00     0.200 A 
ATOM     66  F   UNL A   1      41.814  23.209  26.236  1.00  0.00    -0.200 F 
ATOM     67  F   UNL A   1      43.650  24.177  24.467  1.00  0.00    -0.200 F 
ENDBRANCH  43  57
BRANCH  44  68
ATOM     68  C   UNL A   1      39.310  32.059  35.365  1.00  0.00     0.064 A 
ATOM     69  C   UNL A   1      39.671  33.407  35.490  1.00  0.00     0.173 A 
ATOM     70  C   UNL A   1      38.481  31.509  36.355  1.00  0.00     0.173 A 
ATOM     71  F   UNL A   1      40.483  33.968  34.582  1.00  0.00    -0.203 F 
ATOM     72  C   UNL A   1      39.228  34.173  36.565  1.00  0.00     0.198 A 
ATOM     73  C   UNL A   1      38.017  32.284  37.416  1.00  0.00     0.198 A 
ATOM     74  F   UNL A   1      38.111  30.223  36.283  1.00  0.00    -0.203 F 
ATOM     75  F   UNL A   1      39.616  35.450  36.680  1.00  0.00    -0.200 F 
ATOM     76  C   UNL A   1      38.395  33.614  37.522  1.00  0.00     0.200 A 
ATOM     77  F   UNL A   1      37.203  31.742  38.332  1.00  0.00    -0.200 F 
ATOM     78  F   UNL A   1      37.960  34.354  38.552  1.00  0.00    -0.200 F 
ENDBRANCH  44  68
BRANCH  56  79
ATOM     79  C   UNL A   1      44.655  27.691  34.470  1.00  0.00     0.064 A 
ATOM     80  C   UNL A   1      45.837  28.435  34.592  1.00  0.00     0.173 A 
ATOM     81  C   UNL A   1      44.520  26.532  35.248  1.00  0.00     0.173 A 
ATOM     82  F   UNL A   1      46.018  29.541  33.854  1.00  0.00    -0.203 F 
ATOM     83  C   UNL A   1      46.855  28.022  35.448  1.00  0.00     0.198 A 
ATOM     84  C   UNL A   1      45.530  26.135  36.120  1.00  0.00     0.198 A 
ATOM     85  F   UNL A   1      43.406  25.790  35.167  1.00  0.00    -0.203 F 
ATOM     86  F   UNL A   1      47.993  28.726  35.521  1.00  0.00    -0.200 F 
ATOM     87  C   UNL A   1      46.698  26.877  36.215  1.00  0.00     0.200 A 
ATOM     88  F   UNL A   1      45.373  25.033  36.866  1.00  0.00    -0.200 F 
ATOM     89  F   UNL A   1      47.677  26.483  37.041  1.00  0.00    -0.200 F 
ENDBRANCH  56  79
ENDBRANCH  30  31
ENDBRANCH  23  25
ENDBRANCH  22  23
ENDBRANCH  21  22
ENDBRANCH  20  21
ENDBRANCH  19  20
ENDBRANCH   1  19
TORSDOF 17
ENDMDL
MODEL 2
REMARK VINA RESULT:     -10.5      1.837      3.340
REMARK SMILES CN(C(=O)CCCCC(=O)OCCOC(=O)c1ccc(-c2c3nc(c(-c4c(F)c(F)c(F)c(F)c4F)c4ccc([nH]4)c(-c4c(F)c(F)c(F)c(F)c4F)c4nc(c(-c5c(F)c(F)c(F)c(F)c5F)c5ccc2[nH]5)C=C4)C=C3)cc1)C1CC[NH+](C)CC1
REMARK SMILES IDX 9 1 10 2 8 3 7 4 6 5 5 6 3 7 4 8 2 9 1 10 80 11 84 12 83 13
REMARK SMILES IDX 82 14 85 15 81 17 86 18 11 19 12 20 13 21 14 22 15 23 16 24
REMARK SMILES IDX 17 25 18 26 79 27 19 28 78 29 20 30 21 31 22 32 72 33 23 34
REMARK SMILES IDX 77 35 71 36 73 37 24 38 76 39 70 40 69 41 25 43 57 44 37 45
REMARK SMILES IDX 56 46 38 47 41 48 55 49 74 50 39 51 40 52 54 54 75 55 42 56
REMARK SMILES IDX 26 57 27 58 35 59 28 60 29 61 33 62 36 63 30 64 31 65 34 66
REMARK SMILES IDX 32 67 58 68 59 69 67 70 60 71 61 72 65 73 68 74 62 75 63 76
REMARK SMILES IDX 66 77 64 78 43 79 44 80 52 81 45 82 46 83 50 84 53 85 47 86
REMARK SMILES IDX 48 87 51 88 49 89
REMARK H PARENT 83 16 73 42 41 53
REMARK Flexibility Score: inf
ROOT
ATOM      1  C   UNL A   1      33.159  26.544  25.893  1.00  0.00     0.305 C 
ATOM      2  O   UNL A   1      32.649  25.586  26.465  1.00  0.00    -0.252 OA
ENDROOT
BRANCH   1   3
ATOM      3  C   UNL A   1      33.924  26.368  24.610  1.00  0.00     0.123 C 
BRANCH   3   4
ATOM      4  C   UNL A   1      33.580  27.282  23.435  1.00  0.00     0.012 C 
BRANCH   4   5
ATOM      5  C   UNL A   1      33.252  26.547  22.136  1.00  0.00     0.010 C 
BRANCH   5   6
ATOM      6  C   UNL A   1      31.768  26.321  21.836  1.00  0.00     0.100 C 
BRANCH   6   7
ATOM      7  C   UNL A   1      30.983  25.650  22.955  1.00  0.00     0.222 C 
ATOM      8  O   UNL A   1      31.168  24.442  23.123  1.00  0.00    -0.275 OA
BRANCH   7   9
ATOM      9  N   UNL A   1      30.112  26.394  23.747  1.00  0.00    -0.342 N 
ATOM     10  C   UNL A   1      29.586  25.952  25.031  1.00  0.00     0.147 C 
BRANCH   9  11
ATOM     11  C   UNL A   1      29.453  27.601  23.203  1.00  0.00     0.095 C 
ATOM     12  C   UNL A   1      27.654  31.468  22.814  1.00  0.00     0.332 C 
ATOM     13  N   UNL A   1      28.212  30.222  23.331  1.00  0.00    -0.337 N 
ATOM     14  C   UNL A   1      29.625  30.096  22.964  1.00  0.00     0.264 C 
ATOM     15  C   UNL A   1      27.429  29.062  22.882  1.00  0.00     0.264 C 
ATOM     16  H   UNL A   1      28.157  30.246  24.349  1.00  0.00     0.347 HD
ATOM     17  C   UNL A   1      30.238  28.854  23.597  1.00  0.00     0.086 C 
ATOM     18  C   UNL A   1      27.957  27.765  23.501  1.00  0.00     0.086 C 
ENDBRANCH   9  11
ENDBRANCH   7   9
ENDBRANCH   6   7
ENDBRANCH   5   6
ENDBRANCH   4   5
ENDBRANCH   3   4
ENDBRANCH   1   3
BRANCH   1  19
ATOM     19  O   UNL A   1      33.135  27.821  26.335  1.00  0.00    -0.462 OA
BRANCH  19  20
ATOM     20  C   UNL A   1      31.864  28.272  26.830  1.00  0.00     0.274 C 
BRANCH  20  21
ATOM     21  C   UNL A   1      31.784  29.800  26.827  1.00  0.00     0.275 C 
BRANCH  21  22
ATOM     22  O   UNL A   1      33.023  30.406  26.403  1.00  0.00    -0.458 OA
BRANCH  22  23
ATOM     23  C   UNL A   1      33.458  31.435  27.162  1.00  0.00     0.338 C 
ATOM     24  O   UNL A   1      32.866  32.474  27.421  1.00  0.00    -0.246 OA
BRANCH  23  25
ATOM     25  C   UNL A   1      34.765  31.118  27.750  1.00  0.00     0.060 A 
ATOM     26  C   UNL A   1      35.003  29.815  28.190  1.00  0.00     0.016 A 
ATOM     27  C   UNL A   1      35.698  32.123  28.001  1.00  0.00     0.016 A 
ATOM     28  C   UNL A   1      36.153  29.509  28.907  1.00  0.00     0.010 A 
ATOM     29  C   UNL A   1      36.875  31.808  28.688  1.00  0.00     0.010 A 
ATOM     30  C   UNL A   1      37.105  30.501  29.161  1.00  0.00    -0.014 A 
BRANCH  30  31
ATOM     31  C   UNL A   1      38.319  30.183  29.955  1.00  0.00     0.031 A 
ATOM     32  C   UNL A   1      39.380  29.294  29.373  1.00  0.00     0.074 A 
ATOM     33  C   UNL A   1      38.477  30.701  31.187  1.00  0.00     0.049 A 
ATOM     34  N   UNL A   1      40.418  28.752  29.957  1.00  0.00    -0.248 NA
ATOM     35  C   UNL A   1      39.256  28.972  27.944  1.00  0.00     0.031 C 
ATOM     36  C   UNL A   1      37.557  31.633  31.838  1.00  0.00     0.029 A 
ATOM     37  N   UNL A   1      39.470  30.511  32.114  1.00  0.00    -0.354 N 
ATOM     38  C   UNL A   1      41.043  27.987  28.981  1.00  0.00     0.074 A 
ATOM     39  C   UNL A   1      40.271  28.139  27.765  1.00  0.00     0.031 C 
ATOM     40  C   UNL A   1      38.032  31.941  33.055  1.00  0.00     0.029 A 
ATOM     41  C   UNL A   1      39.248  31.174  33.297  1.00  0.00     0.049 A 
ATOM     42  H   UNL A   1      40.265  29.954  31.948  1.00  0.00     0.167 HD
ATOM     43  C   UNL A   1      42.157  27.225  29.095  1.00  0.00     0.037 A 
ATOM     44  C   UNL A   1      39.926  31.132  34.460  1.00  0.00     0.037 A 
ATOM     45  C   UNL A   1      42.939  27.106  30.298  1.00  0.00     0.049 A 
ATOM     46  C   UNL A   1      41.127  30.237  34.578  1.00  0.00     0.074 A 
ATOM     47  C   UNL A   1      44.081  26.354  30.518  1.00  0.00     0.029 A 
ATOM     48  N   UNL A   1      42.664  27.770  31.485  1.00  0.00    -0.354 N 
ATOM     49  N   UNL A   1      41.676  29.466  33.672  1.00  0.00    -0.248 NA
ATOM     50  C   UNL A   1      41.790  30.190  35.889  1.00  0.00     0.031 C 
ATOM     51  C   UNL A   1      44.479  26.542  31.846  1.00  0.00     0.029 A 
ATOM     52  C   UNL A   1      43.608  27.439  32.442  1.00  0.00     0.049 A 
ATOM     53  H   UNL A   1      41.908  28.385  31.625  1.00  0.00     0.167 HD
ATOM     54  C   UNL A   1      42.755  28.854  34.294  1.00  0.00     0.074 A 
ATOM     55  C   UNL A   1      42.793  29.355  35.652  1.00  0.00     0.031 C 
ATOM     56  C   UNL A   1      43.632  27.953  33.788  1.00  0.00     0.037 A 
BRANCH  43  57
ATOM     57  C   UNL A   1      42.576  26.428  27.896  1.00  0.00     0.064 A 
ATOM     58  C   UNL A   1      43.526  26.909  26.984  1.00  0.00     0.173 A 
ATOM     59  C   UNL A   1      42.041  25.149  27.676  1.00  0.00     0.173 A 
ATOM     60  F   UNL A   1      44.055  28.132  27.141  1.00  0.00    -0.203 F 
ATOM     61  C   UNL A   1      43.909  26.147  25.882  1.00  0.00     0.198 A 
ATOM     62  C   UNL A   1      42.444  24.381  26.588  1.00  0.00     0.198 A 
ATOM     63  F   UNL A   1      41.131  24.643  28.523  1.00  0.00    -0.203 F 
ATOM     64  F   UNL A   1      44.788  26.642  25.000  1.00  0.00    -0.200 F 
ATOM     65  C   UNL A   1      43.372  24.882  25.689  1.00  0.00     0.200 A 
ATOM     66  F   UNL A   1      41.931  23.156  26.408  1.00  0.00    -0.200 F 
ATOM     67  F   UNL A   1      43.746  24.148  24.631  1.00  0.00    -0.200 F 
ENDBRANCH  43  57
BRANCH  44  68
ATOM     68  C   UNL A   1      39.456  31.936  35.616  1.00  0.00     0.064 A 
ATOM     69  C   UNL A   1      39.972  33.215  35.860  1.00  0.00     0.173 A 
ATOM     70  C   UNL A   1      38.479  31.445  36.496  1.00  0.00     0.173 A 
ATOM     71  F   UNL A   1      40.927  33.714  35.061  1.00  0.00    -0.203 F 
ATOM     72  C   UNL A   1      39.534  33.972  36.944  1.00  0.00     0.198 A 
ATOM     73  C   UNL A   1      38.022  32.214  37.565  1.00  0.00     0.198 A 
ATOM     74  F   UNL A   1      37.956  30.225  36.308  1.00  0.00    -0.203 F 
ATOM     75  F   UNL A   1      40.069  35.179  37.175  1.00  0.00    -0.200 F 
ATOM     76  C   UNL A   1      38.554  33.475  37.790  1.00  0.00     0.200 A 
ATOM     77  F   UNL A   1      37.067  31.734  38.373  1.00  0.00    -0.200 F 
ATOM     78  F   UNL A   1      38.126  34.207  38.828  1.00  0.00    -0.200 F 
ENDBRANCH  44  68
BRANCH  56  79
ATOM     79  C   UNL A   1      44.724  27.479  34.698  1.00  0.00     0.064 A 
ATOM     80  C   UNL A   1      45.945  28.162  34.792  1.00  0.00     0.173 A 
ATOM     81  C   UNL A   1      44.533  26.349  35.505  1.00  0.00     0.173 A 
ATOM     82  F   UNL A   1      46.178  29.238  34.026  1.00  0.00    -0.203 F 
ATOM     83  C   UNL A   1      46.946  27.716  35.651  1.00  0.00     0.198 A 
ATOM     84  C   UNL A   1      45.529  25.920  36.379  1.00  0.00     0.198 A 
ATOM     85  F   UNL A   1      43.381  25.666  35.451  1.00  0.00    -0.203 F 
ATOM     86  F   UNL A   1      48.121  28.360  35.698  1.00  0.00    -0.200 F 
ATOM     87  C   UNL A   1      46.735  26.600  36.448  1.00  0.00     0.200 A 
ATOM     88  F   UNL A   1      45.320  24.846  37.154  1.00  0.00    -0.200 F 
ATOM     89  F   UNL A   1      47.699  26.175  37.276  1.00  0.00    -0.200 F 
ENDBRANCH  56  79
ENDBRANCH  30  31
ENDBRANCH  23  25
ENDBRANCH  22  23
ENDBRANCH  21  22
ENDBRANCH  20  21
ENDBRANCH  19  20
ENDBRANCH   1  19
TORSDOF 17
ENDMDL
MODEL 3
REMARK VINA RESULT:     -10.5      1.546      3.683
REMARK SMILES CN(C(=O)CCCCC(=O)OCCOC(=O)c1ccc(-c2c3nc(c(-c4c(F)c(F)c(F)c(F)c4F)c4ccc([nH]4)c(-c4c(F)c(F)c(F)c(F)c4F)c4nc(c(-c5c(F)c(F)c(F)c(F)c5F)c5ccc2[nH]5)C=C4)C=C3)cc1)C1CC[NH+](C)CC1
REMARK SMILES IDX 9 1 10 2 8 3 7 4 6 5 5 6 3 7 4 8 2 9 1 10 80 11 84 12 83 13
REMARK SMILES IDX 82 14 85 15 81 17 86 18 11 19 12 20 13 21 14 22 15 23 16 24
REMARK SMILES IDX 17 25 18 26 79 27 19 28 78 29 20 30 21 31 22 32 72 33 23 34
REMARK SMILES IDX 77 35 71 36 73 37 24 38 76 39 70 40 69 41 25 43 57 44 37 45
REMARK SMILES IDX 56 46 38 47 41 48 55 49 74 50 39 51 40 52 54 54 75 55 42 56
REMARK SMILES IDX 26 57 27 58 35 59 28 60 29 61 33 62 36 63 30 64 31 65 34 66
REMARK SMILES IDX 32 67 58 68 59 69 67 70 60 71 61 72 65 73 68 74 62 75 63 76
REMARK SMILES IDX 66 77 64 78 43 79 44 80 52 81 45 82 46 83 50 84 53 85 47 86
REMARK SMILES IDX 48 87 51 88 49 89
REMARK H PARENT 83 16 73 42 41 53
REMARK Flexibility Score: inf
ROOT
ATOM      1  C   UNL A   1      32.331  26.091  26.468  1.00  0.00     0.305 C 
ATOM      2  O   UNL A   1      31.259  25.671  26.893  1.00  0.00    -0.252 OA
ENDROOT
BRANCH   1   3
ATOM      3  C   UNL A   1      33.410  25.148  26.012  1.00  0.00     0.123 C 
BRANCH   3   4
ATOM      4  C   UNL A   1      33.346  24.620  24.580  1.00  0.00     0.012 C 
BRANCH   4   5
ATOM      5  C   UNL A   1      31.931  24.476  24.020  1.00  0.00     0.010 C 
BRANCH   5   6
ATOM      6  C   UNL A   1      31.747  24.815  22.539  1.00  0.00     0.100 C 
BRANCH   6   7
ATOM      7  C   UNL A   1      32.609  25.963  22.031  1.00  0.00     0.222 C 
ATOM      8  O   UNL A   1      33.503  25.681  21.229  1.00  0.00    -0.275 OA
BRANCH   7   9
ATOM      9  N   UNL A   1      32.369  27.266  22.460  1.00  0.00    -0.342 N 
ATOM     10  C   UNL A   1      33.308  28.063  23.238  1.00  0.00     0.147 C 
BRANCH   9  11
ATOM     11  C   UNL A   1      31.013  27.846  22.366  1.00  0.00     0.095 C 
ATOM     12  C   UNL A   1      27.556  30.309  22.942  1.00  0.00     0.332 C 
ATOM     13  N   UNL A   1      28.851  29.647  23.079  1.00  0.00    -0.337 N 
ATOM     14  C   UNL A   1      29.712  29.952  21.934  1.00  0.00     0.264 C 
ATOM     15  C   UNL A   1      28.689  28.199  23.265  1.00  0.00     0.264 C 
ATOM     16  H   UNL A   1      29.307  30.009  23.916  1.00  0.00     0.347 HD
ATOM     17  C   UNL A   1      31.099  29.356  22.128  1.00  0.00     0.086 C 
ATOM     18  C   UNL A   1      30.039  27.517  23.505  1.00  0.00     0.086 C 
ENDBRANCH   9  11
ENDBRANCH   7   9
ENDBRANCH   6   7
ENDBRANCH   5   6
ENDBRANCH   4   5
ENDBRANCH   3   4
ENDBRANCH   1   3
BRANCH   1  19
ATOM     19  O   UNL A   1      32.684  27.394  26.390  1.00  0.00    -0.462 OA
BRANCH  19  20
ATOM     20  C   UNL A   1      31.740  28.317  26.955  1.00  0.00     0.274 C 
BRANCH  20  21
ATOM     21  C   UNL A   1      31.749  29.645  26.193  1.00  0.00     0.275 C 
BRANCH  21  22
ATOM     22  O   UNL A   1      33.077  30.198  26.084  1.00  0.00    -0.458 OA
BRANCH  22  23
ATOM     23  C   UNL A   1      33.375  31.175  26.967  1.00  0.00     0.338 C 
ATOM     24  O   UNL A   1      32.665  32.109  27.315  1.00  0.00    -0.246 OA
BRANCH  23  25
ATOM     25  C   UNL A   1      34.694  30.936  27.567  1.00  0.00     0.060 A 
ATOM     26  C   UNL A   1      35.046  29.630  27.910  1.00  0.00     0.016 A 
ATOM     27  C   UNL A   1      35.520  32.001  27.923  1.00  0.00     0.016 A 
ATOM     28  C   UNL A   1      36.205  29.376  28.635  1.00  0.00     0.010 A 
ATOM     29  C   UNL A   1      36.707  31.743  28.618  1.00  0.00     0.010 A 
ATOM     30  C   UNL A   1      37.050  30.430  28.994  1.00  0.00    -0.014 A 
BRANCH  30  31
ATOM     31  C   UNL A   1      38.272  30.165  29.795  1.00  0.00     0.031 A 
ATOM     32  C   UNL A   1      39.363  29.300  29.231  1.00  0.00     0.074 A 
ATOM     33  C   UNL A   1      38.410  30.708  31.018  1.00  0.00     0.049 A 
ATOM     34  N   UNL A   1      40.416  28.801  29.827  1.00  0.00    -0.248 NA
ATOM     35  C   UNL A   1      39.253  28.949  27.807  1.00  0.00     0.031 C 
ATOM     36  C   UNL A   1      37.459  31.621  31.651  1.00  0.00     0.029 A 
ATOM     37  N   UNL A   1      39.407  30.566  31.951  1.00  0.00    -0.354 N 
ATOM     38  C   UNL A   1      41.067  28.040  28.865  1.00  0.00     0.074 A 
ATOM     39  C   UNL A   1      40.294  28.146  27.645  1.00  0.00     0.031 C 
ATOM     40  C   UNL A   1      37.921  31.965  32.864  1.00  0.00     0.029 A 
ATOM     41  C   UNL A   1      39.161  31.241  33.121  1.00  0.00     0.049 A 
ATOM     42  H   UNL A   1      40.219  30.032  31.796  1.00  0.00     0.167 HD
ATOM     43  C   UNL A   1      42.204  27.315  28.995  1.00  0.00     0.037 A 
ATOM     44  C   UNL A   1      39.836  31.241  34.286  1.00  0.00     0.037 A 
ATOM     45  C   UNL A   1      42.987  27.242  30.202  1.00  0.00     0.049 A 
ATOM     46  C   UNL A   1      41.064  30.386  34.423  1.00  0.00     0.074 A 
ATOM     47  C   UNL A   1      44.151  26.531  30.437  1.00  0.00     0.029 A 
ATOM     48  N   UNL A   1      42.687  27.917  31.376  1.00  0.00    -0.354 N 
ATOM     49  N   UNL A   1      41.640  29.618  33.531  1.00  0.00    -0.248 NA
ATOM     50  C   UNL A   1      41.725  30.383  35.736  1.00  0.00     0.031 C 
ATOM     51  C   UNL A   1      44.540  26.754  31.762  1.00  0.00     0.029 A 
ATOM     52  C   UNL A   1      43.639  27.633  32.341  1.00  0.00     0.049 A 
ATOM     53  H   UNL A   1      41.912  28.511  31.504  1.00  0.00     0.167 HD
ATOM     54  C   UNL A   1      42.736  29.052  34.166  1.00  0.00     0.074 A 
ATOM     55  C   UNL A   1      42.755  29.577  35.515  1.00  0.00     0.031 C 
ATOM     56  C   UNL A   1      43.643  28.171  33.677  1.00  0.00     0.037 A 
BRANCH  43  57
ATOM     57  C   UNL A   1      42.652  26.512  27.811  1.00  0.00     0.064 A 
ATOM     58  C   UNL A   1      42.160  25.222  27.563  1.00  0.00     0.173 A 
ATOM     59  C   UNL A   1      43.566  27.055  26.894  1.00  0.00     0.173 A 
ATOM     60  F   UNL A   1      41.298  24.653  28.418  1.00  0.00    -0.203 F 
ATOM     61  C   UNL A   1      42.583  24.498  26.451  1.00  0.00     0.198 A 
ATOM     62  C   UNL A   1      43.967  26.338  25.771  1.00  0.00     0.198 A 
ATOM     63  F   UNL A   1      44.063  28.286  27.085  1.00  0.00    -0.203 F 
ATOM     64  F   UNL A   1      42.131  23.252  26.255  1.00  0.00    -0.200 F 
ATOM     65  C   UNL A   1      43.480  25.058  25.553  1.00  0.00     0.200 A 
ATOM     66  F   UNL A   1      44.827  26.884  24.900  1.00  0.00    -0.200 F 
ATOM     67  F   UNL A   1      43.882  24.360  24.481  1.00  0.00    -0.200 F 
ENDBRANCH  43  57
BRANCH  44  68
ATOM     68  C   UNL A   1      39.337  32.049  35.428  1.00  0.00     0.064 A 
ATOM     69  C   UNL A   1      38.502  31.483  36.400  1.00  0.00     0.173 A 
ATOM     70  C   UNL A   1      39.689  33.400  35.573  1.00  0.00     0.173 A 
ATOM     71  F   UNL A   1      38.118  30.203  36.287  1.00  0.00    -0.203 F 
ATOM     72  C   UNL A   1      38.032  32.239  37.471  1.00  0.00     0.198 A 
ATOM     73  C   UNL A   1      39.239  34.148  36.659  1.00  0.00     0.198 A 
ATOM     74  F   UNL A   1      40.482  33.989  34.667  1.00  0.00    -0.203 F 
ATOM     75  F   UNL A   1      37.206  31.683  38.368  1.00  0.00    -0.200 F 
ATOM     76  C   UNL A   1      38.407  33.567  37.604  1.00  0.00     0.200 A 
ATOM     77  F   UNL A   1      39.613  35.427  36.790  1.00  0.00    -0.200 F 
ATOM     78  F   UNL A   1      37.962  34.292  38.641  1.00  0.00    -0.200 F 
ENDBRANCH  44  68
BRANCH  56  79
ATOM     79  C   UNL A   1      44.747  27.748  34.597  1.00  0.00     0.064 A 
ATOM     80  C   UNL A   1      44.631  26.605  35.402  1.00  0.00     0.173 A 
ATOM     81  C   UNL A   1      45.944  28.476  34.651  1.00  0.00     0.173 A 
ATOM     82  F   UNL A   1      43.497  25.887  35.396  1.00  0.00    -0.203 F 
ATOM     83  C   UNL A   1      45.670  26.217  36.243  1.00  0.00     0.198 A 
ATOM     84  C   UNL A   1      46.989  28.071  35.477  1.00  0.00     0.198 A 
ATOM     85  F   UNL A   1      46.102  29.574  33.898  1.00  0.00    -0.203 F 
ATOM     86  F   UNL A   1      45.525  25.143  37.033  1.00  0.00    -0.200 F 
ATOM     87  C   UNL A   1      46.850  26.946  36.275  1.00  0.00     0.200 A 
ATOM     88  F   UNL A   1      48.131  28.772  35.501  1.00  0.00    -0.200 F 
ATOM     89  F   UNL A   1      47.850  26.569  37.084  1.00  0.00    -0.200 F 
ENDBRANCH  56  79
ENDBRANCH  30  31
ENDBRANCH  23  25
ENDBRANCH  22  23
ENDBRANCH  21  22
ENDBRANCH  20  21
ENDBRANCH  19  20
ENDBRANCH   1  19
TORSDOF 17
ENDMDL
