MODEL 1
REMARK VINA RESULT:     -16.9      0.000      0.000
REMARK SMILES Cc1ccccc1/C=C1\SC(=O)N(CC(=O)Nc2ccccc2C(=O)OCCOC(=O)c2ccc(-c3c4nc(c(-c5c(F)c(F)c(F)c(F)c5F)c5ccc([nH]5)c(-c5c(F)c(F)c(F)c(F)c5F)c5nc(c(-c6c(F)c(F)c(F)c(F)c6F)c6ccc3[nH]6)C=C5)C=C4)cc2)C1=O
REMARK SMILES IDX 27 1 26 2 24 3 25 4 23 5 18 6 19 7 20 8 22 9 21 10 17 11
REMARK SMILES IDX 15 12 16 13 14 15 13 16 8 17 9 18 10 19 95 20 11 21 96 22
REMARK SMILES IDX 12 23 7 24 1 25 2 26 3 27 4 28 6 29 5 30 28 31 29 32 30 33
REMARK SMILES IDX 31 34 32 35 33 36 94 37 34 38 93 39 35 40 36 41 37 42 87 43
REMARK SMILES IDX 38 44 92 45 86 46 88 47 39 48 91 49 85 50 84 51 40 53 72 54
REMARK SMILES IDX 52 55 71 56 53 57 56 58 70 59 89 60 54 61 55 62 69 64 90 65
REMARK SMILES IDX 57 66 41 67 42 68 50 69 43 70 44 71 48 72 51 73 45 74 46 75
REMARK SMILES IDX 49 76 47 77 73 78 74 79 82 80 75 81 76 82 80 83 83 84 77 85
REMARK SMILES IDX 78 86 81 87 79 88 58 89 59 90 67 91 60 92 61 93 65 94 68 95
REMARK SMILES IDX 62 96 63 97 66 98 64 99
REMARK H PARENT 17 14 88 52 56 63
REMARK Flexibility Score: inf
ROOT
ATOM      1  C   UNL A   1      36.232  21.744  26.065  1.00  0.00     0.275 C 
ENDROOT
BRANCH   1   2
ATOM      2  O   UNL A   1      35.340  23.597  26.160  1.00  0.00    -0.458 OA
BRANCH   2   3
ATOM      3  C   UNL A   1      34.792  24.809  25.301  1.00  0.00     0.340 C 
ATOM      4  O   UNL A   1      34.979  24.159  24.224  1.00  0.00    -0.246 OA
BRANCH   3   5
ATOM      5  C   UNL A   1      33.946  26.809  25.454  1.00  0.00     0.083 A 
ATOM      6  C   UNL A   1      33.483  27.673  24.000  1.00  0.00     0.055 A 
ATOM      7  C   UNL A   1      33.004  28.990  23.996  1.00  0.00     0.027 A 
ATOM      8  C   UNL A   1      32.784  29.620  25.217  1.00  0.00     0.002 A 
ATOM      9  C   UNL A   1      33.641  27.707  26.570  1.00  0.00     0.018 A 
ATOM     10  C   UNL A   1      33.075  29.004  26.444  1.00  0.00     0.001 A 
BRANCH   6  11
ATOM     11  N   UNL A   1      33.516  26.990  22.404  1.00  0.00    -0.324 N 
ATOM     12  C   UNL A   1      33.008  25.585  21.736  1.00  0.00     0.244 C 
ATOM     13  O   UNL A   1      33.195  25.562  20.503  1.00  0.00    -0.273 OA
ATOM     14  H   UNL A   1      33.940  27.589  21.746  1.00  0.00     0.170 HD
BRANCH  12  15
ATOM     15  C   UNL A   1      31.808  24.261  22.459  1.00  0.00     0.230 C 
BRANCH  15  16
ATOM     16  N   UNL A   1      31.861  22.842  23.568  1.00  0.00    -0.259 N 
ATOM     17  C   UNL A   1      32.977  18.643  23.216  1.00  0.00     0.029 C 
ATOM     18  C   UNL A   1      32.464  19.832  23.617  1.00  0.00     0.083 C 
ATOM     19  S   UNL A   1      32.609  20.261  25.767  1.00  0.00    -0.022 SA
ATOM     20  C   UNL A   1      31.949  21.366  22.554  1.00  0.00     0.268 C 
ATOM     21  C   UNL A   1      32.039  22.481  25.451  1.00  0.00     0.294 C 
ATOM     22  O   UNL A   1      31.660  21.319  21.361  1.00  0.00    -0.268 OA
ATOM     23  O   UNL A   1      31.749  22.934  26.552  1.00  0.00    -0.261 OA
BRANCH  17  24
ATOM     24  C   UNL A   1      33.626  17.603  24.080  1.00  0.00    -0.021 A 
ATOM     25  C   UNL A   1      35.854  18.828  24.312  1.00  0.00     0.045 C 
ATOM     26  C   UNL A   1      34.955  17.646  24.530  1.00  0.00    -0.044 A 
ATOM     27  C   UNL A   1      35.510  16.539  25.216  1.00  0.00     0.004 A 
ATOM     28  C   UNL A   1      34.742  15.430  25.560  1.00  0.00     0.000 A 
ATOM     29  C   UNL A   1      32.871  16.488  24.487  1.00  0.00     0.008 A 
ATOM     30  C   UNL A   1      33.404  15.423  25.226  1.00  0.00     0.001 A 
ENDBRANCH  17  24
ENDBRANCH  15  16
ENDBRANCH  12  15
ENDBRANCH   6  11
ENDBRANCH   3   5
ENDBRANCH   2   3
ENDBRANCH   1   2
BRANCH   1  31
ATOM     31  C   UNL A   1      37.958  21.761  25.344  1.00  0.00     0.275 C 
BRANCH  31  32
ATOM     32  O   UNL A   1      39.289  22.280  26.290  1.00  0.00    -0.458 OA
BRANCH  32  33
ATOM     33  C   UNL A   1      40.235  23.381  26.482  1.00  0.00     0.338 C 
ATOM     34  O   UNL A   1      41.438  23.142  26.422  1.00  0.00    -0.246 OA
BRANCH  33  35
ATOM     35  C   UNL A   1      39.812  24.849  27.120  1.00  0.00     0.060 A 
ATOM     36  C   UNL A   1      40.671  25.986  26.218  1.00  0.00     0.016 A 
ATOM     37  C   UNL A   1      39.177  25.451  28.646  1.00  0.00     0.016 A 
ATOM     38  C   UNL A   1      40.896  27.861  26.590  1.00  0.00     0.010 A 
ATOM     39  C   UNL A   1      39.414  27.158  29.204  1.00  0.00     0.010 A 
ATOM     40  C   UNL A   1      40.231  28.433  28.187  1.00  0.00    -0.014 A 
BRANCH  40  41
ATOM     41  C   UNL A   1      40.938  29.455  29.061  1.00  0.00     0.031 A 
ATOM     42  C   UNL A   1      40.010  30.434  29.695  1.00  0.00     0.074 A 
ATOM     43  C   UNL A   1      42.229  29.357  29.538  1.00  0.00     0.049 A 
ATOM     44  N   UNL A   1      40.350  31.280  30.593  1.00  0.00    -0.248 NA
ATOM     45  C   UNL A   1      38.591  30.558  29.359  1.00  0.00     0.031 C 
ATOM     46  C   UNL A   1      42.751  29.935  30.786  1.00  0.00     0.029 A 
ATOM     47  N   UNL A   1      43.351  28.624  29.097  1.00  0.00    -0.354 N 
ATOM     48  C   UNL A   1      39.247  31.953  31.039  1.00  0.00     0.074 A 
ATOM     49  C   UNL A   1      38.157  31.437  30.266  1.00  0.00     0.031 C 
ATOM     50  C   UNL A   1      44.019  29.573  31.027  1.00  0.00     0.029 A 
ATOM     51  C   UNL A   1      44.526  28.969  29.823  1.00  0.00     0.049 A 
ATOM     52  H   UNL A   1      43.325  27.955  28.376  1.00  0.00     0.167 HD
ATOM     53  C   UNL A   1      39.433  32.870  32.026  1.00  0.00     0.037 A 
ATOM     54  C   UNL A   1      45.610  29.548  29.207  1.00  0.00     0.037 A 
ATOM     55  C   UNL A   1      40.868  33.220  32.083  1.00  0.00     0.049 A 
ATOM     56  C   UNL A   1      45.503  31.057  29.138  1.00  0.00     0.074 A 
ATOM     57  C   UNL A   1      41.898  32.984  32.975  1.00  0.00     0.029 A 
ATOM     58  N   UNL A   1      41.491  33.627  30.892  1.00  0.00    -0.354 N 
ATOM     59  N   UNL A   1      44.638  31.759  29.817  1.00  0.00    -0.248 NA
ATOM     60  C   UNL A   1      46.352  31.897  28.302  1.00  0.00     0.031 C 
ATOM     61  C   UNL A   1      43.135  33.138  32.272  1.00  0.00     0.029 A 
ATOM     62  C   UNL A   1      42.873  33.554  30.975  1.00  0.00     0.049 A 
ATOM     63  H   UNL A   1      41.004  33.930  30.092  1.00  0.00     0.167 HD
ATOM     64  C   UNL A   1      44.672  33.061  29.427  1.00  0.00     0.074 A 
ATOM     65  C   UNL A   1      45.824  33.111  28.540  1.00  0.00     0.031 C 
ATOM     66  C   UNL A   1      43.724  33.960  29.842  1.00  0.00     0.037 A 
BRANCH  53  67
ATOM     67  C   UNL A   1      38.357  33.358  32.981  1.00  0.00     0.064 A 
ATOM     68  C   UNL A   1      38.343  32.913  34.320  1.00  0.00     0.173 A 
ATOM     69  C   UNL A   1      37.234  34.146  32.627  1.00  0.00     0.173 A 
ATOM     70  F   UNL A   1      39.326  32.140  34.800  1.00  0.00    -0.203 F 
ATOM     71  C   UNL A   1      37.298  33.212  35.208  1.00  0.00     0.198 A 
ATOM     72  C   UNL A   1      36.211  34.475  33.524  1.00  0.00     0.198 A 
ATOM     73  F   UNL A   1      37.030  34.593  31.386  1.00  0.00    -0.203 F 
ATOM     74  F   UNL A   1      37.318  32.710  36.451  1.00  0.00    -0.200 F 
ATOM     75  C   UNL A   1      36.235  33.997  34.813  1.00  0.00     0.200 A 
ATOM     76  F   UNL A   1      35.185  35.235  33.109  1.00  0.00    -0.200 F 
ATOM     77  F   UNL A   1      35.231  34.272  35.655  1.00  0.00    -0.200 F 
ENDBRANCH  53  67
BRANCH  54  78
ATOM     78  C   UNL A   1      46.192  28.670  28.162  1.00  0.00     0.064 A 
ATOM     79  C   UNL A   1      46.820  27.505  28.642  1.00  0.00     0.173 A 
ATOM     80  C   UNL A   1      45.474  28.595  26.972  1.00  0.00     0.173 A 
ATOM     81  F   UNL A   1      47.657  27.573  29.690  1.00  0.00    -0.203 F 
ATOM     82  C   UNL A   1      46.439  26.262  28.161  1.00  0.00     0.198 A 
ATOM     83  C   UNL A   1      45.057  27.355  26.526  1.00  0.00     0.198 A 
ATOM     84  F   UNL A   1      44.952  29.701  26.424  1.00  0.00    -0.203 F 
ATOM     85  F   UNL A   1      46.893  25.140  28.739  1.00  0.00    -0.200 F 
ATOM     86  C   UNL A   1      45.490  26.192  27.158  1.00  0.00     0.200 A 
ATOM     87  F   UNL A   1      44.123  27.322  25.571  1.00  0.00    -0.200 F 
ATOM     88  F   UNL A   1      44.974  25.000  26.841  1.00  0.00    -0.200 F 
ENDBRANCH  54  78
BRANCH  66  89
ATOM     89  C   UNL A   1      43.595  35.365  29.294  1.00  0.00     0.064 A 
ATOM     90  C   UNL A   1      43.919  36.533  30.004  1.00  0.00     0.173 A 
ATOM     91  C   UNL A   1      43.169  35.577  27.961  1.00  0.00     0.173 A 
ATOM     92  F   UNL A   1      44.552  36.492  31.183  1.00  0.00    -0.203 F 
ATOM     93  C   UNL A   1      43.661  37.806  29.491  1.00  0.00     0.198 A 
ATOM     94  C   UNL A   1      43.023  36.847  27.412  1.00  0.00     0.198 A 
ATOM     95  F   UNL A   1      42.892  34.562  27.132  1.00  0.00    -0.203 F 
ATOM     96  F   UNL A   1      43.866  38.884  30.261  1.00  0.00    -0.200 F 
ATOM     97  C   UNL A   1      43.217  37.962  28.194  1.00  0.00     0.200 A 
ATOM     98  F   UNL A   1      42.693  36.974  26.120  1.00  0.00    -0.200 F 
ATOM     99  F   UNL A   1      43.005  39.184  27.690  1.00  0.00    -0.200 F 
ENDBRANCH  66  89
ENDBRANCH  40  41
ENDBRANCH  33  35
ENDBRANCH  32  33
ENDBRANCH  31  32
ENDBRANCH   1  31
TORSDOF 15
ENDMDL
MODEL 2
REMARK VINA RESULT:     -16.1      4.468      9.632
REMARK SMILES Cc1ccccc1/C=C1\SC(=O)N(CC(=O)Nc2ccccc2C(=O)OCCOC(=O)c2ccc(-c3c4nc(c(-c5c(F)c(F)c(F)c(F)c5F)c5ccc([nH]5)c(-c5c(F)c(F)c(F)c(F)c5F)c5nc(c(-c6c(F)c(F)c(F)c(F)c6F)c6ccc3[nH]6)C=C5)C=C4)cc2)C1=O
REMARK SMILES IDX 27 1 26 2 24 3 25 4 23 5 18 6 19 7 20 8 22 9 21 10 17 11
REMARK SMILES IDX 15 12 16 13 14 15 13 16 8 17 9 18 10 19 95 20 11 21 96 22
REMARK SMILES IDX 12 23 7 24 1 25 2 26 3 27 4 28 6 29 5 30 28 31 29 32 30 33
REMARK SMILES IDX 31 34 32 35 33 36 94 37 34 38 93 39 35 40 36 41 37 42 87 43
REMARK SMILES IDX 38 44 92 45 86 46 88 47 39 48 91 49 85 50 84 51 40 53 72 54
REMARK SMILES IDX 52 55 71 56 53 57 56 58 70 59 89 60 54 61 55 62 69 64 90 65
REMARK SMILES IDX 57 66 41 67 42 68 50 69 43 70 44 71 48 72 51 73 45 74 46 75
REMARK SMILES IDX 49 76 47 77 73 78 74 79 82 80 75 81 76 82 80 83 83 84 77 85
REMARK SMILES IDX 78 86 81 87 79 88 58 89 59 90 67 91 60 92 61 93 65 94 68 95
REMARK SMILES IDX 62 96 63 97 66 98 64 99
REMARK H PARENT 17 14 88 52 56 63
REMARK Flexibility Score: inf
ROOT
ATOM      1  C   UNL A   1      36.481  32.088  33.360  1.00  0.00     0.275 C 
ENDROOT
BRANCH   1   2
ATOM      2  O   UNL A   1      36.616  30.095  32.859  1.00  0.00    -0.458 OA
BRANCH   2   3
ATOM      3  C   UNL A   1      37.469  29.019  32.071  1.00  0.00     0.340 C 
ATOM      4  O   UNL A   1      37.403  28.215  33.054  1.00  0.00    -0.246 OA
BRANCH   3   5
ATOM      5  C   UNL A   1      38.447  28.629  30.166  1.00  0.00     0.083 A 
ATOM      6  C   UNL A   1      38.505  29.884  28.943  1.00  0.00     0.055 A 
ATOM      7  C   UNL A   1      39.044  29.700  27.663  1.00  0.00     0.027 A 
ATOM      8  C   UNL A   1      39.659  28.487  27.370  1.00  0.00     0.002 A 
ATOM      9  C   UNL A   1      39.129  27.470  29.586  1.00  0.00     0.018 A 
ATOM     10  C   UNL A   1      39.712  27.430  28.291  1.00  0.00     0.001 A 
BRANCH   6  11
ATOM     11  N   UNL A   1      37.951  31.512  29.185  1.00  0.00    -0.324 N 
ATOM     12  C   UNL A   1      36.529  32.294  28.970  1.00  0.00     0.244 C 
ATOM     13  O   UNL A   1      36.590  33.480  29.350  1.00  0.00    -0.273 OA
ATOM     14  H   UNL A   1      38.657  32.104  29.534  1.00  0.00     0.170 HD
BRANCH  12  15
ATOM     15  C   UNL A   1      34.769  31.559  28.687  1.00  0.00     0.230 C 
BRANCH  15  16
ATOM     16  N   UNL A   1      33.847  30.702  27.398  1.00  0.00    -0.259 N 
ATOM     17  C   UNL A   1      33.801  26.669  25.746  1.00  0.00     0.029 C 
ATOM     18  C   UNL A   1      33.650  28.000  25.956  1.00  0.00     0.083 C 
ATOM     19  S   UNL A   1      31.692  28.838  25.416  1.00  0.00    -0.022 SA
ATOM     20  C   UNL A   1      34.754  29.212  26.984  1.00  0.00     0.268 C 
ATOM     21  C   UNL A   1      32.143  30.825  26.511  1.00  0.00     0.294 C 
ATOM     22  O   UNL A   1      35.935  29.013  27.258  1.00  0.00    -0.268 OA
ATOM     23  O   UNL A   1      31.309  31.638  26.131  1.00  0.00    -0.261 OA
BRANCH  17  24
ATOM     24  C   UNL A   1      32.779  25.721  25.191  1.00  0.00    -0.021 A 
ATOM     25  C   UNL A   1      33.453  26.034  22.748  1.00  0.00     0.045 C 
ATOM     26  C   UNL A   1      32.570  25.475  23.825  1.00  0.00    -0.044 A 
ATOM     27  C   UNL A   1      31.479  24.674  23.406  1.00  0.00     0.004 A 
ATOM     28  C   UNL A   1      30.654  24.026  24.319  1.00  0.00     0.000 A 
ATOM     29  C   UNL A   1      31.954  25.011  26.081  1.00  0.00     0.008 A 
ATOM     30  C   UNL A   1      30.918  24.164  25.665  1.00  0.00     0.001 A 
ENDBRANCH  17  24
ENDBRANCH  15  16
ENDBRANCH  12  15
ENDBRANCH   6  11
ENDBRANCH   3   5
ENDBRANCH   2   3
ENDBRANCH   1   2
BRANCH   1  31
ATOM     31  C   UNL A   1      37.389  32.547  34.929  1.00  0.00     0.275 C 
BRANCH  31  32
ATOM     32  O   UNL A   1      38.617  31.527  35.552  1.00  0.00    -0.458 OA
BRANCH  32  33
ATOM     33  C   UNL A   1      39.771  30.711  35.169  1.00  0.00     0.338 C 
ATOM     34  O   UNL A   1      40.046  29.724  35.847  1.00  0.00    -0.246 OA
BRANCH  33  35
ATOM     35  C   UNL A   1      40.937  31.216  34.107  1.00  0.00     0.060 A 
ATOM     36  C   UNL A   1      40.141  31.395  32.631  1.00  0.00     0.016 A 
ATOM     37  C   UNL A   1      42.689  31.133  33.990  1.00  0.00     0.016 A 
ATOM     38  C   UNL A   1      40.923  31.668  30.894  1.00  0.00     0.010 A 
ATOM     39  C   UNL A   1      43.575  31.243  32.413  1.00  0.00     0.010 A 
ATOM     40  C   UNL A   1      42.740  31.562  30.823  1.00  0.00    -0.014 A 
BRANCH  40  41
ATOM     41  C   UNL A   1      43.489  30.906  29.676  1.00  0.00     0.031 A 
ATOM     42  C   UNL A   1      43.350  29.422  29.651  1.00  0.00     0.074 A 
ATOM     43  C   UNL A   1      43.977  31.547  28.556  1.00  0.00     0.049 A 
ATOM     44  N   UNL A   1      43.752  28.671  28.695  1.00  0.00    -0.248 NA
ATOM     45  C   UNL A   1      42.746  28.634  30.726  1.00  0.00     0.031 C 
ATOM     46  C   UNL A   1      44.152  30.964  27.216  1.00  0.00     0.029 A 
ATOM     47  N   UNL A   1      44.317  32.893  28.305  1.00  0.00    -0.354 N 
ATOM     48  C   UNL A   1      43.379  27.377  28.932  1.00  0.00     0.074 A 
ATOM     49  C   UNL A   1      42.711  27.407  30.199  1.00  0.00     0.031 C 
ATOM     50  C   UNL A   1      44.545  31.872  26.311  1.00  0.00     0.029 A 
ATOM     51  C   UNL A   1      44.937  33.054  27.034  1.00  0.00     0.049 A 
ATOM     52  H   UNL A   1      44.146  33.631  28.933  1.00  0.00     0.167 HD
ATOM     53  C   UNL A   1      43.702  26.453  27.989  1.00  0.00     0.037 A 
ATOM     54  C   UNL A   1      46.234  33.494  26.914  1.00  0.00     0.037 A 
ATOM     55  C   UNL A   1      44.762  27.010  27.122  1.00  0.00     0.049 A 
ATOM     56  C   UNL A   1      47.241  32.365  26.991  1.00  0.00     0.074 A 
ATOM     57  C   UNL A   1      44.824  27.445  25.810  1.00  0.00     0.029 A 
ATOM     58  N   UNL A   1      45.914  27.522  27.741  1.00  0.00    -0.354 N 
ATOM     59  N   UNL A   1      46.929  31.101  26.900  1.00  0.00    -0.248 NA
ATOM     60  C   UNL A   1      48.672  32.562  27.179  1.00  0.00     0.031 C 
ATOM     61  C   UNL A   1      45.956  28.314  25.688  1.00  0.00     0.029 A 
ATOM     62  C   UNL A   1      46.639  28.346  26.894  1.00  0.00     0.049 A 
ATOM     63  H   UNL A   1      46.176  27.319  28.668  1.00  0.00     0.167 HD
ATOM     64  C   UNL A   1      48.012  30.324  27.169  1.00  0.00     0.074 A 
ATOM     65  C   UNL A   1      49.099  31.288  27.249  1.00  0.00     0.031 C 
ATOM     66  C   UNL A   1      47.899  28.969  27.338  1.00  0.00     0.037 A 
BRANCH  53  67
ATOM     67  C   UNL A   1      43.002  25.118  27.796  1.00  0.00     0.064 A 
ATOM     68  C   UNL A   1      41.870  25.027  26.958  1.00  0.00     0.173 A 
ATOM     69  C   UNL A   1      43.292  23.924  28.499  1.00  0.00     0.173 A 
ATOM     70  F   UNL A   1      41.454  26.080  26.242  1.00  0.00    -0.203 F 
ATOM     71  C   UNL A   1      41.096  23.860  26.852  1.00  0.00     0.198 A 
ATOM     72  C   UNL A   1      42.542  22.749  28.365  1.00  0.00     0.198 A 
ATOM     73  F   UNL A   1      44.275  23.837  29.397  1.00  0.00    -0.203 F 
ATOM     74  F   UNL A   1      39.999  23.858  26.081  1.00  0.00    -0.200 F 
ATOM     75  C   UNL A   1      41.434  22.720  27.551  1.00  0.00     0.200 A 
ATOM     76  F   UNL A   1      42.891  21.657  29.063  1.00  0.00    -0.200 F 
ATOM     77  F   UNL A   1      40.690  21.610  27.462  1.00  0.00    -0.200 F 
ENDBRANCH  53  67
BRANCH  54  78
ATOM     78  C   UNL A   1      46.413  34.857  27.471  1.00  0.00     0.064 A 
ATOM     79  C   UNL A   1      45.848  35.895  26.705  1.00  0.00     0.173 A 
ATOM     80  C   UNL A   1      46.359  34.951  28.858  1.00  0.00     0.173 A 
ATOM     81  F   UNL A   1      46.027  35.925  25.375  1.00  0.00    -0.203 F 
ATOM     82  C   UNL A   1      44.955  36.781  27.287  1.00  0.00     0.198 A 
ATOM     83  C   UNL A   1      45.432  35.802  29.430  1.00  0.00     0.198 A 
ATOM     84  F   UNL A   1      46.979  34.042  29.625  1.00  0.00    -0.203 F 
ATOM     85  F   UNL A   1      44.271  37.653  26.532  1.00  0.00    -0.200 F 
ATOM     86  C   UNL A   1      44.687  36.673  28.639  1.00  0.00     0.200 A 
ATOM     87  F   UNL A   1      45.181  35.657  30.735  1.00  0.00    -0.200 F 
ATOM     88  F   UNL A   1      43.680  37.385  29.156  1.00  0.00    -0.200 F 
ENDBRANCH  54  78
BRANCH  66  89
ATOM     89  C   UNL A   1      49.024  28.082  27.824  1.00  0.00     0.064 A 
ATOM     90  C   UNL A   1      49.691  27.130  27.036  1.00  0.00     0.173 A 
ATOM     91  C   UNL A   1      49.515  28.210  29.147  1.00  0.00     0.173 A 
ATOM     92  F   UNL A   1      49.506  27.052  25.713  1.00  0.00    -0.203 F 
ATOM     93  C   UNL A   1      50.637  26.254  27.574  1.00  0.00     0.198 A 
ATOM     94  C   UNL A   1      50.540  27.413  29.647  1.00  0.00     0.198 A 
ATOM     95  F   UNL A   1      49.034  29.122  30.000  1.00  0.00    -0.203 F 
ATOM     96  F   UNL A   1      51.146  25.278  26.809  1.00  0.00    -0.200 F 
ATOM     97  C   UNL A   1      51.063  26.399  28.878  1.00  0.00     0.200 A 
ATOM     98  F   UNL A   1      51.011  27.640  30.880  1.00  0.00    -0.200 F 
ATOM     99  F   UNL A   1      51.996  25.582  29.383  1.00  0.00    -0.200 F 
ENDBRANCH  66  89
ENDBRANCH  40  41
ENDBRANCH  33  35
ENDBRANCH  32  33
ENDBRANCH  31  32
ENDBRANCH   1  31
TORSDOF 15
ENDMDL
MODEL 3
REMARK VINA RESULT:     -16.1      6.114     13.855
REMARK SMILES Cc1ccccc1/C=C1\SC(=O)N(CC(=O)Nc2ccccc2C(=O)OCCOC(=O)c2ccc(-c3c4nc(c(-c5c(F)c(F)c(F)c(F)c5F)c5ccc([nH]5)c(-c5c(F)c(F)c(F)c(F)c5F)c5nc(c(-c6c(F)c(F)c(F)c(F)c6F)c6ccc3[nH]6)C=C5)C=C4)cc2)C1=O
REMARK SMILES IDX 27 1 26 2 24 3 25 4 23 5 18 6 19 7 20 8 22 9 21 10 17 11
REMARK SMILES IDX 15 12 16 13 14 15 13 16 8 17 9 18 10 19 95 20 11 21 96 22
REMARK SMILES IDX 12 23 7 24 1 25 2 26 3 27 4 28 6 29 5 30 28 31 29 32 30 33
REMARK SMILES IDX 31 34 32 35 33 36 94 37 34 38 93 39 35 40 36 41 37 42 87 43
REMARK SMILES IDX 38 44 92 45 86 46 88 47 39 48 91 49 85 50 84 51 40 53 72 54
REMARK SMILES IDX 52 55 71 56 53 57 56 58 70 59 89 60 54 61 55 62 69 64 90 65
REMARK SMILES IDX 57 66 41 67 42 68 50 69 43 70 44 71 48 72 51 73 45 74 46 75
REMARK SMILES IDX 49 76 47 77 73 78 74 79 82 80 75 81 76 82 80 83 83 84 77 85
REMARK SMILES IDX 78 86 81 87 79 88 58 89 59 90 67 91 60 92 61 93 65 94 68 95
REMARK SMILES IDX 62 96 63 97 66 98 64 99
REMARK H PARENT 17 14 88 52 56 63
REMARK Flexibility Score: inf
ROOT
ATOM      1  C   UNL A   1      36.181  33.865  34.229  1.00  0.00     0.275 C 
ENDROOT
BRANCH   1   2
ATOM      2  O   UNL A   1      37.423  32.236  34.427  1.00  0.00    -0.458 OA
BRANCH   2   3
ATOM      3  C   UNL A   1      38.593  31.605  35.287  1.00  0.00     0.340 C 
ATOM      4  O   UNL A   1      37.753  31.017  36.039  1.00  0.00    -0.246 OA
BRANCH   3   5
ATOM      5  C   UNL A   1      40.760  31.468  35.443  1.00  0.00     0.083 A 
ATOM      6  C   UNL A   1      41.731  32.928  35.406  1.00  0.00     0.055 A 
ATOM      7  C   UNL A   1      43.132  32.933  35.422  1.00  0.00     0.027 A 
ATOM      8  C   UNL A   1      43.798  31.721  35.577  1.00  0.00     0.002 A 
ATOM      9  C   UNL A   1      41.708  30.359  35.576  1.00  0.00     0.018 A 
ATOM     10  C   UNL A   1      43.119  30.496  35.664  1.00  0.00     0.001 A 
BRANCH   6  11
ATOM     11  N   UNL A   1      41.077  34.537  35.395  1.00  0.00    -0.324 N 
ATOM     12  C   UNL A   1      39.721  35.238  35.986  1.00  0.00     0.244 C 
ATOM     13  O   UNL A   1      39.709  36.469  35.783  1.00  0.00    -0.273 OA
ATOM     14  H   UNL A   1      41.658  35.177  34.923  1.00  0.00     0.170 HD
BRANCH  12  15
ATOM     15  C   UNL A   1      38.467  34.557  37.282  1.00  0.00     0.230 C 
BRANCH  15  16
ATOM     16  N   UNL A   1      38.331  34.363  39.068  1.00  0.00    -0.259 N 
ATOM     17  C   UNL A   1      36.845  31.285  41.772  1.00  0.00     0.029 C 
ATOM     18  C   UNL A   1      37.272  32.446  41.219  1.00  0.00     0.083 C 
ATOM     19  S   UNL A   1      38.638  33.647  42.451  1.00  0.00    -0.022 SA
ATOM     20  C   UNL A   1      37.158  33.044  39.381  1.00  0.00     0.268 C 
ATOM     21  C   UNL A   1      39.193  35.008  40.664  1.00  0.00     0.294 C 
ATOM     22  O   UNL A   1      36.346  32.621  38.562  1.00  0.00    -0.268 OA
ATOM     23  O   UNL A   1      39.751  35.995  41.128  1.00  0.00    -0.261 OA
BRANCH  17  24
ATOM     24  C   UNL A   1      37.206  30.742  43.122  1.00  0.00    -0.021 A 
ATOM     25  C   UNL A   1      34.993  31.359  44.237  1.00  0.00     0.045 C 
ATOM     26  C   UNL A   1      36.396  30.829  44.266  1.00  0.00    -0.044 A 
ATOM     27  C   UNL A   1      36.898  30.415  45.524  1.00  0.00     0.004 A 
ATOM     28  C   UNL A   1      38.147  29.818  45.655  1.00  0.00     0.000 A 
ATOM     29  C   UNL A   1      38.441  30.090  43.287  1.00  0.00     0.008 A 
ATOM     30  C   UNL A   1      38.907  29.619  44.521  1.00  0.00     0.001 A 
ENDBRANCH  17  24
ENDBRANCH  15  16
ENDBRANCH  12  15
ENDBRANCH   6  11
ENDBRANCH   3   5
ENDBRANCH   2   3
ENDBRANCH   1   2
BRANCH   1  31
ATOM     31  C   UNL A   1      34.969  33.736  32.809  1.00  0.00     0.275 C 
BRANCH  31  32
ATOM     32  O   UNL A   1      35.115  32.479  31.655  1.00  0.00    -0.458 OA
BRANCH  32  33
ATOM     33  C   UNL A   1      35.049  32.189  30.221  1.00  0.00     0.338 C 
ATOM     34  O   UNL A   1      34.091  32.609  29.578  1.00  0.00    -0.246 OA
BRANCH  33  35
ATOM     35  C   UNL A   1      35.984  31.043  29.476  1.00  0.00     0.060 A 
ATOM     36  C   UNL A   1      36.468  29.999  30.708  1.00  0.00     0.016 A 
ATOM     37  C   UNL A   1      36.928  30.920  27.998  1.00  0.00     0.016 A 
ATOM     38  C   UNL A   1      37.803  28.615  30.626  1.00  0.00     0.010 A 
ATOM     39  C   UNL A   1      38.304  29.757  27.804  1.00  0.00     0.010 A 
ATOM     40  C   UNL A   1      38.760  28.535  29.079  1.00  0.00    -0.014 A 
BRANCH  40  41
ATOM     41  C   UNL A   1      40.251  28.240  29.040  1.00  0.00     0.031 A 
ATOM     42  C   UNL A   1      40.564  26.814  28.743  1.00  0.00     0.074 A 
ATOM     43  C   UNL A   1      41.259  29.177  28.942  1.00  0.00     0.049 A 
ATOM     44  N   UNL A   1      41.737  26.364  28.500  1.00  0.00    -0.248 NA
ATOM     45  C   UNL A   1      39.567  25.744  28.703  1.00  0.00     0.031 C 
ATOM     46  C   UNL A   1      42.581  28.984  28.326  1.00  0.00     0.029 A 
ATOM     47  N   UNL A   1      41.310  30.553  29.250  1.00  0.00    -0.354 N 
ATOM     48  C   UNL A   1      41.667  25.040  28.162  1.00  0.00     0.074 A 
ATOM     49  C   UNL A   1      40.278  24.703  28.261  1.00  0.00     0.031 C 
ATOM     50  C   UNL A   1      43.299  30.116  28.288  1.00  0.00     0.029 A 
ATOM     51  C   UNL A   1      42.629  31.073  29.130  1.00  0.00     0.049 A 
ATOM     52  H   UNL A   1      40.528  31.088  29.516  1.00  0.00     0.167 HD
ATOM     53  C   UNL A   1      42.831  24.417  27.839  1.00  0.00     0.037 A 
ATOM     54  C   UNL A   1      43.307  31.578  30.214  1.00  0.00     0.037 A 
ATOM     55  C   UNL A   1      43.960  25.226  28.347  1.00  0.00     0.049 A 
ATOM     56  C   UNL A   1      44.060  30.508  30.979  1.00  0.00     0.074 A 
ATOM     57  C   UNL A   1      44.947  26.001  27.766  1.00  0.00     0.029 A 
ATOM     58  N   UNL A   1      43.944  25.596  29.702  1.00  0.00    -0.354 N 
ATOM     59  N   UNL A   1      44.280  29.305  30.526  1.00  0.00    -0.248 NA
ATOM     60  C   UNL A   1      44.620  30.702  32.311  1.00  0.00     0.031 C 
ATOM     61  C   UNL A   1      45.434  26.912  28.757  1.00  0.00     0.029 A 
ATOM     62  C   UNL A   1      44.812  26.644  29.967  1.00  0.00     0.049 A 
ATOM     63  H   UNL A   1      43.382  25.161  30.384  1.00  0.00     0.167 HD
ATOM     64  C   UNL A   1      44.831  28.526  31.494  1.00  0.00     0.074 A 
ATOM     65  C   UNL A   1      45.106  29.473  32.564  1.00  0.00     0.031 C 
ATOM     66  C   UNL A   1      44.969  27.172  31.334  1.00  0.00     0.037 A 
BRANCH  53  67
ATOM     67  C   UNL A   1      42.945  23.158  26.997  1.00  0.00     0.064 A 
ATOM     68  C   UNL A   1      42.380  21.948  27.452  1.00  0.00     0.173 A 
ATOM     69  C   UNL A   1      43.705  23.025  25.809  1.00  0.00     0.173 A 
ATOM     70  F   UNL A   1      41.651  21.906  28.575  1.00  0.00    -0.203 F 
ATOM     71  C   UNL A   1      42.575  20.724  26.792  1.00  0.00     0.198 A 
ATOM     72  C   UNL A   1      43.867  21.811  25.130  1.00  0.00     0.198 A 
ATOM     73  F   UNL A   1      44.380  24.041  25.267  1.00  0.00    -0.203 F 
ATOM     74  F   UNL A   1      42.057  19.601  27.309  1.00  0.00    -0.200 F 
ATOM     75  C   UNL A   1      43.313  20.656  25.629  1.00  0.00     0.200 A 
ATOM     76  F   UNL A   1      44.597  21.774  24.005  1.00  0.00    -0.200 F 
ATOM     77  F   UNL A   1      43.511  19.488  25.005  1.00  0.00    -0.200 F 
ENDBRANCH  53  67
BRANCH  54  78
ATOM     78  C   UNL A   1      42.614  32.747  30.810  1.00  0.00     0.064 A 
ATOM     79  C   UNL A   1      42.607  33.907  30.012  1.00  0.00     0.173 A 
ATOM     80  C   UNL A   1      41.484  32.454  31.566  1.00  0.00     0.173 A 
ATOM     81  F   UNL A   1      43.731  34.313  29.402  1.00  0.00    -0.203 F 
ATOM     82  C   UNL A   1      41.407  34.528  29.702  1.00  0.00     0.198 A 
ATOM     83  C   UNL A   1      40.282  33.042  31.219  1.00  0.00     0.198 A 
ATOM     84  F   UNL A   1      41.488  31.420  32.421  1.00  0.00    -0.203 F 
ATOM     85  F   UNL A   1      41.367  35.518  28.797  1.00  0.00    -0.200 F 
ATOM     86  C   UNL A   1      40.235  34.034  30.244  1.00  0.00     0.200 A 
ATOM     87  F   UNL A   1      39.166  32.527  31.744  1.00  0.00    -0.200 F 
ATOM     88  F   UNL A   1      39.068  34.498  29.786  1.00  0.00    -0.200 F 
ENDBRANCH  54  78
BRANCH  66  89
ATOM     89  C   UNL A   1      45.393  26.230  32.440  1.00  0.00     0.064 A 
ATOM     90  C   UNL A   1      46.696  25.736  32.616  1.00  0.00     0.173 A 
ATOM     91  C   UNL A   1      44.463  25.820  33.426  1.00  0.00     0.173 A 
ATOM     92  F   UNL A   1      47.732  26.210  31.913  1.00  0.00    -0.203 F 
ATOM     93  C   UNL A   1      47.000  24.772  33.579  1.00  0.00     0.198 A 
ATOM     94  C   UNL A   1      44.797  24.947  34.457  1.00  0.00     0.198 A 
ATOM     95  F   UNL A   1      43.198  26.261  33.440  1.00  0.00    -0.203 F 
ATOM     96  F   UNL A   1      48.228  24.238  33.617  1.00  0.00    -0.200 F 
ATOM     97  C   UNL A   1      46.051  24.381  34.502  1.00  0.00     0.200 A 
ATOM     98  F   UNL A   1      43.891  24.664  35.402  1.00  0.00    -0.200 F 
ATOM     99  F   UNL A   1      46.352  23.484  35.449  1.00  0.00    -0.200 F 
ENDBRANCH  66  89
ENDBRANCH  40  41
ENDBRANCH  33  35
ENDBRANCH  32  33
ENDBRANCH  31  32
ENDBRANCH   1  31
TORSDOF 15
ENDMDL
