MODEL 1
REMARK VINA RESULT:     -12.4      0.000      0.000
REMARK SMILES CC1=C[C@@H]([C@@H]2N=N[C@H](S)N2/N=C/c2ccc(C(=O)OCCOC(=O)c3ccc(-c4c5nc(c(-c6c(F)c(F)c(F)c(F)c6F)c6ccc([nH]6)c(-c6c(F)c(F)c(F)c(F)c6F)c6nc(c(-c7c(F)c(F)c(F)c(F)c7F)c7ccc4[nH]7)C=C6)C=C5)cc3)cc2)N=N1
REMARK SMILES IDX 20 1 19 2 17 3 18 4 16 5 13 6 14 7 89 8 15 9 88 10 12 11
REMARK SMILES IDX 11 12 10 13 5 14 6 15 7 16 8 17 4 18 1 19 2 20 3 21 91 22
REMARK SMILES IDX 90 23 9 24 21 26 22 27 23 28 24 29 25 30 26 31 87 32 27 33
REMARK SMILES IDX 86 34 28 35 29 36 30 37 80 38 31 39 85 40 79 41 81 42 32 43
REMARK SMILES IDX 84 44 78 45 77 46 33 48 65 49 45 50 64 51 46 52 49 53 63 54
REMARK SMILES IDX 82 55 47 56 48 57 62 59 83 60 50 61 34 62 35 63 43 64 36 65
REMARK SMILES IDX 37 66 41 67 44 68 38 69 39 70 42 71 40 72 66 73 67 74 75 75
REMARK SMILES IDX 68 76 69 77 73 78 76 79 70 80 71 81 74 82 72 83 51 84 52 85
REMARK SMILES IDX 60 86 53 87 54 88 58 89 61 90 55 91 56 92 59 93 57 94
REMARK H PARENT 9 25 81 47 49 58
REMARK Flexibility Score: inf
ROOT
ATOM      1  C   UNL A   1      41.970  19.706  26.608  1.00  0.00     0.275 C 
ENDROOT
BRANCH   1   2
ATOM      2  O   UNL A   1      41.052  20.616  25.980  1.00  0.00    -0.458 OA
BRANCH   2   3
ATOM      3  C   UNL A   1      40.469  21.525  26.801  1.00  0.00     0.338 C 
ATOM      4  O   UNL A   1      40.940  21.974  27.837  1.00  0.00    -0.246 OA
BRANCH   3   5
ATOM      5  C   UNL A   1      39.197  22.009  26.210  1.00  0.00     0.060 A 
ATOM      6  C   UNL A   1      36.782  22.818  25.088  1.00  0.00    -0.005 A 
ATOM      7  C   UNL A   1      37.265  21.532  24.827  1.00  0.00     0.010 A 
ATOM      8  C   UNL A   1      37.486  23.703  25.901  1.00  0.00     0.010 A 
ATOM      9  C   UNL A   1      38.482  21.134  25.377  1.00  0.00     0.016 A 
ATOM     10  C   UNL A   1      38.689  23.288  26.480  1.00  0.00     0.016 A 
BRANCH   6  11
ATOM     11  C   UNL A   1      35.480  23.199  24.525  1.00  0.00     0.141 C 
ATOM     12  N   UNL A   1      35.043  24.416  24.574  1.00  0.00    -0.180 NA
BRANCH  12  13
ATOM     13  N   UNL A   1      33.853  24.692  23.920  1.00  0.00    -0.233 NA
ATOM     14  C   UNL A   1      33.809  26.026  23.261  1.00  0.00     0.274 C 
ATOM     15  N   UNL A   1      33.723  25.803  21.789  1.00  0.00    -0.161 NA
ATOM     16  N   UNL A   1      33.335  24.637  21.555  1.00  0.00    -0.153 NA
ATOM     17  C   UNL A   1      33.386  23.842  22.795  1.00  0.00     0.298 C 
BRANCH  14  18
ATOM     18  C   UNL A   1      32.621  26.959  23.693  1.00  0.00     0.201 C 
ATOM     19  C   UNL A   1      33.687  29.301  26.324  1.00  0.00     0.068 C 
ATOM     20  C   UNL A   1      33.016  28.323  25.430  1.00  0.00     0.058 C 
ATOM     21  C   UNL A   1      33.035  28.335  24.097  1.00  0.00     0.031 C 
ATOM     22  N   UNL A   1      32.406  27.205  25.935  1.00  0.00    -0.160 NA
ATOM     23  N   UNL A   1      32.072  26.432  24.989  1.00  0.00    -0.177 NA
ENDBRANCH  14  18
BRANCH  17  24
ATOM     24  S   UNL A   1      31.862  22.953  23.271  1.00  0.00    -0.128 SA
ATOM     25  H   UNL A   1      31.015  23.810  23.902  1.00  0.00     0.106 HD
ENDBRANCH  17  24
ENDBRANCH  12  13
ENDBRANCH   6  11
ENDBRANCH   3   5
ENDBRANCH   2   3
ENDBRANCH   1   2
BRANCH   1  26
ATOM     26  C   UNL A   1      43.015  19.213  25.621  1.00  0.00     0.275 C 
BRANCH  26  27
ATOM     27  O   UNL A   1      44.186  20.029  25.631  1.00  0.00    -0.458 OA
BRANCH  27  28
ATOM     28  C   UNL A   1      44.297  20.879  24.587  1.00  0.00     0.338 C 
ATOM     29  O   UNL A   1      44.539  20.609  23.423  1.00  0.00    -0.246 OA
BRANCH  28  30
ATOM     30  C   UNL A   1      44.343  22.250  25.105  1.00  0.00     0.060 A 
ATOM     31  C   UNL A   1      45.228  22.529  26.151  1.00  0.00     0.016 A 
ATOM     32  C   UNL A   1      43.340  23.154  24.725  1.00  0.00     0.016 A 
ATOM     33  C   UNL A   1      45.039  23.682  26.888  1.00  0.00     0.010 A 
ATOM     34  C   UNL A   1      43.142  24.290  25.469  1.00  0.00     0.010 A 
ATOM     35  C   UNL A   1      43.963  24.519  26.572  1.00  0.00    -0.014 A 
BRANCH  35  36
ATOM     36  C   UNL A   1      43.795  25.747  27.324  1.00  0.00     0.031 A 
ATOM     37  C   UNL A   1      44.813  26.769  26.983  1.00  0.00     0.074 A 
ATOM     38  C   UNL A   1      42.708  25.977  28.086  1.00  0.00     0.049 A 
ATOM     39  N   UNL A   1      45.665  27.333  27.770  1.00  0.00    -0.248 NA
ATOM     40  C   UNL A   1      44.997  27.112  25.559  1.00  0.00     0.031 C 
ATOM     41  C   UNL A   1      41.518  25.125  28.185  1.00  0.00     0.029 A 
ATOM     42  N   UNL A   1      42.367  27.072  28.827  1.00  0.00    -0.354 N 
ATOM     43  C   UNL A   1      46.337  28.263  26.981  1.00  0.00     0.074 A 
ATOM     44  C   UNL A   1      46.033  27.947  25.614  1.00  0.00     0.031 C 
ATOM     45  C   UNL A   1      40.508  25.834  28.735  1.00  0.00     0.029 A 
ATOM     46  C   UNL A   1      41.015  27.134  29.141  1.00  0.00     0.049 A 
ATOM     47  H   UNL A   1      43.018  27.754  29.111  1.00  0.00     0.167 HD
ATOM     48  C   UNL A   1      46.797  29.414  27.536  1.00  0.00     0.037 A 
ATOM     49  C   UNL A   1      40.344  28.203  29.633  1.00  0.00     0.037 A 
ATOM     50  C   UNL A   1      46.871  29.302  28.967  1.00  0.00     0.049 A 
ATOM     51  C   UNL A   1      41.331  29.127  30.239  1.00  0.00     0.074 A 
ATOM     52  C   UNL A   1      47.698  28.697  29.886  1.00  0.00     0.029 A 
ATOM     53  N   UNL A   1      45.699  29.600  29.604  1.00  0.00    -0.354 N 
ATOM     54  N   UNL A   1      42.017  28.851  31.313  1.00  0.00    -0.248 NA
ATOM     55  C   UNL A   1      41.813  30.270  29.468  1.00  0.00     0.031 C 
ATOM     56  C   UNL A   1      46.922  28.527  31.072  1.00  0.00     0.029 A 
ATOM     57  C   UNL A   1      45.651  29.054  30.856  1.00  0.00     0.049 A 
ATOM     58  H   UNL A   1      44.978  30.143  29.209  1.00  0.00     0.167 HD
ATOM     59  C   UNL A   1      43.227  29.483  31.114  1.00  0.00     0.074 A 
ATOM     60  C   UNL A   1      42.978  30.483  30.085  1.00  0.00     0.031 C 
ATOM     61  C   UNL A   1      44.387  28.908  31.539  1.00  0.00     0.037 A 
BRANCH  48  62
ATOM     62  C   UNL A   1      46.653  30.775  26.882  1.00  0.00     0.064 A 
ATOM     63  C   UNL A   1      47.764  31.643  26.883  1.00  0.00     0.173 A 
ATOM     64  C   UNL A   1      45.412  31.380  26.580  1.00  0.00     0.173 A 
ATOM     65  F   UNL A   1      48.988  31.184  27.186  1.00  0.00    -0.203 F 
ATOM     66  C   UNL A   1      47.628  33.018  26.668  1.00  0.00     0.198 A 
ATOM     67  C   UNL A   1      45.289  32.742  26.312  1.00  0.00     0.198 A 
ATOM     68  F   UNL A   1      44.254  30.714  26.648  1.00  0.00    -0.203 F 
ATOM     69  F   UNL A   1      48.691  33.822  26.804  1.00  0.00    -0.200 F 
ATOM     70  C   UNL A   1      46.389  33.567  26.387  1.00  0.00     0.200 A 
ATOM     71  F   UNL A   1      44.074  33.257  26.072  1.00  0.00    -0.200 F 
ATOM     72  F   UNL A   1      46.245  34.890  26.242  1.00  0.00    -0.200 F 
ENDBRANCH  48  62
BRANCH  49  73
ATOM     73  C   UNL A   1      38.929  28.594  29.417  1.00  0.00     0.064 A 
ATOM     74  C   UNL A   1      38.057  28.778  30.502  1.00  0.00     0.173 A 
ATOM     75  C   UNL A   1      38.478  29.057  28.166  1.00  0.00     0.173 A 
ATOM     76  F   UNL A   1      38.424  28.398  31.735  1.00  0.00    -0.203 F 
ATOM     77  C   UNL A   1      36.824  29.420  30.352  1.00  0.00     0.198 A 
ATOM     78  C   UNL A   1      37.241  29.687  28.014  1.00  0.00     0.198 A 
ATOM     79  F   UNL A   1      39.264  28.997  27.083  1.00  0.00    -0.203 F 
ATOM     80  F   UNL A   1      36.052  29.641  31.425  1.00  0.00    -0.200 F 
ATOM     81  C   UNL A   1      36.423  29.884  29.111  1.00  0.00     0.200 A 
ATOM     82  F   UNL A   1      36.879  30.159  26.813  1.00  0.00    -0.200 F 
ATOM     83  F   UNL A   1      35.272  30.558  28.978  1.00  0.00    -0.200 F 
ENDBRANCH  49  73
BRANCH  61  84
ATOM     84  C   UNL A   1      44.295  27.941  32.676  1.00  0.00     0.064 A 
ATOM     85  C   UNL A   1      44.221  28.309  34.029  1.00  0.00     0.173 A 
ATOM     86  C   UNL A   1      44.227  26.577  32.368  1.00  0.00     0.173 A 
ATOM     87  F   UNL A   1      44.196  29.598  34.395  1.00  0.00    -0.203 F 
ATOM     88  C   UNL A   1      44.133  27.343  35.030  1.00  0.00     0.198 A 
ATOM     89  C   UNL A   1      44.098  25.617  33.365  1.00  0.00     0.198 A 
ATOM     90  F   UNL A   1      44.252  26.174  31.088  1.00  0.00    -0.203 F 
ATOM     91  F   UNL A   1      44.093  27.713  36.319  1.00  0.00    -0.200 F 
ATOM     92  C   UNL A   1      44.067  26.000  34.696  1.00  0.00     0.200 A 
ATOM     93  F   UNL A   1      43.991  24.324  33.034  1.00  0.00    -0.200 F 
ATOM     94  F   UNL A   1      43.951  25.072  35.658  1.00  0.00    -0.200 F 
ENDBRANCH  61  84
ENDBRANCH  35  36
ENDBRANCH  28  30
ENDBRANCH  27  28
ENDBRANCH  26  27
ENDBRANCH   1  26
TORSDOF 15
ENDMDL
MODEL 2
REMARK VINA RESULT:     -12.4      0.383      1.169
REMARK SMILES CC1=C[C@@H]([C@@H]2N=N[C@H](S)N2/N=C/c2ccc(C(=O)OCCOC(=O)c3ccc(-c4c5nc(c(-c6c(F)c(F)c(F)c(F)c6F)c6ccc([nH]6)c(-c6c(F)c(F)c(F)c(F)c6F)c6nc(c(-c7c(F)c(F)c(F)c(F)c7F)c7ccc4[nH]7)C=C6)C=C5)cc3)cc2)N=N1
REMARK SMILES IDX 20 1 19 2 17 3 18 4 16 5 13 6 14 7 89 8 15 9 88 10 12 11
REMARK SMILES IDX 11 12 10 13 5 14 6 15 7 16 8 17 4 18 1 19 2 20 3 21 91 22
REMARK SMILES IDX 90 23 9 24 21 26 22 27 23 28 24 29 25 30 26 31 87 32 27 33
REMARK SMILES IDX 86 34 28 35 29 36 30 37 80 38 31 39 85 40 79 41 81 42 32 43
REMARK SMILES IDX 84 44 78 45 77 46 33 48 65 49 45 50 64 51 46 52 49 53 63 54
REMARK SMILES IDX 82 55 47 56 48 57 62 59 83 60 50 61 34 62 35 63 43 64 36 65
REMARK SMILES IDX 37 66 41 67 44 68 38 69 39 70 42 71 40 72 66 73 67 74 75 75
REMARK SMILES IDX 68 76 69 77 73 78 76 79 70 80 71 81 74 82 72 83 51 84 52 85
REMARK SMILES IDX 60 86 53 87 54 88 58 89 61 90 55 91 56 92 59 93 57 94
REMARK H PARENT 9 25 81 47 49 58
REMARK Flexibility Score: inf
ROOT
ATOM      1  C   UNL A   1      41.803  19.547  26.367  1.00  0.00     0.275 C 
ENDROOT
BRANCH   1   2
ATOM      2  O   UNL A   1      41.209  20.789  25.957  1.00  0.00    -0.458 OA
BRANCH   2   3
ATOM      3  C   UNL A   1      40.398  21.384  26.867  1.00  0.00     0.338 C 
ATOM      4  O   UNL A   1      40.643  21.556  28.054  1.00  0.00    -0.246 OA
BRANCH   3   5
ATOM      5  C   UNL A   1      39.186  21.923  26.202  1.00  0.00     0.060 A 
ATOM      6  C   UNL A   1      36.879  22.833  24.940  1.00  0.00    -0.005 A 
ATOM      7  C   UNL A   1      37.308  21.521  24.723  1.00  0.00     0.010 A 
ATOM      8  C   UNL A   1      37.583  23.695  25.778  1.00  0.00     0.010 A 
ATOM      9  C   UNL A   1      38.473  21.071  25.344  1.00  0.00     0.016 A 
ATOM     10  C   UNL A   1      38.731  23.230  26.426  1.00  0.00     0.016 A 
BRANCH   6  11
ATOM     11  C   UNL A   1      35.630  23.269  24.303  1.00  0.00     0.141 C 
ATOM     12  N   UNL A   1      34.839  24.127  24.863  1.00  0.00    -0.180 NA
BRANCH  12  13
ATOM     13  N   UNL A   1      33.742  24.553  24.132  1.00  0.00    -0.233 NA
ATOM     14  C   UNL A   1      33.915  25.880  23.480  1.00  0.00     0.274 C 
ATOM     15  N   UNL A   1      33.900  25.666  22.004  1.00  0.00    -0.161 NA
ATOM     16  N   UNL A   1      33.381  24.560  21.738  1.00  0.00    -0.153 NA
ATOM     17  C   UNL A   1      33.245  23.768  22.974  1.00  0.00     0.298 C 
BRANCH  14  18
ATOM     18  C   UNL A   1      32.832  26.960  23.837  1.00  0.00     0.201 C 
ATOM     19  C   UNL A   1      33.621  28.596  27.038  1.00  0.00     0.068 C 
ATOM     20  C   UNL A   1      33.027  27.929  25.852  1.00  0.00     0.058 C 
ATOM     21  C   UNL A   1      33.362  28.141  24.580  1.00  0.00     0.031 C 
ATOM     22  N   UNL A   1      32.136  26.896  25.992  1.00  0.00    -0.160 NA
ATOM     23  N   UNL A   1      31.912  26.365  24.865  1.00  0.00    -0.177 NA
ENDBRANCH  14  18
BRANCH  17  24
ATOM     24  S   UNL A   1      31.590  23.086  23.341  1.00  0.00    -0.128 SA
ATOM     25  H   UNL A   1      30.816  23.148  22.225  1.00  0.00     0.106 HD
ENDBRANCH  17  24
ENDBRANCH  12  13
ENDBRANCH   6  11
ENDBRANCH   3   5
ENDBRANCH   2   3
ENDBRANCH   1   2
BRANCH   1  26
ATOM     26  C   UNL A   1      43.159  19.344  25.712  1.00  0.00     0.275 C 
BRANCH  26  27
ATOM     27  O   UNL A   1      43.400  20.297  24.677  1.00  0.00    -0.458 OA
BRANCH  27  28
ATOM     28  C   UNL A   1      44.662  20.775  24.624  1.00  0.00     0.338 C 
ATOM     29  O   UNL A   1      45.691  20.154  24.416  1.00  0.00    -0.246 OA
BRANCH  28  30
ATOM     30  C   UNL A   1      44.661  22.153  25.124  1.00  0.00     0.060 A 
ATOM     31  C   UNL A   1      45.593  22.497  26.108  1.00  0.00     0.016 A 
ATOM     32  C   UNL A   1      43.585  22.992  24.799  1.00  0.00     0.016 A 
ATOM     33  C   UNL A   1      45.383  23.648  26.844  1.00  0.00     0.010 A 
ATOM     34  C   UNL A   1      43.368  24.125  25.543  1.00  0.00     0.010 A 
ATOM     35  C   UNL A   1      44.242  24.417  26.589  1.00  0.00    -0.014 A 
BRANCH  35  36
ATOM     36  C   UNL A   1      44.050  25.644  27.337  1.00  0.00     0.031 A 
ATOM     37  C   UNL A   1      45.062  26.676  27.010  1.00  0.00     0.074 A 
ATOM     38  C   UNL A   1      42.950  25.863  28.084  1.00  0.00     0.049 A 
ATOM     39  N   UNL A   1      45.897  27.249  27.809  1.00  0.00    -0.248 NA
ATOM     40  C   UNL A   1      45.262  27.020  25.589  1.00  0.00     0.031 C 
ATOM     41  C   UNL A   1      41.768  24.998  28.166  1.00  0.00     0.029 A 
ATOM     42  N   UNL A   1      42.587  26.954  28.818  1.00  0.00    -0.354 N 
ATOM     43  C   UNL A   1      46.570  28.186  27.028  1.00  0.00     0.074 A 
ATOM     44  C   UNL A   1      46.288  27.866  25.657  1.00  0.00     0.031 C 
ATOM     45  C   UNL A   1      40.744  25.696  28.701  1.00  0.00     0.029 A 
ATOM     46  C   UNL A   1      41.230  27.002  29.113  1.00  0.00     0.049 A 
ATOM     47  H   UNL A   1      43.226  27.643  29.111  1.00  0.00     0.167 HD
ATOM     48  C   UNL A   1      47.009  29.343  27.588  1.00  0.00     0.037 A 
ATOM     49  C   UNL A   1      40.541  28.064  29.595  1.00  0.00     0.037 A 
ATOM     50  C   UNL A   1      47.065  29.232  29.021  1.00  0.00     0.049 A 
ATOM     51  C   UNL A   1      41.509  28.998  30.214  1.00  0.00     0.074 A 
ATOM     52  C   UNL A   1      47.885  28.637  29.951  1.00  0.00     0.029 A 
ATOM     53  N   UNL A   1      45.880  29.519  29.640  1.00  0.00    -0.354 N 
ATOM     54  N   UNL A   1      42.183  28.731  31.298  1.00  0.00    -0.248 NA
ATOM     55  C   UNL A   1      41.990  30.146  29.449  1.00  0.00     0.031 C 
ATOM     56  C   UNL A   1      47.095  28.460  31.127  1.00  0.00     0.029 A 
ATOM     57  C   UNL A   1      45.821  28.972  30.892  1.00  0.00     0.049 A 
ATOM     58  H   UNL A   1      45.159  30.053  29.235  1.00  0.00     0.167 HD
ATOM     59  C   UNL A   1      43.389  29.376  31.115  1.00  0.00     0.074 A 
ATOM     60  C   UNL A   1      43.144  30.372  30.082  1.00  0.00     0.031 C 
ATOM     61  C   UNL A   1      44.549  28.814  31.558  1.00  0.00     0.037 A 
BRANCH  48  62
ATOM     62  C   UNL A   1      46.860  30.702  26.932  1.00  0.00     0.064 A 
ATOM     63  C   UNL A   1      47.953  31.592  26.970  1.00  0.00     0.173 A 
ATOM     64  C   UNL A   1      45.618  31.282  26.588  1.00  0.00     0.173 A 
ATOM     65  F   UNL A   1      49.174  31.157  27.313  1.00  0.00    -0.203 F 
ATOM     66  C   UNL A   1      47.796  32.964  26.752  1.00  0.00     0.198 A 
ATOM     67  C   UNL A   1      45.476  32.642  26.318  1.00  0.00     0.198 A 
ATOM     68  F   UNL A   1      44.472  30.593  26.617  1.00  0.00    -0.203 F 
ATOM     69  F   UNL A   1      48.838  33.789  26.924  1.00  0.00    -0.200 F 
ATOM     70  C   UNL A   1      46.557  33.488  26.430  1.00  0.00     0.200 A 
ATOM     71  F   UNL A   1      44.260  33.133  26.038  1.00  0.00    -0.200 F 
ATOM     72  F   UNL A   1      46.391  34.809  26.282  1.00  0.00    -0.200 F 
ENDBRANCH  48  62
BRANCH  49  73
ATOM     73  C   UNL A   1      39.125  28.439  29.359  1.00  0.00     0.064 A 
ATOM     74  C   UNL A   1      38.224  28.566  30.428  1.00  0.00     0.173 A 
ATOM     75  C   UNL A   1      38.696  28.942  28.115  1.00  0.00     0.173 A 
ATOM     76  F   UNL A   1      38.567  28.146  31.654  1.00  0.00    -0.203 F 
ATOM     77  C   UNL A   1      36.984  29.193  30.272  1.00  0.00     0.198 A 
ATOM     78  C   UNL A   1      37.453  29.557  27.957  1.00  0.00     0.198 A 
ATOM     79  F   UNL A   1      39.510  28.937  27.051  1.00  0.00    -0.203 F 
ATOM     80  F   UNL A   1      36.182  29.360  31.333  1.00  0.00    -0.200 F 
ATOM     81  C   UNL A   1      36.605  29.698  29.040  1.00  0.00     0.200 A 
ATOM     82  F   UNL A   1      37.112  30.069  26.766  1.00  0.00    -0.200 F 
ATOM     83  F   UNL A   1      35.446  30.357  28.903  1.00  0.00    -0.200 F 
ENDBRANCH  49  73
BRANCH  61  84
ATOM     84  C   UNL A   1      44.452  27.847  32.694  1.00  0.00     0.064 A 
ATOM     85  C   UNL A   1      44.270  26.463  32.547  1.00  0.00     0.173 A 
ATOM     86  C   UNL A   1      44.605  28.350  33.992  1.00  0.00     0.173 A 
ATOM     87  F   UNL A   1      44.199  25.899  31.334  1.00  0.00    -0.203 F 
ATOM     88  C   UNL A   1      44.194  25.628  33.662  1.00  0.00     0.198 A 
ATOM     89  C   UNL A   1      44.570  27.510  35.100  1.00  0.00     0.198 A 
ATOM     90  F   UNL A   1      44.824  29.660  34.185  1.00  0.00    -0.203 F 
ATOM     91  F   UNL A   1      43.989  24.313  33.503  1.00  0.00    -0.200 F 
ATOM     92  C   UNL A   1      44.349  26.153  34.935  1.00  0.00     0.200 A 
ATOM     93  F   UNL A   1      44.765  28.017  36.325  1.00  0.00    -0.200 F 
ATOM     94  F   UNL A   1      44.307  25.346  36.005  1.00  0.00    -0.200 F 
ENDBRANCH  61  84
ENDBRANCH  35  36
ENDBRANCH  28  30
ENDBRANCH  27  28
ENDBRANCH  26  27
ENDBRANCH   1  26
TORSDOF 15
ENDMDL
MODEL 3
REMARK VINA RESULT:     -12.2      4.372      9.651
REMARK SMILES CC1=C[C@@H]([C@@H]2N=N[C@H](S)N2/N=C/c2ccc(C(=O)OCCOC(=O)c3ccc(-c4c5nc(c(-c6c(F)c(F)c(F)c(F)c6F)c6ccc([nH]6)c(-c6c(F)c(F)c(F)c(F)c6F)c6nc(c(-c7c(F)c(F)c(F)c(F)c7F)c7ccc4[nH]7)C=C6)C=C5)cc3)cc2)N=N1
REMARK SMILES IDX 20 1 19 2 17 3 18 4 16 5 13 6 14 7 89 8 15 9 88 10 12 11
REMARK SMILES IDX 11 12 10 13 5 14 6 15 7 16 8 17 4 18 1 19 2 20 3 21 91 22
REMARK SMILES IDX 90 23 9 24 21 26 22 27 23 28 24 29 25 30 26 31 87 32 27 33
REMARK SMILES IDX 86 34 28 35 29 36 30 37 80 38 31 39 85 40 79 41 81 42 32 43
REMARK SMILES IDX 84 44 78 45 77 46 33 48 65 49 45 50 64 51 46 52 49 53 63 54
REMARK SMILES IDX 82 55 47 56 48 57 62 59 83 60 50 61 34 62 35 63 43 64 36 65
REMARK SMILES IDX 37 66 41 67 44 68 38 69 39 70 42 71 40 72 66 73 67 74 75 75
REMARK SMILES IDX 68 76 69 77 73 78 76 79 70 80 71 81 74 82 72 83 51 84 52 85
REMARK SMILES IDX 60 86 53 87 54 88 58 89 61 90 55 91 56 92 59 93 57 94
REMARK H PARENT 9 25 81 47 49 58
REMARK Flexibility Score: inf
ROOT
ATOM      1  C   UNL A   1      33.630  34.805  28.543  1.00  0.00     0.275 C 
ENDROOT
BRANCH   1   2
ATOM      2  O   UNL A   1      33.635  33.378  28.709  1.00  0.00    -0.458 OA
BRANCH   2   3
ATOM      3  C   UNL A   1      34.522  32.697  27.941  1.00  0.00     0.338 C 
ATOM      4  O   UNL A   1      35.645  33.068  27.628  1.00  0.00    -0.246 OA
BRANCH   3   5
ATOM      5  C   UNL A   1      33.989  31.352  27.611  1.00  0.00     0.060 A 
ATOM      6  C   UNL A   1      32.913  28.876  26.938  1.00  0.00    -0.005 A 
ATOM      7  C   UNL A   1      32.100  30.012  26.897  1.00  0.00     0.010 A 
ATOM      8  C   UNL A   1      34.253  28.958  27.307  1.00  0.00     0.010 A 
ATOM      9  C   UNL A   1      32.636  31.250  27.250  1.00  0.00     0.016 A 
ATOM     10  C   UNL A   1      34.797  30.205  27.627  1.00  0.00     0.016 A 
BRANCH   6  11
ATOM     11  C   UNL A   1      32.331  27.591  26.528  1.00  0.00     0.141 C 
ATOM     12  N   UNL A   1      32.943  26.793  25.713  1.00  0.00    -0.180 NA
BRANCH  12  13
ATOM     13  N   UNL A   1      32.359  25.559  25.474  1.00  0.00    -0.233 NA
ATOM     14  C   UNL A   1      32.656  24.527  26.505  1.00  0.00     0.274 C 
ATOM     15  N   UNL A   1      31.375  24.186  27.188  1.00  0.00    -0.161 NA
ATOM     16  N   UNL A   1      30.406  24.544  26.484  1.00  0.00    -0.153 NA
ATOM     17  C   UNL A   1      30.884  25.415  25.394  1.00  0.00     0.298 C 
BRANCH  14  18
ATOM     18  C   UNL A   1      33.305  23.199  25.973  1.00  0.00     0.201 C 
ATOM     19  C   UNL A   1      36.965  23.519  25.773  1.00  0.00     0.068 C 
ATOM     20  C   UNL A   1      35.514  23.262  25.589  1.00  0.00     0.058 C 
ATOM     21  C   UNL A   1      34.653  22.902  26.540  1.00  0.00     0.031 C 
ATOM     22  N   UNL A   1      34.896  23.515  24.392  1.00  0.00    -0.160 NA
ATOM     23  N   UNL A   1      33.642  23.403  24.523  1.00  0.00    -0.177 NA
ENDBRANCH  14  18
BRANCH  17  24
ATOM     24  S   UNL A   1      30.388  24.960  23.694  1.00  0.00    -0.128 SA
ATOM     25  H   UNL A   1      31.160  25.635  22.801  1.00  0.00     0.106 HD
ENDBRANCH  17  24
ENDBRANCH  12  13
ENDBRANCH   6  11
ENDBRANCH   3   5
ENDBRANCH   2   3
ENDBRANCH   1   2
BRANCH   1  26
ATOM     26  C   UNL A   1      33.381  35.511  29.865  1.00  0.00     0.275 C 
BRANCH  26  27
ATOM     27  O   UNL A   1      33.073  34.591  30.912  1.00  0.00    -0.458 OA
BRANCH  27  28
ATOM     28  C   UNL A   1      33.608  34.896  32.114  1.00  0.00     0.338 C 
ATOM     29  O   UNL A   1      33.295  35.804  32.865  1.00  0.00    -0.246 OA
BRANCH  28  30
ATOM     30  C   UNL A   1      34.836  34.116  32.289  1.00  0.00     0.060 A 
ATOM     31  C   UNL A   1      36.027  34.808  32.533  1.00  0.00     0.016 A 
ATOM     32  C   UNL A   1      34.828  32.753  31.957  1.00  0.00     0.016 A 
ATOM     33  C   UNL A   1      37.226  34.150  32.341  1.00  0.00     0.010 A 
ATOM     34  C   UNL A   1      36.021  32.105  31.749  1.00  0.00     0.010 A 
ATOM     35  C   UNL A   1      37.207  32.823  31.897  1.00  0.00    -0.014 A 
BRANCH  35  36
ATOM     36  C   UNL A   1      38.468  32.126  31.737  1.00  0.00     0.031 A 
ATOM     37  C   UNL A   1      39.177  31.924  33.023  1.00  0.00     0.074 A 
ATOM     38  C   UNL A   1      38.829  31.558  30.569  1.00  0.00     0.049 A 
ATOM     39  N   UNL A   1      40.352  32.340  33.354  1.00  0.00    -0.248 NA
ATOM     40  C   UNL A   1      38.431  31.297  34.131  1.00  0.00     0.031 C 
ATOM     41  C   UNL A   1      38.002  31.448  29.363  1.00  0.00     0.029 A 
ATOM     42  N   UNL A   1      39.946  30.843  30.246  1.00  0.00    -0.354 N 
ATOM     43  C   UNL A   1      40.578  31.829  34.629  1.00  0.00     0.074 A 
ATOM     44  C   UNL A   1      39.310  31.376  35.128  1.00  0.00     0.031 C 
ATOM     45  C   UNL A   1      38.538  30.519  28.541  1.00  0.00     0.029 A 
ATOM     46  C   UNL A   1      39.801  30.070  29.101  1.00  0.00     0.049 A 
ATOM     47  H   UNL A   1      40.776  30.872  30.774  1.00  0.00     0.167 HD
ATOM     48  C   UNL A   1      41.840  31.506  35.015  1.00  0.00     0.037 A 
ATOM     49  C   UNL A   1      40.624  29.079  28.680  1.00  0.00     0.037 A 
ATOM     50  C   UNL A   1      42.815  32.137  34.167  1.00  0.00     0.049 A 
ATOM     51  C   UNL A   1      41.938  29.262  29.339  1.00  0.00     0.074 A 
ATOM     52  C   UNL A   1      43.339  33.399  34.006  1.00  0.00     0.029 A 
ATOM     53  N   UNL A   1      43.103  31.424  33.037  1.00  0.00    -0.354 N 
ATOM     54  N   UNL A   1      42.739  30.261  29.093  1.00  0.00    -0.248 NA
ATOM     55  C   UNL A   1      42.254  28.491  30.538  1.00  0.00     0.031 C 
ATOM     56  C   UNL A   1      43.846  33.454  32.672  1.00  0.00     0.029 A 
ATOM     57  C   UNL A   1      43.639  32.219  32.062  1.00  0.00     0.049 A 
ATOM     58  H   UNL A   1      42.946  30.457  32.938  1.00  0.00     0.167 HD
ATOM     59  C   UNL A   1      43.361  30.502  30.301  1.00  0.00     0.074 A 
ATOM     60  C   UNL A   1      43.181  29.285  31.080  1.00  0.00     0.031 C 
ATOM     61  C   UNL A   1      43.653  31.776  30.688  1.00  0.00     0.037 A 
BRANCH  48  62
ATOM     62  C   UNL A   1      42.188  30.235  35.765  1.00  0.00     0.064 A 
ATOM     63  C   UNL A   1      43.200  30.287  36.746  1.00  0.00     0.173 A 
ATOM     64  C   UNL A   1      41.831  28.938  35.332  1.00  0.00     0.173 A 
ATOM     65  F   UNL A   1      43.640  31.467  37.209  1.00  0.00    -0.203 F 
ATOM     66  C   UNL A   1      43.849  29.135  37.200  1.00  0.00     0.198 A 
ATOM     67  C   UNL A   1      42.443  27.788  35.827  1.00  0.00     0.198 A 
ATOM     68  F   UNL A   1      40.969  28.728  34.331  1.00  0.00    -0.203 F 
ATOM     69  F   UNL A   1      44.890  29.243  38.036  1.00  0.00    -0.200 F 
ATOM     70  C   UNL A   1      43.473  27.887  36.737  1.00  0.00     0.200 A 
ATOM     71  F   UNL A   1      42.083  26.592  35.343  1.00  0.00    -0.200 F 
ATOM     72  F   UNL A   1      44.133  26.788  37.122  1.00  0.00    -0.200 F 
ENDBRANCH  48  62
BRANCH  49  73
ATOM     73  C   UNL A   1      40.288  27.850  27.921  1.00  0.00     0.064 A 
ATOM     74  C   UNL A   1      40.929  27.554  26.707  1.00  0.00     0.173 A 
ATOM     75  C   UNL A   1      39.535  26.811  28.501  1.00  0.00     0.173 A 
ATOM     76  F   UNL A   1      41.696  28.475  26.106  1.00  0.00    -0.203 F 
ATOM     77  C   UNL A   1      40.851  26.284  26.127  1.00  0.00     0.198 A 
ATOM     78  C   UNL A   1      39.448  25.547  27.915  1.00  0.00     0.198 A 
ATOM     79  F   UNL A   1      38.947  26.968  29.694  1.00  0.00    -0.203 F 
ATOM     80  F   UNL A   1      41.537  26.019  25.006  1.00  0.00    -0.200 F 
ATOM     81  C   UNL A   1      40.121  25.278  26.738  1.00  0.00     0.200 A 
ATOM     82  F   UNL A   1      38.763  24.574  28.533  1.00  0.00    -0.200 F 
ATOM     83  F   UNL A   1      40.100  24.043  26.218  1.00  0.00    -0.200 F 
ENDBRANCH  49  73
BRANCH  61  84
ATOM     84  C   UNL A   1      43.828  32.796  29.609  1.00  0.00     0.064 A 
ATOM     85  C   UNL A   1      44.970  32.910  28.800  1.00  0.00     0.173 A 
ATOM     86  C   UNL A   1      42.759  33.664  29.352  1.00  0.00     0.173 A 
ATOM     87  F   UNL A   1      45.998  32.062  28.931  1.00  0.00    -0.203 F 
ATOM     88  C   UNL A   1      45.052  33.889  27.811  1.00  0.00     0.198 A 
ATOM     89  C   UNL A   1      42.827  34.613  28.338  1.00  0.00     0.198 A 
ATOM     90  F   UNL A   1      41.628  33.569  30.069  1.00  0.00    -0.203 F 
ATOM     91  F   UNL A   1      46.163  34.002  27.068  1.00  0.00    -0.200 F 
ATOM     92  C   UNL A   1      43.978  34.735  27.578  1.00  0.00     0.200 A 
ATOM     93  F   UNL A   1      41.770  35.398  28.091  1.00  0.00    -0.200 F 
ATOM     94  F   UNL A   1      44.045  35.657  26.606  1.00  0.00    -0.200 F 
ENDBRANCH  61  84
ENDBRANCH  35  36
ENDBRANCH  28  30
ENDBRANCH  27  28
ENDBRANCH  26  27
ENDBRANCH   1  26
TORSDOF 15
ENDMDL
