MODEL 1
REMARK VINA RESULT:     -12.0      0.000      0.000
REMARK SMILES O=C(OCCOC(=O)c1cc(Cl)nc(I)c1C(F)(F)F)c1ccc(-c2c3nc(c(-c4c(F)c(F)c(F)c(F)c4F)c4ccc([nH]4)c(-c4c(F)c(F)c(F)c(F)c4F)c4nc(c(-c5c(F)c(F)c(F)c(F)c5F)c5ccc2[nH]5)C=C4)C=C3)cc1
REMARK SMILES IDX 4 1 3 2 2 3 1 4 21 5 22 6 83 7 23 8 82 9 24 10 25 11 26 12
REMARK SMILES IDX 76 13 27 14 81 15 75 16 77 17 28 18 80 19 74 20 73 21 29 23
REMARK SMILES IDX 61 24 41 25 60 26 42 27 45 28 59 29 78 30 43 31 44 32 58 34
REMARK SMILES IDX 79 35 46 36 30 37 31 38 39 39 32 40 33 41 37 42 40 43 34 44
REMARK SMILES IDX 35 45 38 46 36 47 62 48 63 49 71 50 64 51 65 52 69 53 72 54
REMARK SMILES IDX 66 55 67 56 70 57 68 58 47 59 48 60 56 61 49 62 50 63 54 64
REMARK SMILES IDX 57 65 51 66 52 67 55 68 53 69 5 70 6 71 7 72 8 73 9 74 10 75
REMARK SMILES IDX 16 76 11 77 14 78 12 79 13 80 15 81 17 82 18 83 19 84 20 85
REMARK H PARENT 77 22 45 33
REMARK Flexibility Score: inf
ROOT
ATOM      1  C   UNL A   1      32.162  29.967  26.461  1.00  0.00     0.275 C 
ENDROOT
BRANCH   1   2
ATOM      2  O   UNL A   1      32.558  31.346  26.600  1.00  0.00    -0.458 OA
BRANCH   2   3
ATOM      3  C   UNL A   1      33.393  31.945  27.479  1.00  0.00     0.338 C 
ATOM      4  O   UNL A   1      33.090  33.066  27.888  1.00  0.00    -0.246 OA
BRANCH   3   5
ATOM      5  C   UNL A   1      34.726  31.406  27.915  1.00  0.00     0.060 A 
ATOM      6  C   UNL A   1      35.022  30.080  28.233  1.00  0.00     0.016 A 
ATOM      7  C   UNL A   1      35.778  32.346  28.012  1.00  0.00     0.016 A 
ATOM      8  C   UNL A   1      36.313  29.694  28.602  1.00  0.00     0.010 A 
ATOM      9  C   UNL A   1      37.068  31.973  28.406  1.00  0.00     0.010 A 
ATOM     10  C   UNL A   1      37.332  30.642  28.723  1.00  0.00    -0.014 A 
BRANCH  10  11
ATOM     11  C   UNL A   1      38.578  30.222  29.398  1.00  0.00     0.031 A 
ATOM     12  C   UNL A   1      38.792  30.688  30.804  1.00  0.00     0.074 A 
ATOM     13  C   UNL A   1      39.432  29.361  28.824  1.00  0.00     0.049 A 
ATOM     14  N   UNL A   1      39.657  30.275  31.689  1.00  0.00    -0.248 NA
ATOM     15  C   UNL A   1      37.894  31.754  31.281  1.00  0.00     0.031 C 
ATOM     16  C   UNL A   1      39.324  28.873  27.456  1.00  0.00     0.029 A 
ATOM     17  N   UNL A   1      40.540  28.725  29.322  1.00  0.00    -0.354 N 
ATOM     18  C   UNL A   1      39.390  31.007  32.834  1.00  0.00     0.074 A 
ATOM     19  C   UNL A   1      38.300  31.907  32.531  1.00  0.00     0.031 C 
ATOM     20  C   UNL A   1      40.304  27.980  27.233  1.00  0.00     0.029 A 
ATOM     21  C   UNL A   1      41.107  27.836  28.440  1.00  0.00     0.049 A 
ATOM     22  H   UNL A   1      40.895  28.889  30.226  1.00  0.00     0.167 HD
ATOM     23  C   UNL A   1      40.007  30.932  34.034  1.00  0.00     0.037 A 
ATOM     24  C   UNL A   1      42.146  26.993  28.598  1.00  0.00     0.037 A 
ATOM     25  C   UNL A   1      41.131  30.082  34.302  1.00  0.00     0.049 A 
ATOM     26  C   UNL A   1      42.846  26.964  29.930  1.00  0.00     0.074 A 
ATOM     27  C   UNL A   1      41.855  29.952  35.471  1.00  0.00     0.029 A 
ATOM     28  N   UNL A   1      41.714  29.236  33.368  1.00  0.00    -0.354 N 
ATOM     29  N   UNL A   1      42.541  27.602  31.035  1.00  0.00    -0.248 NA
ATOM     30  C   UNL A   1      44.039  26.112  30.038  1.00  0.00     0.031 C 
ATOM     31  C   UNL A   1      42.908  29.064  35.231  1.00  0.00     0.029 A 
ATOM     32  C   UNL A   1      42.815  28.610  33.923  1.00  0.00     0.049 A 
ATOM     33  H   UNL A   1      41.391  29.101  32.448  1.00  0.00     0.167 HD
ATOM     34  C   UNL A   1      43.510  27.246  31.961  1.00  0.00     0.074 A 
ATOM     35  C   UNL A   1      44.386  26.297  31.305  1.00  0.00     0.031 C 
ATOM     36  C   UNL A   1      43.676  27.683  33.233  1.00  0.00     0.037 A 
BRANCH  23  37
ATOM     37  C   UNL A   1      39.496  31.828  35.114  1.00  0.00     0.064 A 
ATOM     38  C   UNL A   1      39.927  33.159  35.221  1.00  0.00     0.173 A 
ATOM     39  C   UNL A   1      38.580  31.350  36.060  1.00  0.00     0.173 A 
ATOM     40  F   UNL A   1      40.826  33.649  34.356  1.00  0.00    -0.203 F 
ATOM     41  C   UNL A   1      39.466  33.976  36.250  1.00  0.00     0.198 A 
ATOM     42  C   UNL A   1      38.108  32.175  37.076  1.00  0.00     0.198 A 
ATOM     43  F   UNL A   1      38.153  30.079  36.004  1.00  0.00    -0.203 F 
ATOM     44  F   UNL A   1      39.920  35.233  36.359  1.00  0.00    -0.200 F 
ATOM     45  C   UNL A   1      38.554  33.485  37.173  1.00  0.00     0.200 A 
ATOM     46  F   UNL A   1      37.230  31.700  37.970  1.00  0.00    -0.200 F 
ATOM     47  F   UNL A   1      38.115  34.272  38.165  1.00  0.00    -0.200 F 
ENDBRANCH  23  37
BRANCH  24  48
ATOM     48  C   UNL A   1      42.575  26.105  27.483  1.00  0.00     0.064 A 
ATOM     49  C   UNL A   1      41.982  24.848  27.290  1.00  0.00     0.173 A 
ATOM     50  C   UNL A   1      43.588  26.486  26.588  1.00  0.00     0.173 A 
ATOM     51  F   UNL A   1      41.026  24.424  28.130  1.00  0.00    -0.203 F 
ATOM     52  C   UNL A   1      42.393  24.005  26.258  1.00  0.00     0.198 A 
ATOM     53  C   UNL A   1      43.979  25.654  25.541  1.00  0.00     0.198 A 
ATOM     54  F   UNL A   1      44.194  27.674  26.728  1.00  0.00    -0.203 F 
ATOM     55  F   UNL A   1      41.838  22.793  26.124  1.00  0.00    -0.200 F 
ATOM     56  C   UNL A   1      43.387  24.411  25.380  1.00  0.00     0.200 A 
ATOM     57  F   UNL A   1      44.934  26.054  24.690  1.00  0.00    -0.200 F 
ATOM     58  F   UNL A   1      43.779  23.602  24.387  1.00  0.00    -0.200 F 
ENDBRANCH  24  48
BRANCH  36  59
ATOM     59  C   UNL A   1      44.874  27.185  33.981  1.00  0.00     0.064 A 
ATOM     60  C   UNL A   1      46.068  27.919  33.992  1.00  0.00     0.173 A 
ATOM     61  C   UNL A   1      44.795  26.033  34.776  1.00  0.00     0.173 A 
ATOM     62  F   UNL A   1      46.190  29.021  33.236  1.00  0.00    -0.203 F 
ATOM     63  C   UNL A   1      47.144  27.518  34.776  1.00  0.00     0.198 A 
ATOM     64  C   UNL A   1      45.865  25.648  35.578  1.00  0.00     0.198 A 
ATOM     65  F   UNL A   1      43.669  25.305  34.803  1.00  0.00    -0.203 F 
ATOM     66  F   UNL A   1      48.282  28.224  34.760  1.00  0.00    -0.200 F 
ATOM     67  C   UNL A   1      47.038  26.390  35.577  1.00  0.00     0.200 A 
ATOM     68  F   UNL A   1      45.756  24.569  36.365  1.00  0.00    -0.200 F 
ATOM     69  F   UNL A   1      48.066  26.020  36.353  1.00  0.00    -0.200 F 
ENDBRANCH  36  59
ENDBRANCH  10  11
ENDBRANCH   3   5
ENDBRANCH   2   3
ENDBRANCH   1   2
BRANCH   1  70
ATOM     70  C   UNL A   1      31.435  29.702  25.145  1.00  0.00     0.275 C 
BRANCH  70  71
ATOM     71  O   UNL A   1      32.144  28.736  24.347  1.00  0.00    -0.458 OA
BRANCH  71  72
ATOM     72  C   UNL A   1      31.685  27.473  24.413  1.00  0.00     0.339 C 
ATOM     73  O   UNL A   1      30.693  27.059  24.996  1.00  0.00    -0.246 OA
BRANCH  72  74
ATOM     74  C   UNL A   1      32.502  26.587  23.576  1.00  0.00     0.078 A 
ATOM     75  C   UNL A   1      32.156  26.559  22.222  1.00  0.00     0.057 A 
ATOM     76  C   UNL A   1      33.448  25.699  24.110  1.00  0.00     0.102 A 
ATOM     77  C   UNL A   1      32.785  25.631  21.434  1.00  0.00     0.131 A 
ATOM     78  C   UNL A   1      33.910  24.720  23.236  1.00  0.00     0.116 A 
ATOM     79  Cl  UNL A   1      32.529  25.575  19.743  1.00  0.00    -0.062 Cl
ATOM     80  N   UNL A   1      33.628  24.703  21.910  1.00  0.00    -0.229 NA
ATOM     81  I   UNL A   1      35.013  23.032  23.886  1.00  0.00    -0.021 I 
BRANCH  76  82
ATOM     82  C   UNL A   1      33.952  25.783  25.515  1.00  0.00     0.419 C 
ATOM     83  F   UNL A   1      34.104  27.060  25.954  1.00  0.00    -0.166 F 
ATOM     84  F   UNL A   1      33.102  25.174  26.392  1.00  0.00    -0.166 F 
ATOM     85  F   UNL A   1      35.151  25.184  25.740  1.00  0.00    -0.166 F 
ENDBRANCH  76  82
ENDBRANCH  72  74
ENDBRANCH  71  72
ENDBRANCH  70  71
ENDBRANCH   1  70
TORSDOF 12
ENDMDL
MODEL 2
REMARK VINA RESULT:     -11.9      4.654      9.628
REMARK SMILES O=C(OCCOC(=O)c1cc(Cl)nc(I)c1C(F)(F)F)c1ccc(-c2c3nc(c(-c4c(F)c(F)c(F)c(F)c4F)c4ccc([nH]4)c(-c4c(F)c(F)c(F)c(F)c4F)c4nc(c(-c5c(F)c(F)c(F)c(F)c5F)c5ccc2[nH]5)C=C4)C=C3)cc1
REMARK SMILES IDX 4 1 3 2 2 3 1 4 21 5 22 6 83 7 23 8 82 9 24 10 25 11 26 12
REMARK SMILES IDX 76 13 27 14 81 15 75 16 77 17 28 18 80 19 74 20 73 21 29 23
REMARK SMILES IDX 61 24 41 25 60 26 42 27 45 28 59 29 78 30 43 31 44 32 58 34
REMARK SMILES IDX 79 35 46 36 30 37 31 38 39 39 32 40 33 41 37 42 40 43 34 44
REMARK SMILES IDX 35 45 38 46 36 47 62 48 63 49 71 50 64 51 65 52 69 53 72 54
REMARK SMILES IDX 66 55 67 56 70 57 68 58 47 59 48 60 56 61 49 62 50 63 54 64
REMARK SMILES IDX 57 65 51 66 52 67 55 68 53 69 5 70 6 71 7 72 8 73 9 74 10 75
REMARK SMILES IDX 16 76 11 77 14 78 12 79 13 80 15 81 17 82 18 83 19 84 20 85
REMARK H PARENT 77 22 45 33
REMARK Flexibility Score: inf
ROOT
ATOM      1  C   UNL A   1      36.569  21.452  25.770  1.00  0.00     0.275 C 
ENDROOT
BRANCH   1   2
ATOM      2  O   UNL A   1      37.924  21.216  25.338  1.00  0.00    -0.458 OA
BRANCH   2   3
ATOM      3  C   UNL A   1      39.104  21.440  25.957  1.00  0.00     0.338 C 
ATOM      4  O   UNL A   1      39.857  20.481  26.127  1.00  0.00    -0.246 OA
BRANCH   3   5
ATOM      5  C   UNL A   1      39.531  22.747  26.564  1.00  0.00     0.060 A 
ATOM      6  C   UNL A   1      39.050  24.014  26.231  1.00  0.00     0.016 A 
ATOM      7  C   UNL A   1      40.522  22.674  27.569  1.00  0.00     0.016 A 
ATOM      8  C   UNL A   1      39.508  25.159  26.888  1.00  0.00     0.010 A 
ATOM      9  C   UNL A   1      41.007  23.818  28.215  1.00  0.00     0.010 A 
ATOM     10  C   UNL A   1      40.511  25.071  27.857  1.00  0.00    -0.014 A 
BRANCH  10  11
ATOM     11  C   UNL A   1      41.154  26.329  28.290  1.00  0.00     0.031 A 
ATOM     12  C   UNL A   1      42.562  26.572  27.847  1.00  0.00     0.074 A 
ATOM     13  C   UNL A   1      40.471  27.274  28.954  1.00  0.00     0.049 A 
ATOM     14  N   UNL A   1      43.260  27.674  27.878  1.00  0.00    -0.248 NA
ATOM     15  C   UNL A   1      43.274  25.416  27.274  1.00  0.00     0.031 C 
ATOM     16  C   UNL A   1      39.110  27.121  29.450  1.00  0.00     0.029 A 
ATOM     17  N   UNL A   1      40.815  28.555  29.303  1.00  0.00    -0.354 N 
ATOM     18  C   UNL A   1      44.479  27.355  27.304  1.00  0.00     0.074 A 
ATOM     19  C   UNL A   1      44.441  25.953  26.953  1.00  0.00     0.031 C 
ATOM     20  C   UNL A   1      38.716  28.279  30.006  1.00  0.00     0.029 A 
ATOM     21  C   UNL A   1      39.796  29.252  29.908  1.00  0.00     0.049 A 
ATOM     22  H   UNL A   1      41.706  28.938  29.137  1.00  0.00     0.167 HD
ATOM     23  C   UNL A   1      45.538  28.166  27.092  1.00  0.00     0.037 A 
ATOM     24  C   UNL A   1      39.740  30.534  30.319  1.00  0.00     0.037 A 
ATOM     25  C   UNL A   1      45.589  29.539  27.505  1.00  0.00     0.049 A 
ATOM     26  C   UNL A   1      40.951  31.403  30.113  1.00  0.00     0.074 A 
ATOM     27  C   UNL A   1      46.624  30.443  27.372  1.00  0.00     0.029 A 
ATOM     28  N   UNL A   1      44.559  30.197  28.164  1.00  0.00    -0.354 N 
ATOM     29  N   UNL A   1      42.075  31.118  29.500  1.00  0.00    -0.248 NA
ATOM     30  C   UNL A   1      40.897  32.764  30.665  1.00  0.00     0.031 C 
ATOM     31  C   UNL A   1      46.241  31.634  27.995  1.00  0.00     0.029 A 
ATOM     32  C   UNL A   1      44.950  31.484  28.481  1.00  0.00     0.049 A 
ATOM     33  H   UNL A   1      43.680  29.805  28.375  1.00  0.00     0.167 HD
ATOM     34  C   UNL A   1      42.867  32.251  29.608  1.00  0.00     0.074 A 
ATOM     35  C   UNL A   1      42.078  33.248  30.302  1.00  0.00     0.031 C 
ATOM     36  C   UNL A   1      44.142  32.445  29.191  1.00  0.00     0.037 A 
BRANCH  23  37
ATOM     37  C   UNL A   1      46.730  27.562  26.425  1.00  0.00     0.064 A 
ATOM     38  C   UNL A   1      47.747  26.946  27.169  1.00  0.00     0.173 A 
ATOM     39  C   UNL A   1      46.866  27.611  25.031  1.00  0.00     0.173 A 
ATOM     40  F   UNL A   1      47.673  26.903  28.507  1.00  0.00    -0.203 F 
ATOM     41  C   UNL A   1      48.868  26.412  26.539  1.00  0.00     0.198 A 
ATOM     42  C   UNL A   1      47.979  27.060  24.403  1.00  0.00     0.198 A 
ATOM     43  F   UNL A   1      45.924  28.204  24.281  1.00  0.00    -0.203 F 
ATOM     44  F   UNL A   1      49.848  25.863  27.270  1.00  0.00    -0.200 F 
ATOM     45  C   UNL A   1      48.980  26.465  25.156  1.00  0.00     0.200 A 
ATOM     46  F   UNL A   1      48.089  27.115  23.069  1.00  0.00    -0.200 F 
ATOM     47  F   UNL A   1      50.061  25.955  24.551  1.00  0.00    -0.200 F 
ENDBRANCH  23  37
BRANCH  24  48
ATOM     48  C   UNL A   1      38.502  31.074  30.945  1.00  0.00     0.064 A 
ATOM     49  C   UNL A   1      37.459  31.587  30.160  1.00  0.00     0.173 A 
ATOM     50  C   UNL A   1      38.333  31.095  32.339  1.00  0.00     0.173 A 
ATOM     51  F   UNL A   1      37.578  31.613  28.825  1.00  0.00    -0.203 F 
ATOM     52  C   UNL A   1      36.305  32.110  30.744  1.00  0.00     0.198 A 
ATOM     53  C   UNL A   1      37.168  31.593  32.920  1.00  0.00     0.198 A 
ATOM     54  F   UNL A   1      39.300  30.621  33.138  1.00  0.00    -0.203 F 
ATOM     55  F   UNL A   1      35.343  32.632  29.970  1.00  0.00    -0.200 F 
ATOM     56  C   UNL A   1      36.157  32.107  32.122  1.00  0.00     0.200 A 
ATOM     57  F   UNL A   1      37.027  31.579  34.252  1.00  0.00    -0.200 F 
ATOM     58  F   UNL A   1      35.048  32.607  32.681  1.00  0.00    -0.200 F 
ENDBRANCH  24  48
BRANCH  36  59
ATOM     59  C   UNL A   1      44.783  33.758  29.520  1.00  0.00     0.064 A 
ATOM     60  C   UNL A   1      45.550  33.909  30.684  1.00  0.00     0.173 A 
ATOM     61  C   UNL A   1      44.723  34.831  28.620  1.00  0.00     0.173 A 
ATOM     62  F   UNL A   1      45.623  32.910  31.578  1.00  0.00    -0.203 F 
ATOM     63  C   UNL A   1      46.237  35.090  30.936  1.00  0.00     0.198 A 
ATOM     64  C   UNL A   1      45.433  36.003  28.864  1.00  0.00     0.198 A 
ATOM     65  F   UNL A   1      44.009  34.727  27.490  1.00  0.00    -0.203 F 
ATOM     66  F   UNL A   1      46.951  35.221  32.061  1.00  0.00    -0.200 F 
ATOM     67  C   UNL A   1      46.188  36.131  30.020  1.00  0.00     0.200 A 
ATOM     68  F   UNL A   1      45.398  37.002  27.971  1.00  0.00    -0.200 F 
ATOM     69  F   UNL A   1      46.874  37.260  30.251  1.00  0.00    -0.200 F 
ENDBRANCH  36  59
ENDBRANCH  10  11
ENDBRANCH   3   5
ENDBRANCH   2   3
ENDBRANCH   1   2
BRANCH   1  70
ATOM     70  C   UNL A   1      35.569  21.366  24.619  1.00  0.00     0.275 C 
BRANCH  70  71
ATOM     71  O   UNL A   1      34.223  21.566  25.087  1.00  0.00    -0.458 OA
BRANCH  71  72
ATOM     72  C   UNL A   1      33.507  22.494  24.427  1.00  0.00     0.339 C 
ATOM     73  O   UNL A   1      33.447  22.687  23.221  1.00  0.00    -0.246 OA
BRANCH  72  74
ATOM     74  C   UNL A   1      32.666  23.253  25.362  1.00  0.00     0.078 A 
ATOM     75  C   UNL A   1      31.522  22.587  25.809  1.00  0.00     0.057 A 
ATOM     76  C   UNL A   1      32.892  24.605  25.658  1.00  0.00     0.102 A 
ATOM     77  C   UNL A   1      30.629  23.311  26.555  1.00  0.00     0.131 A 
ATOM     78  C   UNL A   1      31.847  25.259  26.304  1.00  0.00     0.116 A 
ATOM     79  Cl  UNL A   1      29.248  22.578  27.252  1.00  0.00    -0.062 Cl
ATOM     80  N   UNL A   1      30.751  24.626  26.790  1.00  0.00    -0.229 NA
ATOM     81  I   UNL A   1      31.759  27.367  26.497  1.00  0.00    -0.021 I 
BRANCH  76  82
ATOM     82  C   UNL A   1      34.163  25.319  25.323  1.00  0.00     0.419 C 
ATOM     83  F   UNL A   1      35.270  24.549  25.492  1.00  0.00    -0.166 F 
ATOM     84  F   UNL A   1      34.180  25.735  24.023  1.00  0.00    -0.166 F 
ATOM     85  F   UNL A   1      34.402  26.449  26.040  1.00  0.00    -0.166 F 
ENDBRANCH  76  82
ENDBRANCH  72  74
ENDBRANCH  71  72
ENDBRANCH  70  71
ENDBRANCH   1  70
TORSDOF 12
ENDMDL
MODEL 3
REMARK VINA RESULT:     -11.9      0.312      1.281
REMARK SMILES O=C(OCCOC(=O)c1cc(Cl)nc(I)c1C(F)(F)F)c1ccc(-c2c3nc(c(-c4c(F)c(F)c(F)c(F)c4F)c4ccc([nH]4)c(-c4c(F)c(F)c(F)c(F)c4F)c4nc(c(-c5c(F)c(F)c(F)c(F)c5F)c5ccc2[nH]5)C=C4)C=C3)cc1
REMARK SMILES IDX 4 1 3 2 2 3 1 4 21 5 22 6 83 7 23 8 82 9 24 10 25 11 26 12
REMARK SMILES IDX 76 13 27 14 81 15 75 16 77 17 28 18 80 19 74 20 73 21 29 23
REMARK SMILES IDX 61 24 41 25 60 26 42 27 45 28 59 29 78 30 43 31 44 32 58 34
REMARK SMILES IDX 79 35 46 36 30 37 31 38 39 39 32 40 33 41 37 42 40 43 34 44
REMARK SMILES IDX 35 45 38 46 36 47 62 48 63 49 71 50 64 51 65 52 69 53 72 54
REMARK SMILES IDX 66 55 67 56 70 57 68 58 47 59 48 60 56 61 49 62 50 63 54 64
REMARK SMILES IDX 57 65 51 66 52 67 55 68 53 69 5 70 6 71 7 72 8 73 9 74 10 75
REMARK SMILES IDX 16 76 11 77 14 78 12 79 13 80 15 81 17 82 18 83 19 84 20 85
REMARK H PARENT 77 22 45 33
REMARK Flexibility Score: inf
ROOT
ATOM      1  C   UNL A   1      32.704  30.078  25.709  1.00  0.00     0.275 C 
ENDROOT
BRANCH   1   2
ATOM      2  O   UNL A   1      32.567  30.939  26.857  1.00  0.00    -0.458 OA
BRANCH   2   3
ATOM      3  C   UNL A   1      33.481  31.673  27.529  1.00  0.00     0.338 C 
ATOM      4  O   UNL A   1      33.230  32.863  27.727  1.00  0.00    -0.246 OA
BRANCH   3   5
ATOM      5  C   UNL A   1      34.837  31.190  27.959  1.00  0.00     0.060 A 
ATOM      6  C   UNL A   1      35.190  29.875  28.269  1.00  0.00     0.016 A 
ATOM      7  C   UNL A   1      35.847  32.173  28.059  1.00  0.00     0.016 A 
ATOM      8  C   UNL A   1      36.498  29.543  28.633  1.00  0.00     0.010 A 
ATOM      9  C   UNL A   1      37.154  31.854  28.449  1.00  0.00     0.010 A 
ATOM     10  C   UNL A   1      37.475  30.533  28.757  1.00  0.00    -0.014 A 
BRANCH  10  11
ATOM     11  C   UNL A   1      38.740  30.164  29.427  1.00  0.00     0.031 A 
ATOM     12  C   UNL A   1      38.955  30.666  30.820  1.00  0.00     0.074 A 
ATOM     13  C   UNL A   1      39.612  29.315  28.861  1.00  0.00     0.049 A 
ATOM     14  N   UNL A   1      39.841  30.296  31.704  1.00  0.00    -0.248 NA
ATOM     15  C   UNL A   1      38.032  31.716  31.284  1.00  0.00     0.031 C 
ATOM     16  C   UNL A   1      39.504  28.795  27.505  1.00  0.00     0.029 A 
ATOM     17  N   UNL A   1      40.743  28.721  29.361  1.00  0.00    -0.354 N 
ATOM     18  C   UNL A   1      39.566  31.045  32.836  1.00  0.00     0.074 A 
ATOM     19  C   UNL A   1      38.447  31.906  32.527  1.00  0.00     0.031 C 
ATOM     20  C   UNL A   1      40.506  27.926  27.290  1.00  0.00     0.029 A 
ATOM     21  C   UNL A   1      41.325  27.831  28.491  1.00  0.00     0.049 A 
ATOM     22  H   UNL A   1      41.102  28.914  30.256  1.00  0.00     0.167 HD
ATOM     23  C   UNL A   1      40.197  31.012  34.030  1.00  0.00     0.037 A 
ATOM     24  C   UNL A   1      42.390  27.021  28.655  1.00  0.00     0.037 A 
ATOM     25  C   UNL A   1      41.348  30.201  34.304  1.00  0.00     0.049 A 
ATOM     26  C   UNL A   1      43.104  27.040  29.980  1.00  0.00     0.074 A 
ATOM     27  C   UNL A   1      42.087  30.117  35.467  1.00  0.00     0.029 A 
ATOM     28  N   UNL A   1      41.944  29.352  33.382  1.00  0.00    -0.354 N 
ATOM     29  N   UNL A   1      42.793  27.693  31.074  1.00  0.00    -0.248 NA
ATOM     30  C   UNL A   1      44.322  26.225  30.093  1.00  0.00     0.031 C 
ATOM     31  C   UNL A   1      43.162  29.254  35.234  1.00  0.00     0.029 A 
ATOM     32  C   UNL A   1      43.068  28.770  33.937  1.00  0.00     0.049 A 
ATOM     33  H   UNL A   1      41.616  29.188  32.468  1.00  0.00     0.167 HD
ATOM     34  C   UNL A   1      43.782  27.384  31.997  1.00  0.00     0.074 A 
ATOM     35  C   UNL A   1      44.678  26.447  31.351  1.00  0.00     0.031 C 
ATOM     36  C   UNL A   1      43.948  27.852  33.257  1.00  0.00     0.037 A 
BRANCH  23  37
ATOM     37  C   UNL A   1      39.672  31.917  35.097  1.00  0.00     0.064 A 
ATOM     38  C   UNL A   1      38.690  31.484  36.000  1.00  0.00     0.173 A 
ATOM     39  C   UNL A   1      40.142  33.232  35.209  1.00  0.00     0.173 A 
ATOM     40  F   UNL A   1      38.189  30.244  35.910  1.00  0.00    -0.203 F 
ATOM     41  C   UNL A   1      38.186  32.345  36.972  1.00  0.00     0.198 A 
ATOM     42  C   UNL A   1      39.650  34.084  36.193  1.00  0.00     0.198 A 
ATOM     43  F   UNL A   1      41.070  33.692  34.356  1.00  0.00    -0.203 F 
ATOM     44  F   UNL A   1      37.220  31.926  37.801  1.00  0.00    -0.200 F 
ATOM     45  C   UNL A   1      38.671  33.642  37.070  1.00  0.00     0.200 A 
ATOM     46  F   UNL A   1      40.114  35.337  36.285  1.00  0.00    -0.200 F 
ATOM     47  F   UNL A   1      38.182  34.471  38.003  1.00  0.00    -0.200 F 
ENDBRANCH  23  37
BRANCH  24  48
ATOM     48  C   UNL A   1      42.833  26.121  27.554  1.00  0.00     0.064 A 
ATOM     49  C   UNL A   1      42.279  24.842  27.399  1.00  0.00     0.173 A 
ATOM     50  C   UNL A   1      43.819  26.514  26.636  1.00  0.00     0.173 A 
ATOM     51  F   UNL A   1      41.350  24.406  28.262  1.00  0.00    -0.203 F 
ATOM     52  C   UNL A   1      42.703  23.989  26.380  1.00  0.00     0.198 A 
ATOM     53  C   UNL A   1      44.223  25.672  25.602  1.00  0.00     0.198 A 
ATOM     54  F   UNL A   1      44.387  27.725  26.740  1.00  0.00    -0.203 F 
ATOM     55  F   UNL A   1      42.186  22.756  26.282  1.00  0.00    -0.200 F 
ATOM     56  C   UNL A   1      43.670  24.407  25.479  1.00  0.00     0.200 A 
ATOM     57  F   UNL A   1      45.152  26.084  24.728  1.00  0.00    -0.200 F 
ATOM     58  F   UNL A   1      44.075  23.588  24.499  1.00  0.00    -0.200 F 
ENDBRANCH  24  48
BRANCH  36  59
ATOM     59  C   UNL A   1      45.168  27.405  34.003  1.00  0.00     0.064 A 
ATOM     60  C   UNL A   1      46.354  28.150  33.950  1.00  0.00     0.173 A 
ATOM     61  C   UNL A   1      45.119  26.293  34.856  1.00  0.00     0.173 A 
ATOM     62  F   UNL A   1      46.447  29.214  33.136  1.00  0.00    -0.203 F 
ATOM     63  C   UNL A   1      47.451  27.799  34.728  1.00  0.00     0.198 A 
ATOM     64  C   UNL A   1      46.211  25.961  35.652  1.00  0.00     0.198 A 
ATOM     65  F   UNL A   1      44.002  25.557  34.945  1.00  0.00    -0.203 F 
ATOM     66  F   UNL A   1      48.581  28.515  34.651  1.00  0.00    -0.200 F 
ATOM     67  C   UNL A   1      47.374  26.713  35.587  1.00  0.00     0.200 A 
ATOM     68  F   UNL A   1      46.131  24.921  36.494  1.00  0.00    -0.200 F 
ATOM     69  F   UNL A   1      48.424  26.393  36.358  1.00  0.00    -0.200 F 
ENDBRANCH  36  59
ENDBRANCH  10  11
ENDBRANCH   3   5
ENDBRANCH   2   3
ENDBRANCH   1   2
BRANCH   1  70
ATOM     70  C   UNL A   1      31.410  29.338  25.379  1.00  0.00     0.275 C 
BRANCH  70  71
ATOM     71  O   UNL A   1      31.575  28.495  24.224  1.00  0.00    -0.458 OA
BRANCH  71  72
ATOM     72  C   UNL A   1      31.412  27.177  24.435  1.00  0.00     0.339 C 
ATOM     73  O   UNL A   1      30.587  26.621  25.147  1.00  0.00    -0.246 OA
BRANCH  72  74
ATOM     74  C   UNL A   1      32.332  26.405  23.590  1.00  0.00     0.078 A 
ATOM     75  C   UNL A   1      32.021  26.392  22.228  1.00  0.00     0.057 A 
ATOM     76  C   UNL A   1      33.349  25.597  24.119  1.00  0.00     0.102 A 
ATOM     77  C   UNL A   1      32.757  25.560  21.426  1.00  0.00     0.131 A 
ATOM     78  C   UNL A   1      33.926  24.700  23.225  1.00  0.00     0.116 A 
ATOM     79  Cl  UNL A   1      32.546  25.539  19.728  1.00  0.00    -0.062 Cl
ATOM     80  N   UNL A   1      33.677  24.702  21.893  1.00  0.00    -0.229 NA
ATOM     81  I   UNL A   1      35.176  23.107  23.847  1.00  0.00    -0.021 I 
BRANCH  76  82
ATOM     82  C   UNL A   1      33.810  25.680  25.539  1.00  0.00     0.419 C 
ATOM     83  F   UNL A   1      33.106  24.875  26.378  1.00  0.00    -0.166 F 
ATOM     84  F   UNL A   1      35.119  25.315  25.666  1.00  0.00    -0.166 F 
ATOM     85  F   UNL A   1      33.749  26.917  26.099  1.00  0.00    -0.166 F 
ENDBRANCH  76  82
ENDBRANCH  72  74
ENDBRANCH  71  72
ENDBRANCH  70  71
ENDBRANCH   1  70
TORSDOF 12
ENDMDL
