MODEL 1
REMARK VINA RESULT:     -13.8      0.000      0.000
REMARK SMILES Cc1ccc(S(=O)(=O)n2cc(C(=O)C(=O)NCC(=O)NCC(=O)OCCOC(=O)c3ccc(-c4c5nc(c(-c6c(F)c(F)c(F)c(F)c6F)c6ccc([nH]6)c(-c6c(F)c(F)c(F)c(F)c6F)c6nc(c(-c7c(F)c(F)c(F)c(F)c7F)c7ccc4[nH]7)C=C6)C=C5)cc3)c3ccccc32)cc1
REMARK SMILES IDX 22 1 23 2 21 3 20 4 18 5 19 6 17 8 16 9 14 10 15 11 12 13
REMARK SMILES IDX 13 14 11 15 9 16 10 17 98 18 93 19 97 20 94 21 96 22 95 23
REMARK SMILES IDX 6 24 7 25 8 26 5 27 1 28 2 29 3 30 100 31 4 32 99 33 24 34
REMARK SMILES IDX 25 35 26 36 27 37 28 38 29 39 30 40 31 41 92 42 32 43 91 44
REMARK SMILES IDX 33 45 34 46 35 47 85 48 36 49 90 50 84 51 86 52 37 53 89 54
REMARK SMILES IDX 83 55 82 56 38 58 70 59 50 60 69 61 51 62 54 63 68 64 87 65
REMARK SMILES IDX 52 66 53 67 67 69 88 70 55 71 39 72 40 73 48 74 41 75 42 76
REMARK SMILES IDX 46 77 49 78 43 79 44 80 47 81 45 82 71 83 72 84 80 85 73 86
REMARK SMILES IDX 74 87 78 88 81 89 75 90 76 91 79 92 77 93 56 94 57 95 65 96
REMARK SMILES IDX 58 97 59 98 63 99 66 100 60 101 61 102 64 103 62 104
REMARK H PARENT 20 7 16 12 86 57 54 68
REMARK Flexibility Score: inf
ROOT
ATOM      1  C   UNL A   1      37.553  19.594  24.904  1.00  0.00     0.325 C 
ATOM      2  O   UNL A   1      37.449  20.782  24.490  1.00  0.00    -0.250 OA
ENDROOT
BRANCH   1   3
ATOM      3  C   UNL A   1      36.080  17.983  25.074  1.00  0.00     0.238 C 
BRANCH   3   4
ATOM      4  N   UNL A   1      34.939  17.354  24.074  1.00  0.00    -0.344 N 
ATOM      5  C   UNL A   1      33.687  17.670  23.670  1.00  0.00     0.239 C 
ATOM      6  O   UNL A   1      33.202  16.930  22.804  1.00  0.00    -0.273 OA
ATOM      7  H   UNL A   1      35.252  16.521  23.653  1.00  0.00     0.164 HD
BRANCH   5   8
ATOM      8  C   UNL A   1      32.930  18.916  24.086  1.00  0.00     0.216 C 
BRANCH   8   9
ATOM      9  N   UNL A   1      32.214  19.596  23.035  1.00  0.00    -0.340 N 
ATOM     10  C   UNL A   1      32.263  20.912  22.632  1.00  0.00     0.292 C 
ATOM     11  O   UNL A   1      31.803  21.145  21.524  1.00  0.00    -0.265 OA
ATOM     12  H   UNL A   1      31.592  19.030  22.525  1.00  0.00     0.164 HD
BRANCH  10  13
ATOM     13  C   UNL A   1      32.924  22.041  23.487  1.00  0.00     0.252 C 
ATOM     14  O   UNL A   1      34.060  21.800  23.886  1.00  0.00    -0.283 OA
BRANCH  13  15
ATOM     15  C   UNL A   1      32.347  23.404  23.718  1.00  0.00     0.054 A 
ATOM     16  N   UNL A   1      31.958  25.607  23.721  1.00  0.00    -0.240 N 
ATOM     17  C   UNL A   1      32.291  24.537  22.924  1.00  0.00     0.117 A 
ATOM     18  C   UNL A   1      31.235  25.160  24.779  1.00  0.00     0.065 A 
ATOM     19  C   UNL A   1      31.468  23.776  24.812  1.00  0.00     0.012 A 
ATOM     20  C   UNL A   1      30.401  25.835  25.675  1.00  0.00     0.028 A 
ATOM     21  C   UNL A   1      30.815  23.038  25.811  1.00  0.00     0.011 A 
ATOM     22  C   UNL A   1      29.734  25.064  26.617  1.00  0.00     0.002 A 
ATOM     23  C   UNL A   1      29.933  23.688  26.682  1.00  0.00     0.001 A 
BRANCH  16  24
ATOM     24  S   UNL A   1      32.137  27.226  23.274  1.00  0.00     0.268 S 
ATOM     25  O   UNL A   1      30.806  27.672  22.920  1.00  0.00    -0.201 OA
ATOM     26  O   UNL A   1      33.273  27.227  22.378  1.00  0.00    -0.201 OA
BRANCH  24  27
ATOM     27  C   UNL A   1      32.652  28.176  24.679  1.00  0.00     0.088 A 
ATOM     28  C   UNL A   1      33.970  30.969  27.671  1.00  0.00     0.044 C 
ATOM     29  C   UNL A   1      33.486  29.938  26.692  1.00  0.00    -0.051 A 
ATOM     30  C   UNL A   1      32.289  30.162  26.011  1.00  0.00     0.005 A 
ATOM     31  C   UNL A   1      34.229  28.788  26.395  1.00  0.00     0.005 A 
ATOM     32  C   UNL A   1      31.876  29.292  25.006  1.00  0.00     0.022 A 
ATOM     33  C   UNL A   1      33.818  27.902  25.389  1.00  0.00     0.022 A 
ENDBRANCH  24  27
ENDBRANCH  16  24
ENDBRANCH  13  15
ENDBRANCH  10  13
ENDBRANCH   8   9
ENDBRANCH   5   8
ENDBRANCH   3   4
ENDBRANCH   1   3
BRANCH   1  34
ATOM     34  O   UNL A   1      38.943  19.415  25.214  1.00  0.00    -0.461 OA
BRANCH  34  35
ATOM     35  C   UNL A   1      39.571  20.416  26.029  1.00  0.00     0.274 C 
BRANCH  35  36
ATOM     36  C   UNL A   1      41.072  20.115  26.144  1.00  0.00     0.275 C 
BRANCH  36  37
ATOM     37  O   UNL A   1      41.959  21.165  25.662  1.00  0.00    -0.458 OA
BRANCH  37  38
ATOM     38  C   UNL A   1      42.334  22.256  26.390  1.00  0.00     0.338 C 
ATOM     39  O   UNL A   1      43.177  22.240  27.271  1.00  0.00    -0.246 OA
BRANCH  38  40
ATOM     40  C   UNL A   1      41.381  23.376  26.312  1.00  0.00     0.060 A 
ATOM     41  C   UNL A   1      41.988  24.851  25.462  1.00  0.00     0.016 A 
ATOM     42  C   UNL A   1      40.118  23.528  27.597  1.00  0.00     0.016 A 
ATOM     43  C   UNL A   1      41.508  26.499  26.094  1.00  0.00     0.010 A 
ATOM     44  C   UNL A   1      39.624  25.164  28.187  1.00  0.00     0.010 A 
ATOM     45  C   UNL A   1      40.417  26.640  27.517  1.00  0.00    -0.014 A 
BRANCH  45  46
ATOM     46  C   UNL A   1      40.661  27.620  28.628  1.00  0.00     0.031 A 
ATOM     47  C   UNL A   1      39.614  28.625  28.916  1.00  0.00     0.074 A 
ATOM     48  C   UNL A   1      41.722  27.533  29.456  1.00  0.00     0.049 A 
ATOM     49  N   UNL A   1      39.088  29.015  30.028  1.00  0.00    -0.248 NA
ATOM     50  C   UNL A   1      39.061  29.302  27.768  1.00  0.00     0.031 C 
ATOM     51  C   UNL A   1      41.863  28.155  30.767  1.00  0.00     0.029 A 
ATOM     52  N   UNL A   1      42.967  26.946  29.219  1.00  0.00    -0.354 N 
ATOM     53  C   UNL A   1      38.224  30.050  29.695  1.00  0.00     0.074 A 
ATOM     54  C   UNL A   1      38.104  30.057  28.262  1.00  0.00     0.031 C 
ATOM     55  C   UNL A   1      43.149  28.115  31.142  1.00  0.00     0.029 A 
ATOM     56  C   UNL A   1      43.914  27.612  30.022  1.00  0.00     0.049 A 
ATOM     57  H   UNL A   1      43.149  26.200  28.602  1.00  0.00     0.167 HD
ATOM     58  C   UNL A   1      38.242  31.282  30.258  1.00  0.00     0.037 A 
ATOM     59  C   UNL A   1      44.964  28.266  29.449  1.00  0.00     0.037 A 
ATOM     60  C   UNL A   1      39.505  31.571  30.920  1.00  0.00     0.049 A 
ATOM     61  C   UNL A   1      44.861  29.781  29.593  1.00  0.00     0.074 A 
ATOM     62  C   UNL A   1      40.033  31.151  32.125  1.00  0.00     0.029 A 
ATOM     63  N   UNL A   1      40.593  32.059  30.191  1.00  0.00    -0.354 N 
ATOM     64  N   UNL A   1      43.814  30.406  30.074  1.00  0.00    -0.248 NA
ATOM     65  C   UNL A   1      45.904  30.709  29.179  1.00  0.00     0.031 C 
ATOM     66  C   UNL A   1      41.432  31.417  32.128  1.00  0.00     0.029 A 
ATOM     67  C   UNL A   1      41.768  32.063  30.952  1.00  0.00     0.049 A 
ATOM     68  H   UNL A   1      40.540  32.362  29.256  1.00  0.00     0.167 HD
ATOM     69  C   UNL A   1      43.997  31.769  30.034  1.00  0.00     0.074 A 
ATOM     70  C   UNL A   1      45.325  31.898  29.441  1.00  0.00     0.031 C 
ATOM     71  C   UNL A   1      43.023  32.657  30.444  1.00  0.00     0.037 A 
BRANCH  58  72
ATOM     72  C   UNL A   1      36.917  32.027  30.291  1.00  0.00     0.064 A 
ATOM     73  C   UNL A   1      36.680  33.047  29.360  1.00  0.00     0.173 A 
ATOM     74  C   UNL A   1      35.921  31.907  31.308  1.00  0.00     0.173 A 
ATOM     75  F   UNL A   1      37.517  33.238  28.331  1.00  0.00    -0.203 F 
ATOM     76  C   UNL A   1      35.603  33.935  29.491  1.00  0.00     0.198 A 
ATOM     77  C   UNL A   1      34.825  32.764  31.409  1.00  0.00     0.198 A 
ATOM     78  F   UNL A   1      35.978  30.986  32.280  1.00  0.00    -0.203 F 
ATOM     79  F   UNL A   1      35.475  34.951  28.629  1.00  0.00    -0.200 F 
ATOM     80  C   UNL A   1      34.688  33.804  30.523  1.00  0.00     0.200 A 
ATOM     81  F   UNL A   1      33.935  32.597  32.401  1.00  0.00    -0.200 F 
ATOM     82  F   UNL A   1      33.691  34.686  30.672  1.00  0.00    -0.200 F 
ENDBRANCH  58  72
BRANCH  59  83
ATOM     83  C   UNL A   1      45.565  27.441  28.355  1.00  0.00     0.064 A 
ATOM     84  C   UNL A   1      46.052  26.168  28.740  1.00  0.00     0.173 A 
ATOM     85  C   UNL A   1      45.206  27.594  27.011  1.00  0.00     0.173 A 
ATOM     86  F   UNL A   1      46.459  25.967  30.004  1.00  0.00    -0.203 F 
ATOM     87  C   UNL A   1      45.954  25.062  27.897  1.00  0.00     0.198 A 
ATOM     88  C   UNL A   1      45.178  26.492  26.147  1.00  0.00     0.198 A 
ATOM     89  F   UNL A   1      44.709  28.754  26.567  1.00  0.00    -0.203 F 
ATOM     90  F   UNL A   1      46.217  23.834  28.370  1.00  0.00    -0.200 F 
ATOM     91  C   UNL A   1      45.478  25.219  26.610  1.00  0.00     0.200 A 
ATOM     92  F   UNL A   1      44.691  26.638  24.904  1.00  0.00    -0.200 F 
ATOM     93  F   UNL A   1      45.241  24.148  25.840  1.00  0.00    -0.200 F 
ENDBRANCH  59  83
BRANCH  71  94
ATOM     94  C   UNL A   1      43.133  34.189  30.398  1.00  0.00     0.064 A 
ATOM     95  C   UNL A   1      43.242  35.025  31.525  1.00  0.00     0.173 A 
ATOM     96  C   UNL A   1      43.145  34.888  29.162  1.00  0.00     0.173 A 
ATOM     97  F   UNL A   1      43.053  34.561  32.765  1.00  0.00    -0.203 F 
ATOM     98  C   UNL A   1      43.536  36.394  31.421  1.00  0.00     0.198 A 
ATOM     99  C   UNL A   1      43.382  36.262  29.060  1.00  0.00     0.198 A 
ATOM    100  F   UNL A   1      42.960  34.269  27.990  1.00  0.00    -0.203 F 
ATOM    101  F   UNL A   1      43.799  37.101  32.530  1.00  0.00    -0.200 F 
ATOM    102  C   UNL A   1      43.620  37.009  30.189  1.00  0.00     0.200 A 
ATOM    103  F   UNL A   1      43.442  36.839  27.851  1.00  0.00    -0.200 F 
ATOM    104  F   UNL A   1      43.973  38.297  30.088  1.00  0.00    -0.200 F 
ENDBRANCH  71  94
ENDBRANCH  45  46
ENDBRANCH  38  40
ENDBRANCH  37  38
ENDBRANCH  36  37
ENDBRANCH  35  36
ENDBRANCH  34  35
ENDBRANCH   1  34
TORSDOF 18
ENDMDL
MODEL 2
REMARK VINA RESULT:     -13.2      3.714      9.876
REMARK SMILES Cc1ccc(S(=O)(=O)n2cc(C(=O)C(=O)NCC(=O)NCC(=O)OCCOC(=O)c3ccc(-c4c5nc(c(-c6c(F)c(F)c(F)c(F)c6F)c6ccc([nH]6)c(-c6c(F)c(F)c(F)c(F)c6F)c6nc(c(-c7c(F)c(F)c(F)c(F)c7F)c7ccc4[nH]7)C=C6)C=C5)cc3)c3ccccc32)cc1
REMARK SMILES IDX 22 1 23 2 21 3 20 4 18 5 19 6 17 8 16 9 14 10 15 11 12 13
REMARK SMILES IDX 13 14 11 15 9 16 10 17 98 18 93 19 97 20 94 21 96 22 95 23
REMARK SMILES IDX 6 24 7 25 8 26 5 27 1 28 2 29 3 30 100 31 4 32 99 33 24 34
REMARK SMILES IDX 25 35 26 36 27 37 28 38 29 39 30 40 31 41 92 42 32 43 91 44
REMARK SMILES IDX 33 45 34 46 35 47 85 48 36 49 90 50 84 51 86 52 37 53 89 54
REMARK SMILES IDX 83 55 82 56 38 58 70 59 50 60 69 61 51 62 54 63 68 64 87 65
REMARK SMILES IDX 52 66 53 67 67 69 88 70 55 71 39 72 40 73 48 74 41 75 42 76
REMARK SMILES IDX 46 77 49 78 43 79 44 80 47 81 45 82 71 83 72 84 80 85 73 86
REMARK SMILES IDX 74 87 78 88 81 89 75 90 76 91 79 92 77 93 56 94 57 95 65 96
REMARK SMILES IDX 58 97 59 98 63 99 66 100 60 101 61 102 64 103 62 104
REMARK H PARENT 20 7 16 12 86 57 54 68
REMARK Flexibility Score: inf
ROOT
ATOM      1  C   UNL A   1      33.127  33.497  27.805  1.00  0.00     0.325 C 
ATOM      2  O   UNL A   1      32.490  34.462  28.310  1.00  0.00    -0.250 OA
ENDROOT
BRANCH   1   3
ATOM      3  C   UNL A   1      32.480  31.500  27.182  1.00  0.00     0.238 C 
BRANCH   3   4
ATOM      4  N   UNL A   1      33.202  30.027  27.103  1.00  0.00    -0.344 N 
ATOM      5  C   UNL A   1      33.408  29.069  26.171  1.00  0.00     0.239 C 
ATOM      6  O   UNL A   1      34.103  28.110  26.532  1.00  0.00    -0.273 OA
ATOM      7  H   UNL A   1      33.593  29.772  27.971  1.00  0.00     0.164 HD
BRANCH   5   8
ATOM      8  C   UNL A   1      32.982  29.167  24.719  1.00  0.00     0.216 C 
BRANCH   8   9
ATOM      9  N   UNL A   1      31.745  29.867  24.473  1.00  0.00    -0.340 N 
ATOM     10  C   UNL A   1      30.602  29.455  23.825  1.00  0.00     0.292 C 
ATOM     11  O   UNL A   1      29.600  30.121  24.041  1.00  0.00    -0.265 OA
ATOM     12  H   UNL A   1      31.713  30.786  24.825  1.00  0.00     0.164 HD
BRANCH  10  13
ATOM     13  C   UNL A   1      30.547  28.178  22.927  1.00  0.00     0.252 C 
ATOM     14  O   UNL A   1      30.256  28.376  21.750  1.00  0.00    -0.283 OA
BRANCH  13  15
ATOM     15  C   UNL A   1      30.954  26.801  23.351  1.00  0.00     0.054 A 
ATOM     16  N   UNL A   1      31.459  24.972  24.537  1.00  0.00    -0.240 N 
ATOM     17  C   UNL A   1      30.545  25.990  24.398  1.00  0.00     0.117 A 
ATOM     18  C   UNL A   1      32.044  24.736  23.336  1.00  0.00     0.065 A 
ATOM     19  C   UNL A   1      31.755  25.876  22.568  1.00  0.00     0.012 A 
ATOM     20  C   UNL A   1      32.768  23.637  22.864  1.00  0.00     0.028 A 
ATOM     21  C   UNL A   1      32.226  25.897  21.247  1.00  0.00     0.011 A 
ATOM     22  C   UNL A   1      33.174  23.675  21.537  1.00  0.00     0.002 A 
ATOM     23  C   UNL A   1      32.904  24.784  20.740  1.00  0.00     0.001 A 
BRANCH  16  24
ATOM     24  S   UNL A   1      31.579  23.974  25.895  1.00  0.00     0.268 S 
ATOM     25  O   UNL A   1      30.591  22.935  25.691  1.00  0.00    -0.201 OA
ATOM     26  O   UNL A   1      31.593  24.891  27.014  1.00  0.00    -0.201 OA
BRANCH  24  27
ATOM     27  C   UNL A   1      33.168  23.190  25.916  1.00  0.00     0.088 A 
ATOM     28  C   UNL A   1      37.162  21.661  25.462  1.00  0.00     0.044 C 
ATOM     29  C   UNL A   1      35.763  22.154  25.700  1.00  0.00    -0.051 A 
ATOM     30  C   UNL A   1      35.565  23.496  26.025  1.00  0.00     0.005 A 
ATOM     31  C   UNL A   1      34.645  21.323  25.544  1.00  0.00     0.005 A 
ATOM     32  C   UNL A   1      34.278  24.014  26.127  1.00  0.00     0.022 A 
ATOM     33  C   UNL A   1      33.345  21.834  25.651  1.00  0.00     0.022 A 
ENDBRANCH  24  27
ENDBRANCH  16  24
ENDBRANCH  13  15
ENDBRANCH  10  13
ENDBRANCH   8   9
ENDBRANCH   5   8
ENDBRANCH   3   4
ENDBRANCH   1   3
BRANCH   1  34
ATOM     34  O   UNL A   1      34.466  33.977  27.613  1.00  0.00    -0.461 OA
BRANCH  34  35
ATOM     35  C   UNL A   1      34.916  35.035  28.472  1.00  0.00     0.274 C 
BRANCH  35  36
ATOM     36  C   UNL A   1      36.250  34.637  29.120  1.00  0.00     0.275 C 
BRANCH  36  37
ATOM     37  O   UNL A   1      36.145  33.811  30.314  1.00  0.00    -0.458 OA
BRANCH  37  38
ATOM     38  C   UNL A   1      35.155  32.900  30.539  1.00  0.00     0.338 C 
ATOM     39  O   UNL A   1      34.210  33.080  31.288  1.00  0.00    -0.246 OA
BRANCH  38  40
ATOM     40  C   UNL A   1      35.503  31.532  30.117  1.00  0.00     0.060 A 
ATOM     41  C   UNL A   1      35.906  30.388  31.457  1.00  0.00     0.016 A 
ATOM     42  C   UNL A   1      36.219  31.290  28.475  1.00  0.00     0.016 A 
ATOM     43  C   UNL A   1      37.232  29.156  31.202  1.00  0.00     0.010 A 
ATOM     44  C   UNL A   1      37.504  30.042  28.227  1.00  0.00     0.010 A 
ATOM     45  C   UNL A   1      38.093  29.066  29.625  1.00  0.00    -0.014 A 
BRANCH  45  46
ATOM     46  C   UNL A   1      39.583  28.906  29.525  1.00  0.00     0.031 A 
ATOM     47  C   UNL A   1      40.113  27.682  28.886  1.00  0.00     0.074 A 
ATOM     48  C   UNL A   1      40.445  29.887  29.866  1.00  0.00     0.049 A 
ATOM     49  N   UNL A   1      41.036  27.513  28.000  1.00  0.00    -0.248 NA
ATOM     50  C   UNL A   1      39.507  26.442  29.306  1.00  0.00     0.031 C 
ATOM     51  C   UNL A   1      41.841  30.004  29.460  1.00  0.00     0.029 A 
ATOM     52  N   UNL A   1      40.259  30.938  30.765  1.00  0.00    -0.354 N 
ATOM     53  C   UNL A   1      41.170  26.139  27.851  1.00  0.00     0.074 A 
ATOM     54  C   UNL A   1      40.066  25.528  28.542  1.00  0.00     0.031 C 
ATOM     55  C   UNL A   1      42.453  30.909  30.237  1.00  0.00     0.029 A 
ATOM     56  C   UNL A   1      41.523  31.293  31.275  1.00  0.00     0.049 A 
ATOM     57  H   UNL A   1      39.398  31.356  31.000  1.00  0.00     0.167 HD
ATOM     58  C   UNL A   1      42.337  25.460  27.958  1.00  0.00     0.037 A 
ATOM     59  C   UNL A   1      41.778  31.202  32.611  1.00  0.00     0.037 A 
ATOM     60  C   UNL A   1      43.357  26.219  28.666  1.00  0.00     0.049 A 
ATOM     61  C   UNL A   1      42.768  30.091  32.946  1.00  0.00     0.074 A 
ATOM     62  C   UNL A   1      44.154  27.279  28.280  1.00  0.00     0.029 A 
ATOM     63  N   UNL A   1      43.405  26.213  30.063  1.00  0.00    -0.354 N 
ATOM     64  N   UNL A   1      43.214  29.216  32.078  1.00  0.00    -0.248 NA
ATOM     65  C   UNL A   1      43.304  29.854  34.279  1.00  0.00     0.031 C 
ATOM     66  C   UNL A   1      44.703  27.886  29.445  1.00  0.00     0.029 A 
ATOM     67  C   UNL A   1      44.303  27.166  30.556  1.00  0.00     0.049 A 
ATOM     68  H   UNL A   1      42.872  25.610  30.631  1.00  0.00     0.167 HD
ATOM     69  C   UNL A   1      44.055  28.311  32.683  1.00  0.00     0.074 A 
ATOM     70  C   UNL A   1      44.055  28.754  34.075  1.00  0.00     0.031 C 
ATOM     71  C   UNL A   1      44.625  27.259  31.996  1.00  0.00     0.037 A 
BRANCH  58  72
ATOM     72  C   UNL A   1      42.443  24.171  27.159  1.00  0.00     0.064 A 
ATOM     73  C   UNL A   1      42.312  22.942  27.818  1.00  0.00     0.173 A 
ATOM     74  C   UNL A   1      42.840  24.072  25.789  1.00  0.00     0.173 A 
ATOM     75  F   UNL A   1      41.905  22.894  29.093  1.00  0.00    -0.203 F 
ATOM     76  C   UNL A   1      42.648  21.730  27.200  1.00  0.00     0.198 A 
ATOM     77  C   UNL A   1      43.130  22.860  25.164  1.00  0.00     0.198 A 
ATOM     78  F   UNL A   1      43.012  25.142  25.001  1.00  0.00    -0.203 F 
ATOM     79  F   UNL A   1      42.596  20.592  27.904  1.00  0.00    -0.200 F 
ATOM     80  C   UNL A   1      43.072  21.690  25.882  1.00  0.00     0.200 A 
ATOM     81  F   UNL A   1      43.510  22.846  23.876  1.00  0.00    -0.200 F 
ATOM     82  F   UNL A   1      43.441  20.535  25.313  1.00  0.00    -0.200 F 
ENDBRANCH  58  72
BRANCH  59  83
ATOM     83  C   UNL A   1      40.628  31.739  33.405  1.00  0.00     0.064 A 
ATOM     84  C   UNL A   1      39.871  30.778  34.118  1.00  0.00     0.173 A 
ATOM     85  C   UNL A   1      40.595  33.050  33.892  1.00  0.00     0.173 A 
ATOM     86  F   UNL A   1      39.821  29.510  33.677  1.00  0.00    -0.203 F 
ATOM     87  C   UNL A   1      39.321  31.061  35.368  1.00  0.00     0.198 A 
ATOM     88  C   UNL A   1      39.978  33.345  35.114  1.00  0.00     0.198 A 
ATOM     89  F   UNL A   1      41.304  34.015  33.297  1.00  0.00    -0.203 F 
ATOM     90  F   UNL A   1      38.804  30.072  36.112  1.00  0.00    -0.200 F 
ATOM     91  C   UNL A   1      39.409  32.339  35.883  1.00  0.00     0.200 A 
ATOM     92  F   UNL A   1      40.086  34.580  35.630  1.00  0.00    -0.200 F 
ATOM     93  F   UNL A   1      39.017  32.592  37.140  1.00  0.00    -0.200 F 
ENDBRANCH  59  83
BRANCH  71  94
ATOM     94  C   UNL A   1      45.543  26.187  32.604  1.00  0.00     0.064 A 
ATOM     95  C   UNL A   1      46.926  26.076  32.364  1.00  0.00     0.173 A 
ATOM     96  C   UNL A   1      45.034  25.205  33.495  1.00  0.00     0.173 A 
ATOM     97  F   UNL A   1      47.532  26.788  31.409  1.00  0.00    -0.203 F 
ATOM     98  C   UNL A   1      47.749  25.203  33.094  1.00  0.00     0.198 A 
ATOM     99  C   UNL A   1      45.847  24.297  34.181  1.00  0.00     0.198 A 
ATOM    100  F   UNL A   1      43.730  25.097  33.770  1.00  0.00    -0.203 F 
ATOM    101  F   UNL A   1      49.080  25.266  32.942  1.00  0.00    -0.200 F 
ATOM    102  C   UNL A   1      47.211  24.325  34.012  1.00  0.00     0.200 A 
ATOM    103  F   UNL A   1      45.298  23.441  35.054  1.00  0.00    -0.200 F 
ATOM    104  F   UNL A   1      48.003  23.545  34.760  1.00  0.00    -0.200 F 
ENDBRANCH  71  94
ENDBRANCH  45  46
ENDBRANCH  38  40
ENDBRANCH  37  38
ENDBRANCH  36  37
ENDBRANCH  35  36
ENDBRANCH  34  35
ENDBRANCH   1  34
TORSDOF 18
ENDMDL
MODEL 3
REMARK VINA RESULT:     -13.1      3.384      9.848
REMARK SMILES Cc1ccc(S(=O)(=O)n2cc(C(=O)C(=O)NCC(=O)NCC(=O)OCCOC(=O)c3ccc(-c4c5nc(c(-c6c(F)c(F)c(F)c(F)c6F)c6ccc([nH]6)c(-c6c(F)c(F)c(F)c(F)c6F)c6nc(c(-c7c(F)c(F)c(F)c(F)c7F)c7ccc4[nH]7)C=C6)C=C5)cc3)c3ccccc32)cc1
REMARK SMILES IDX 22 1 23 2 21 3 20 4 18 5 19 6 17 8 16 9 14 10 15 11 12 13
REMARK SMILES IDX 13 14 11 15 9 16 10 17 98 18 93 19 97 20 94 21 96 22 95 23
REMARK SMILES IDX 6 24 7 25 8 26 5 27 1 28 2 29 3 30 100 31 4 32 99 33 24 34
REMARK SMILES IDX 25 35 26 36 27 37 28 38 29 39 30 40 31 41 92 42 32 43 91 44
REMARK SMILES IDX 33 45 34 46 35 47 85 48 36 49 90 50 84 51 86 52 37 53 89 54
REMARK SMILES IDX 83 55 82 56 38 58 70 59 50 60 69 61 51 62 54 63 68 64 87 65
REMARK SMILES IDX 52 66 53 67 67 69 88 70 55 71 39 72 40 73 48 74 41 75 42 76
REMARK SMILES IDX 46 77 49 78 43 79 44 80 47 81 45 82 71 83 72 84 80 85 73 86
REMARK SMILES IDX 74 87 78 88 81 89 75 90 76 91 79 92 77 93 56 94 57 95 65 96
REMARK SMILES IDX 58 97 59 98 63 99 66 100 60 101 61 102 64 103 62 104
REMARK H PARENT 20 7 16 12 86 57 54 68
REMARK Flexibility Score: inf
ROOT
ATOM      1  C   UNL A   1      34.293  32.765  28.021  1.00  0.00     0.325 C 
ATOM      2  O   UNL A   1      35.332  33.362  27.629  1.00  0.00    -0.250 OA
ENDROOT
BRANCH   1   3
ATOM      3  C   UNL A   1      33.069  31.212  27.079  1.00  0.00     0.238 C 
BRANCH   3   4
ATOM      4  N   UNL A   1      32.287  29.874  27.621  1.00  0.00    -0.344 N 
ATOM      5  C   UNL A   1      31.934  28.662  27.134  1.00  0.00     0.239 C 
ATOM      6  O   UNL A   1      31.404  27.892  27.946  1.00  0.00    -0.273 OA
ATOM      7  H   UNL A   1      31.997  29.982  28.556  1.00  0.00     0.164 HD
BRANCH   5   8
ATOM      8  C   UNL A   1      32.273  28.153  25.746  1.00  0.00     0.216 C 
BRANCH   8   9
ATOM      9  N   UNL A   1      31.652  28.856  24.651  1.00  0.00    -0.340 N 
ATOM     10  C   UNL A   1      30.552  28.526  23.892  1.00  0.00     0.292 C 
ATOM     11  O   UNL A   1      30.055  29.442  23.253  1.00  0.00    -0.265 OA
ATOM     12  H   UNL A   1      32.084  29.707  24.408  1.00  0.00     0.164 HD
BRANCH  10  13
ATOM     13  C   UNL A   1      29.917  27.099  23.888  1.00  0.00     0.252 C 
ATOM     14  O   UNL A   1      28.698  27.067  23.744  1.00  0.00    -0.283 OA
BRANCH  13  15
ATOM     15  C   UNL A   1      30.680  25.811  23.897  1.00  0.00     0.054 A 
ATOM     16  N   UNL A   1      31.749  23.942  24.510  1.00  0.00    -0.240 N 
ATOM     17  C   UNL A   1      30.619  24.698  24.719  1.00  0.00     0.117 A 
ATOM     18  C   UNL A   1      32.195  24.158  23.246  1.00  0.00     0.065 A 
ATOM     19  C   UNL A   1      31.549  25.335  22.835  1.00  0.00     0.012 A 
ATOM     20  C   UNL A   1      33.073  23.425  22.443  1.00  0.00     0.028 A 
ATOM     21  C   UNL A   1      31.811  25.790  21.534  1.00  0.00     0.011 A 
ATOM     22  C   UNL A   1      33.268  23.880  21.146  1.00  0.00     0.002 A 
ATOM     23  C   UNL A   1      32.644  25.041  20.696  1.00  0.00     0.001 A 
BRANCH  16  24
ATOM     24  S   UNL A   1      32.283  22.714  25.538  1.00  0.00     0.268 S 
ATOM     25  O   UNL A   1      31.696  21.498  25.015  1.00  0.00    -0.201 OA
ATOM     26  O   UNL A   1      32.053  23.235  26.868  1.00  0.00    -0.201 OA
BRANCH  24  27
ATOM     27  C   UNL A   1      34.042  22.549  25.402  1.00  0.00     0.088 A 
ATOM     28  C   UNL A   1      38.256  21.703  25.535  1.00  0.00     0.044 C 
ATOM     29  C   UNL A   1      36.799  22.044  25.413  1.00  0.00    -0.051 A 
ATOM     30  C   UNL A   1      35.902  21.050  25.023  1.00  0.00     0.005 A 
ATOM     31  C   UNL A   1      36.302  23.314  25.739  1.00  0.00     0.005 A 
ATOM     32  C   UNL A   1      34.532  21.296  25.023  1.00  0.00     0.022 A 
ATOM     33  C   UNL A   1      34.925  23.573  25.736  1.00  0.00     0.022 A 
ENDBRANCH  24  27
ENDBRANCH  16  24
ENDBRANCH  13  15
ENDBRANCH  10  13
ENDBRANCH   8   9
ENDBRANCH   5   8
ENDBRANCH   3   4
ENDBRANCH   1   3
BRANCH   1  34
ATOM     34  O   UNL A   1      34.045  33.254  29.348  1.00  0.00    -0.461 OA
BRANCH  34  35
ATOM     35  C   UNL A   1      35.169  33.749  30.089  1.00  0.00     0.274 C 
BRANCH  35  36
ATOM     36  C   UNL A   1      35.421  32.845  31.304  1.00  0.00     0.275 C 
BRANCH  36  37
ATOM     37  O   UNL A   1      36.134  31.606  31.026  1.00  0.00    -0.458 OA
BRANCH  37  38
ATOM     38  C   UNL A   1      37.454  31.531  30.694  1.00  0.00     0.338 C 
ATOM     39  O   UNL A   1      38.081  32.427  30.153  1.00  0.00    -0.246 OA
BRANCH  38  40
ATOM     40  C   UNL A   1      37.984  30.157  30.679  1.00  0.00     0.060 A 
ATOM     41  C   UNL A   1      39.472  29.890  31.670  1.00  0.00     0.016 A 
ATOM     42  C   UNL A   1      37.665  29.124  29.230  1.00  0.00     0.016 A 
ATOM     43  C   UNL A   1      40.761  28.754  31.045  1.00  0.00     0.010 A 
ATOM     44  C   UNL A   1      38.933  27.977  28.643  1.00  0.00     0.010 A 
ATOM     45  C   UNL A   1      40.528  27.891  29.485  1.00  0.00    -0.014 A 
BRANCH  45  46
ATOM     46  C   UNL A   1      41.620  27.757  28.463  1.00  0.00     0.031 A 
ATOM     47  C   UNL A   1      41.998  26.398  28.018  1.00  0.00     0.074 A 
ATOM     48  C   UNL A   1      42.168  28.820  27.839  1.00  0.00     0.049 A 
ATOM     49  N   UNL A   1      42.201  25.910  26.841  1.00  0.00    -0.248 NA
ATOM     50  C   UNL A   1      42.174  25.420  29.065  1.00  0.00     0.031 C 
ATOM     51  C   UNL A   1      42.924  28.809  26.593  1.00  0.00     0.029 A 
ATOM     52  N   UNL A   1      42.254  30.141  28.282  1.00  0.00    -0.354 N 
ATOM     53  C   UNL A   1      42.624  24.603  27.039  1.00  0.00     0.074 A 
ATOM     54  C   UNL A   1      42.405  24.293  28.427  1.00  0.00     0.031 C 
ATOM     55  C   UNL A   1      43.572  29.975  26.456  1.00  0.00     0.029 A 
ATOM     56  C   UNL A   1      43.390  30.720  27.682  1.00  0.00     0.049 A 
ATOM     57  H   UNL A   1      41.631  30.588  28.900  1.00  0.00     0.167 HD
ATOM     58  C   UNL A   1      43.759  24.071  26.524  1.00  0.00     0.037 A 
ATOM     59  C   UNL A   1      44.408  31.198  28.453  1.00  0.00     0.037 A 
ATOM     60  C   UNL A   1      44.711  25.090  26.110  1.00  0.00     0.049 A 
ATOM     61  C   UNL A   1      45.677  30.360  28.335  1.00  0.00     0.074 A 
ATOM     62  C   UNL A   1      44.751  25.924  25.009  1.00  0.00     0.029 A 
ATOM     63  N   UNL A   1      45.586  25.662  27.037  1.00  0.00    -0.354 N 
ATOM     64  N   UNL A   1      45.750  29.221  27.690  1.00  0.00    -0.248 NA
ATOM     65  C   UNL A   1      46.945  30.713  28.957  1.00  0.00     0.031 C 
ATOM     66  C   UNL A   1      45.675  26.976  25.267  1.00  0.00     0.029 A 
ATOM     67  C   UNL A   1      46.261  26.765  26.501  1.00  0.00     0.049 A 
ATOM     68  H   UNL A   1      45.713  25.330  27.955  1.00  0.00     0.167 HD
ATOM     69  C   UNL A   1      47.009  28.677  27.800  1.00  0.00     0.074 A 
ATOM     70  C   UNL A   1      47.710  29.655  28.627  1.00  0.00     0.031 C 
ATOM     71  C   UNL A   1      47.336  27.456  27.245  1.00  0.00     0.037 A 
BRANCH  58  72
ATOM     72  C   UNL A   1      43.746  22.572  26.272  1.00  0.00     0.064 A 
ATOM     73  C   UNL A   1      44.924  21.934  25.864  1.00  0.00     0.173 A 
ATOM     74  C   UNL A   1      42.581  21.743  26.246  1.00  0.00     0.173 A 
ATOM     75  F   UNL A   1      46.094  22.587  25.884  1.00  0.00    -0.203 F 
ATOM     76  C   UNL A   1      44.925  20.620  25.375  1.00  0.00     0.198 A 
ATOM     77  C   UNL A   1      42.595  20.421  25.801  1.00  0.00     0.198 A 
ATOM     78  F   UNL A   1      41.367  22.180  26.606  1.00  0.00    -0.203 F 
ATOM     79  F   UNL A   1      46.063  20.090  24.908  1.00  0.00    -0.200 F 
ATOM     80  C   UNL A   1      43.761  19.873  25.327  1.00  0.00     0.200 A 
ATOM     81  F   UNL A   1      41.457  19.708  25.793  1.00  0.00    -0.200 F 
ATOM     82  F   UNL A   1      43.759  18.637  24.810  1.00  0.00    -0.200 F 
ENDBRANCH  58  72
BRANCH  59  83
ATOM     83  C   UNL A   1      43.870  31.973  29.615  1.00  0.00     0.064 A 
ATOM     84  C   UNL A   1      43.133  33.137  29.290  1.00  0.00     0.173 A 
ATOM     85  C   UNL A   1      43.593  31.381  30.853  1.00  0.00     0.173 A 
ATOM     86  F   UNL A   1      43.384  33.782  28.139  1.00  0.00    -0.203 F 
ATOM     87  C   UNL A   1      42.028  33.538  30.041  1.00  0.00     0.198 A 
ATOM     88  C   UNL A   1      42.525  31.832  31.639  1.00  0.00     0.198 A 
ATOM     89  F   UNL A   1      44.220  30.261  31.227  1.00  0.00    -0.203 F 
ATOM     90  F   UNL A   1      41.224  34.509  29.583  1.00  0.00    -0.200 F 
ATOM     91  C   UNL A   1      41.701  32.857  31.197  1.00  0.00     0.200 A 
ATOM     92  F   UNL A   1      42.189  31.156  32.750  1.00  0.00    -0.200 F 
ATOM     93  F   UNL A   1      40.563  33.136  31.848  1.00  0.00    -0.200 F 
ENDBRANCH  59  83
BRANCH  71  94
ATOM     94  C   UNL A   1      48.704  26.764  27.352  1.00  0.00     0.064 A 
ATOM     95  C   UNL A   1      49.595  26.564  26.281  1.00  0.00     0.173 A 
ATOM     96  C   UNL A   1      49.181  26.270  28.595  1.00  0.00     0.173 A 
ATOM     97  F   UNL A   1      49.231  26.788  25.014  1.00  0.00    -0.203 F 
ATOM     98  C   UNL A   1      50.908  26.104  26.469  1.00  0.00     0.198 A 
ATOM     99  C   UNL A   1      50.471  25.759  28.774  1.00  0.00     0.198 A 
ATOM    100  F   UNL A   1      48.435  26.288  29.706  1.00  0.00    -0.203 F 
ATOM    101  F   UNL A   1      51.763  26.099  25.436  1.00  0.00    -0.200 F 
ATOM    102  C   UNL A   1      51.349  25.715  27.717  1.00  0.00     0.200 A 
ATOM    103  F   UNL A   1      50.870  25.371  29.993  1.00  0.00    -0.200 F 
ATOM    104  F   UNL A   1      52.623  25.347  27.909  1.00  0.00    -0.200 F 
ENDBRANCH  71  94
ENDBRANCH  45  46
ENDBRANCH  38  40
ENDBRANCH  37  38
ENDBRANCH  36  37
ENDBRANCH  35  36
ENDBRANCH  34  35
ENDBRANCH   1  34
TORSDOF 18
ENDMDL
