MODEL 1
REMARK VINA RESULT:     -11.9      0.000      0.000
REMARK SMILES COc1ccc(-c2ccc(S(=O)(=O)NC(C)(C)C)cc2)c(C(=O)OCCOC(=O)c2ccc(-c3c4nc(c(-c5c(F)c(F)c(F)c(F)c5F)c5ccc([nH]5)c(-c5c(F)c(F)c(F)c(F)c5F)c5nc(c(-c6c(F)c(F)c(F)c(F)c6F)c6ccc3[nH]6)C=C5)C=C4)cc2)c1
REMARK SMILES IDX 25 1 24 2 22 3 23 4 21 5 3 6 4 7 93 8 5 9 6 10 2 11 1 12
REMARK SMILES IDX 7 13 8 14 20 15 9 16 19 17 10 18 11 19 12 20 13 21 14 22
REMARK SMILES IDX 15 24 16 25 17 26 18 27 26 28 27 29 28 30 29 31 30 32 31 33
REMARK SMILES IDX 92 34 32 35 91 36 33 37 34 38 35 39 85 40 36 41 90 42 84 43
REMARK SMILES IDX 86 44 37 45 89 46 83 47 82 48 38 50 70 51 50 52 69 53 51 54
REMARK SMILES IDX 54 55 68 56 87 57 52 58 53 59 67 61 88 62 55 63 39 64 40 65
REMARK SMILES IDX 48 66 41 67 42 68 46 69 49 70 43 71 44 72 47 73 45 74 71 75
REMARK SMILES IDX 72 76 80 77 73 78 74 79 78 80 81 81 75 82 76 83 79 84 77 85
REMARK SMILES IDX 56 86 57 87 65 88 58 89 59 90 63 91 66 92 60 93 61 94 64 95
REMARK SMILES IDX 62 96
REMARK H PARENT 14 23 86 49 54 60
REMARK Flexibility Score: inf
ROOT
ATOM      1  C   UNL A   1      35.466  23.201  26.116  1.00  0.00     0.275 C 
ENDROOT
BRANCH   1   2
ATOM      2  O   UNL A   1      35.253  21.843  25.673  1.00  0.00    -0.458 OA
BRANCH   2   3
ATOM      3  C   UNL A   1      34.059  21.290  26.013  1.00  0.00     0.339 C 
ATOM      4  O   UNL A   1      33.514  21.366  27.101  1.00  0.00    -0.246 OA
BRANCH   3   5
ATOM      5  C   UNL A   1      33.505  20.514  24.874  1.00  0.00     0.071 A 
ATOM      6  C   UNL A   1      33.190  18.323  23.881  1.00  0.00     0.119 A 
ATOM      7  C   UNL A   1      32.391  18.906  22.896  1.00  0.00     0.047 A 
ATOM      8  C   UNL A   1      33.755  19.129  24.863  1.00  0.00     0.062 A 
ATOM      9  C   UNL A   1      32.151  20.286  22.891  1.00  0.00     0.013 A 
ATOM     10  C   UNL A   1      32.699  21.116  23.878  1.00  0.00    -0.004 A 
BRANCH   6  11
ATOM     11  O   UNL A   1      33.361  16.970  23.770  1.00  0.00    -0.497 OA
ATOM     12  C   UNL A   1      34.477  16.419  24.462  1.00  0.00     0.278 C 
ENDBRANCH   6  11
BRANCH  10  13
ATOM     13  C   UNL A   1      32.549  22.570  23.751  1.00  0.00    -0.017 A 
ATOM     14  C   UNL A   1      33.639  23.577  22.779  1.00  0.00     0.010 A 
ATOM     15  C   UNL A   1      31.023  23.326  24.342  1.00  0.00     0.010 A 
ATOM     16  C   UNL A   1      33.292  25.287  22.356  1.00  0.00     0.022 A 
ATOM     17  C   UNL A   1      30.622  25.229  23.792  1.00  0.00     0.022 A 
ATOM     18  C   UNL A   1      31.821  26.132  22.844  1.00  0.00     0.082 A 
BRANCH  18  19
ATOM     19  S   UNL A   1      31.721  27.908  22.804  1.00  0.00     0.241 S 
ATOM     20  O   UNL A   1      32.998  28.421  22.383  1.00  0.00    -0.207 OA
ATOM     21  O   UNL A   1      30.521  28.189  22.043  1.00  0.00    -0.207 OA
BRANCH  19  22
ATOM     22  N   UNL A   1      31.353  28.472  24.360  1.00  0.00    -0.206 NA
ATOM     23  H   UNL A   1      30.437  28.071  24.561  1.00  0.00     0.141 HD
BRANCH  22  24
ATOM     24  C   UNL A   1      32.115  28.315  25.654  1.00  0.00     0.025 C 
ATOM     25  C   UNL A   1      33.561  27.844  25.518  1.00  0.00     0.028 C 
ATOM     26  C   UNL A   1      32.099  29.705  26.331  1.00  0.00     0.028 C 
ATOM     27  C   UNL A   1      31.409  27.394  26.634  1.00  0.00     0.028 C 
ENDBRANCH  22  24
ENDBRANCH  19  22
ENDBRANCH  18  19
ENDBRANCH  10  13
ENDBRANCH   3   5
ENDBRANCH   2   3
ENDBRANCH   1   2
BRANCH   1  28
ATOM     28  C   UNL A   1      36.681  23.821  25.428  1.00  0.00     0.275 C 
BRANCH  28  29
ATOM     29  O   UNL A   1      37.698  22.821  25.235  1.00  0.00    -0.458 OA
BRANCH  29  30
ATOM     30  C   UNL A   1      38.680  22.885  26.156  1.00  0.00     0.338 C 
ATOM     31  O   UNL A   1      39.303  21.950  26.636  1.00  0.00    -0.246 OA
BRANCH  30  32
ATOM     32  C   UNL A   1      39.060  24.257  26.501  1.00  0.00     0.060 A 
ATOM     33  C   UNL A   1      40.524  25.033  25.814  1.00  0.00     0.016 A 
ATOM     34  C   UNL A   1      38.540  24.762  28.103  1.00  0.00     0.016 A 
ATOM     35  C   UNL A   1      41.513  26.379  26.955  1.00  0.00     0.010 A 
ATOM     36  C   UNL A   1      39.396  25.997  29.066  1.00  0.00     0.010 A 
ATOM     37  C   UNL A   1      40.874  26.864  28.561  1.00  0.00    -0.014 A 
BRANCH  37  38
ATOM     38  C   UNL A   1      41.287  28.255  29.170  1.00  0.00     0.031 A 
ATOM     39  C   UNL A   1      42.500  28.371  30.090  1.00  0.00     0.074 A 
ATOM     40  C   UNL A   1      40.509  29.376  29.158  1.00  0.00     0.049 A 
ATOM     41  N   UNL A   1      42.731  29.181  31.102  1.00  0.00    -0.248 NA
ATOM     42  C   UNL A   1      43.586  27.416  29.865  1.00  0.00     0.031 C 
ATOM     43  C   UNL A   1      39.382  29.691  28.292  1.00  0.00     0.029 A 
ATOM     44  N   UNL A   1      40.484  30.451  30.046  1.00  0.00    -0.354 N 
ATOM     45  C   UNL A   1      43.938  28.767  31.657  1.00  0.00     0.074 A 
ATOM     46  C   UNL A   1      44.279  27.527  30.990  1.00  0.00     0.031 C 
ATOM     47  C   UNL A   1      38.609  30.636  28.844  1.00  0.00     0.029 A 
ATOM     48  C   UNL A   1      39.286  31.148  30.020  1.00  0.00     0.049 A 
ATOM     49  H   UNL A   1      41.238  30.690  30.631  1.00  0.00     0.167 HD
ATOM     50  C   UNL A   1      44.767  29.400  32.531  1.00  0.00     0.037 A 
ATOM     51  C   UNL A   1      38.768  32.126  30.791  1.00  0.00     0.037 A 
ATOM     52  C   UNL A   1      44.552  30.727  33.053  1.00  0.00     0.049 A 
ATOM     53  C   UNL A   1      39.654  32.837  31.760  1.00  0.00     0.074 A 
ATOM     54  C   UNL A   1      45.430  31.530  33.764  1.00  0.00     0.029 A 
ATOM     55  N   UNL A   1      43.389  31.465  32.895  1.00  0.00    -0.354 N 
ATOM     56  N   UNL A   1      40.836  32.491  32.197  1.00  0.00    -0.248 NA
ATOM     57  C   UNL A   1      39.191  34.147  32.239  1.00  0.00     0.031 C 
ATOM     58  C   UNL A   1      44.789  32.737  34.067  1.00  0.00     0.029 A 
ATOM     59  C   UNL A   1      43.527  32.706  33.503  1.00  0.00     0.049 A 
ATOM     60  H   UNL A   1      42.585  31.155  32.420  1.00  0.00     0.167 HD
ATOM     61  C   UNL A   1      41.299  33.577  32.923  1.00  0.00     0.074 A 
ATOM     62  C   UNL A   1      40.255  34.578  32.901  1.00  0.00     0.031 C 
ATOM     63  C   UNL A   1      42.512  33.728  33.504  1.00  0.00     0.037 A 
BRANCH  50  64
ATOM     64  C   UNL A   1      46.058  28.704  32.905  1.00  0.00     0.064 A 
ATOM     65  C   UNL A   1      46.145  27.850  34.018  1.00  0.00     0.173 A 
ATOM     66  C   UNL A   1      47.215  28.866  32.125  1.00  0.00     0.173 A 
ATOM     67  F   UNL A   1      45.071  27.630  34.791  1.00  0.00    -0.203 F 
ATOM     68  C   UNL A   1      47.353  27.265  34.389  1.00  0.00     0.198 A 
ATOM     69  C   UNL A   1      48.409  28.231  32.466  1.00  0.00     0.198 A 
ATOM     70  F   UNL A   1      47.191  29.635  31.026  1.00  0.00    -0.203 F 
ATOM     71  F   UNL A   1      47.426  26.543  35.516  1.00  0.00    -0.200 F 
ATOM     72  C   UNL A   1      48.484  27.451  33.610  1.00  0.00     0.200 A 
ATOM     73  F   UNL A   1      49.492  28.382  31.692  1.00  0.00    -0.200 F 
ATOM     74  F   UNL A   1      49.644  26.885  33.966  1.00  0.00    -0.200 F 
ENDBRANCH  50  64
BRANCH  51  75
ATOM     75  C   UNL A   1      37.381  32.610  30.549  1.00  0.00     0.064 A 
ATOM     76  C   UNL A   1      37.079  33.427  29.450  1.00  0.00     0.173 A 
ATOM     77  C   UNL A   1      36.328  32.253  31.404  1.00  0.00     0.173 A 
ATOM     78  F   UNL A   1      38.059  33.818  28.620  1.00  0.00    -0.203 F 
ATOM     79  C   UNL A   1      35.781  33.876  29.218  1.00  0.00     0.198 A 
ATOM     80  C   UNL A   1      35.025  32.687  31.160  1.00  0.00     0.198 A 
ATOM     81  F   UNL A   1      36.567  31.502  32.489  1.00  0.00    -0.203 F 
ATOM     82  F   UNL A   1      35.529  34.683  28.178  1.00  0.00    -0.200 F 
ATOM     83  C   UNL A   1      34.753  33.499  30.069  1.00  0.00     0.200 A 
ATOM     84  F   UNL A   1      34.031  32.329  31.986  1.00  0.00    -0.200 F 
ATOM     85  F   UNL A   1      33.504  33.930  29.843  1.00  0.00    -0.200 F 
ENDBRANCH  51  75
BRANCH  63  86
ATOM     86  C   UNL A   1      42.823  35.066  34.106  1.00  0.00     0.064 A 
ATOM     87  C   UNL A   1      42.642  35.330  35.472  1.00  0.00     0.173 A 
ATOM     88  C   UNL A   1      43.298  36.108  33.295  1.00  0.00     0.173 A 
ATOM     89  F   UNL A   1      42.169  34.374  36.288  1.00  0.00    -0.203 F 
ATOM     90  C   UNL A   1      42.890  36.596  35.996  1.00  0.00     0.198 A 
ATOM     91  C   UNL A   1      43.576  37.364  33.828  1.00  0.00     0.198 A 
ATOM     92  F   UNL A   1      43.485  35.914  31.981  1.00  0.00    -0.203 F 
ATOM     93  F   UNL A   1      42.647  36.843  37.290  1.00  0.00    -0.200 F 
ATOM     94  C   UNL A   1      43.362  37.610  35.175  1.00  0.00     0.200 A 
ATOM     95  F   UNL A   1      44.042  38.339  33.036  1.00  0.00    -0.200 F 
ATOM     96  F   UNL A   1      43.599  38.828  35.681  1.00  0.00    -0.200 F 
ENDBRANCH  63  86
ENDBRANCH  37  38
ENDBRANCH  30  32
ENDBRANCH  29  30
ENDBRANCH  28  29
ENDBRANCH   1  28
TORSDOF 16
ENDMDL
MODEL 2
REMARK VINA RESULT:     -11.7      3.771      7.778
REMARK SMILES COc1ccc(-c2ccc(S(=O)(=O)NC(C)(C)C)cc2)c(C(=O)OCCOC(=O)c2ccc(-c3c4nc(c(-c5c(F)c(F)c(F)c(F)c5F)c5ccc([nH]5)c(-c5c(F)c(F)c(F)c(F)c5F)c5nc(c(-c6c(F)c(F)c(F)c(F)c6F)c6ccc3[nH]6)C=C5)C=C4)cc2)c1
REMARK SMILES IDX 25 1 24 2 22 3 23 4 21 5 3 6 4 7 93 8 5 9 6 10 2 11 1 12
REMARK SMILES IDX 7 13 8 14 20 15 9 16 19 17 10 18 11 19 12 20 13 21 14 22
REMARK SMILES IDX 15 24 16 25 17 26 18 27 26 28 27 29 28 30 29 31 30 32 31 33
REMARK SMILES IDX 92 34 32 35 91 36 33 37 34 38 35 39 85 40 36 41 90 42 84 43
REMARK SMILES IDX 86 44 37 45 89 46 83 47 82 48 38 50 70 51 50 52 69 53 51 54
REMARK SMILES IDX 54 55 68 56 87 57 52 58 53 59 67 61 88 62 55 63 39 64 40 65
REMARK SMILES IDX 48 66 41 67 42 68 46 69 49 70 43 71 44 72 47 73 45 74 71 75
REMARK SMILES IDX 72 76 80 77 73 78 74 79 78 80 81 81 75 82 76 83 79 84 77 85
REMARK SMILES IDX 56 86 57 87 65 88 58 89 59 90 63 91 66 92 60 93 61 94 64 95
REMARK SMILES IDX 62 96
REMARK H PARENT 14 23 86 49 54 60
REMARK Flexibility Score: inf
ROOT
ATOM      1  C   UNL A   1      37.741  21.364  25.308  1.00  0.00     0.275 C 
ENDROOT
BRANCH   1   2
ATOM      2  O   UNL A   1      36.502  21.153  24.597  1.00  0.00    -0.458 OA
BRANCH   2   3
ATOM      3  C   UNL A   1      35.408  20.922  25.370  1.00  0.00     0.339 C 
ATOM      4  O   UNL A   1      35.180  21.416  26.461  1.00  0.00    -0.246 OA
BRANCH   3   5
ATOM      5  C   UNL A   1      34.519  19.923  24.724  1.00  0.00     0.071 A 
ATOM      6  C   UNL A   1      34.180  17.592  24.141  1.00  0.00     0.119 A 
ATOM      7  C   UNL A   1      32.899  17.911  23.691  1.00  0.00     0.047 A 
ATOM      8  C   UNL A   1      34.994  18.601  24.647  1.00  0.00     0.062 A 
ATOM      9  C   UNL A   1      32.425  19.228  23.750  1.00  0.00     0.013 A 
ATOM     10  C   UNL A   1      33.222  20.258  24.267  1.00  0.00    -0.004 A 
BRANCH   6  11
ATOM     11  O   UNL A   1      34.532  16.276  24.019  1.00  0.00    -0.497 OA
ATOM     12  C   UNL A   1      34.901  15.609  25.223  1.00  0.00     0.278 C 
ENDBRANCH   6  11
BRANCH  10  13
ATOM     13  C   UNL A   1      32.748  21.644  24.170  1.00  0.00    -0.017 A 
ATOM     14  C   UNL A   1      32.940  22.636  22.712  1.00  0.00     0.010 A 
ATOM     15  C   UNL A   1      31.653  22.263  25.461  1.00  0.00     0.010 A 
ATOM     16  C   UNL A   1      32.097  24.201  22.464  1.00  0.00     0.022 A 
ATOM     17  C   UNL A   1      30.661  23.992  25.126  1.00  0.00     0.022 A 
ATOM     18  C   UNL A   1      30.975  24.901  23.634  1.00  0.00     0.082 A 
BRANCH  18  19
ATOM     19  S   UNL A   1      30.526  26.620  23.567  1.00  0.00     0.241 S 
ATOM     20  O   UNL A   1      30.944  27.145  22.293  1.00  0.00    -0.207 OA
ATOM     21  O   UNL A   1      29.132  26.650  23.960  1.00  0.00    -0.207 OA
BRANCH  19  22
ATOM     22  N   UNL A   1      31.316  27.443  24.821  1.00  0.00    -0.206 NA
ATOM     23  H   UNL A   1      32.222  26.980  24.892  1.00  0.00     0.141 HD
BRANCH  22  24
ATOM     24  C   UNL A   1      31.641  28.910  24.966  1.00  0.00     0.025 C 
ATOM     25  C   UNL A   1      31.797  29.416  26.398  1.00  0.00     0.028 C 
ATOM     26  C   UNL A   1      32.969  29.131  24.205  1.00  0.00     0.028 C 
ATOM     27  C   UNL A   1      30.632  29.799  24.258  1.00  0.00     0.028 C 
ENDBRANCH  22  24
ENDBRANCH  19  22
ENDBRANCH  18  19
ENDBRANCH  10  13
ENDBRANCH   3   5
ENDBRANCH   2   3
ENDBRANCH   1   2
BRANCH   1  28
ATOM     28  C   UNL A   1      38.615  20.112  25.277  1.00  0.00     0.275 C 
BRANCH  28  29
ATOM     29  O   UNL A   1      39.435  20.058  26.460  1.00  0.00    -0.458 OA
BRANCH  29  30
ATOM     30  C   UNL A   1      40.745  19.907  26.185  1.00  0.00     0.338 C 
ATOM     31  O   UNL A   1      41.269  18.987  25.574  1.00  0.00    -0.246 OA
BRANCH  30  32
ATOM     32  C   UNL A   1      41.559  21.051  26.603  1.00  0.00     0.060 A 
ATOM     33  C   UNL A   1      42.249  21.166  28.254  1.00  0.00     0.016 A 
ATOM     34  C   UNL A   1      41.165  22.551  25.773  1.00  0.00     0.016 A 
ATOM     35  C   UNL A   1      42.460  23.004  29.073  1.00  0.00     0.010 A 
ATOM     36  C   UNL A   1      41.417  24.164  26.495  1.00  0.00     0.010 A 
ATOM     37  C   UNL A   1      42.074  24.479  28.126  1.00  0.00    -0.014 A 
BRANCH  37  38
ATOM     38  C   UNL A   1      42.746  25.847  28.516  1.00  0.00     0.031 A 
ATOM     39  C   UNL A   1      41.899  27.012  29.023  1.00  0.00     0.074 A 
ATOM     40  C   UNL A   1      44.028  26.202  28.214  1.00  0.00     0.049 A 
ATOM     41  N   UNL A   1      42.066  28.311  28.890  1.00  0.00    -0.248 NA
ATOM     42  C   UNL A   1      40.673  26.665  29.743  1.00  0.00     0.031 C 
ATOM     43  C   UNL A   1      45.152  25.344  27.867  1.00  0.00     0.029 A 
ATOM     44  N   UNL A   1      44.577  27.469  28.017  1.00  0.00    -0.354 N 
ATOM     45  C   UNL A   1      40.932  28.902  29.439  1.00  0.00     0.074 A 
ATOM     46  C   UNL A   1      40.016  27.817  29.723  1.00  0.00     0.031 C 
ATOM     47  C   UNL A   1      46.096  26.038  27.218  1.00  0.00     0.029 A 
ATOM     48  C   UNL A   1      45.745  27.444  27.270  1.00  0.00     0.049 A 
ATOM     49  H   UNL A   1      44.178  28.295  28.372  1.00  0.00     0.167 HD
ATOM     50  C   UNL A   1      40.704  30.191  29.809  1.00  0.00     0.037 A 
ATOM     51  C   UNL A   1      46.509  28.408  26.717  1.00  0.00     0.037 A 
ATOM     52  C   UNL A   1      41.676  31.254  29.727  1.00  0.00     0.049 A 
ATOM     53  C   UNL A   1      46.280  29.832  27.102  1.00  0.00     0.074 A 
ATOM     54  C   UNL A   1      41.613  32.528  30.270  1.00  0.00     0.029 A 
ATOM     55  N   UNL A   1      42.904  31.161  29.091  1.00  0.00    -0.354 N 
ATOM     56  N   UNL A   1      45.254  30.361  27.714  1.00  0.00    -0.248 NA
ATOM     57  C   UNL A   1      47.380  30.771  26.841  1.00  0.00     0.031 C 
ATOM     58  C   UNL A   1      42.783  33.217  29.933  1.00  0.00     0.029 A 
ATOM     59  C   UNL A   1      43.598  32.358  29.220  1.00  0.00     0.049 A 
ATOM     60  H   UNL A   1      43.235  30.365  28.618  1.00  0.00     0.167 HD
ATOM     61  C   UNL A   1      45.619  31.667  27.997  1.00  0.00     0.074 A 
ATOM     62  C   UNL A   1      46.947  31.863  27.455  1.00  0.00     0.031 C 
ATOM     63  C   UNL A   1      44.919  32.591  28.695  1.00  0.00     0.037 A 
BRANCH  50  64
ATOM     64  C   UNL A   1      39.369  30.515  30.444  1.00  0.00     0.064 A 
ATOM     65  C   UNL A   1      39.191  30.511  31.839  1.00  0.00     0.173 A 
ATOM     66  C   UNL A   1      38.262  30.864  29.655  1.00  0.00     0.173 A 
ATOM     67  F   UNL A   1      40.214  30.212  32.653  1.00  0.00    -0.203 F 
ATOM     68  C   UNL A   1      37.943  30.749  32.410  1.00  0.00     0.198 A 
ATOM     69  C   UNL A   1      37.028  31.160  30.233  1.00  0.00     0.198 A 
ATOM     70  F   UNL A   1      38.373  30.927  28.319  1.00  0.00    -0.203 F 
ATOM     71  F   UNL A   1      37.784  30.632  33.736  1.00  0.00    -0.200 F 
ATOM     72  C   UNL A   1      36.863  31.078  31.608  1.00  0.00     0.200 A 
ATOM     73  F   UNL A   1      35.993  31.515  29.460  1.00  0.00    -0.200 F 
ATOM     74  F   UNL A   1      35.664  31.310  32.158  1.00  0.00    -0.200 F 
ENDBRANCH  50  64
BRANCH  51  75
ATOM     75  C   UNL A   1      47.681  28.038  25.875  1.00  0.00     0.064 A 
ATOM     76  C   UNL A   1      47.535  27.773  24.506  1.00  0.00     0.173 A 
ATOM     77  C   UNL A   1      48.970  27.957  26.421  1.00  0.00     0.173 A 
ATOM     78  F   UNL A   1      46.317  27.811  23.944  1.00  0.00    -0.203 F 
ATOM     79  C   UNL A   1      48.630  27.434  23.715  1.00  0.00     0.198 A 
ATOM     80  C   UNL A   1      50.069  27.636  25.624  1.00  0.00     0.198 A 
ATOM     81  F   UNL A   1      49.161  28.166  27.731  1.00  0.00    -0.203 F 
ATOM     82  F   UNL A   1      48.455  27.154  22.416  1.00  0.00    -0.200 F 
ATOM     83  C   UNL A   1      49.898  27.373  24.273  1.00  0.00     0.200 A 
ATOM     84  F   UNL A   1      51.295  27.570  26.164  1.00  0.00    -0.200 F 
ATOM     85  F   UNL A   1      50.952  27.048  23.510  1.00  0.00    -0.200 F 
ENDBRANCH  51  75
BRANCH  63  86
ATOM     86  C   UNL A   1      45.603  33.892  28.992  1.00  0.00     0.064 A 
ATOM     87  C   UNL A   1      45.487  35.007  28.149  1.00  0.00     0.173 A 
ATOM     88  C   UNL A   1      46.404  34.019  30.139  1.00  0.00     0.173 A 
ATOM     89  F   UNL A   1      44.752  34.932  27.028  1.00  0.00    -0.203 F 
ATOM     90  C   UNL A   1      46.175  36.186  28.422  1.00  0.00     0.198 A 
ATOM     91  C   UNL A   1      47.064  35.210  30.426  1.00  0.00     0.198 A 
ATOM     92  F   UNL A   1      46.554  32.983  30.978  1.00  0.00    -0.203 F 
ATOM     93  F   UNL A   1      46.102  37.216  27.567  1.00  0.00    -0.200 F 
ATOM     94  C   UNL A   1      46.957  36.289  29.563  1.00  0.00     0.200 A 
ATOM     95  F   UNL A   1      47.810  35.310  31.534  1.00  0.00    -0.200 F 
ATOM     96  F   UNL A   1      47.619  37.425  29.824  1.00  0.00    -0.200 F 
ENDBRANCH  63  86
ENDBRANCH  37  38
ENDBRANCH  30  32
ENDBRANCH  29  30
ENDBRANCH  28  29
ENDBRANCH   1  28
TORSDOF 16
ENDMDL
MODEL 3
REMARK VINA RESULT:     -11.6      1.967      2.613
REMARK SMILES COc1ccc(-c2ccc(S(=O)(=O)NC(C)(C)C)cc2)c(C(=O)OCCOC(=O)c2ccc(-c3c4nc(c(-c5c(F)c(F)c(F)c(F)c5F)c5ccc([nH]5)c(-c5c(F)c(F)c(F)c(F)c5F)c5nc(c(-c6c(F)c(F)c(F)c(F)c6F)c6ccc3[nH]6)C=C5)C=C4)cc2)c1
REMARK SMILES IDX 25 1 24 2 22 3 23 4 21 5 3 6 4 7 93 8 5 9 6 10 2 11 1 12
REMARK SMILES IDX 7 13 8 14 20 15 9 16 19 17 10 18 11 19 12 20 13 21 14 22
REMARK SMILES IDX 15 24 16 25 17 26 18 27 26 28 27 29 28 30 29 31 30 32 31 33
REMARK SMILES IDX 92 34 32 35 91 36 33 37 34 38 35 39 85 40 36 41 90 42 84 43
REMARK SMILES IDX 86 44 37 45 89 46 83 47 82 48 38 50 70 51 50 52 69 53 51 54
REMARK SMILES IDX 54 55 68 56 87 57 52 58 53 59 67 61 88 62 55 63 39 64 40 65
REMARK SMILES IDX 48 66 41 67 42 68 46 69 49 70 43 71 44 72 47 73 45 74 71 75
REMARK SMILES IDX 72 76 80 77 73 78 74 79 78 80 81 81 75 82 76 83 79 84 77 85
REMARK SMILES IDX 56 86 57 87 65 88 58 89 59 90 63 91 66 92 60 93 61 94 64 95
REMARK SMILES IDX 62 96
REMARK H PARENT 14 23 86 49 54 60
REMARK Flexibility Score: inf
ROOT
ATOM      1  C   UNL A   1      37.548  20.867  24.958  1.00  0.00     0.275 C 
ENDROOT
BRANCH   1   2
ATOM      2  O   UNL A   1      36.344  21.558  24.558  1.00  0.00    -0.458 OA
BRANCH   2   3
ATOM      3  C   UNL A   1      35.272  21.404  25.379  1.00  0.00     0.339 C 
ATOM      4  O   UNL A   1      35.146  21.878  26.496  1.00  0.00    -0.246 OA
BRANCH   3   5
ATOM      5  C   UNL A   1      34.261  20.518  24.749  1.00  0.00     0.071 A 
ATOM      6  C   UNL A   1      33.565  18.236  24.305  1.00  0.00     0.119 A 
ATOM      7  C   UNL A   1      32.378  18.725  23.757  1.00  0.00     0.047 A 
ATOM      8  C   UNL A   1      34.510  19.133  24.791  1.00  0.00     0.062 A 
ATOM      9  C   UNL A   1      32.130  20.102  23.698  1.00  0.00     0.013 A 
ATOM     10  C   UNL A   1      33.062  21.025  24.192  1.00  0.00    -0.004 A 
BRANCH   6  11
ATOM     11  O   UNL A   1      33.697  16.874  24.294  1.00  0.00    -0.497 OA
ATOM     12  C   UNL A   1      34.398  16.319  23.186  1.00  0.00     0.278 C 
ENDBRANCH   6  11
BRANCH  10  13
ATOM     13  C   UNL A   1      32.833  22.458  23.973  1.00  0.00    -0.017 A 
ATOM     14  C   UNL A   1      33.474  23.341  22.575  1.00  0.00     0.010 A 
ATOM     15  C   UNL A   1      31.596  23.288  24.988  1.00  0.00     0.010 A 
ATOM     16  C   UNL A   1      32.947  24.997  22.126  1.00  0.00     0.022 A 
ATOM     17  C   UNL A   1      30.968  25.123  24.420  1.00  0.00     0.022 A 
ATOM     18  C   UNL A   1      31.722  25.905  23.016  1.00  0.00     0.082 A 
BRANCH  18  19
ATOM     19  S   UNL A   1      31.561  27.666  22.826  1.00  0.00     0.241 S 
ATOM     20  O   UNL A   1      32.835  28.193  22.410  1.00  0.00    -0.207 OA
ATOM     21  O   UNL A   1      30.382  27.839  22.002  1.00  0.00    -0.207 OA
BRANCH  19  22
ATOM     22  N   UNL A   1      31.113  28.340  24.316  1.00  0.00    -0.206 NA
ATOM     23  H   UNL A   1      30.373  27.726  24.656  1.00  0.00     0.141 HD
BRANCH  22  24
ATOM     24  C   UNL A   1      31.946  28.624  25.542  1.00  0.00     0.025 C 
ATOM     25  C   UNL A   1      33.430  28.281  25.428  1.00  0.00     0.028 C 
ATOM     26  C   UNL A   1      31.800  30.138  25.818  1.00  0.00     0.028 C 
ATOM     27  C   UNL A   1      31.399  27.945  26.786  1.00  0.00     0.028 C 
ENDBRANCH  22  24
ENDBRANCH  19  22
ENDBRANCH  18  19
ENDBRANCH  10  13
ENDBRANCH   3   5
ENDBRANCH   2   3
ENDBRANCH   1   2
BRANCH   1  28
ATOM     28  C   UNL A   1      38.547  21.828  25.601  1.00  0.00     0.275 C 
BRANCH  28  29
ATOM     29  O   UNL A   1      39.719  21.105  26.023  1.00  0.00    -0.458 OA
BRANCH  29  30
ATOM     30  C   UNL A   1      40.802  21.895  26.159  1.00  0.00     0.338 C 
ATOM     31  O   UNL A   1      41.886  21.761  25.611  1.00  0.00    -0.246 OA
BRANCH  30  32
ATOM     32  C   UNL A   1      40.556  23.076  26.990  1.00  0.00     0.060 A 
ATOM     33  C   UNL A   1      39.678  24.507  26.358  1.00  0.00     0.016 A 
ATOM     34  C   UNL A   1      41.769  23.342  28.234  1.00  0.00     0.016 A 
ATOM     35  C   UNL A   1      40.193  26.330  27.069  1.00  0.00     0.010 A 
ATOM     36  C   UNL A   1      42.162  24.956  28.889  1.00  0.00     0.010 A 
ATOM     37  C   UNL A   1      41.412  26.493  28.377  1.00  0.00    -0.014 A 
BRANCH  37  38
ATOM     38  C   UNL A   1      41.398  27.773  29.293  1.00  0.00     0.031 A 
ATOM     39  C   UNL A   1      42.114  27.771  30.641  1.00  0.00     0.074 A 
ATOM     40  C   UNL A   1      40.582  28.852  29.116  1.00  0.00     0.049 A 
ATOM     41  N   UNL A   1      41.830  28.402  31.760  1.00  0.00    -0.248 NA
ATOM     42  C   UNL A   1      43.289  26.906  30.756  1.00  0.00     0.031 C 
ATOM     43  C   UNL A   1      39.878  29.272  27.913  1.00  0.00     0.029 A 
ATOM     44  N   UNL A   1      40.089  29.757  30.055  1.00  0.00    -0.354 N 
ATOM     45  C   UNL A   1      42.743  27.941  32.703  1.00  0.00     0.074 A 
ATOM     46  C   UNL A   1      43.450  26.846  32.071  1.00  0.00     0.031 C 
ATOM     47  C   UNL A   1      38.855  30.081  28.220  1.00  0.00     0.029 A 
ATOM     48  C   UNL A   1      38.940  30.407  29.631  1.00  0.00     0.049 A 
ATOM     49  H   UNL A   1      40.512  29.918  30.928  1.00  0.00     0.167 HD
ATOM     50  C   UNL A   1      43.078  28.443  33.923  1.00  0.00     0.037 A 
ATOM     51  C   UNL A   1      38.057  31.221  30.245  1.00  0.00     0.037 A 
ATOM     52  C   UNL A   1      42.535  29.653  34.490  1.00  0.00     0.049 A 
ATOM     53  C   UNL A   1      38.397  31.785  31.585  1.00  0.00     0.074 A 
ATOM     54  C   UNL A   1      42.962  30.352  35.609  1.00  0.00     0.029 A 
ATOM     55  N   UNL A   1      41.468  30.367  33.968  1.00  0.00    -0.354 N 
ATOM     56  N   UNL A   1      39.327  31.410  32.422  1.00  0.00    -0.248 NA
ATOM     57  C   UNL A   1      37.648  32.978  32.008  1.00  0.00     0.031 C 
ATOM     58  C   UNL A   1      42.134  31.466  35.785  1.00  0.00     0.029 A 
ATOM     59  C   UNL A   1      41.219  31.490  34.748  1.00  0.00     0.049 A 
ATOM     60  H   UNL A   1      40.962  30.116  33.162  1.00  0.00     0.167 HD
ATOM     61  C   UNL A   1      39.343  32.370  33.421  1.00  0.00     0.074 A 
ATOM     62  C   UNL A   1      38.301  33.325  33.107  1.00  0.00     0.031 C 
ATOM     63  C   UNL A   1      40.193  32.461  34.470  1.00  0.00     0.037 A 
BRANCH  50  64
ATOM     64  C   UNL A   1      44.169  27.738  34.699  1.00  0.00     0.064 A 
ATOM     65  C   UNL A   1      43.886  26.695  35.598  1.00  0.00     0.173 A 
ATOM     66  C   UNL A   1      45.518  28.085  34.520  1.00  0.00     0.173 A 
ATOM     67  F   UNL A   1      42.620  26.295  35.797  1.00  0.00    -0.203 F 
ATOM     68  C   UNL A   1      44.891  26.096  36.353  1.00  0.00     0.198 A 
ATOM     69  C   UNL A   1      46.529  27.442  35.234  1.00  0.00     0.198 A 
ATOM     70  F   UNL A   1      45.863  29.044  33.647  1.00  0.00    -0.203 F 
ATOM     71  F   UNL A   1      44.574  25.180  37.278  1.00  0.00    -0.200 F 
ATOM     72  C   UNL A   1      46.213  26.466  36.167  1.00  0.00     0.200 A 
ATOM     73  F   UNL A   1      47.811  27.774  35.028  1.00  0.00    -0.200 F 
ATOM     74  F   UNL A   1      47.180  25.887  36.891  1.00  0.00    -0.200 F 
ENDBRANCH  50  64
BRANCH  51  75
ATOM     75  C   UNL A   1      36.846  31.692  29.518  1.00  0.00     0.064 A 
ATOM     76  C   UNL A   1      36.733  33.020  29.082  1.00  0.00     0.173 A 
ATOM     77  C   UNL A   1      35.786  30.819  29.233  1.00  0.00     0.173 A 
ATOM     78  F   UNL A   1      37.710  33.898  29.356  1.00  0.00    -0.203 F 
ATOM     79  C   UNL A   1      35.604  33.461  28.396  1.00  0.00     0.198 A 
ATOM     80  C   UNL A   1      34.664  31.257  28.528  1.00  0.00     0.198 A 
ATOM     81  F   UNL A   1      35.827  29.548  29.656  1.00  0.00    -0.203 F 
ATOM     82  F   UNL A   1      35.510  34.744  28.020  1.00  0.00    -0.200 F 
ATOM     83  C   UNL A   1      34.574  32.577  28.112  1.00  0.00     0.200 A 
ATOM     84  F   UNL A   1      33.664  30.406  28.260  1.00  0.00    -0.200 F 
ATOM     85  F   UNL A   1      33.489  33.003  27.450  1.00  0.00    -0.200 F 
ENDBRANCH  51  75
BRANCH  63  86
ATOM     86  C   UNL A   1      40.094  33.686  35.329  1.00  0.00     0.064 A 
ATOM     87  C   UNL A   1      40.683  34.905  34.963  1.00  0.00     0.173 A 
ATOM     88  C   UNL A   1      39.407  33.632  36.553  1.00  0.00     0.173 A 
ATOM     89  F   UNL A   1      41.371  35.005  33.815  1.00  0.00    -0.203 F 
ATOM     90  C   UNL A   1      40.620  36.013  35.805  1.00  0.00     0.198 A 
ATOM     91  C   UNL A   1      39.317  34.750  37.377  1.00  0.00     0.198 A 
ATOM     92  F   UNL A   1      38.829  32.490  36.955  1.00  0.00    -0.203 F 
ATOM     93  F   UNL A   1      41.247  37.147  35.466  1.00  0.00    -0.200 F 
ATOM     94  C   UNL A   1      39.932  35.936  37.008  1.00  0.00     0.200 A 
ATOM     95  F   UNL A   1      38.644  34.677  38.532  1.00  0.00    -0.200 F 
ATOM     96  F   UNL A   1      39.873  37.003  37.817  1.00  0.00    -0.200 F 
ENDBRANCH  63  86
ENDBRANCH  37  38
ENDBRANCH  30  32
ENDBRANCH  29  30
ENDBRANCH  28  29
ENDBRANCH   1  28
TORSDOF 16
ENDMDL
