MODEL 1
REMARK VINA RESULT:     -13.2      0.000      0.000
REMARK SMILES O=C(OCCOC(=O)c1ccc2c(c1)[C@@H]1C=CC[C@@H]1[C@H](c1ccncc1)N2)c1ccc(-c2c3nc(c(-c4c(F)c(F)c(F)c(F)c4F)c4ccc([nH]4)c(-c4c(F)c(F)c(F)c(F)c4F)c4nc(c(-c5c(F)c(F)c(F)c(F)c5F)c5ccc2[nH]5)C=C4)C=C3)cc1
REMARK SMILES IDX 4 1 3 2 2 3 1 4 28 5 29 6 90 7 30 8 89 9 31 10 32 11 33 12
REMARK SMILES IDX 83 13 34 14 88 15 82 16 84 17 35 18 87 19 81 20 80 21 36 23
REMARK SMILES IDX 68 24 48 25 67 26 49 27 52 28 66 29 85 30 50 31 51 32 65 34
REMARK SMILES IDX 86 35 53 36 37 37 38 38 46 39 39 40 40 41 44 42 47 43 41 44
REMARK SMILES IDX 42 45 45 46 43 47 69 48 70 49 78 50 71 51 72 52 76 53 79 54
REMARK SMILES IDX 73 55 74 56 77 57 75 58 54 59 55 60 63 61 56 62 57 63 61 64
REMARK SMILES IDX 64 65 58 66 59 67 62 68 60 69 5 70 6 71 7 72 8 73 9 74 10 75
REMARK SMILES IDX 14 76 11 77 13 78 12 79 15 80 27 81 16 82 19 83 20 84 17 86
REMARK SMILES IDX 18 87 21 88 22 89 26 90 23 91 25 92 24 93
REMARK H PARENT 84 22 52 33 27 85
REMARK Flexibility Score: inf
ROOT
ATOM      1  C   UNL A   1      32.855  31.060  26.823  1.00  0.00     0.275 C 
ENDROOT
BRANCH   1   2
ATOM      2  O   UNL A   1      32.452  32.390  27.202  1.00  0.00    -0.458 OA
BRANCH   2   3
ATOM      3  C   UNL A   1      33.101  33.299  27.967  1.00  0.00     0.338 C 
ATOM      4  O   UNL A   1      32.656  34.443  28.054  1.00  0.00    -0.246 OA
BRANCH   3   5
ATOM      5  C   UNL A   1      34.423  33.014  28.598  1.00  0.00     0.060 A 
ATOM      6  C   UNL A   1      35.665  33.334  28.046  1.00  0.00     0.016 A 
ATOM      7  C   UNL A   1      34.400  32.376  29.848  1.00  0.00     0.016 A 
ATOM      8  C   UNL A   1      36.849  33.126  28.756  1.00  0.00     0.010 A 
ATOM      9  C   UNL A   1      35.581  32.173  30.569  1.00  0.00     0.010 A 
ATOM     10  C   UNL A   1      36.821  32.543  30.020  1.00  0.00    -0.014 A 
BRANCH  10  11
ATOM     11  C   UNL A   1      38.086  32.084  30.648  1.00  0.00     0.031 A 
ATOM     12  C   UNL A   1      38.678  30.814  30.106  1.00  0.00     0.074 A 
ATOM     13  C   UNL A   1      38.708  32.768  31.635  1.00  0.00     0.049 A 
ATOM     14  N   UNL A   1      39.626  30.065  30.597  1.00  0.00    -0.248 NA
ATOM     15  C   UNL A   1      38.152  30.345  28.807  1.00  0.00     0.031 C 
ATOM     16  C   UNL A   1      38.305  34.072  32.167  1.00  0.00     0.029 A 
ATOM     17  N   UNL A   1      39.724  32.372  32.488  1.00  0.00    -0.354 N 
ATOM     18  C   UNL A   1      39.879  29.111  29.621  1.00  0.00     0.074 A 
ATOM     19  C   UNL A   1      38.890  29.270  28.583  1.00  0.00     0.031 C 
ATOM     20  C   UNL A   1      38.894  34.260  33.366  1.00  0.00     0.029 A 
ATOM     21  C   UNL A   1      39.684  33.079  33.683  1.00  0.00     0.049 A 
ATOM     22  H   UNL A   1      40.389  31.678  32.275  1.00  0.00     0.167 HD
ATOM     23  C   UNL A   1      40.919  28.250  29.561  1.00  0.00     0.037 A 
ATOM     24  C   UNL A   1      40.073  32.684  34.917  1.00  0.00     0.037 A 
ATOM     25  C   UNL A   1      41.863  28.103  30.630  1.00  0.00     0.049 A 
ATOM     26  C   UNL A   1      40.902  31.438  35.025  1.00  0.00     0.074 A 
ATOM     27  C   UNL A   1      43.016  27.345  30.684  1.00  0.00     0.029 A 
ATOM     28  N   UNL A   1      41.728  28.725  31.862  1.00  0.00    -0.354 N 
ATOM     29  N   UNL A   1      41.202  30.562  34.099  1.00  0.00    -0.248 NA
ATOM     30  C   UNL A   1      41.516  31.174  36.332  1.00  0.00     0.031 C 
ATOM     31  C   UNL A   1      43.548  27.464  31.974  1.00  0.00     0.029 A 
ATOM     32  C   UNL A   1      42.758  28.342  32.699  1.00  0.00     0.049 A 
ATOM     33  H   UNL A   1      41.004  29.346  32.105  1.00  0.00     0.167 HD
ATOM     34  C   UNL A   1      42.150  29.727  34.668  1.00  0.00     0.074 A 
ATOM     35  C   UNL A   1      42.287  30.132  36.053  1.00  0.00     0.031 C 
ATOM     36  C   UNL A   1      42.907  28.781  34.063  1.00  0.00     0.037 A 
BRANCH  23  37
ATOM     37  C   UNL A   1      41.110  27.478  28.291  1.00  0.00     0.064 A 
ATOM     38  C   UNL A   1      40.536  26.206  28.128  1.00  0.00     0.173 A 
ATOM     39  C   UNL A   1      41.838  28.011  27.221  1.00  0.00     0.173 A 
ATOM     40  F   UNL A   1      39.838  25.644  29.127  1.00  0.00    -0.203 F 
ATOM     41  C   UNL A   1      40.706  25.486  26.949  1.00  0.00     0.198 A 
ATOM     42  C   UNL A   1      41.982  27.298  26.032  1.00  0.00     0.198 A 
ATOM     43  F   UNL A   1      42.406  29.221  27.324  1.00  0.00    -0.203 F 
ATOM     44  F   UNL A   1      40.186  24.256  26.835  1.00  0.00    -0.200 F 
ATOM     45  C   UNL A   1      41.422  26.036  25.899  1.00  0.00     0.200 A 
ATOM     46  F   UNL A   1      42.669  27.834  25.012  1.00  0.00    -0.200 F 
ATOM     47  F   UNL A   1      41.580  25.347  24.760  1.00  0.00    -0.200 F 
ENDBRANCH  23  37
BRANCH  24  48
ATOM     48  C   UNL A   1      39.629  33.362  36.170  1.00  0.00     0.064 A 
ATOM     49  C   UNL A   1      40.397  34.351  36.790  1.00  0.00     0.173 A 
ATOM     50  C   UNL A   1      38.491  32.911  36.863  1.00  0.00     0.173 A 
ATOM     51  F   UNL A   1      41.550  34.746  36.233  1.00  0.00    -0.203 F 
ATOM     52  C   UNL A   1      40.032  34.874  38.036  1.00  0.00     0.198 A 
ATOM     53  C   UNL A   1      38.095  33.470  38.077  1.00  0.00     0.198 A 
ATOM     54  F   UNL A   1      37.811  31.846  36.427  1.00  0.00    -0.203 F 
ATOM     55  F   UNL A   1      40.830  35.761  38.646  1.00  0.00    -0.200 F 
ATOM     56  C   UNL A   1      38.872  34.448  38.669  1.00  0.00     0.200 A 
ATOM     57  F   UNL A   1      36.992  33.019  38.694  1.00  0.00    -0.200 F 
ATOM     58  F   UNL A   1      38.532  34.942  39.867  1.00  0.00    -0.200 F 
ENDBRANCH  24  48
BRANCH  36  59
ATOM     59  C   UNL A   1      44.080  28.262  34.831  1.00  0.00     0.064 A 
ATOM     60  C   UNL A   1      45.312  28.921  34.873  1.00  0.00     0.173 A 
ATOM     61  C   UNL A   1      43.938  27.069  35.561  1.00  0.00     0.173 A 
ATOM     62  F   UNL A   1      45.503  30.043  34.164  1.00  0.00    -0.203 F 
ATOM     63  C   UNL A   1      46.371  28.395  35.608  1.00  0.00     0.198 A 
ATOM     64  C   UNL A   1      44.983  26.568  36.325  1.00  0.00     0.198 A 
ATOM     65  F   UNL A   1      42.775  26.398  35.543  1.00  0.00    -0.203 F 
ATOM     66  F   UNL A   1      47.562  29.007  35.592  1.00  0.00    -0.200 F 
ATOM     67  C   UNL A   1      46.202  27.227  36.341  1.00  0.00     0.200 A 
ATOM     68  F   UNL A   1      44.811  25.449  37.041  1.00  0.00    -0.200 F 
ATOM     69  F   UNL A   1      47.220  26.731  37.057  1.00  0.00    -0.200 F 
ENDBRANCH  36  59
ENDBRANCH  10  11
ENDBRANCH   3   5
ENDBRANCH   2   3
ENDBRANCH   1   2
BRANCH   1  70
ATOM     70  C   UNL A   1      31.730  30.103  26.402  1.00  0.00     0.275 C 
BRANCH  70  71
ATOM     71  O   UNL A   1      32.156  28.760  26.099  1.00  0.00    -0.458 OA
BRANCH  71  72
ATOM     72  C   UNL A   1      31.674  27.809  26.942  1.00  0.00     0.338 C 
ATOM     73  O   UNL A   1      31.093  28.017  27.999  1.00  0.00    -0.246 OA
BRANCH  72  74
ATOM     74  C   UNL A   1      31.813  26.447  26.371  1.00  0.00     0.060 A 
ATOM     75  C   UNL A   1      30.702  25.883  25.742  1.00  0.00     0.018 A 
ATOM     76  C   UNL A   1      32.986  25.700  26.471  1.00  0.00     0.022 A 
ATOM     77  C   UNL A   1      30.764  24.587  25.205  1.00  0.00     0.027 A 
ATOM     78  C   UNL A   1      33.035  24.375  25.955  1.00  0.00    -0.017 A 
ATOM     79  C   UNL A   1      31.911  23.798  25.335  1.00  0.00     0.038 A 
ATOM     80  C   UNL A   1      34.311  23.580  26.053  1.00  0.00     0.049 C 
ATOM     81  N   UNL A   1      31.936  22.497  24.828  1.00  0.00    -0.378 N 
ATOM     82  C   UNL A   1      35.418  24.250  25.315  1.00  0.00    -0.023 C 
ATOM     83  C   UNL A   1      34.302  22.233  25.325  1.00  0.00     0.031 C 
ATOM     84  C   UNL A   1      32.940  21.556  25.327  1.00  0.00     0.114 C 
ATOM     85  H   UNL A   1      31.286  22.217  24.144  1.00  0.00     0.161 HD
ATOM     86  C   UNL A   1      35.652  23.689  24.125  1.00  0.00    -0.030 C 
ATOM     87  C   UNL A   1      34.824  22.490  23.902  1.00  0.00     0.034 C 
BRANCH  84  88
ATOM     88  C   UNL A   1      33.077  20.255  24.531  1.00  0.00    -0.022 A 
ATOM     89  C   UNL A   1      32.222  20.055  23.427  1.00  0.00     0.026 A 
ATOM     90  C   UNL A   1      33.871  19.174  24.926  1.00  0.00     0.026 A 
ATOM     91  C   UNL A   1      32.153  18.807  22.827  1.00  0.00     0.111 A 
ATOM     92  C   UNL A   1      33.753  17.971  24.239  1.00  0.00     0.111 A 
ATOM     93  N   UNL A   1      32.906  17.760  23.208  1.00  0.00    -0.265 NA
ENDBRANCH  84  88
ENDBRANCH  72  74
ENDBRANCH  71  72
ENDBRANCH  70  71
ENDBRANCH   1  70
TORSDOF 12
ENDMDL
MODEL 2
REMARK VINA RESULT:     -13.2      0.120      1.588
REMARK SMILES O=C(OCCOC(=O)c1ccc2c(c1)[C@@H]1C=CC[C@@H]1[C@H](c1ccncc1)N2)c1ccc(-c2c3nc(c(-c4c(F)c(F)c(F)c(F)c4F)c4ccc([nH]4)c(-c4c(F)c(F)c(F)c(F)c4F)c4nc(c(-c5c(F)c(F)c(F)c(F)c5F)c5ccc2[nH]5)C=C4)C=C3)cc1
REMARK SMILES IDX 4 1 3 2 2 3 1 4 28 5 29 6 90 7 30 8 89 9 31 10 32 11 33 12
REMARK SMILES IDX 83 13 34 14 88 15 82 16 84 17 35 18 87 19 81 20 80 21 36 23
REMARK SMILES IDX 68 24 48 25 67 26 49 27 52 28 66 29 85 30 50 31 51 32 65 34
REMARK SMILES IDX 86 35 53 36 37 37 38 38 46 39 39 40 40 41 44 42 47 43 41 44
REMARK SMILES IDX 42 45 45 46 43 47 69 48 70 49 78 50 71 51 72 52 76 53 79 54
REMARK SMILES IDX 73 55 74 56 77 57 75 58 54 59 55 60 63 61 56 62 57 63 61 64
REMARK SMILES IDX 64 65 58 66 59 67 62 68 60 69 5 70 6 71 7 72 8 73 9 74 10 75
REMARK SMILES IDX 14 76 11 77 13 78 12 79 15 80 27 81 16 82 19 83 20 84 17 86
REMARK SMILES IDX 18 87 21 88 22 89 26 90 23 91 25 92 24 93
REMARK H PARENT 84 22 52 33 27 85
REMARK Flexibility Score: inf
ROOT
ATOM      1  C   UNL A   1      32.726  31.071  27.025  1.00  0.00     0.275 C 
ENDROOT
BRANCH   1   2
ATOM      2  O   UNL A   1      32.437  32.464  27.246  1.00  0.00    -0.458 OA
BRANCH   2   3
ATOM      3  C   UNL A   1      33.102  33.370  28.001  1.00  0.00     0.338 C 
ATOM      4  O   UNL A   1      32.670  34.519  28.085  1.00  0.00    -0.246 OA
BRANCH   3   5
ATOM      5  C   UNL A   1      34.425  33.074  28.625  1.00  0.00     0.060 A 
ATOM      6  C   UNL A   1      35.666  33.307  28.030  1.00  0.00     0.016 A 
ATOM      7  C   UNL A   1      34.403  32.518  29.914  1.00  0.00     0.016 A 
ATOM      8  C   UNL A   1      36.856  33.098  28.731  1.00  0.00     0.010 A 
ATOM      9  C   UNL A   1      35.590  32.314  30.625  1.00  0.00     0.010 A 
ATOM     10  C   UNL A   1      36.832  32.598  30.030  1.00  0.00    -0.014 A 
BRANCH  10  11
ATOM     11  C   UNL A   1      38.091  32.130  30.663  1.00  0.00     0.031 A 
ATOM     12  C   UNL A   1      38.676  30.857  30.123  1.00  0.00     0.074 A 
ATOM     13  C   UNL A   1      38.715  32.810  31.651  1.00  0.00     0.049 A 
ATOM     14  N   UNL A   1      39.616  30.100  30.617  1.00  0.00    -0.248 NA
ATOM     15  C   UNL A   1      38.152  30.391  28.822  1.00  0.00     0.031 C 
ATOM     16  C   UNL A   1      38.319  34.117  32.182  1.00  0.00     0.029 A 
ATOM     17  N   UNL A   1      39.724  32.407  32.509  1.00  0.00    -0.354 N 
ATOM     18  C   UNL A   1      39.867  29.144  29.643  1.00  0.00     0.074 A 
ATOM     19  C   UNL A   1      38.883  29.311  28.601  1.00  0.00     0.031 C 
ATOM     20  C   UNL A   1      38.905  34.300  33.384  1.00  0.00     0.029 A 
ATOM     21  C   UNL A   1      39.686  33.114  33.704  1.00  0.00     0.049 A 
ATOM     22  H   UNL A   1      40.385  31.708  32.299  1.00  0.00     0.167 HD
ATOM     23  C   UNL A   1      40.900  28.276  29.587  1.00  0.00     0.037 A 
ATOM     24  C   UNL A   1      40.067  32.716  34.939  1.00  0.00     0.037 A 
ATOM     25  C   UNL A   1      41.840  28.122  30.659  1.00  0.00     0.049 A 
ATOM     26  C   UNL A   1      40.886  31.464  35.050  1.00  0.00     0.074 A 
ATOM     27  C   UNL A   1      42.987  27.356  30.717  1.00  0.00     0.029 A 
ATOM     28  N   UNL A   1      41.705  28.745  31.891  1.00  0.00    -0.354 N 
ATOM     29  N   UNL A   1      41.184  30.587  34.125  1.00  0.00    -0.248 NA
ATOM     30  C   UNL A   1      41.493  31.196  36.360  1.00  0.00     0.031 C 
ATOM     31  C   UNL A   1      43.514  27.471  32.009  1.00  0.00     0.029 A 
ATOM     32  C   UNL A   1      42.728  28.355  32.732  1.00  0.00     0.049 A 
ATOM     33  H   UNL A   1      40.984  29.371  32.131  1.00  0.00     0.167 HD
ATOM     34  C   UNL A   1      42.123  29.745  34.698  1.00  0.00     0.074 A 
ATOM     35  C   UNL A   1      42.257  30.149  36.083  1.00  0.00     0.031 C 
ATOM     36  C   UNL A   1      42.875  28.792  34.096  1.00  0.00     0.037 A 
BRANCH  23  37
ATOM     37  C   UNL A   1      41.091  27.502  28.318  1.00  0.00     0.064 A 
ATOM     38  C   UNL A   1      41.865  28.022  27.266  1.00  0.00     0.173 A 
ATOM     39  C   UNL A   1      40.533  26.229  28.154  1.00  0.00     0.173 A 
ATOM     40  F   UNL A   1      42.413  29.242  27.367  1.00  0.00    -0.203 F 
ATOM     41  C   UNL A   1      42.050  27.305  26.087  1.00  0.00     0.198 A 
ATOM     42  C   UNL A   1      40.744  25.503  26.983  1.00  0.00     0.198 A 
ATOM     43  F   UNL A   1      39.787  25.686  29.126  1.00  0.00    -0.203 F 
ATOM     44  F   UNL A   1      42.754  27.842  25.081  1.00  0.00    -0.200 F 
ATOM     45  C   UNL A   1      41.496  26.043  25.950  1.00  0.00     0.200 A 
ATOM     46  F   UNL A   1      40.214  24.278  26.853  1.00  0.00    -0.200 F 
ATOM     47  F   UNL A   1      41.680  25.349  24.818  1.00  0.00    -0.200 F 
ENDBRANCH  23  37
BRANCH  24  48
ATOM     48  C   UNL A   1      39.623  33.398  36.190  1.00  0.00     0.064 A 
ATOM     49  C   UNL A   1      40.379  34.406  36.794  1.00  0.00     0.173 A 
ATOM     50  C   UNL A   1      38.500  32.933  36.899  1.00  0.00     0.173 A 
ATOM     51  F   UNL A   1      41.519  34.817  36.222  1.00  0.00    -0.203 F 
ATOM     52  C   UNL A   1      40.016  34.934  38.038  1.00  0.00     0.198 A 
ATOM     53  C   UNL A   1      38.106  33.496  38.112  1.00  0.00     0.198 A 
ATOM     54  F   UNL A   1      37.836  31.852  36.479  1.00  0.00    -0.203 F 
ATOM     55  F   UNL A   1      40.805  35.841  38.632  1.00  0.00    -0.200 F 
ATOM     56  C   UNL A   1      38.871  34.493  38.687  1.00  0.00     0.200 A 
ATOM     57  F   UNL A   1      37.018  33.031  38.743  1.00  0.00    -0.200 F 
ATOM     58  F   UNL A   1      38.534  34.991  39.884  1.00  0.00    -0.200 F 
ENDBRANCH  24  48
BRANCH  36  59
ATOM     59  C   UNL A   1      44.041  28.265  34.869  1.00  0.00     0.064 A 
ATOM     60  C   UNL A   1      43.984  27.087  35.620  1.00  0.00     0.173 A 
ATOM     61  C   UNL A   1      45.256  28.969  34.828  1.00  0.00     0.173 A 
ATOM     62  F   UNL A   1      42.835  26.401  35.716  1.00  0.00    -0.203 F 
ATOM     63  C   UNL A   1      45.101  26.638  36.318  1.00  0.00     0.198 A 
ATOM     64  C   UNL A   1      46.380  28.498  35.493  1.00  0.00     0.198 A 
ATOM     65  F   UNL A   1      45.355  30.109  34.127  1.00  0.00    -0.203 F 
ATOM     66  F   UNL A   1      45.015  25.539  37.080  1.00  0.00    -0.200 F 
ATOM     67  C   UNL A   1      46.299  27.337  36.245  1.00  0.00     0.200 A 
ATOM     68  F   UNL A   1      47.537  29.168  35.408  1.00  0.00    -0.200 F 
ATOM     69  F   UNL A   1      47.376  26.895  36.909  1.00  0.00    -0.200 F 
ENDBRANCH  36  59
ENDBRANCH  10  11
ENDBRANCH   3   5
ENDBRANCH   2   3
ENDBRANCH   1   2
BRANCH   1  70
ATOM     70  C   UNL A   1      31.616  30.243  26.362  1.00  0.00     0.275 C 
BRANCH  70  71
ATOM     71  O   UNL A   1      31.989  28.897  26.008  1.00  0.00    -0.458 OA
BRANCH  71  72
ATOM     72  C   UNL A   1      31.567  27.944  26.880  1.00  0.00     0.338 C 
ATOM     73  O   UNL A   1      31.028  28.150  27.960  1.00  0.00    -0.246 OA
BRANCH  72  74
ATOM     74  C   UNL A   1      31.713  26.580  26.317  1.00  0.00     0.060 A 
ATOM     75  C   UNL A   1      30.617  26.023  25.654  1.00  0.00     0.018 A 
ATOM     76  C   UNL A   1      32.876  25.823  26.454  1.00  0.00     0.022 A 
ATOM     77  C   UNL A   1      30.686  24.726  25.122  1.00  0.00     0.027 A 
ATOM     78  C   UNL A   1      32.930  24.497  25.944  1.00  0.00    -0.017 A 
ATOM     79  C   UNL A   1      31.822  23.928  25.290  1.00  0.00     0.038 A 
ATOM     80  C   UNL A   1      34.197  23.692  26.082  1.00  0.00     0.049 C 
ATOM     81  N   UNL A   1      31.852  22.625  24.787  1.00  0.00    -0.378 N 
ATOM     82  C   UNL A   1      35.332  24.352  25.377  1.00  0.00    -0.023 C 
ATOM     83  C   UNL A   1      34.200  22.344  25.358  1.00  0.00     0.031 C 
ATOM     84  C   UNL A   1      32.832  21.677  25.319  1.00  0.00     0.114 C 
ATOM     85  H   UNL A   1      31.222  22.348  24.083  1.00  0.00     0.161 HD
ATOM     86  C   UNL A   1      35.597  23.786  24.196  1.00  0.00    -0.030 C 
ATOM     87  C   UNL A   1      34.768  22.593  23.951  1.00  0.00     0.034 C 
BRANCH  84  88
ATOM     88  C   UNL A   1      32.984  20.373  24.530  1.00  0.00    -0.022 A 
ATOM     89  C   UNL A   1      32.222  20.212  23.354  1.00  0.00     0.026 A 
ATOM     90  C   UNL A   1      33.694  19.259  24.987  1.00  0.00     0.026 A 
ATOM     91  C   UNL A   1      32.153  18.970  22.743  1.00  0.00     0.111 A 
ATOM     92  C   UNL A   1      33.586  18.063  24.285  1.00  0.00     0.111 A 
ATOM     93  N   UNL A   1      32.825  17.891  23.182  1.00  0.00    -0.265 NA
ENDBRANCH  84  88
ENDBRANCH  72  74
ENDBRANCH  71  72
ENDBRANCH  70  71
ENDBRANCH   1  70
TORSDOF 12
ENDMDL
MODEL 3
REMARK VINA RESULT:     -13.1      0.194      1.134
REMARK SMILES O=C(OCCOC(=O)c1ccc2c(c1)[C@@H]1C=CC[C@@H]1[C@H](c1ccncc1)N2)c1ccc(-c2c3nc(c(-c4c(F)c(F)c(F)c(F)c4F)c4ccc([nH]4)c(-c4c(F)c(F)c(F)c(F)c4F)c4nc(c(-c5c(F)c(F)c(F)c(F)c5F)c5ccc2[nH]5)C=C4)C=C3)cc1
REMARK SMILES IDX 4 1 3 2 2 3 1 4 28 5 29 6 90 7 30 8 89 9 31 10 32 11 33 12
REMARK SMILES IDX 83 13 34 14 88 15 82 16 84 17 35 18 87 19 81 20 80 21 36 23
REMARK SMILES IDX 68 24 48 25 67 26 49 27 52 28 66 29 85 30 50 31 51 32 65 34
REMARK SMILES IDX 86 35 53 36 37 37 38 38 46 39 39 40 40 41 44 42 47 43 41 44
REMARK SMILES IDX 42 45 45 46 43 47 69 48 70 49 78 50 71 51 72 52 76 53 79 54
REMARK SMILES IDX 73 55 74 56 77 57 75 58 54 59 55 60 63 61 56 62 57 63 61 64
REMARK SMILES IDX 64 65 58 66 59 67 62 68 60 69 5 70 6 71 7 72 8 73 9 74 10 75
REMARK SMILES IDX 14 76 11 77 13 78 12 79 15 80 27 81 16 82 19 83 20 84 17 86
REMARK SMILES IDX 18 87 21 88 22 89 26 90 23 91 25 92 24 93
REMARK H PARENT 84 22 52 33 27 85
REMARK Flexibility Score: inf
ROOT
ATOM      1  C   UNL A   1      32.733  31.108  27.062  1.00  0.00     0.275 C 
ENDROOT
BRANCH   1   2
ATOM      2  O   UNL A   1      32.445  32.504  27.265  1.00  0.00    -0.458 OA
BRANCH   2   3
ATOM      3  C   UNL A   1      33.096  33.413  28.027  1.00  0.00     0.338 C 
ATOM      4  O   UNL A   1      32.656  34.559  28.108  1.00  0.00    -0.246 OA
BRANCH   3   5
ATOM      5  C   UNL A   1      34.415  33.125  28.663  1.00  0.00     0.060 A 
ATOM      6  C   UNL A   1      35.658  33.478  28.135  1.00  0.00     0.016 A 
ATOM      7  C   UNL A   1      34.387  32.445  29.892  1.00  0.00     0.016 A 
ATOM      8  C   UNL A   1      36.838  33.263  28.852  1.00  0.00     0.010 A 
ATOM      9  C   UNL A   1      35.563  32.234  30.619  1.00  0.00     0.010 A 
ATOM     10  C   UNL A   1      36.804  32.638  30.096  1.00  0.00    -0.014 A 
BRANCH  10  11
ATOM     11  C   UNL A   1      38.068  32.175  30.722  1.00  0.00     0.031 A 
ATOM     12  C   UNL A   1      38.651  30.899  30.186  1.00  0.00     0.074 A 
ATOM     13  C   UNL A   1      38.697  32.861  31.703  1.00  0.00     0.049 A 
ATOM     14  N   UNL A   1      39.596  30.146  30.677  1.00  0.00    -0.248 NA
ATOM     15  C   UNL A   1      38.118  30.426  28.890  1.00  0.00     0.031 C 
ATOM     16  C   UNL A   1      38.304  34.170  32.229  1.00  0.00     0.029 A 
ATOM     17  N   UNL A   1      39.713  32.463  32.556  1.00  0.00    -0.354 N 
ATOM     18  C   UNL A   1      39.840  29.185  29.706  1.00  0.00     0.074 A 
ATOM     19  C   UNL A   1      38.849  29.345  28.671  1.00  0.00     0.031 C 
ATOM     20  C   UNL A   1      38.898  34.361  33.426  1.00  0.00     0.029 A 
ATOM     21  C   UNL A   1      39.682  33.176  33.747  1.00  0.00     0.049 A 
ATOM     22  H   UNL A   1      40.374  31.764  32.344  1.00  0.00     0.167 HD
ATOM     23  C   UNL A   1      40.875  28.318  29.647  1.00  0.00     0.037 A 
ATOM     24  C   UNL A   1      40.073  32.786  34.981  1.00  0.00     0.037 A 
ATOM     25  C   UNL A   1      41.822  28.171  30.714  1.00  0.00     0.049 A 
ATOM     26  C   UNL A   1      40.895  31.536  35.093  1.00  0.00     0.074 A 
ATOM     27  C   UNL A   1      42.970  27.406  30.769  1.00  0.00     0.029 A 
ATOM     28  N   UNL A   1      41.694  28.801  31.944  1.00  0.00    -0.354 N 
ATOM     29  N   UNL A   1      41.187  30.654  34.172  1.00  0.00    -0.248 NA
ATOM     30  C   UNL A   1      41.511  31.275  36.400  1.00  0.00     0.031 C 
ATOM     31  C   UNL A   1      43.506  27.529  32.056  1.00  0.00     0.029 A 
ATOM     32  C   UNL A   1      42.725  28.416  32.779  1.00  0.00     0.049 A 
ATOM     33  H   UNL A   1      40.975  29.427  32.185  1.00  0.00     0.167 HD
ATOM     34  C   UNL A   1      42.131  29.816  34.742  1.00  0.00     0.074 A 
ATOM     35  C   UNL A   1      42.274  30.228  36.124  1.00  0.00     0.031 C 
ATOM     36  C   UNL A   1      42.880  28.861  34.140  1.00  0.00     0.037 A 
BRANCH  23  37
ATOM     37  C   UNL A   1      41.057  27.538  28.382  1.00  0.00     0.064 A 
ATOM     38  C   UNL A   1      41.912  28.000  27.366  1.00  0.00     0.173 A 
ATOM     39  C   UNL A   1      40.410  26.313  28.185  1.00  0.00     0.173 A 
ATOM     40  F   UNL A   1      42.550  29.174  27.500  1.00  0.00    -0.203 F 
ATOM     41  C   UNL A   1      42.090  27.277  26.191  1.00  0.00     0.198 A 
ATOM     42  C   UNL A   1      40.612  25.578  27.018  1.00  0.00     0.198 A 
ATOM     43  F   UNL A   1      39.584  25.825  29.121  1.00  0.00    -0.203 F 
ATOM     44  F   UNL A   1      42.876  27.762  25.219  1.00  0.00    -0.200 F 
ATOM     45  C   UNL A   1      41.446  26.063  26.021  1.00  0.00     0.200 A 
ATOM     46  F   UNL A   1      39.995  24.398  26.857  1.00  0.00    -0.200 F 
ATOM     47  F   UNL A   1      41.623  25.361  24.893  1.00  0.00    -0.200 F 
ENDBRANCH  23  37
BRANCH  24  48
ATOM     48  C   UNL A   1      39.636  33.474  36.232  1.00  0.00     0.064 A 
ATOM     49  C   UNL A   1      40.365  34.528  36.791  1.00  0.00     0.173 A 
ATOM     50  C   UNL A   1      38.558  32.975  36.985  1.00  0.00     0.173 A 
ATOM     51  F   UNL A   1      41.467  34.976  36.176  1.00  0.00    -0.203 F 
ATOM     52  C   UNL A   1      40.017  35.066  38.036  1.00  0.00     0.198 A 
ATOM     53  C   UNL A   1      38.176  33.546  38.198  1.00  0.00     0.198 A 
ATOM     54  F   UNL A   1      37.930  31.857  36.607  1.00  0.00    -0.203 F 
ATOM     55  F   UNL A   1      40.781  36.018  38.587  1.00  0.00    -0.200 F 
ATOM     56  C   UNL A   1      38.913  34.588  38.728  1.00  0.00     0.200 A 
ATOM     57  F   UNL A   1      37.129  33.047  38.872  1.00  0.00    -0.200 F 
ATOM     58  F   UNL A   1      38.590  35.096  39.925  1.00  0.00    -0.200 F 
ENDBRANCH  24  48
BRANCH  36  59
ATOM     59  C   UNL A   1      44.052  28.340  34.908  1.00  0.00     0.064 A 
ATOM     60  C   UNL A   1      45.290  28.989  34.938  1.00  0.00     0.173 A 
ATOM     61  C   UNL A   1      43.904  27.155  35.648  1.00  0.00     0.173 A 
ATOM     62  F   UNL A   1      45.487  30.103  34.218  1.00  0.00    -0.203 F 
ATOM     63  C   UNL A   1      46.348  28.461  35.673  1.00  0.00     0.198 A 
ATOM     64  C   UNL A   1      44.949  26.653  36.412  1.00  0.00     0.198 A 
ATOM     65  F   UNL A   1      42.736  26.493  35.642  1.00  0.00    -0.203 F 
ATOM     66  F   UNL A   1      47.544  29.063  35.646  1.00  0.00    -0.200 F 
ATOM     67  C   UNL A   1      46.173  27.301  36.416  1.00  0.00     0.200 A 
ATOM     68  F   UNL A   1      44.771  25.541  37.139  1.00  0.00    -0.200 F 
ATOM     69  F   UNL A   1      47.191  26.803  37.132  1.00  0.00    -0.200 F 
ENDBRANCH  36  59
ENDBRANCH  10  11
ENDBRANCH   3   5
ENDBRANCH   2   3
ENDBRANCH   1   2
BRANCH   1  70
ATOM     70  C   UNL A   1      31.639  30.281  26.371  1.00  0.00     0.275 C 
BRANCH  70  71
ATOM     71  O   UNL A   1      32.026  28.942  26.005  1.00  0.00    -0.458 OA
BRANCH  71  72
ATOM     72  C   UNL A   1      31.624  27.978  26.874  1.00  0.00     0.338 C 
ATOM     73  O   UNL A   1      31.118  28.170  27.972  1.00  0.00    -0.246 OA
BRANCH  72  74
ATOM     74  C   UNL A   1      31.746  26.622  26.286  1.00  0.00     0.060 A 
ATOM     75  C   UNL A   1      30.662  26.121  25.563  1.00  0.00     0.018 A 
ATOM     76  C   UNL A   1      32.874  25.820  26.457  1.00  0.00     0.022 A 
ATOM     77  C   UNL A   1      30.707  24.834  25.004  1.00  0.00     0.027 A 
ATOM     78  C   UNL A   1      32.903  24.504  25.918  1.00  0.00    -0.017 A 
ATOM     79  C   UNL A   1      31.805  23.991  25.203  1.00  0.00     0.038 A 
ATOM     80  C   UNL A   1      34.132  23.650  26.094  1.00  0.00     0.049 C 
ATOM     81  N   UNL A   1      31.811  22.699  24.671  1.00  0.00    -0.378 N 
ATOM     82  C   UNL A   1      35.321  24.283  25.456  1.00  0.00    -0.023 C 
ATOM     83  C   UNL A   1      34.119  22.318  25.339  1.00  0.00     0.031 C 
ATOM     84  C   UNL A   1      32.732  21.704  25.223  1.00  0.00     0.114 C 
ATOM     85  H   UNL A   1      31.204  22.461  23.934  1.00  0.00     0.161 HD
ATOM     86  C   UNL A   1      35.619  23.733  24.275  1.00  0.00    -0.030 C 
ATOM     87  C   UNL A   1      34.759  22.577  23.965  1.00  0.00     0.034 C 
BRANCH  84  88
ATOM     88  C   UNL A   1      32.872  20.413  24.412  1.00  0.00    -0.022 A 
ATOM     89  C   UNL A   1      32.227  20.339  23.160  1.00  0.00     0.026 A 
ATOM     90  C   UNL A   1      33.449  19.238  24.902  1.00  0.00     0.026 A 
ATOM     91  C   UNL A   1      32.134  19.121  22.504  1.00  0.00     0.111 A 
ATOM     92  C   UNL A   1      33.330  18.072  24.154  1.00  0.00     0.111 A 
ATOM     93  N   UNL A   1      32.678  17.985  22.974  1.00  0.00    -0.265 NA
ENDBRANCH  84  88
ENDBRANCH  72  74
ENDBRANCH  71  72
ENDBRANCH  70  71
ENDBRANCH   1  70
TORSDOF 12
ENDMDL
