MODEL 1
REMARK VINA RESULT:     -13.9      0.000      0.000
REMARK SMILES O=C(OCCOC(=O)[C@H]1CC2=c3ccccc3=N[C@H]2[C@H](c2ccccc2F)[NH2+]1)c1ccc(-c2c3nc(c(-c4c(F)c(F)c(F)c(F)c4F)c4ccc([nH]4)c(-c4c(F)c(F)c(F)c(F)c4F)c4nc(c(-c5c(F)c(F)c(F)c(F)c5F)c5ccc2[nH]5)C=C4)C=C3)cc1
REMARK SMILES IDX 4 1 3 2 2 3 1 4 29 5 30 6 91 7 31 8 90 9 32 10 33 11 34 12
REMARK SMILES IDX 84 13 35 14 89 15 83 16 85 17 36 18 88 19 82 20 81 21 37 23
REMARK SMILES IDX 69 24 49 25 68 26 50 27 53 28 67 29 86 30 51 31 52 32 66 34
REMARK SMILES IDX 87 35 54 36 38 37 39 38 47 39 40 40 41 41 45 42 48 43 42 44
REMARK SMILES IDX 43 45 46 46 44 47 70 48 71 49 79 50 72 51 73 52 77 53 80 54
REMARK SMILES IDX 74 55 75 56 78 57 76 58 55 59 56 60 64 61 57 62 58 63 62 64
REMARK SMILES IDX 65 65 59 66 60 67 63 68 61 69 5 70 6 71 7 72 8 73 9 74 10 75
REMARK SMILES IDX 28 76 11 77 20 78 12 81 19 82 13 83 17 84 18 85 14 86 16 87
REMARK SMILES IDX 15 88 21 89 22 90 26 91 23 92 25 93 27 94 24 95
REMARK H PARENT 85 22 53 33 28 79 28 80
REMARK Flexibility Score: inf
ROOT
ATOM      1  C   UNL A   1      40.681  21.583  25.965  1.00  0.00     0.275 C 
ENDROOT
BRANCH   1   2
ATOM      2  O   UNL A   1      41.892  22.270  26.317  1.00  0.00    -0.458 OA
BRANCH   2   3
ATOM      3  C   UNL A   1      42.339  23.407  25.740  1.00  0.00     0.338 C 
ATOM      4  O   UNL A   1      43.033  23.381  24.726  1.00  0.00    -0.246 OA
BRANCH   3   5
ATOM      5  C   UNL A   1      42.148  24.702  26.432  1.00  0.00     0.060 A 
ATOM      6  C   UNL A   1      41.471  24.617  27.636  1.00  0.00     0.016 A 
ATOM      7  C   UNL A   1      42.630  25.949  26.009  1.00  0.00     0.016 A 
ATOM      8  C   UNL A   1      41.214  25.775  28.351  1.00  0.00     0.010 A 
ATOM      9  C   UNL A   1      42.387  27.119  26.774  1.00  0.00     0.010 A 
ATOM     10  C   UNL A   1      41.664  27.036  27.965  1.00  0.00    -0.014 A 
BRANCH  10  11
ATOM     11  C   UNL A   1      41.414  28.101  28.986  1.00  0.00     0.031 A 
ATOM     12  C   UNL A   1      40.152  28.923  28.961  1.00  0.00     0.074 A 
ATOM     13  C   UNL A   1      42.087  28.002  30.156  1.00  0.00     0.049 A 
ATOM     14  N   UNL A   1      39.629  29.665  29.907  1.00  0.00    -0.248 NA
ATOM     15  C   UNL A   1      39.355  28.876  27.727  1.00  0.00     0.031 C 
ATOM     16  C   UNL A   1      43.179  27.061  30.396  1.00  0.00     0.029 A 
ATOM     17  N   UNL A   1      41.858  28.568  31.393  1.00  0.00    -0.354 N 
ATOM     18  C   UNL A   1      38.444  30.170  29.391  1.00  0.00     0.074 A 
ATOM     19  C   UNL A   1      38.315  29.638  28.048  1.00  0.00     0.031 C 
ATOM     20  C   UNL A   1      43.433  27.015  31.712  1.00  0.00     0.029 A 
ATOM     21  C   UNL A   1      42.591  27.989  32.407  1.00  0.00     0.049 A 
ATOM     22  H   UNL A   1      41.231  29.314  31.536  1.00  0.00     0.167 HD
ATOM     23  C   UNL A   1      37.563  31.023  29.971  1.00  0.00     0.037 A 
ATOM     24  C   UNL A   1      42.588  28.206  33.741  1.00  0.00     0.037 A 
ATOM     25  C   UNL A   1      37.707  31.598  31.286  1.00  0.00     0.049 A 
ATOM     26  C   UNL A   1      41.734  29.315  34.297  1.00  0.00     0.074 A 
ATOM     27  C   UNL A   1      36.968  32.615  31.870  1.00  0.00     0.029 A 
ATOM     28  N   UNL A   1      38.649  31.209  32.222  1.00  0.00    -0.354 N 
ATOM     29  N   UNL A   1      40.721  29.936  33.748  1.00  0.00    -0.248 NA
ATOM     30  C   UNL A   1      42.083  29.807  35.639  1.00  0.00     0.031 C 
ATOM     31  C   UNL A   1      37.512  32.892  33.129  1.00  0.00     0.029 A 
ATOM     32  C   UNL A   1      38.553  32.008  33.353  1.00  0.00     0.049 A 
ATOM     33  H   UNL A   1      39.292  30.473  32.104  1.00  0.00     0.167 HD
ATOM     34  C   UNL A   1      40.344  30.922  34.654  1.00  0.00     0.074 A 
ATOM     35  C   UNL A   1      41.186  30.767  35.820  1.00  0.00     0.031 C 
ATOM     36  C   UNL A   1      39.411  31.892  34.503  1.00  0.00     0.037 A 
BRANCH  23  37
ATOM     37  C   UNL A   1      36.411  31.504  29.141  1.00  0.00     0.064 A 
ATOM     38  C   UNL A   1      35.325  30.681  28.821  1.00  0.00     0.173 A 
ATOM     39  C   UNL A   1      36.362  32.851  28.747  1.00  0.00     0.173 A 
ATOM     40  F   UNL A   1      35.329  29.387  29.176  1.00  0.00    -0.203 F 
ATOM     41  C   UNL A   1      34.226  31.193  28.134  1.00  0.00     0.198 A 
ATOM     42  C   UNL A   1      35.257  33.361  28.077  1.00  0.00     0.198 A 
ATOM     43  F   UNL A   1      37.376  33.678  29.045  1.00  0.00    -0.203 F 
ATOM     44  F   UNL A   1      33.194  30.393  27.830  1.00  0.00    -0.200 F 
ATOM     45  C   UNL A   1      34.189  32.533  27.770  1.00  0.00     0.200 A 
ATOM     46  F   UNL A   1      35.218  34.659  27.743  1.00  0.00    -0.200 F 
ATOM     47  F   UNL A   1      33.122  33.027  27.128  1.00  0.00    -0.200 F 
ENDBRANCH  23  37
BRANCH  24  48
ATOM     48  C   UNL A   1      43.472  27.419  34.653  1.00  0.00     0.064 A 
ATOM     49  C   UNL A   1      43.010  26.257  35.293  1.00  0.00     0.173 A 
ATOM     50  C   UNL A   1      44.786  27.824  34.937  1.00  0.00     0.173 A 
ATOM     51  F   UNL A   1      41.746  25.847  35.109  1.00  0.00    -0.203 F 
ATOM     52  C   UNL A   1      43.829  25.532  36.159  1.00  0.00     0.198 A 
ATOM     53  C   UNL A   1      45.620  27.070  35.757  1.00  0.00     0.198 A 
ATOM     54  F   UNL A   1      45.272  28.955  34.403  1.00  0.00    -0.203 F 
ATOM     55  F   UNL A   1      43.344  24.457  36.796  1.00  0.00    -0.200 F 
ATOM     56  C   UNL A   1      45.140  25.927  36.374  1.00  0.00     0.200 A 
ATOM     57  F   UNL A   1      46.890  27.455  35.949  1.00  0.00    -0.200 F 
ATOM     58  F   UNL A   1      45.936  25.217  37.185  1.00  0.00    -0.200 F 
ENDBRANCH  24  48
BRANCH  36  59
ATOM     59  C   UNL A   1      39.300  32.931  35.585  1.00  0.00     0.064 A 
ATOM     60  C   UNL A   1      39.952  34.169  35.461  1.00  0.00     0.173 A 
ATOM     61  C   UNL A   1      38.495  32.728  36.715  1.00  0.00     0.173 A 
ATOM     62  F   UNL A   1      40.741  34.412  34.404  1.00  0.00    -0.203 F 
ATOM     63  C   UNL A   1      39.815  35.155  36.434  1.00  0.00     0.198 A 
ATOM     64  C   UNL A   1      38.340  33.728  37.674  1.00  0.00     0.198 A 
ATOM     65  F   UNL A   1      37.842  31.569  36.883  1.00  0.00    -0.203 F 
ATOM     66  F   UNL A   1      40.476  36.315  36.306  1.00  0.00    -0.200 F 
ATOM     67  C   UNL A   1      39.004  34.938  37.535  1.00  0.00     0.200 A 
ATOM     68  F   UNL A   1      37.544  33.523  38.733  1.00  0.00    -0.200 F 
ATOM     69  F   UNL A   1      38.864  35.893  38.465  1.00  0.00    -0.200 F 
ENDBRANCH  36  59
ENDBRANCH  10  11
ENDBRANCH   3   5
ENDBRANCH   2   3
ENDBRANCH   1   2
BRANCH   1  70
ATOM     70  C   UNL A   1      39.388  22.230  26.471  1.00  0.00     0.274 C 
BRANCH  70  71
ATOM     71  O   UNL A   1      38.267  22.205  25.565  1.00  0.00    -0.458 OA
BRANCH  71  72
ATOM     72  C   UNL A   1      37.360  23.212  25.751  1.00  0.00     0.365 C 
ATOM     73  O   UNL A   1      37.626  24.257  26.339  1.00  0.00    -0.245 OA
BRANCH  72  74
ATOM     74  C   UNL A   1      35.925  22.885  25.278  1.00  0.00     0.298 C 
ATOM     75  C   UNL A   1      34.848  23.715  26.030  1.00  0.00     0.111 C 
ATOM     76  N   UNL A   1      35.772  22.757  23.789  1.00  0.00    -0.326 N 
ATOM     77  C   UNL A   1      33.988  24.505  25.106  1.00  0.00    -0.024 C 
ATOM     78  C   UNL A   1      34.345  22.657  23.342  1.00  0.00     0.246 C 
ATOM     79  H   UNL A   1      36.266  21.917  23.485  1.00  0.00     0.347 HD
ATOM     80  H   UNL A   1      36.159  23.604  23.373  1.00  0.00     0.347 HD
ATOM     81  C   UNL A   1      33.711  25.802  25.148  1.00  0.00     0.002 A 
ATOM     82  C   UNL A   1      33.514  23.919  23.814  1.00  0.00     0.196 C 
ATOM     83  C   UNL A   1      33.893  26.819  26.123  1.00  0.00     0.010 A 
ATOM     84  C   UNL A   1      33.523  26.096  23.714  1.00  0.00     0.066 A 
ATOM     85  N   UNL A   1      33.484  25.086  22.883  1.00  0.00    -0.270 NA
ATOM     86  C   UNL A   1      33.991  28.090  25.711  1.00  0.00     0.001 A 
ATOM     87  C   UNL A   1      33.656  27.526  23.340  1.00  0.00     0.028 A 
ATOM     88  C   UNL A   1      33.949  28.426  24.297  1.00  0.00     0.002 A 
BRANCH  78  89
ATOM     89  C   UNL A   1      33.611  21.388  23.841  1.00  0.00     0.048 A 
ATOM     90  C   UNL A   1      34.282  20.528  24.730  1.00  0.00     0.013 A 
ATOM     91  C   UNL A   1      32.421  20.907  23.293  1.00  0.00     0.132 A 
ATOM     92  C   UNL A   1      34.016  19.159  24.725  1.00  0.00     0.001 A 
ATOM     93  C   UNL A   1      32.154  19.541  23.265  1.00  0.00     0.040 A 
ATOM     94  F   UNL A   1      31.545  21.723  22.687  1.00  0.00    -0.206 F 
ATOM     95  C   UNL A   1      32.999  18.656  23.924  1.00  0.00     0.003 A 
ENDBRANCH  78  89
ENDBRANCH  72  74
ENDBRANCH  71  72
ENDBRANCH  70  71
ENDBRANCH   1  70
TORSDOF 12
ENDMDL
MODEL 2
REMARK VINA RESULT:     -13.7      0.424      1.630
REMARK SMILES O=C(OCCOC(=O)[C@H]1CC2=c3ccccc3=N[C@H]2[C@H](c2ccccc2F)[NH2+]1)c1ccc(-c2c3nc(c(-c4c(F)c(F)c(F)c(F)c4F)c4ccc([nH]4)c(-c4c(F)c(F)c(F)c(F)c4F)c4nc(c(-c5c(F)c(F)c(F)c(F)c5F)c5ccc2[nH]5)C=C4)C=C3)cc1
REMARK SMILES IDX 4 1 3 2 2 3 1 4 29 5 30 6 91 7 31 8 90 9 32 10 33 11 34 12
REMARK SMILES IDX 84 13 35 14 89 15 83 16 85 17 36 18 88 19 82 20 81 21 37 23
REMARK SMILES IDX 69 24 49 25 68 26 50 27 53 28 67 29 86 30 51 31 52 32 66 34
REMARK SMILES IDX 87 35 54 36 38 37 39 38 47 39 40 40 41 41 45 42 48 43 42 44
REMARK SMILES IDX 43 45 46 46 44 47 70 48 71 49 79 50 72 51 73 52 77 53 80 54
REMARK SMILES IDX 74 55 75 56 78 57 76 58 55 59 56 60 64 61 57 62 58 63 62 64
REMARK SMILES IDX 65 65 59 66 60 67 63 68 61 69 5 70 6 71 7 72 8 73 9 74 10 75
REMARK SMILES IDX 28 76 11 77 20 78 12 81 19 82 13 83 17 84 18 85 14 86 16 87
REMARK SMILES IDX 15 88 21 89 22 90 26 91 23 92 25 93 27 94 24 95
REMARK H PARENT 85 22 53 33 28 79 28 80
REMARK Flexibility Score: inf
ROOT
ATOM      1  C   UNL A   1      40.588  21.225  26.042  1.00  0.00     0.275 C 
ENDROOT
BRANCH   1   2
ATOM      2  O   UNL A   1      41.566  22.112  26.607  1.00  0.00    -0.458 OA
BRANCH   2   3
ATOM      3  C   UNL A   1      42.061  23.214  26.001  1.00  0.00     0.338 C 
ATOM      4  O   UNL A   1      42.750  23.132  24.987  1.00  0.00    -0.246 OA
BRANCH   3   5
ATOM      5  C   UNL A   1      41.931  24.533  26.662  1.00  0.00     0.060 A 
ATOM      6  C   UNL A   1      41.118  24.538  27.782  1.00  0.00     0.016 A 
ATOM      7  C   UNL A   1      42.585  25.716  26.290  1.00  0.00     0.016 A 
ATOM      8  C   UNL A   1      40.905  25.728  28.458  1.00  0.00     0.010 A 
ATOM      9  C   UNL A   1      42.382  26.917  27.018  1.00  0.00     0.010 A 
ATOM     10  C   UNL A   1      41.525  26.929  28.119  1.00  0.00    -0.014 A 
BRANCH  10  11
ATOM     11  C   UNL A   1      41.276  28.031  29.101  1.00  0.00     0.031 A 
ATOM     12  C   UNL A   1      40.022  28.863  29.035  1.00  0.00     0.074 A 
ATOM     13  C   UNL A   1      41.936  27.965  30.280  1.00  0.00     0.049 A 
ATOM     14  N   UNL A   1      39.497  29.642  29.950  1.00  0.00    -0.248 NA
ATOM     15  C   UNL A   1      39.237  28.782  27.796  1.00  0.00     0.031 C 
ATOM     16  C   UNL A   1      43.017  27.023  30.564  1.00  0.00     0.029 A 
ATOM     17  N   UNL A   1      41.701  28.575  31.495  1.00  0.00    -0.354 N 
ATOM     18  C   UNL A   1      38.322  30.140  29.405  1.00  0.00     0.074 A 
ATOM     19  C   UNL A   1      38.201  29.564  28.080  1.00  0.00     0.031 C 
ATOM     20  C   UNL A   1      43.258  27.020  31.883  1.00  0.00     0.029 A 
ATOM     21  C   UNL A   1      42.418  28.025  32.535  1.00  0.00     0.049 A 
ATOM     22  H   UNL A   1      41.080  29.332  31.607  1.00  0.00     0.167 HD
ATOM     23  C   UNL A   1      37.444  31.021  29.947  1.00  0.00     0.037 A 
ATOM     24  C   UNL A   1      42.405  28.287  33.861  1.00  0.00     0.037 A 
ATOM     25  C   UNL A   1      37.580  31.639  31.243  1.00  0.00     0.049 A 
ATOM     26  C   UNL A   1      41.555  29.423  34.370  1.00  0.00     0.074 A 
ATOM     27  C   UNL A   1      36.845  32.682  31.784  1.00  0.00     0.029 A 
ATOM     28  N   UNL A   1      38.510  31.273  32.201  1.00  0.00    -0.354 N 
ATOM     29  N   UNL A   1      40.554  30.034  33.791  1.00  0.00    -0.248 NA
ATOM     30  C   UNL A   1      41.896  29.957  35.699  1.00  0.00     0.031 C 
ATOM     31  C   UNL A   1      37.381  32.996  33.039  1.00  0.00     0.029 A 
ATOM     32  C   UNL A   1      38.411  32.111  33.303  1.00  0.00     0.049 A 
ATOM     33  H   UNL A   1      39.147  30.527  32.115  1.00  0.00     0.167 HD
ATOM     34  C   UNL A   1      40.178  31.054  34.659  1.00  0.00     0.074 A 
ATOM     35  C   UNL A   1      41.007  30.931  35.837  1.00  0.00     0.031 C 
ATOM     36  C   UNL A   1      39.256  32.027  34.465  1.00  0.00     0.037 A 
BRANCH  23  37
ATOM     37  C   UNL A   1      36.305  31.484  29.089  1.00  0.00     0.064 A 
ATOM     38  C   UNL A   1      35.236  30.646  28.750  1.00  0.00     0.173 A 
ATOM     39  C   UNL A   1      36.249  32.828  28.687  1.00  0.00     0.173 A 
ATOM     40  F   UNL A   1      35.247  29.354  29.112  1.00  0.00    -0.203 F 
ATOM     41  C   UNL A   1      34.146  31.141  28.036  1.00  0.00     0.198 A 
ATOM     42  C   UNL A   1      35.152  33.321  27.990  1.00  0.00     0.198 A 
ATOM     43  F   UNL A   1      37.246  33.668  29.003  1.00  0.00    -0.203 F 
ATOM     44  F   UNL A   1      33.131  30.328  27.714  1.00  0.00    -0.200 F 
ATOM     45  C   UNL A   1      34.102  32.479  27.665  1.00  0.00     0.200 A 
ATOM     46  F   UNL A   1      35.106  34.617  27.649  1.00  0.00    -0.200 F 
ATOM     47  F   UNL A   1      33.043  32.957  26.997  1.00  0.00    -0.200 F 
ENDBRANCH  23  37
BRANCH  24  48
ATOM     48  C   UNL A   1      43.272  27.523  34.809  1.00  0.00     0.064 A 
ATOM     49  C   UNL A   1      44.595  27.916  35.063  1.00  0.00     0.173 A 
ATOM     50  C   UNL A   1      42.813  26.365  35.457  1.00  0.00     0.173 A 
ATOM     51  F   UNL A   1      45.113  28.982  34.433  1.00  0.00    -0.203 F 
ATOM     52  C   UNL A   1      45.412  27.194  35.935  1.00  0.00     0.198 A 
ATOM     53  C   UNL A   1      43.609  25.677  36.368  1.00  0.00     0.198 A 
ATOM     54  F   UNL A   1      41.577  25.904  35.216  1.00  0.00    -0.203 F 
ATOM     55  F   UNL A   1      46.687  27.562  36.118  1.00  0.00    -0.200 F 
ATOM     56  C   UNL A   1      44.911  26.087  36.602  1.00  0.00     0.200 A 
ATOM     57  F   UNL A   1      43.111  24.615  37.017  1.00  0.00    -0.200 F 
ATOM     58  F   UNL A   1      45.684  25.407  37.459  1.00  0.00    -0.200 F 
ENDBRANCH  24  48
BRANCH  36  59
ATOM     59  C   UNL A   1      39.144  33.103  35.510  1.00  0.00     0.064 A 
ATOM     60  C   UNL A   1      38.432  32.876  36.700  1.00  0.00     0.173 A 
ATOM     61  C   UNL A   1      39.797  34.335  35.366  1.00  0.00     0.173 A 
ATOM     62  F   UNL A   1      37.782  31.718  36.886  1.00  0.00    -0.203 F 
ATOM     63  C   UNL A   1      38.364  33.848  37.694  1.00  0.00     0.198 A 
ATOM     64  C   UNL A   1      39.748  35.296  36.375  1.00  0.00     0.198 A 
ATOM     65  F   UNL A   1      40.499  34.604  34.255  1.00  0.00    -0.203 F 
ATOM     66  F   UNL A   1      37.648  33.619  38.805  1.00  0.00    -0.200 F 
ATOM     67  C   UNL A   1      39.028  35.054  37.535  1.00  0.00     0.200 A 
ATOM     68  F   UNL A   1      40.403  36.456  36.227  1.00  0.00    -0.200 F 
ATOM     69  F   UNL A   1      38.972  35.984  38.499  1.00  0.00    -0.200 F 
ENDBRANCH  36  59
ENDBRANCH  10  11
ENDBRANCH   3   5
ENDBRANCH   2   3
ENDBRANCH   1   2
BRANCH   1  70
ATOM     70  C   UNL A   1      39.130  21.667  26.201  1.00  0.00     0.274 C 
BRANCH  70  71
ATOM     71  O   UNL A   1      38.708  22.776  25.382  1.00  0.00    -0.458 OA
BRANCH  71  72
ATOM     72  C   UNL A   1      37.690  23.522  25.912  1.00  0.00     0.365 C 
ATOM     73  O   UNL A   1      37.874  24.452  26.694  1.00  0.00    -0.245 OA
BRANCH  72  74
ATOM     74  C   UNL A   1      36.270  23.023  25.557  1.00  0.00     0.298 C 
ATOM     75  C   UNL A   1      35.158  23.832  26.281  1.00  0.00     0.111 C 
ATOM     76  N   UNL A   1      36.059  22.724  24.100  1.00  0.00    -0.326 N 
ATOM     77  C   UNL A   1      34.186  24.441  25.332  1.00  0.00    -0.024 C 
ATOM     78  C   UNL A   1      34.629  22.454  23.747  1.00  0.00     0.246 C 
ATOM     79  H   UNL A   1      36.614  21.904  23.855  1.00  0.00     0.347 HD
ATOM     80  H   UNL A   1      36.346  23.553  23.579  1.00  0.00     0.347 HD
ATOM     81  C   UNL A   1      33.794  25.706  25.258  1.00  0.00     0.002 A 
ATOM     82  C   UNL A   1      33.708  23.683  24.135  1.00  0.00     0.196 C 
ATOM     83  C   UNL A   1      33.927  26.833  26.113  1.00  0.00     0.010 A 
ATOM     84  C   UNL A   1      33.512  25.829  23.815  1.00  0.00     0.066 A 
ATOM     85  N   UNL A   1      33.526  24.737  23.094  1.00  0.00    -0.270 NA
ATOM     86  C   UNL A   1      33.887  28.057  25.569  1.00  0.00     0.001 A 
ATOM     87  C   UNL A   1      33.495  27.217  23.291  1.00  0.00     0.028 A 
ATOM     88  C   UNL A   1      33.748  28.236  24.133  1.00  0.00     0.002 A 
BRANCH  78  89
ATOM     89  C   UNL A   1      34.039  21.187  24.414  1.00  0.00     0.048 A 
ATOM     90  C   UNL A   1      34.890  20.092  24.649  1.00  0.00     0.013 A 
ATOM     91  C   UNL A   1      32.673  20.957  24.583  1.00  0.00     0.132 A 
ATOM     92  C   UNL A   1      34.391  18.790  24.625  1.00  0.00     0.001 A 
ATOM     93  C   UNL A   1      32.159  19.664  24.543  1.00  0.00     0.040 A 
ATOM     94  F   UNL A   1      31.797  21.969  24.690  1.00  0.00    -0.206 F 
ATOM     95  C   UNL A   1      33.025  18.577  24.490  1.00  0.00     0.003 A 
ENDBRANCH  78  89
ENDBRANCH  72  74
ENDBRANCH  71  72
ENDBRANCH  70  71
ENDBRANCH   1  70
TORSDOF 12
ENDMDL
MODEL 3
REMARK VINA RESULT:     -13.6      1.330      3.456
REMARK SMILES O=C(OCCOC(=O)[C@H]1CC2=c3ccccc3=N[C@H]2[C@H](c2ccccc2F)[NH2+]1)c1ccc(-c2c3nc(c(-c4c(F)c(F)c(F)c(F)c4F)c4ccc([nH]4)c(-c4c(F)c(F)c(F)c(F)c4F)c4nc(c(-c5c(F)c(F)c(F)c(F)c5F)c5ccc2[nH]5)C=C4)C=C3)cc1
REMARK SMILES IDX 4 1 3 2 2 3 1 4 29 5 30 6 91 7 31 8 90 9 32 10 33 11 34 12
REMARK SMILES IDX 84 13 35 14 89 15 83 16 85 17 36 18 88 19 82 20 81 21 37 23
REMARK SMILES IDX 69 24 49 25 68 26 50 27 53 28 67 29 86 30 51 31 52 32 66 34
REMARK SMILES IDX 87 35 54 36 38 37 39 38 47 39 40 40 41 41 45 42 48 43 42 44
REMARK SMILES IDX 43 45 46 46 44 47 70 48 71 49 79 50 72 51 73 52 77 53 80 54
REMARK SMILES IDX 74 55 75 56 78 57 76 58 55 59 56 60 64 61 57 62 58 63 62 64
REMARK SMILES IDX 65 65 59 66 60 67 63 68 61 69 5 70 6 71 7 72 8 73 9 74 10 75
REMARK SMILES IDX 28 76 11 77 20 78 12 81 19 82 13 83 17 84 18 85 14 86 16 87
REMARK SMILES IDX 15 88 21 89 22 90 26 91 23 92 25 93 27 94 24 95
REMARK H PARENT 85 22 53 33 28 79 28 80
REMARK Flexibility Score: inf
ROOT
ATOM      1  C   UNL A   1      40.546  21.421  25.751  1.00  0.00     0.275 C 
ENDROOT
BRANCH   1   2
ATOM      2  O   UNL A   1      41.661  22.111  26.337  1.00  0.00    -0.458 OA
BRANCH   2   3
ATOM      3  C   UNL A   1      42.265  23.201  25.812  1.00  0.00     0.338 C 
ATOM      4  O   UNL A   1      43.018  23.113  24.846  1.00  0.00    -0.246 OA
BRANCH   3   5
ATOM      5  C   UNL A   1      42.170  24.499  26.518  1.00  0.00     0.060 A 
ATOM      6  C   UNL A   1      41.319  24.502  27.609  1.00  0.00     0.016 A 
ATOM      7  C   UNL A   1      42.889  25.665  26.213  1.00  0.00     0.016 A 
ATOM      8  C   UNL A   1      41.136  25.674  28.322  1.00  0.00     0.010 A 
ATOM      9  C   UNL A   1      42.714  26.846  26.978  1.00  0.00     0.010 A 
ATOM     10  C   UNL A   1      41.820  26.857  28.050  1.00  0.00    -0.014 A 
BRANCH  10  11
ATOM     11  C   UNL A   1      41.585  27.933  29.064  1.00  0.00     0.031 A 
ATOM     12  C   UNL A   1      40.333  28.772  29.033  1.00  0.00     0.074 A 
ATOM     13  C   UNL A   1      42.257  27.834  30.234  1.00  0.00     0.049 A 
ATOM     14  N   UNL A   1      39.821  29.528  29.974  1.00  0.00    -0.248 NA
ATOM     15  C   UNL A   1      39.535  28.727  27.800  1.00  0.00     0.031 C 
ATOM     16  C   UNL A   1      43.336  26.880  30.480  1.00  0.00     0.029 A 
ATOM     17  N   UNL A   1      42.036  28.412  31.466  1.00  0.00    -0.354 N 
ATOM     18  C   UNL A   1      38.642  30.044  29.455  1.00  0.00     0.074 A 
ATOM     19  C   UNL A   1      38.506  29.505  28.116  1.00  0.00     0.031 C 
ATOM     20  C   UNL A   1      43.591  26.840  31.796  1.00  0.00     0.029 A 
ATOM     21  C   UNL A   1      42.762  27.831  32.484  1.00  0.00     0.049 A 
ATOM     22  H   UNL A   1      41.419  29.167  31.605  1.00  0.00     0.167 HD
ATOM     23  C   UNL A   1      37.773  30.913  30.029  1.00  0.00     0.037 A 
ATOM     24  C   UNL A   1      42.763  28.057  33.816  1.00  0.00     0.037 A 
ATOM     25  C   UNL A   1      37.925  31.496  31.339  1.00  0.00     0.049 A 
ATOM     26  C   UNL A   1      41.923  29.182  34.365  1.00  0.00     0.074 A 
ATOM     27  C   UNL A   1      37.200  32.527  31.916  1.00  0.00     0.029 A 
ATOM     28  N   UNL A   1      38.863  31.101  32.278  1.00  0.00    -0.354 N 
ATOM     29  N   UNL A   1      40.919  29.812  33.812  1.00  0.00    -0.248 NA
ATOM     30  C   UNL A   1      42.280  29.679  35.703  1.00  0.00     0.031 C 
ATOM     31  C   UNL A   1      37.749  32.805  33.173  1.00  0.00     0.029 A 
ATOM     32  C   UNL A   1      38.778  31.909  33.403  1.00  0.00     0.049 A 
ATOM     33  H   UNL A   1      39.496  30.356  32.165  1.00  0.00     0.167 HD
ATOM     34  C   UNL A   1      40.556  30.809  34.711  1.00  0.00     0.074 A 
ATOM     35  C   UNL A   1      41.396  30.652  35.878  1.00  0.00     0.031 C 
ATOM     36  C   UNL A   1      39.635  31.791  34.554  1.00  0.00     0.037 A 
BRANCH  23  37
ATOM     37  C   UNL A   1      36.628  31.403  29.195  1.00  0.00     0.064 A 
ATOM     38  C   UNL A   1      35.509  30.608  28.921  1.00  0.00     0.173 A 
ATOM     39  C   UNL A   1      36.620  32.736  28.752  1.00  0.00     0.173 A 
ATOM     40  F   UNL A   1      35.473  29.328  29.323  1.00  0.00    -0.203 F 
ATOM     41  C   UNL A   1      34.419  31.132  28.228  1.00  0.00     0.198 A 
ATOM     42  C   UNL A   1      35.523  33.259  28.077  1.00  0.00     0.198 A 
ATOM     43  F   UNL A   1      37.666  33.537  29.006  1.00  0.00    -0.203 F 
ATOM     44  F   UNL A   1      33.356  30.358  27.967  1.00  0.00    -0.200 F 
ATOM     45  C   UNL A   1      34.424  32.458  27.815  1.00  0.00     0.200 A 
ATOM     46  F   UNL A   1      35.525  34.544  27.695  1.00  0.00    -0.200 F 
ATOM     47  F   UNL A   1      33.366  32.965  27.168  1.00  0.00    -0.200 F 
ENDBRANCH  23  37
BRANCH  24  48
ATOM     48  C   UNL A   1      43.637  27.265  34.735  1.00  0.00     0.064 A 
ATOM     49  C   UNL A   1      44.942  27.683  35.039  1.00  0.00     0.173 A 
ATOM     50  C   UNL A   1      43.204  26.056  35.303  1.00  0.00     0.173 A 
ATOM     51  F   UNL A   1      45.437  28.800  34.484  1.00  0.00    -0.203 F 
ATOM     52  C   UNL A   1      45.765  26.935  35.882  1.00  0.00     0.198 A 
ATOM     53  C   UNL A   1      44.005  25.339  36.188  1.00  0.00     0.198 A 
ATOM     54  F   UNL A   1      41.988  25.572  35.010  1.00  0.00    -0.203 F 
ATOM     55  F   UNL A   1      47.024  27.330  36.113  1.00  0.00    -0.200 F 
ATOM     56  C   UNL A   1      45.288  25.774  36.472  1.00  0.00     0.200 A 
ATOM     57  F   UNL A   1      43.529  24.225  36.761  1.00  0.00    -0.200 F 
ATOM     58  F   UNL A   1      46.067  25.069  37.302  1.00  0.00    -0.200 F 
ENDBRANCH  24  48
BRANCH  36  59
ATOM     59  C   UNL A   1      39.538  32.838  35.628  1.00  0.00     0.064 A 
ATOM     60  C   UNL A   1      40.264  34.037  35.528  1.00  0.00     0.173 A 
ATOM     61  C   UNL A   1      38.677  32.687  36.724  1.00  0.00     0.173 A 
ATOM     62  F   UNL A   1      41.110  34.230  34.505  1.00  0.00    -0.203 F 
ATOM     63  C   UNL A   1      40.144  35.034  36.493  1.00  0.00     0.198 A 
ATOM     64  C   UNL A   1      38.539  33.698  37.673  1.00  0.00     0.198 A 
ATOM     65  F   UNL A   1      37.953  31.567  36.866  1.00  0.00    -0.203 F 
ATOM     66  F   UNL A   1      40.875  36.154  36.391  1.00  0.00    -0.200 F 
ATOM     67  C   UNL A   1      39.276  34.868  37.560  1.00  0.00     0.200 A 
ATOM     68  F   UNL A   1      37.689  33.543  38.698  1.00  0.00    -0.200 F 
ATOM     69  F   UNL A   1      39.152  35.833  38.481  1.00  0.00    -0.200 F 
ENDBRANCH  36  59
ENDBRANCH  10  11
ENDBRANCH   3   5
ENDBRANCH   2   3
ENDBRANCH   1   2
BRANCH   1  70
ATOM     70  C   UNL A   1      39.168  21.838  26.273  1.00  0.00     0.274 C 
BRANCH  70  71
ATOM     71  O   UNL A   1      38.128  21.975  25.284  1.00  0.00    -0.458 OA
BRANCH  71  72
ATOM     72  C   UNL A   1      37.271  20.912  25.206  1.00  0.00     0.365 C 
ATOM     73  O   UNL A   1      37.645  19.760  25.000  1.00  0.00    -0.245 OA
BRANCH  72  74
ATOM     74  C   UNL A   1      35.771  21.284  25.266  1.00  0.00     0.298 C 
ATOM     75  C   UNL A   1      34.952  20.637  24.114  1.00  0.00     0.111 C 
ATOM     76  N   UNL A   1      35.170  21.237  26.642  1.00  0.00    -0.326 N 
ATOM     77  C   UNL A   1      33.823  19.806  24.614  1.00  0.00    -0.024 C 
ATOM     78  C   UNL A   1      33.680  21.387  26.647  1.00  0.00     0.246 C 
ATOM     79  H   UNL A   1      35.573  21.992  27.196  1.00  0.00     0.347 HD
ATOM     80  H   UNL A   1      35.381  20.317  27.030  1.00  0.00     0.347 HD
ATOM     81  C   UNL A   1      33.530  18.549  24.307  1.00  0.00     0.002 A 
ATOM     82  C   UNL A   1      32.994  20.259  25.772  1.00  0.00     0.196 C 
ATOM     83  C   UNL A   1      33.970  17.650  23.298  1.00  0.00     0.010 A 
ATOM     84  C   UNL A   1      32.899  18.093  25.561  1.00  0.00     0.066 A 
ATOM     85  N   UNL A   1      32.638  18.991  26.476  1.00  0.00    -0.270 NA
ATOM     86  C   UNL A   1      33.893  16.333  23.537  1.00  0.00     0.001 A 
ATOM     87  C   UNL A   1      32.862  16.622  25.751  1.00  0.00     0.028 A 
ATOM     88  C   UNL A   1      33.406  15.828  24.809  1.00  0.00     0.002 A 
BRANCH  78  89
ATOM     89  C   UNL A   1      33.178  22.759  26.135  1.00  0.00     0.048 A 
ATOM     90  C   UNL A   1      31.932  22.819  25.482  1.00  0.00     0.013 A 
ATOM     91  C   UNL A   1      33.972  23.904  26.059  1.00  0.00     0.132 A 
ATOM     92  C   UNL A   1      31.701  23.768  24.487  1.00  0.00     0.001 A 
ATOM     93  C   UNL A   1      33.763  24.849  25.059  1.00  0.00     0.040 A 
ATOM     94  F   UNL A   1      35.021  24.087  26.876  1.00  0.00    -0.206 F 
ATOM     95  C   UNL A   1      32.660  24.738  24.221  1.00  0.00     0.003 A 
ENDBRANCH  78  89
ENDBRANCH  72  74
ENDBRANCH  71  72
ENDBRANCH  70  71
ENDBRANCH   1  70
TORSDOF 12
ENDMDL
