MODEL 1
REMARK VINA RESULT:     -10.4      0.000      0.000
REMARK SMILES O=C(OCCOC(=O)[C@H](F)SCC1CCCC1)c1ccc(-c2c3nc(c(-c4c(F)c(F)c(F)c(F)c4F)c4ccc([nH]4)c(-c4c(F)c(F)c(F)c(F)c4F)c4nc(c(-c5c(F)c(F)c(F)c(F)c5F)c5ccc2[nH]5)C=C4)C=C3)cc1
REMARK SMILES IDX 5 1 4 2 3 3 2 4 1 5 18 6 19 7 80 8 20 9 79 10 21 11 22 12
REMARK SMILES IDX 23 13 73 14 24 15 78 16 72 17 74 18 25 19 77 20 71 21 70 22
REMARK SMILES IDX 26 24 58 25 38 26 57 27 39 28 42 29 56 30 75 31 40 32 41 33
REMARK SMILES IDX 55 35 76 36 43 37 27 38 28 39 36 40 29 41 30 42 34 43 37 44
REMARK SMILES IDX 31 45 32 46 35 47 33 48 59 49 60 50 68 51 61 52 62 53 66 54
REMARK SMILES IDX 69 55 63 56 64 57 67 58 65 59 44 60 45 61 53 62 46 63 47 64
REMARK SMILES IDX 51 65 54 66 48 67 49 68 52 69 50 70 6 71 7 72 8 73 9 74
REMARK SMILES IDX 10 75 11 76 12 77 13 78 14 79 17 80 15 81 16 82
REMARK H PARENT 74 23 42 34
REMARK Flexibility Score: inf
ROOT
ATOM      1  C   UNL A   1      41.762  18.889  26.066  1.00  0.00     0.274 C 
ENDROOT
BRANCH   1   2
ATOM      2  C   UNL A   1      40.817  19.931  26.691  1.00  0.00     0.275 C 
BRANCH   2   3
ATOM      3  O   UNL A   1      40.167  20.893  25.837  1.00  0.00    -0.458 OA
BRANCH   3   4
ATOM      4  C   UNL A   1      39.293  21.880  26.152  1.00  0.00     0.338 C 
ATOM      5  O   UNL A   1      38.111  21.806  25.830  1.00  0.00    -0.246 OA
BRANCH   4   6
ATOM      6  C   UNL A   1      39.776  23.146  26.756  1.00  0.00     0.060 A 
ATOM      7  C   UNL A   1      39.475  24.399  26.228  1.00  0.00     0.016 A 
ATOM      8  C   UNL A   1      40.556  23.065  27.927  1.00  0.00     0.016 A 
ATOM      9  C   UNL A   1      39.808  25.552  26.924  1.00  0.00     0.010 A 
ATOM     10  C   UNL A   1      40.963  24.227  28.593  1.00  0.00     0.010 A 
ATOM     11  C   UNL A   1      40.568  25.474  28.096  1.00  0.00    -0.014 A 
BRANCH  11  12
ATOM     12  C   UNL A   1      41.128  26.751  28.573  1.00  0.00     0.031 A 
ATOM     13  C   UNL A   1      42.562  27.011  28.221  1.00  0.00     0.074 A 
ATOM     14  C   UNL A   1      40.331  27.716  29.064  1.00  0.00     0.049 A 
ATOM     15  N   UNL A   1      43.228  28.132  28.240  1.00  0.00    -0.248 NA
ATOM     16  C   UNL A   1      43.326  25.858  27.709  1.00  0.00     0.031 C 
ATOM     17  C   UNL A   1      38.904  27.579  29.337  1.00  0.00     0.029 A 
ATOM     18  N   UNL A   1      40.606  29.021  29.381  1.00  0.00    -0.354 N 
ATOM     19  C   UNL A   1      44.463  27.831  27.686  1.00  0.00     0.074 A 
ATOM     20  C   UNL A   1      44.476  26.422  27.379  1.00  0.00     0.031 C 
ATOM     21  C   UNL A   1      38.425  28.749  29.794  1.00  0.00     0.029 A 
ATOM     22  C   UNL A   1      39.514  29.717  29.842  1.00  0.00     0.049 A 
ATOM     23  H   UNL A   1      41.500  29.421  29.288  1.00  0.00     0.167 HD
ATOM     24  C   UNL A   1      45.491  28.674  27.440  1.00  0.00     0.037 A 
ATOM     25  C   UNL A   1      39.419  30.996  30.253  1.00  0.00     0.037 A 
ATOM     26  C   UNL A   1      45.487  30.055  27.829  1.00  0.00     0.049 A 
ATOM     27  C   UNL A   1      40.642  31.869  30.125  1.00  0.00     0.074 A 
ATOM     28  C   UNL A   1      46.506  30.982  27.740  1.00  0.00     0.029 A 
ATOM     29  N   UNL A   1      44.402  30.698  28.410  1.00  0.00    -0.354 N 
ATOM     30  N   UNL A   1      41.811  31.585  29.598  1.00  0.00    -0.248 NA
ATOM     31  C   UNL A   1      40.531  33.243  30.630  1.00  0.00     0.031 C 
ATOM     32  C   UNL A   1      46.055  32.173  28.319  1.00  0.00     0.029 A 
ATOM     33  C   UNL A   1      44.736  32.006  28.712  1.00  0.00     0.049 A 
ATOM     34  H   UNL A   1      43.525  30.284  28.583  1.00  0.00     0.167 HD
ATOM     35  C   UNL A   1      42.565  32.746  29.688  1.00  0.00     0.074 A 
ATOM     36  C   UNL A   1      41.708  33.747  30.290  1.00  0.00     0.031 C 
ATOM     37  C   UNL A   1      43.850  32.970  29.315  1.00  0.00     0.037 A 
BRANCH  24  38
ATOM     38  C   UNL A   1      46.702  28.091  26.781  1.00  0.00     0.064 A 
ATOM     39  C   UNL A   1      46.764  27.909  25.390  1.00  0.00     0.173 A 
ATOM     40  C   UNL A   1      47.801  27.683  27.548  1.00  0.00     0.173 A 
ATOM     41  F   UNL A   1      45.721  28.249  24.617  1.00  0.00    -0.203 F 
ATOM     42  C   UNL A   1      47.879  27.325  24.794  1.00  0.00     0.198 A 
ATOM     43  C   UNL A   1      48.924  27.121  26.946  1.00  0.00     0.198 A 
ATOM     44  F   UNL A   1      47.781  27.818  28.882  1.00  0.00    -0.203 F 
ATOM     45  F   UNL A   1      47.898  27.117  23.470  1.00  0.00    -0.200 F 
ATOM     46  C   UNL A   1      48.959  26.938  25.572  1.00  0.00     0.200 A 
ATOM     47  F   UNL A   1      49.967  26.745  27.699  1.00  0.00    -0.200 F 
ATOM     48  F   UNL A   1      50.031  26.375  24.998  1.00  0.00    -0.200 F 
ENDBRANCH  24  38
BRANCH  25  49
ATOM     49  C   UNL A   1      38.157  31.516  30.849  1.00  0.00     0.064 A 
ATOM     50  C   UNL A   1      37.961  31.581  32.236  1.00  0.00     0.173 A 
ATOM     51  C   UNL A   1      37.084  31.901  30.028  1.00  0.00     0.173 A 
ATOM     52  F   UNL A   1      38.943  31.208  33.070  1.00  0.00    -0.203 F 
ATOM     53  C   UNL A   1      36.734  31.970  32.775  1.00  0.00     0.198 A 
ATOM     54  C   UNL A   1      35.869  32.322  30.568  1.00  0.00     0.198 A 
ATOM     55  F   UNL A   1      37.209  31.858  28.693  1.00  0.00    -0.203 F 
ATOM     56  F   UNL A   1      36.553  31.953  34.104  1.00  0.00    -0.200 F 
ATOM     57  C   UNL A   1      35.690  32.341  31.942  1.00  0.00     0.200 A 
ATOM     58  F   UNL A   1      34.868  32.689  29.757  1.00  0.00    -0.200 F 
ATOM     59  F   UNL A   1      34.508  32.700  32.461  1.00  0.00    -0.200 F 
ENDBRANCH  25  49
BRANCH  37  60
ATOM     60  C   UNL A   1      44.387  34.354  29.534  1.00  0.00     0.064 A 
ATOM     61  C   UNL A   1      44.233  35.361  28.571  1.00  0.00     0.173 A 
ATOM     62  C   UNL A   1      45.033  34.680  30.735  1.00  0.00     0.173 A 
ATOM     63  F   UNL A   1      43.632  35.093  27.402  1.00  0.00    -0.203 F 
ATOM     64  C   UNL A   1      44.741  36.638  28.788  1.00  0.00     0.198 A 
ATOM     65  C   UNL A   1      45.507  35.968  30.963  1.00  0.00     0.198 A 
ATOM     66  F   UNL A   1      45.195  33.753  31.691  1.00  0.00    -0.203 F 
ATOM     67  F   UNL A   1      44.639  37.569  27.830  1.00  0.00    -0.200 F 
ATOM     68  C   UNL A   1      45.371  36.942  29.987  1.00  0.00     0.200 A 
ATOM     69  F   UNL A   1      46.098  36.265  32.128  1.00  0.00    -0.200 F 
ATOM     70  F   UNL A   1      45.855  38.173  30.195  1.00  0.00    -0.200 F 
ENDBRANCH  37  60
ENDBRANCH  11  12
ENDBRANCH   4   6
ENDBRANCH   3   4
ENDBRANCH   2   3
ENDBRANCH   1   2
BRANCH   1  71
ATOM     71  O   UNL A   1      42.643  19.289  25.004  1.00  0.00    -0.459 OA
BRANCH  71  72
ATOM     72  C   UNL A   1      43.949  18.899  25.107  1.00  0.00     0.351 C 
ATOM     73  O   UNL A   1      44.336  18.041  25.891  1.00  0.00    -0.248 OA
BRANCH  72  74
ATOM     74  C   UNL A   1      44.839  19.591  24.091  1.00  0.00     0.333 C 
ATOM     75  F   UNL A   1      45.066  18.829  22.981  1.00  0.00    -0.223 F 
BRANCH  74  76
ATOM     76  S   UNL A   1      46.416  20.146  24.775  1.00  0.00    -0.113 SA
BRANCH  76  77
ATOM     77  C   UNL A   1      46.421  21.896  24.250  1.00  0.00     0.076 C 
BRANCH  77  78
ATOM     78  C   UNL A   1      45.404  22.845  24.911  1.00  0.00    -0.001 C 
ATOM     79  C   UNL A   1      44.024  22.967  24.246  1.00  0.00     0.004 C 
ATOM     80  C   UNL A   1      45.144  22.573  26.398  1.00  0.00     0.004 C 
ATOM     81  C   UNL A   1      43.026  23.123  25.381  1.00  0.00     0.000 C 
ATOM     82  C   UNL A   1      43.645  22.374  26.542  1.00  0.00     0.000 C 
ENDBRANCH  77  78
ENDBRANCH  76  77
ENDBRANCH  74  76
ENDBRANCH  72  74
ENDBRANCH  71  72
ENDBRANCH   1  71
TORSDOF 14
ENDMDL
MODEL 2
REMARK VINA RESULT:     -10.3      0.660      1.882
REMARK SMILES O=C(OCCOC(=O)[C@H](F)SCC1CCCC1)c1ccc(-c2c3nc(c(-c4c(F)c(F)c(F)c(F)c4F)c4ccc([nH]4)c(-c4c(F)c(F)c(F)c(F)c4F)c4nc(c(-c5c(F)c(F)c(F)c(F)c5F)c5ccc2[nH]5)C=C4)C=C3)cc1
REMARK SMILES IDX 5 1 4 2 3 3 2 4 1 5 18 6 19 7 80 8 20 9 79 10 21 11 22 12
REMARK SMILES IDX 23 13 73 14 24 15 78 16 72 17 74 18 25 19 77 20 71 21 70 22
REMARK SMILES IDX 26 24 58 25 38 26 57 27 39 28 42 29 56 30 75 31 40 32 41 33
REMARK SMILES IDX 55 35 76 36 43 37 27 38 28 39 36 40 29 41 30 42 34 43 37 44
REMARK SMILES IDX 31 45 32 46 35 47 33 48 59 49 60 50 68 51 61 52 62 53 66 54
REMARK SMILES IDX 69 55 63 56 64 57 67 58 65 59 44 60 45 61 53 62 46 63 47 64
REMARK SMILES IDX 51 65 54 66 48 67 49 68 52 69 50 70 6 71 7 72 8 73 9 74
REMARK SMILES IDX 10 75 11 76 12 77 13 78 14 79 17 80 15 81 16 82
REMARK H PARENT 74 23 42 34
REMARK Flexibility Score: inf
ROOT
ATOM      1  C   UNL A   1      41.815  18.970  26.143  1.00  0.00     0.274 C 
ENDROOT
BRANCH   1   2
ATOM      2  C   UNL A   1      40.838  19.976  26.777  1.00  0.00     0.275 C 
BRANCH   2   3
ATOM      3  O   UNL A   1      40.083  20.859  25.924  1.00  0.00    -0.458 OA
BRANCH   3   4
ATOM      4  C   UNL A   1      39.279  21.900  26.249  1.00  0.00     0.338 C 
ATOM      5  O   UNL A   1      38.082  21.883  25.981  1.00  0.00    -0.246 OA
BRANCH   4   6
ATOM      6  C   UNL A   1      39.857  23.153  26.795  1.00  0.00     0.060 A 
ATOM      7  C   UNL A   1      40.554  23.202  28.000  1.00  0.00     0.016 A 
ATOM      8  C   UNL A   1      39.704  24.334  26.043  1.00  0.00     0.016 A 
ATOM      9  C   UNL A   1      41.216  24.360  28.380  1.00  0.00     0.010 A 
ATOM     10  C   UNL A   1      40.306  25.528  26.461  1.00  0.00     0.010 A 
ATOM     11  C   UNL A   1      41.081  25.530  27.626  1.00  0.00    -0.014 A 
BRANCH  11  12
ATOM     12  C   UNL A   1      41.557  26.763  28.279  1.00  0.00     0.031 A 
ATOM     13  C   UNL A   1      43.021  27.054  28.144  1.00  0.00     0.074 A 
ATOM     14  C   UNL A   1      40.690  27.681  28.739  1.00  0.00     0.049 A 
ATOM     15  N   UNL A   1      43.665  28.170  28.346  1.00  0.00    -0.248 NA
ATOM     16  C   UNL A   1      43.861  25.950  27.643  1.00  0.00     0.031 C 
ATOM     17  C   UNL A   1      39.241  27.520  28.807  1.00  0.00     0.029 A 
ATOM     18  N   UNL A   1      40.903  28.955  29.199  1.00  0.00    -0.354 N 
ATOM     19  C   UNL A   1      44.966  27.920  27.938  1.00  0.00     0.074 A 
ATOM     20  C   UNL A   1      45.038  26.541  27.517  1.00  0.00     0.031 C 
ATOM     21  C   UNL A   1      38.691  28.645  29.293  1.00  0.00     0.029 A 
ATOM     22  C   UNL A   1      39.751  29.608  29.568  1.00  0.00     0.049 A 
ATOM     23  H   UNL A   1      41.796  29.363  29.260  1.00  0.00     0.167 HD
ATOM     24  C   UNL A   1      46.006  28.782  27.903  1.00  0.00     0.037 A 
ATOM     25  C   UNL A   1      39.586  30.847  30.068  1.00  0.00     0.037 A 
ATOM     26  C   UNL A   1      45.933  30.125  28.403  1.00  0.00     0.049 A 
ATOM     27  C   UNL A   1      40.804  31.729  30.178  1.00  0.00     0.074 A 
ATOM     28  C   UNL A   1      46.943  31.057  28.528  1.00  0.00     0.029 A 
ATOM     29  N   UNL A   1      44.772  30.714  28.886  1.00  0.00    -0.354 N 
ATOM     30  N   UNL A   1      42.036  31.493  29.790  1.00  0.00    -0.248 NA
ATOM     31  C   UNL A   1      40.610  33.055  30.778  1.00  0.00     0.031 C 
ATOM     32  C   UNL A   1      46.404  32.194  29.141  1.00  0.00     0.029 A 
ATOM     33  C   UNL A   1      45.047  31.992  29.339  1.00  0.00     0.049 A 
ATOM     34  H   UNL A   1      43.886  30.286  28.906  1.00  0.00     0.167 HD
ATOM     35  C   UNL A   1      42.756  32.643  30.076  1.00  0.00     0.074 A 
ATOM     36  C   UNL A   1      41.815  33.588  30.641  1.00  0.00     0.031 C 
ATOM     37  C   UNL A   1      44.077  32.900  29.898  1.00  0.00     0.037 A 
BRANCH  24  38
ATOM     38  C   UNL A   1      47.301  28.259  27.364  1.00  0.00     0.064 A 
ATOM     39  C   UNL A   1      48.306  27.771  28.213  1.00  0.00     0.173 A 
ATOM     40  C   UNL A   1      47.553  28.272  25.986  1.00  0.00     0.173 A 
ATOM     41  F   UNL A   1      48.127  27.774  29.544  1.00  0.00    -0.203 F 
ATOM     42  C   UNL A   1      49.524  27.328  27.702  1.00  0.00     0.198 A 
ATOM     43  C   UNL A   1      48.762  27.806  25.476  1.00  0.00     0.198 A 
ATOM     44  F   UNL A   1      46.631  28.746  25.134  1.00  0.00    -0.203 F 
ATOM     45  F   UNL A   1      50.488  26.912  28.535  1.00  0.00    -0.200 F 
ATOM     46  C   UNL A   1      49.747  27.341  26.334  1.00  0.00     0.200 A 
ATOM     47  F   UNL A   1      48.979  27.822  24.153  1.00  0.00    -0.200 F 
ATOM     48  F   UNL A   1      50.920  26.917  25.842  1.00  0.00    -0.200 F 
ENDBRANCH  24  38
BRANCH  25  49
ATOM     49  C   UNL A   1      38.250  31.313  30.533  1.00  0.00     0.064 A 
ATOM     50  C   UNL A   1      37.875  31.267  31.884  1.00  0.00     0.173 A 
ATOM     51  C   UNL A   1      37.287  31.756  29.611  1.00  0.00     0.173 A 
ATOM     52  F   UNL A   1      38.745  30.834  32.807  1.00  0.00    -0.203 F 
ATOM     53  C   UNL A   1      36.582  31.607  32.287  1.00  0.00     0.198 A 
ATOM     54  C   UNL A   1      36.006  32.127  30.020  1.00  0.00     0.198 A 
ATOM     55  F   UNL A   1      37.585  31.818  28.305  1.00  0.00    -0.203 F 
ATOM     56  F   UNL A   1      36.231  31.484  33.575  1.00  0.00    -0.200 F 
ATOM     57  C   UNL A   1      35.650  32.037  31.355  1.00  0.00     0.200 A 
ATOM     58  F   UNL A   1      35.114  32.552  29.115  1.00  0.00    -0.200 F 
ATOM     59  F   UNL A   1      34.405  32.349  31.742  1.00  0.00    -0.200 F 
ENDBRANCH  25  49
BRANCH  37  60
ATOM     60  C   UNL A   1      44.562  34.261  30.303  1.00  0.00     0.064 A 
ATOM     61  C   UNL A   1      45.060  34.508  31.590  1.00  0.00     0.173 A 
ATOM     62  C   UNL A   1      44.556  35.318  29.381  1.00  0.00     0.173 A 
ATOM     63  F   UNL A   1      45.075  33.530  32.509  1.00  0.00    -0.203 F 
ATOM     64  C   UNL A   1      45.501  35.777  31.951  1.00  0.00     0.198 A 
ATOM     65  C   UNL A   1      45.032  36.576  29.736  1.00  0.00     0.198 A 
ATOM     66  F   UNL A   1      44.098  35.128  28.135  1.00  0.00    -0.203 F 
ATOM     67  F   UNL A   1      45.915  36.008  33.205  1.00  0.00    -0.200 F 
ATOM     68  C   UNL A   1      45.494  36.808  31.022  1.00  0.00     0.200 A 
ATOM     69  F   UNL A   1      45.041  37.565  28.832  1.00  0.00    -0.200 F 
ATOM     70  F   UNL A   1      45.924  38.027  31.371  1.00  0.00    -0.200 F 
ENDBRANCH  37  60
ENDBRANCH  11  12
ENDBRANCH   4   6
ENDBRANCH   3   4
ENDBRANCH   2   3
ENDBRANCH   1   2
BRANCH   1  71
ATOM     71  O   UNL A   1      42.665  19.401  25.068  1.00  0.00    -0.459 OA
BRANCH  71  72
ATOM     72  C   UNL A   1      43.936  18.896  25.047  1.00  0.00     0.351 C 
ATOM     73  O   UNL A   1      44.284  17.922  25.703  1.00  0.00    -0.248 OA
BRANCH  72  74
ATOM     74  C   UNL A   1      44.831  19.630  24.065  1.00  0.00     0.333 C 
ATOM     75  F   UNL A   1      45.037  18.928  22.912  1.00  0.00    -0.223 F 
BRANCH  74  76
ATOM     76  S   UNL A   1      46.421  20.117  24.768  1.00  0.00    -0.113 SA
BRANCH  76  77
ATOM     77  C   UNL A   1      46.502  21.868  24.251  1.00  0.00     0.076 C 
BRANCH  77  78
ATOM     78  C   UNL A   1      45.487  22.846  24.874  1.00  0.00    -0.001 C 
ATOM     79  C   UNL A   1      44.140  23.010  24.153  1.00  0.00     0.004 C 
ATOM     80  C   UNL A   1      45.160  22.578  26.348  1.00  0.00     0.004 C 
ATOM     81  C   UNL A   1      43.101  23.193  25.247  1.00  0.00     0.000 C 
ATOM     82  C   UNL A   1      43.650  22.423  26.430  1.00  0.00     0.000 C 
ENDBRANCH  77  78
ENDBRANCH  76  77
ENDBRANCH  74  76
ENDBRANCH  72  74
ENDBRANCH  71  72
ENDBRANCH   1  71
TORSDOF 14
ENDMDL
MODEL 3
REMARK VINA RESULT:     -10.2      5.686     12.307
REMARK SMILES O=C(OCCOC(=O)[C@H](F)SCC1CCCC1)c1ccc(-c2c3nc(c(-c4c(F)c(F)c(F)c(F)c4F)c4ccc([nH]4)c(-c4c(F)c(F)c(F)c(F)c4F)c4nc(c(-c5c(F)c(F)c(F)c(F)c5F)c5ccc2[nH]5)C=C4)C=C3)cc1
REMARK SMILES IDX 5 1 4 2 3 3 2 4 1 5 18 6 19 7 80 8 20 9 79 10 21 11 22 12
REMARK SMILES IDX 23 13 73 14 24 15 78 16 72 17 74 18 25 19 77 20 71 21 70 22
REMARK SMILES IDX 26 24 58 25 38 26 57 27 39 28 42 29 56 30 75 31 40 32 41 33
REMARK SMILES IDX 55 35 76 36 43 37 27 38 28 39 36 40 29 41 30 42 34 43 37 44
REMARK SMILES IDX 31 45 32 46 35 47 33 48 59 49 60 50 68 51 61 52 62 53 66 54
REMARK SMILES IDX 69 55 63 56 64 57 67 58 65 59 44 60 45 61 53 62 46 63 47 64
REMARK SMILES IDX 51 65 54 66 48 67 49 68 52 69 50 70 6 71 7 72 8 73 9 74
REMARK SMILES IDX 10 75 11 76 12 77 13 78 14 79 17 80 15 81 16 82
REMARK H PARENT 74 23 42 34
REMARK Flexibility Score: inf
ROOT
ATOM      1  C   UNL A   1      33.123  35.369  28.871  1.00  0.00     0.274 C 
ENDROOT
BRANCH   1   2
ATOM      2  C   UNL A   1      33.113  34.054  28.073  1.00  0.00     0.275 C 
BRANCH   2   3
ATOM      3  O   UNL A   1      33.706  32.874  28.652  1.00  0.00    -0.458 OA
BRANCH   3   4
ATOM      4  C   UNL A   1      34.227  31.780  28.045  1.00  0.00     0.338 C 
ATOM      5  O   UNL A   1      33.563  31.118  27.254  1.00  0.00    -0.246 OA
BRANCH   4   6
ATOM      6  C   UNL A   1      35.561  31.265  28.443  1.00  0.00     0.060 A 
ATOM      7  C   UNL A   1      35.789  29.930  28.769  1.00  0.00     0.016 A 
ATOM      8  C   UNL A   1      36.639  32.171  28.468  1.00  0.00     0.016 A 
ATOM      9  C   UNL A   1      37.081  29.469  28.969  1.00  0.00     0.010 A 
ATOM     10  C   UNL A   1      37.937  31.726  28.745  1.00  0.00     0.010 A 
ATOM     11  C   UNL A   1      38.157  30.363  28.977  1.00  0.00    -0.014 A 
BRANCH  11  12
ATOM     12  C   UNL A   1      39.423  29.825  29.506  1.00  0.00     0.031 A 
ATOM     13  C   UNL A   1      39.816  30.296  30.874  1.00  0.00     0.074 A 
ATOM     14  C   UNL A   1      40.042  28.794  28.905  1.00  0.00     0.049 A 
ATOM     15  N   UNL A   1      40.689  29.794  31.702  1.00  0.00    -0.248 NA
ATOM     16  C   UNL A   1      39.066  31.449  31.407  1.00  0.00     0.031 C 
ATOM     17  C   UNL A   1      39.660  28.207  27.624  1.00  0.00     0.029 A 
ATOM     18  N   UNL A   1      41.101  28.029  29.318  1.00  0.00    -0.354 N 
ATOM     19  C   UNL A   1      40.548  30.528  32.870  1.00  0.00     0.074 A 
ATOM     20  C   UNL A   1      39.541  31.535  32.638  1.00  0.00     0.031 C 
ATOM     21  C   UNL A   1      40.480  27.179  27.345  1.00  0.00     0.029 A 
ATOM     22  C   UNL A   1      41.443  27.036  28.431  1.00  0.00     0.049 A 
ATOM     23  H   UNL A   1      41.573  28.176  30.169  1.00  0.00     0.167 HD
ATOM     24  C   UNL A   1      41.198  30.357  34.043  1.00  0.00     0.037 A 
ATOM     25  C   UNL A   1      42.425  26.118  28.502  1.00  0.00     0.037 A 
ATOM     26  C   UNL A   1      42.253  29.403  34.226  1.00  0.00     0.049 A 
ATOM     27  C   UNL A   1      43.251  26.067  29.764  1.00  0.00     0.074 A 
ATOM     28  C   UNL A   1      43.064  29.211  35.327  1.00  0.00     0.029 A 
ATOM     29  N   UNL A   1      42.658  28.492  33.258  1.00  0.00    -0.354 N 
ATOM     30  N   UNL A   1      43.115  26.760  30.870  1.00  0.00    -0.248 NA
ATOM     31  C   UNL A   1      44.351  25.096  29.796  1.00  0.00     0.031 C 
ATOM     32  C   UNL A   1      43.998  28.219  35.004  1.00  0.00     0.029 A 
ATOM     33  C   UNL A   1      43.728  27.752  33.727  1.00  0.00     0.049 A 
ATOM     34  H   UNL A   1      42.245  28.390  32.370  1.00  0.00     0.167 HD
ATOM     35  C   UNL A   1      44.095  26.298  31.736  1.00  0.00     0.074 A 
ATOM     36  C   UNL A   1      44.796  25.240  31.036  1.00  0.00     0.031 C 
ATOM     37  C   UNL A   1      44.399  26.708  32.993  1.00  0.00     0.037 A 
BRANCH  24  38
ATOM     38  C   UNL A   1      40.812  31.264  35.169  1.00  0.00     0.064 A 
ATOM     39  C   UNL A   1      39.620  31.078  35.887  1.00  0.00     0.173 A 
ATOM     40  C   UNL A   1      41.627  32.349  35.517  1.00  0.00     0.173 A 
ATOM     41  F   UNL A   1      38.787  30.075  35.565  1.00  0.00    -0.203 F 
ATOM     42  C   UNL A   1      39.253  31.956  36.904  1.00  0.00     0.198 A 
ATOM     43  C   UNL A   1      41.268  33.211  36.550  1.00  0.00     0.198 A 
ATOM     44  F   UNL A   1      42.767  32.580  34.848  1.00  0.00    -0.203 F 
ATOM     45  F   UNL A   1      38.087  31.787  37.544  1.00  0.00    -0.200 F 
ATOM     46  C   UNL A   1      40.080  33.017  37.238  1.00  0.00     0.200 A 
ATOM     47  F   UNL A   1      42.067  34.238  36.871  1.00  0.00    -0.200 F 
ATOM     48  F   UNL A   1      39.724  33.862  38.215  1.00  0.00    -0.200 F 
ENDBRANCH  24  38
BRANCH  25  49
ATOM     49  C   UNL A   1      42.710  25.211  27.355  1.00  0.00     0.064 A 
ATOM     50  C   UNL A   1      41.989  24.027  27.147  1.00  0.00     0.173 A 
ATOM     51  C   UNL A   1      43.769  25.485  26.473  1.00  0.00     0.173 A 
ATOM     52  F   UNL A   1      40.980  23.703  27.968  1.00  0.00    -0.203 F 
ATOM     53  C   UNL A   1      42.339  23.136  26.131  1.00  0.00     0.198 A 
ATOM     54  C   UNL A   1      44.097  24.610  25.438  1.00  0.00     0.198 A 
ATOM     55  F   UNL A   1      44.499  26.600  26.624  1.00  0.00    -0.203 F 
ATOM     56  F   UNL A   1      41.677  21.978  26.001  1.00  0.00    -0.200 F 
ATOM     57  C   UNL A   1      43.392  23.429  25.277  1.00  0.00     0.200 A 
ATOM     58  F   UNL A   1      45.109  24.905  24.610  1.00  0.00    -0.200 F 
ATOM     59  F   UNL A   1      43.736  22.566  24.311  1.00  0.00    -0.200 F 
ENDBRANCH  25  49
BRANCH  37  60
ATOM     60  C   UNL A   1      45.522  25.994  33.685  1.00  0.00     0.064 A 
ATOM     61  C   UNL A   1      46.852  26.418  33.552  1.00  0.00     0.173 A 
ATOM     62  C   UNL A   1      45.258  24.893  34.514  1.00  0.00     0.173 A 
ATOM     63  F   UNL A   1      47.155  27.459  32.761  1.00  0.00    -0.203 F 
ATOM     64  C   UNL A   1      47.883  25.742  34.196  1.00  0.00     0.198 A 
ATOM     65  C   UNL A   1      46.288  24.243  35.185  1.00  0.00     0.198 A 
ATOM     66  F   UNL A   1      44.001  24.458  34.680  1.00  0.00    -0.203 F 
ATOM     67  F   UNL A   1      49.154  26.124  34.007  1.00  0.00    -0.200 F 
ATOM     68  C   UNL A   1      47.599  24.659  35.018  1.00  0.00     0.200 A 
ATOM     69  F   UNL A   1      46.011  23.210  35.992  1.00  0.00    -0.200 F 
ATOM     70  F   UNL A   1      48.594  24.013  35.641  1.00  0.00    -0.200 F 
ENDBRANCH  37  60
ENDBRANCH  11  12
ENDBRANCH   4   6
ENDBRANCH   3   4
ENDBRANCH   2   3
ENDBRANCH   1   2
BRANCH   1  71
ATOM     71  O   UNL A   1      32.562  35.391  30.194  1.00  0.00    -0.459 OA
BRANCH  71  72
ATOM     72  C   UNL A   1      32.952  36.416  31.011  1.00  0.00     0.351 C 
ATOM     73  O   UNL A   1      32.904  37.595  30.683  1.00  0.00    -0.248 OA
BRANCH  72  74
ATOM     74  C   UNL A   1      33.373  35.929  32.386  1.00  0.00     0.333 C 
ATOM     75  F   UNL A   1      34.463  36.591  32.871  1.00  0.00    -0.223 F 
BRANCH  74  76
ATOM     76  S   UNL A   1      33.666  34.148  32.458  1.00  0.00    -0.113 SA
BRANCH  76  77
ATOM     77  C   UNL A   1      35.307  34.038  31.660  1.00  0.00     0.076 C 
BRANCH  77  78
ATOM     78  C   UNL A   1      36.494  33.574  32.525  1.00  0.00    -0.001 C 
ATOM     79  C   UNL A   1      37.580  34.614  32.839  1.00  0.00     0.004 C 
ATOM     80  C   UNL A   1      36.102  32.941  33.866  1.00  0.00     0.004 C 
ATOM     81  C   UNL A   1      38.045  34.319  34.256  1.00  0.00     0.000 C 
ATOM     82  C   UNL A   1      36.831  33.728  34.942  1.00  0.00     0.000 C 
ENDBRANCH  77  78
ENDBRANCH  76  77
ENDBRANCH  74  76
ENDBRANCH  72  74
ENDBRANCH  71  72
ENDBRANCH   1  71
TORSDOF 14
ENDMDL
