MODEL 1
REMARK VINA RESULT:     -13.0      0.000      0.000
REMARK SMILES CC(C)(C)OC(=O)Nc1ccc(-c2cccc(Cl)c2C(=O)OCCOC(=O)c2ccc(-c3c4nc(c(-c5c(F)c(F)c(F)c(F)c5F)c5ccc([nH]5)c(-c5c(F)c(F)c(F)c(F)c5F)c5nc(c(-c6c(F)c(F)c(F)c(F)c6F)c6ccc3[nH]6)C=C5)C=C4)cc2)cc1
REMARK SMILES IDX 23 1 22 2 20 3 21 4 19 5 13 6 14 7 15 8 17 9 16 10 18 11
REMARK SMILES IDX 12 12 9 13 10 14 92 15 11 16 91 17 8 18 6 19 7 20 5 22 2 23
REMARK SMILES IDX 1 24 3 25 4 26 24 27 25 28 26 29 27 30 28 31 29 32 90 33
REMARK SMILES IDX 30 34 89 35 31 36 32 37 33 38 83 39 34 40 88 41 82 42 84 43
REMARK SMILES IDX 35 44 87 45 81 46 80 47 36 49 68 50 48 51 67 52 49 53 52 54
REMARK SMILES IDX 66 55 85 56 50 57 51 58 65 60 86 61 53 62 37 63 38 64 46 65
REMARK SMILES IDX 39 66 40 67 44 68 47 69 41 70 42 71 45 72 43 73 69 74 70 75
REMARK SMILES IDX 78 76 71 77 72 78 76 79 79 80 73 81 74 82 77 83 75 84 54 85
REMARK SMILES IDX 55 86 63 87 56 88 57 89 61 90 64 91 58 92 59 93 62 94 60 95
REMARK H PARENT 8 21 84 48 52 59
REMARK Flexibility Score: inf
ROOT
ATOM      1  C   UNL A   1      32.739  29.151  24.467  1.00  0.00     0.275 C 
ENDROOT
BRANCH   1   2
ATOM      2  O   UNL A   1      32.302  27.787  24.273  1.00  0.00    -0.458 OA
BRANCH   2   3
ATOM      3  C   UNL A   1      31.743  27.495  23.070  1.00  0.00     0.340 C 
ATOM      4  O   UNL A   1      32.345  27.241  22.041  1.00  0.00    -0.246 OA
BRANCH   3   5
ATOM      5  C   UNL A   1      30.260  27.586  23.153  1.00  0.00     0.086 A 
ATOM      6  C   UNL A   1      29.521  26.566  23.807  1.00  0.00    -0.002 A 
ATOM      7  C   UNL A   1      28.120  26.702  23.899  1.00  0.00     0.010 A 
ATOM      8  C   UNL A   1      27.462  27.810  23.370  1.00  0.00     0.002 A 
ATOM      9  C   UNL A   1      29.591  28.725  22.675  1.00  0.00     0.056 A 
ATOM     10  C   UNL A   1      28.197  28.819  22.762  1.00  0.00     0.021 A 
ATOM     11  Cl  UNL A   1      30.392  30.098  22.001  1.00  0.00    -0.083 Cl
BRANCH   6  12
ATOM     12  C   UNL A   1      30.152  25.420  24.483  1.00  0.00    -0.017 A 
ATOM     13  C   UNL A   1      31.435  23.241  25.743  1.00  0.00     0.044 A 
ATOM     14  C   UNL A   1      30.916  24.287  26.504  1.00  0.00     0.027 A 
ATOM     15  C   UNL A   1      31.240  23.255  24.361  1.00  0.00     0.027 A 
ATOM     16  C   UNL A   1      30.285  25.371  25.880  1.00  0.00     0.011 A 
ATOM     17  C   UNL A   1      30.644  24.344  23.735  1.00  0.00     0.011 A 
BRANCH  13  18
ATOM     18  N   UNL A   1      32.139  22.219  26.404  1.00  0.00    -0.291 N 
ATOM     19  C   UNL A   1      33.475  22.181  26.734  1.00  0.00     0.412 C 
ATOM     20  O   UNL A   1      33.977  21.199  27.251  1.00  0.00    -0.224 OA
ATOM     21  H   UNL A   1      31.609  21.432  26.665  1.00  0.00     0.173 HD
BRANCH  19  22
ATOM     22  O   UNL A   1      34.110  23.353  26.496  1.00  0.00    -0.444 OA
BRANCH  22  23
ATOM     23  C   UNL A   1      35.023  23.565  25.399  1.00  0.00     0.106 C 
ATOM     24  C   UNL A   1      34.579  24.909  24.801  1.00  0.00     0.056 C 
ATOM     25  C   UNL A   1      34.863  22.473  24.339  1.00  0.00     0.056 C 
ATOM     26  C   UNL A   1      36.459  23.695  25.905  1.00  0.00     0.056 C 
ENDBRANCH  22  23
ENDBRANCH  19  22
ENDBRANCH  13  18
ENDBRANCH   6  12
ENDBRANCH   3   5
ENDBRANCH   2   3
ENDBRANCH   1   2
BRANCH   1  27
ATOM     27  C   UNL A   1      31.808  29.873  25.438  1.00  0.00     0.275 C 
BRANCH  27  28
ATOM     28  O   UNL A   1      32.447  29.913  26.723  1.00  0.00    -0.458 OA
BRANCH  28  29
ATOM     29  C   UNL A   1      32.976  31.109  27.057  1.00  0.00     0.338 C 
ATOM     30  O   UNL A   1      32.432  32.199  27.086  1.00  0.00    -0.246 OA
BRANCH  29  31
ATOM     31  C   UNL A   1      34.340  30.884  27.541  1.00  0.00     0.060 A 
ATOM     32  C   UNL A   1      34.724  29.574  27.816  1.00  0.00     0.016 A 
ATOM     33  C   UNL A   1      35.176  31.951  27.853  1.00  0.00     0.016 A 
ATOM     34  C   UNL A   1      35.910  29.330  28.499  1.00  0.00     0.010 A 
ATOM     35  C   UNL A   1      36.410  31.693  28.458  1.00  0.00     0.010 A 
ATOM     36  C   UNL A   1      36.772  30.382  28.830  1.00  0.00    -0.014 A 
BRANCH  36  37
ATOM     37  C   UNL A   1      37.993  30.128  29.648  1.00  0.00     0.031 A 
ATOM     38  C   UNL A   1      39.100  29.282  29.076  1.00  0.00     0.074 A 
ATOM     39  C   UNL A   1      38.144  30.669  30.872  1.00  0.00     0.049 A 
ATOM     40  N   UNL A   1      40.120  28.724  29.679  1.00  0.00    -0.248 NA
ATOM     41  C   UNL A   1      39.044  29.014  27.629  1.00  0.00     0.031 C 
ATOM     42  C   UNL A   1      37.206  31.587  31.521  1.00  0.00     0.029 A 
ATOM     43  N   UNL A   1      39.156  30.529  31.794  1.00  0.00    -0.354 N 
ATOM     44  C   UNL A   1      40.775  27.980  28.706  1.00  0.00     0.074 A 
ATOM     45  C   UNL A   1      40.048  28.164  27.469  1.00  0.00     0.031 C 
ATOM     46  C   UNL A   1      37.700  31.954  32.714  1.00  0.00     0.029 A 
ATOM     47  C   UNL A   1      38.928  31.210  32.966  1.00  0.00     0.049 A 
ATOM     48  H   UNL A   1      39.964  29.991  31.630  1.00  0.00     0.167 HD
ATOM     49  C   UNL A   1      41.880  27.208  28.841  1.00  0.00     0.037 A 
ATOM     50  C   UNL A   1      39.595  31.189  34.136  1.00  0.00     0.037 A 
ATOM     51  C   UNL A   1      42.641  27.096  30.058  1.00  0.00     0.049 A 
ATOM     52  C   UNL A   1      40.792  30.289  34.278  1.00  0.00     0.074 A 
ATOM     53  C   UNL A   1      43.779  26.348  30.300  1.00  0.00     0.029 A 
ATOM     54  N   UNL A   1      42.353  27.777  31.233  1.00  0.00    -0.354 N 
ATOM     55  N   UNL A   1      41.354  29.511  33.384  1.00  0.00    -0.248 NA
ATOM     56  C   UNL A   1      41.435  30.242  35.599  1.00  0.00     0.031 C 
ATOM     57  C   UNL A   1      44.155  26.540  31.633  1.00  0.00     0.029 A 
ATOM     58  C   UNL A   1      43.285  27.454  32.205  1.00  0.00     0.049 A 
ATOM     59  H   UNL A   1      41.598  28.397  31.356  1.00  0.00     0.167 HD
ATOM     60  C   UNL A   1      42.422  28.900  34.027  1.00  0.00     0.074 A 
ATOM     61  C   UNL A   1      42.443  29.411  35.381  1.00  0.00     0.031 C 
ATOM     62  C   UNL A   1      43.301  27.990  33.542  1.00  0.00     0.037 A 
BRANCH  49  63
ATOM     63  C   UNL A   1      42.313  26.384  27.664  1.00  0.00     0.064 A 
ATOM     64  C   UNL A   1      43.311  26.808  26.776  1.00  0.00     0.173 A 
ATOM     65  C   UNL A   1      41.748  25.114  27.457  1.00  0.00     0.173 A 
ATOM     66  F   UNL A   1      43.872  28.018  26.918  1.00  0.00    -0.203 F 
ATOM     67  C   UNL A   1      43.715  26.000  25.715  1.00  0.00     0.198 A 
ATOM     68  C   UNL A   1      42.177  24.296  26.415  1.00  0.00     0.198 A 
ATOM     69  F   UNL A   1      40.792  24.657  28.280  1.00  0.00    -0.203 F 
ATOM     70  F   UNL A   1      44.643  26.441  24.854  1.00  0.00    -0.200 F 
ATOM     71  C   UNL A   1      43.156  24.742  25.541  1.00  0.00     0.200 A 
ATOM     72  F   UNL A   1      41.645  23.076  26.260  1.00  0.00    -0.200 F 
ATOM     73  F   UNL A   1      43.558  23.961  24.529  1.00  0.00    -0.200 F 
ENDBRANCH  49  63
BRANCH  50  74
ATOM     74  C   UNL A   1      39.101  31.987  35.293  1.00  0.00     0.064 A 
ATOM     75  C   UNL A   1      39.385  33.355  35.408  1.00  0.00     0.173 A 
ATOM     76  C   UNL A   1      38.353  31.391  36.322  1.00  0.00     0.173 A 
ATOM     77  F   UNL A   1      40.124  33.966  34.471  1.00  0.00    -0.203 F 
ATOM     78  C   UNL A   1      38.954  34.090  36.512  1.00  0.00     0.198 A 
ATOM     79  C   UNL A   1      37.889  32.136  37.403  1.00  0.00     0.198 A 
ATOM     80  F   UNL A   1      38.059  30.083  36.270  1.00  0.00    -0.203 F 
ATOM     81  F   UNL A   1      39.290  35.384  36.623  1.00  0.00    -0.200 F 
ATOM     82  C   UNL A   1      38.199  33.483  37.503  1.00  0.00     0.200 A 
ATOM     83  F   UNL A   1      37.147  31.546  38.351  1.00  0.00    -0.200 F 
ATOM     84  F   UNL A   1      37.781  34.192  38.560  1.00  0.00    -0.200 F 
ENDBRANCH  50  74
BRANCH  62  85
ATOM     85  C   UNL A   1      44.394  27.532  34.462  1.00  0.00     0.064 A 
ATOM     86  C   UNL A   1      45.604  28.232  34.576  1.00  0.00     0.173 A 
ATOM     87  C   UNL A   1      44.208  26.400  35.271  1.00  0.00     0.173 A 
ATOM     88  F   UNL A   1      45.835  29.310  33.813  1.00  0.00    -0.203 F 
ATOM     89  C   UNL A   1      46.599  27.799  35.449  1.00  0.00     0.198 A 
ATOM     90  C   UNL A   1      45.192  25.988  36.163  1.00  0.00     0.198 A 
ATOM     91  F   UNL A   1      43.065  25.701  35.204  1.00  0.00    -0.203 F 
ATOM     92  F   UNL A   1      47.767  28.454  35.507  1.00  0.00    -0.200 F 
ATOM     93  C   UNL A   1      46.390  26.684  36.246  1.00  0.00     0.200 A 
ATOM     94  F   UNL A   1      44.982  24.920  36.943  1.00  0.00    -0.200 F 
ATOM     95  F   UNL A   1      47.346  26.273  37.091  1.00  0.00    -0.200 F 
ENDBRANCH  62  85
ENDBRANCH  36  37
ENDBRANCH  29  31
ENDBRANCH  28  29
ENDBRANCH  27  28
ENDBRANCH   1  27
TORSDOF 15
ENDMDL
MODEL 2
REMARK VINA RESULT:     -12.5      4.337      9.667
REMARK SMILES CC(C)(C)OC(=O)Nc1ccc(-c2cccc(Cl)c2C(=O)OCCOC(=O)c2ccc(-c3c4nc(c(-c5c(F)c(F)c(F)c(F)c5F)c5ccc([nH]5)c(-c5c(F)c(F)c(F)c(F)c5F)c5nc(c(-c6c(F)c(F)c(F)c(F)c6F)c6ccc3[nH]6)C=C5)C=C4)cc2)cc1
REMARK SMILES IDX 23 1 22 2 20 3 21 4 19 5 13 6 14 7 15 8 17 9 16 10 18 11
REMARK SMILES IDX 12 12 9 13 10 14 92 15 11 16 91 17 8 18 6 19 7 20 5 22 2 23
REMARK SMILES IDX 1 24 3 25 4 26 24 27 25 28 26 29 27 30 28 31 29 32 90 33
REMARK SMILES IDX 30 34 89 35 31 36 32 37 33 38 83 39 34 40 88 41 82 42 84 43
REMARK SMILES IDX 35 44 87 45 81 46 80 47 36 49 68 50 48 51 67 52 49 53 52 54
REMARK SMILES IDX 66 55 85 56 50 57 51 58 65 60 86 61 53 62 37 63 38 64 46 65
REMARK SMILES IDX 39 66 40 67 44 68 47 69 41 70 42 71 45 72 43 73 69 74 70 75
REMARK SMILES IDX 78 76 71 77 72 78 76 79 79 80 73 81 74 82 77 83 75 84 54 85
REMARK SMILES IDX 55 86 63 87 56 88 57 89 61 90 64 91 58 92 59 93 62 94 60 95
REMARK H PARENT 8 21 84 48 52 59
REMARK Flexibility Score: inf
ROOT
ATOM      1  C   UNL A   1      35.148  21.846  25.707  1.00  0.00     0.275 C 
ENDROOT
BRANCH   1   2
ATOM      2  O   UNL A   1      34.056  21.066  26.244  1.00  0.00    -0.458 OA
BRANCH   2   3
ATOM      3  C   UNL A   1      32.816  21.353  25.767  1.00  0.00     0.340 C 
ATOM      4  O   UNL A   1      32.008  22.111  26.277  1.00  0.00    -0.246 OA
BRANCH   3   5
ATOM      5  C   UNL A   1      32.537  20.555  24.543  1.00  0.00     0.086 A 
ATOM      6  C   UNL A   1      32.349  21.208  23.297  1.00  0.00    -0.002 A 
ATOM      7  C   UNL A   1      32.121  20.419  22.150  1.00  0.00     0.010 A 
ATOM      8  C   UNL A   1      32.083  19.028  22.221  1.00  0.00     0.002 A 
ATOM      9  C   UNL A   1      32.552  19.151  24.591  1.00  0.00     0.056 A 
ATOM     10  C   UNL A   1      32.301  18.398  23.439  1.00  0.00     0.021 A 
ATOM     11  Cl  UNL A   1      32.920  18.243  26.013  1.00  0.00    -0.083 Cl
BRANCH   6  12
ATOM     12  C   UNL A   1      32.480  22.664  23.122  1.00  0.00    -0.017 A 
ATOM     13  C   UNL A   1      32.751  25.446  22.709  1.00  0.00     0.044 A 
ATOM     14  C   UNL A   1      31.517  24.905  23.070  1.00  0.00     0.027 A 
ATOM     15  C   UNL A   1      33.858  24.600  22.632  1.00  0.00     0.027 A 
ATOM     16  C   UNL A   1      31.381  23.526  23.269  1.00  0.00     0.011 A 
ATOM     17  C   UNL A   1      33.720  23.226  22.797  1.00  0.00     0.011 A 
BRANCH  13  18
ATOM     18  N   UNL A   1      32.821  26.822  22.430  1.00  0.00    -0.291 N 
ATOM     19  C   UNL A   1      33.242  27.839  23.258  1.00  0.00     0.412 C 
ATOM     20  O   UNL A   1      33.189  29.006  22.912  1.00  0.00    -0.224 OA
ATOM     21  H   UNL A   1      32.534  27.093  21.528  1.00  0.00     0.173 HD
BRANCH  19  22
ATOM     22  O   UNL A   1      33.774  27.387  24.417  1.00  0.00    -0.444 OA
BRANCH  22  23
ATOM     23  C   UNL A   1      33.128  27.514  25.702  1.00  0.00     0.106 C 
ATOM     24  C   UNL A   1      33.149  26.086  26.271  1.00  0.00     0.056 C 
ATOM     25  C   UNL A   1      31.676  27.962  25.539  1.00  0.00     0.056 C 
ATOM     26  C   UNL A   1      33.932  28.429  26.625  1.00  0.00     0.056 C 
ENDBRANCH  22  23
ENDBRANCH  19  22
ENDBRANCH  13  18
ENDBRANCH   6  12
ENDBRANCH   3   5
ENDBRANCH   2   3
ENDBRANCH   1   2
BRANCH   1  27
ATOM     27  C   UNL A   1      36.328  20.940  25.363  1.00  0.00     0.275 C 
BRANCH  27  28
ATOM     28  O   UNL A   1      37.481  21.769  25.153  1.00  0.00    -0.458 OA
BRANCH  28  29
ATOM     29  C   UNL A   1      38.605  21.347  25.769  1.00  0.00     0.338 C 
ATOM     30  O   UNL A   1      39.137  20.252  25.712  1.00  0.00    -0.246 OA
BRANCH  29  31
ATOM     31  C   UNL A   1      39.209  22.494  26.450  1.00  0.00     0.060 A 
ATOM     32  C   UNL A   1      38.714  23.761  26.150  1.00  0.00     0.016 A 
ATOM     33  C   UNL A   1      40.331  22.341  27.256  1.00  0.00     0.016 A 
ATOM     34  C   UNL A   1      39.402  24.891  26.578  1.00  0.00     0.010 A 
ATOM     35  C   UNL A   1      40.967  23.480  27.759  1.00  0.00     0.010 A 
ATOM     36  C   UNL A   1      40.537  24.770  27.388  1.00  0.00    -0.014 A 
BRANCH  36  37
ATOM     37  C   UNL A   1      41.329  25.978  27.762  1.00  0.00     0.031 A 
ATOM     38  C   UNL A   1      40.693  27.040  28.621  1.00  0.00     0.074 A 
ATOM     39  C   UNL A   1      42.613  26.124  27.380  1.00  0.00     0.049 A 
ATOM     40  N   UNL A   1      41.085  28.267  28.858  1.00  0.00    -0.248 NA
ATOM     41  C   UNL A   1      39.435  26.676  29.295  1.00  0.00     0.031 C 
ATOM     42  C   UNL A   1      43.396  25.140  26.631  1.00  0.00     0.029 A 
ATOM     43  N   UNL A   1      43.493  27.162  27.577  1.00  0.00    -0.354 N 
ATOM     44  C   UNL A   1      40.087  28.839  29.637  1.00  0.00     0.074 A 
ATOM     45  C   UNL A   1      39.075  27.826  29.844  1.00  0.00     0.031 C 
ATOM     46  C   UNL A   1      44.645  25.603  26.463  1.00  0.00     0.029 A 
ATOM     47  C   UNL A   1      44.719  26.962  26.988  1.00  0.00     0.049 A 
ATOM     48  H   UNL A   1      43.267  27.971  28.091  1.00  0.00     0.167 HD
ATOM     49  C   UNL A   1      40.023  30.101  30.124  1.00  0.00     0.037 A 
ATOM     50  C   UNL A   1      45.763  27.798  26.829  1.00  0.00     0.037 A 
ATOM     51  C   UNL A   1      41.073  31.076  29.978  1.00  0.00     0.049 A 
ATOM     52  C   UNL A   1      45.651  29.209  27.339  1.00  0.00     0.074 A 
ATOM     53  C   UNL A   1      41.112  32.380  30.439  1.00  0.00     0.029 A 
ATOM     54  N   UNL A   1      42.283  30.841  29.341  1.00  0.00    -0.354 N 
ATOM     55  N   UNL A   1      44.666  29.779  27.990  1.00  0.00    -0.248 NA
ATOM     56  C   UNL A   1      46.785  30.104  27.067  1.00  0.00     0.031 C 
ATOM     57  C   UNL A   1      42.327  32.948  30.045  1.00  0.00     0.029 A 
ATOM     58  C   UNL A   1      43.069  31.981  29.388  1.00  0.00     0.049 A 
ATOM     59  H   UNL A   1      42.544  29.991  28.920  1.00  0.00     0.167 HD
ATOM     60  C   UNL A   1      45.069  31.087  28.222  1.00  0.00     0.074 A 
ATOM     61  C   UNL A   1      46.395  31.223  27.659  1.00  0.00     0.031 C 
ATOM     62  C   UNL A   1      44.397  32.089  28.839  1.00  0.00     0.037 A 
BRANCH  49  63
ATOM     63  C   UNL A   1      38.763  30.525  30.822  1.00  0.00     0.064 A 
ATOM     64  C   UNL A   1      38.636  30.513  32.217  1.00  0.00     0.173 A 
ATOM     65  C   UNL A   1      37.679  31.006  30.069  1.00  0.00     0.173 A 
ATOM     66  F   UNL A   1      39.636  30.049  32.982  1.00  0.00    -0.203 F 
ATOM     67  C   UNL A   1      37.465  30.950  32.833  1.00  0.00     0.198 A 
ATOM     68  C   UNL A   1      36.522  31.471  30.690  1.00  0.00     0.198 A 
ATOM     69  F   UNL A   1      37.749  31.044  28.730  1.00  0.00    -0.203 F 
ATOM     70  F   UNL A   1      37.350  30.892  34.168  1.00  0.00    -0.200 F 
ATOM     71  C   UNL A   1      36.414  31.437  32.071  1.00  0.00     0.200 A 
ATOM     72  F   UNL A   1      35.515  31.956  29.950  1.00  0.00    -0.200 F 
ATOM     73  F   UNL A   1      35.295  31.871  32.667  1.00  0.00    -0.200 F 
ENDBRANCH  49  63
BRANCH  50  74
ATOM     74  C   UNL A   1      46.974  27.350  26.088  1.00  0.00     0.064 A 
ATOM     75  C   UNL A   1      48.044  26.731  26.749  1.00  0.00     0.173 A 
ATOM     76  C   UNL A   1      47.098  27.551  24.703  1.00  0.00     0.173 A 
ATOM     77  F   UNL A   1      47.993  26.544  28.077  1.00  0.00    -0.203 F 
ATOM     78  C   UNL A   1      49.194  26.347  26.059  1.00  0.00     0.198 A 
ATOM     79  C   UNL A   1      48.229  27.131  24.009  1.00  0.00     0.198 A 
ATOM     80  F   UNL A   1      46.109  28.146  24.019  1.00  0.00    -0.203 F 
ATOM     81  F   UNL A   1      50.224  25.810  26.728  1.00  0.00    -0.200 F 
ATOM     82  C   UNL A   1      49.281  26.539  24.689  1.00  0.00     0.200 A 
ATOM     83  F   UNL A   1      48.301  27.306  22.682  1.00  0.00    -0.200 F 
ATOM     84  F   UNL A   1      50.383  26.164  24.026  1.00  0.00    -0.200 F 
ENDBRANCH  50  74
BRANCH  62  85
ATOM     85  C   UNL A   1      45.106  33.403  28.989  1.00  0.00     0.064 A 
ATOM     86  C   UNL A   1      44.969  34.427  28.042  1.00  0.00     0.173 A 
ATOM     87  C   UNL A   1      45.900  33.651  30.119  1.00  0.00     0.173 A 
ATOM     88  F   UNL A   1      44.234  34.233  26.937  1.00  0.00    -0.203 F 
ATOM     89  C   UNL A   1      45.624  35.645  28.209  1.00  0.00     0.198 A 
ATOM     90  C   UNL A   1      46.528  34.879  30.298  1.00  0.00     0.198 A 
ATOM     91  F   UNL A   1      46.056  32.704  31.058  1.00  0.00    -0.203 F 
ATOM     92  F   UNL A   1      45.519  36.594  27.268  1.00  0.00    -0.200 F 
ATOM     93  C   UNL A   1      46.395  35.873  29.338  1.00  0.00     0.200 A 
ATOM     94  F   UNL A   1      47.260  35.102  31.397  1.00  0.00    -0.200 F 
ATOM     95  F   UNL A   1      47.017  37.048  29.501  1.00  0.00    -0.200 F 
ENDBRANCH  62  85
ENDBRANCH  36  37
ENDBRANCH  29  31
ENDBRANCH  28  29
ENDBRANCH  27  28
ENDBRANCH   1  27
TORSDOF 15
ENDMDL
MODEL 3
REMARK VINA RESULT:     -12.4      4.281      9.563
REMARK SMILES CC(C)(C)OC(=O)Nc1ccc(-c2cccc(Cl)c2C(=O)OCCOC(=O)c2ccc(-c3c4nc(c(-c5c(F)c(F)c(F)c(F)c5F)c5ccc([nH]5)c(-c5c(F)c(F)c(F)c(F)c5F)c5nc(c(-c6c(F)c(F)c(F)c(F)c6F)c6ccc3[nH]6)C=C5)C=C4)cc2)cc1
REMARK SMILES IDX 23 1 22 2 20 3 21 4 19 5 13 6 14 7 15 8 17 9 16 10 18 11
REMARK SMILES IDX 12 12 9 13 10 14 92 15 11 16 91 17 8 18 6 19 7 20 5 22 2 23
REMARK SMILES IDX 1 24 3 25 4 26 24 27 25 28 26 29 27 30 28 31 29 32 90 33
REMARK SMILES IDX 30 34 89 35 31 36 32 37 33 38 83 39 34 40 88 41 82 42 84 43
REMARK SMILES IDX 35 44 87 45 81 46 80 47 36 49 68 50 48 51 67 52 49 53 52 54
REMARK SMILES IDX 66 55 85 56 50 57 51 58 65 60 86 61 53 62 37 63 38 64 46 65
REMARK SMILES IDX 39 66 40 67 44 68 47 69 41 70 42 71 45 72 43 73 69 74 70 75
REMARK SMILES IDX 78 76 71 77 72 78 76 79 79 80 73 81 74 82 77 83 75 84 54 85
REMARK SMILES IDX 55 86 63 87 56 88 57 89 61 90 64 91 58 92 59 93 62 94 60 95
REMARK H PARENT 8 21 84 48 52 59
REMARK Flexibility Score: inf
ROOT
ATOM      1  C   UNL A   1      35.181  21.807  26.175  1.00  0.00     0.275 C 
ENDROOT
BRANCH   1   2
ATOM      2  O   UNL A   1      34.148  22.351  25.322  1.00  0.00    -0.458 OA
BRANCH   2   3
ATOM      3  C   UNL A   1      32.904  21.825  25.467  1.00  0.00     0.340 C 
ATOM      4  O   UNL A   1      32.156  21.999  26.414  1.00  0.00    -0.246 OA
BRANCH   3   5
ATOM      5  C   UNL A   1      32.583  20.934  24.318  1.00  0.00     0.086 A 
ATOM      6  C   UNL A   1      32.211  21.493  23.068  1.00  0.00    -0.002 A 
ATOM      7  C   UNL A   1      31.948  20.621  21.992  1.00  0.00     0.010 A 
ATOM      8  C   UNL A   1      32.052  19.239  22.134  1.00  0.00     0.002 A 
ATOM      9  C   UNL A   1      32.740  19.543  24.434  1.00  0.00     0.056 A 
ATOM     10  C   UNL A   1      32.450  18.704  23.352  1.00  0.00     0.021 A 
ATOM     11  Cl  UNL A   1      33.332  18.757  25.852  1.00  0.00    -0.083 Cl
BRANCH   6  12
ATOM     12  C   UNL A   1      32.183  22.943  22.809  1.00  0.00    -0.017 A 
ATOM     13  C   UNL A   1      32.130  25.737  22.395  1.00  0.00     0.044 A 
ATOM     14  C   UNL A   1      33.207  24.978  21.936  1.00  0.00     0.027 A 
ATOM     15  C   UNL A   1      31.052  25.082  22.990  1.00  0.00     0.027 A 
ATOM     16  C   UNL A   1      33.236  23.594  22.146  1.00  0.00     0.011 A 
ATOM     17  C   UNL A   1      31.092  23.712  23.230  1.00  0.00     0.011 A 
BRANCH  13  18
ATOM     18  N   UNL A   1      32.185  27.133  22.242  1.00  0.00    -0.291 N 
ATOM     19  C   UNL A   1      32.808  28.056  23.054  1.00  0.00     0.412 C 
ATOM     20  O   UNL A   1      32.721  29.252  22.842  1.00  0.00    -0.224 OA
ATOM     21  H   UNL A   1      31.721  27.498  21.454  1.00  0.00     0.173 HD
BRANCH  19  22
ATOM     22  O   UNL A   1      33.560  27.482  24.021  1.00  0.00    -0.444 OA
BRANCH  22  23
ATOM     23  C   UNL A   1      33.124  27.316  25.387  1.00  0.00     0.106 C 
ATOM     24  C   UNL A   1      34.038  28.258  26.186  1.00  0.00     0.056 C 
ATOM     25  C   UNL A   1      33.354  25.880  25.860  1.00  0.00     0.056 C 
ATOM     26  C   UNL A   1      31.675  27.770  25.552  1.00  0.00     0.056 C 
ENDBRANCH  22  23
ENDBRANCH  19  22
ENDBRANCH  13  18
ENDBRANCH   6  12
ENDBRANCH   3   5
ENDBRANCH   2   3
ENDBRANCH   1   2
BRANCH   1  27
ATOM     27  C   UNL A   1      36.186  21.009  25.347  1.00  0.00     0.275 C 
BRANCH  27  28
ATOM     28  O   UNL A   1      37.339  21.836  25.128  1.00  0.00    -0.458 OA
BRANCH  28  29
ATOM     29  C   UNL A   1      38.471  21.400  25.718  1.00  0.00     0.338 C 
ATOM     30  O   UNL A   1      39.004  20.307  25.627  1.00  0.00    -0.246 OA
BRANCH  29  31
ATOM     31  C   UNL A   1      39.084  22.531  26.418  1.00  0.00     0.060 A 
ATOM     32  C   UNL A   1      38.600  23.807  26.139  1.00  0.00     0.016 A 
ATOM     33  C   UNL A   1      40.204  22.355  27.223  1.00  0.00     0.016 A 
ATOM     34  C   UNL A   1      39.297  24.924  26.587  1.00  0.00     0.010 A 
ATOM     35  C   UNL A   1      40.849  23.480  27.745  1.00  0.00     0.010 A 
ATOM     36  C   UNL A   1      40.430  24.780  27.395  1.00  0.00    -0.014 A 
BRANCH  36  37
ATOM     37  C   UNL A   1      41.231  25.975  27.790  1.00  0.00     0.031 A 
ATOM     38  C   UNL A   1      40.595  27.038  28.647  1.00  0.00     0.074 A 
ATOM     39  C   UNL A   1      42.523  26.107  27.428  1.00  0.00     0.049 A 
ATOM     40  N   UNL A   1      40.999  28.259  28.898  1.00  0.00    -0.248 NA
ATOM     41  C   UNL A   1      39.323  26.686  29.299  1.00  0.00     0.031 C 
ATOM     42  C   UNL A   1      43.305  25.118  26.684  1.00  0.00     0.029 A 
ATOM     43  N   UNL A   1      43.413  27.133  27.647  1.00  0.00    -0.354 N 
ATOM     44  C   UNL A   1      39.997  28.839  29.666  1.00  0.00     0.074 A 
ATOM     45  C   UNL A   1      38.970  27.837  29.851  1.00  0.00     0.031 C 
ATOM     46  C   UNL A   1      44.561  25.567  26.539  1.00  0.00     0.029 A 
ATOM     47  C   UNL A   1      44.645  26.921  27.075  1.00  0.00     0.049 A 
ATOM     48  H   UNL A   1      43.189  27.940  28.162  1.00  0.00     0.167 HD
ATOM     49  C   UNL A   1      39.942  30.098  30.162  1.00  0.00     0.037 A 
ATOM     50  C   UNL A   1      45.701  27.745  26.937  1.00  0.00     0.037 A 
ATOM     51  C   UNL A   1      41.006  31.060  30.039  1.00  0.00     0.049 A 
ATOM     52  C   UNL A   1      45.600  29.153  27.455  1.00  0.00     0.074 A 
ATOM     53  C   UNL A   1      41.054  32.360  30.509  1.00  0.00     0.029 A 
ATOM     54  N   UNL A   1      42.223  30.814  29.418  1.00  0.00    -0.354 N 
ATOM     55  N   UNL A   1      44.613  29.731  28.096  1.00  0.00    -0.248 NA
ATOM     56  C   UNL A   1      46.749  30.035  27.208  1.00  0.00     0.031 C 
ATOM     57  C   UNL A   1      42.282  32.915  30.137  1.00  0.00     0.029 A 
ATOM     58  C   UNL A   1      43.022  31.943  29.485  1.00  0.00     0.049 A 
ATOM     59  H   UNL A   1      42.479  29.963  28.995  1.00  0.00     0.167 HD
ATOM     60  C   UNL A   1      45.028  31.033  28.344  1.00  0.00     0.074 A 
ATOM     61  C   UNL A   1      46.364  31.155  27.802  1.00  0.00     0.031 C 
ATOM     62  C   UNL A   1      44.359  32.039  28.957  1.00  0.00     0.037 A 
BRANCH  49  63
ATOM     63  C   UNL A   1      38.677  30.533  30.843  1.00  0.00     0.064 A 
ATOM     64  C   UNL A   1      38.546  30.560  32.238  1.00  0.00     0.173 A 
ATOM     65  C   UNL A   1      37.591  30.984  30.074  1.00  0.00     0.173 A 
ATOM     66  F   UNL A   1      39.546  30.126  33.019  1.00  0.00    -0.203 F 
ATOM     67  C   UNL A   1      37.370  31.007  32.838  1.00  0.00     0.198 A 
ATOM     68  C   UNL A   1      36.429  31.459  30.677  1.00  0.00     0.198 A 
ATOM     69  F   UNL A   1      37.665  30.983  28.734  1.00  0.00    -0.203 F 
ATOM     70  F   UNL A   1      37.251  30.987  34.173  1.00  0.00    -0.200 F 
ATOM     71  C   UNL A   1      36.317  31.464  32.058  1.00  0.00     0.200 A 
ATOM     72  F   UNL A   1      35.421  31.914  29.920  1.00  0.00    -0.200 F 
ATOM     73  F   UNL A   1      35.193  31.907  32.638  1.00  0.00    -0.200 F 
ENDBRANCH  49  63
BRANCH  50  74
ATOM     74  C   UNL A   1      46.919  27.286  26.212  1.00  0.00     0.064 A 
ATOM     75  C   UNL A   1      47.054  27.471  24.828  1.00  0.00     0.173 A 
ATOM     76  C   UNL A   1      47.965  26.633  26.884  1.00  0.00     0.173 A 
ATOM     77  F   UNL A   1      46.071  28.059  24.132  1.00  0.00    -0.203 F 
ATOM     78  C   UNL A   1      48.178  27.006  24.146  1.00  0.00     0.198 A 
ATOM     79  C   UNL A   1      49.104  26.205  26.207  1.00  0.00     0.198 A 
ATOM     80  F   UNL A   1      47.885  26.421  28.207  1.00  0.00    -0.203 F 
ATOM     81  F   UNL A   1      48.254  27.145  22.815  1.00  0.00    -0.200 F 
ATOM     82  C   UNL A   1      49.205  26.383  24.837  1.00  0.00     0.200 A 
ATOM     83  F   UNL A   1      50.101  25.617  26.884  1.00  0.00    -0.200 F 
ATOM     84  F   UNL A   1      50.288  25.942  24.181  1.00  0.00    -0.200 F 
ENDBRANCH  50  74
BRANCH  62  85
ATOM     85  C   UNL A   1      45.083  33.342  29.127  1.00  0.00     0.064 A 
ATOM     86  C   UNL A   1      44.973  34.375  28.186  1.00  0.00     0.173 A 
ATOM     87  C   UNL A   1      45.863  33.572  30.271  1.00  0.00     0.173 A 
ATOM     88  F   UNL A   1      44.252  34.197  27.069  1.00  0.00    -0.203 F 
ATOM     89  C   UNL A   1      45.640  35.583  28.372  1.00  0.00     0.198 A 
ATOM     90  C   UNL A   1      46.503  34.791  30.468  1.00  0.00     0.198 A 
ATOM     91  F   UNL A   1      45.993  32.617  31.205  1.00  0.00    -0.203 F 
ATOM     92  F   UNL A   1      45.562  36.540  27.436  1.00  0.00    -0.200 F 
ATOM     93  C   UNL A   1      46.397  35.793  29.514  1.00  0.00     0.200 A 
ATOM     94  F   UNL A   1      47.222  34.997  31.580  1.00  0.00    -0.200 F 
ATOM     95  F   UNL A   1      47.032  36.959  29.695  1.00  0.00    -0.200 F 
ENDBRANCH  62  85
ENDBRANCH  36  37
ENDBRANCH  29  31
ENDBRANCH  28  29
ENDBRANCH  27  28
ENDBRANCH   1  27
TORSDOF 15
ENDMDL
