MODEL 1
REMARK VINA RESULT:     -12.0      0.000      0.000
REMARK SMILES Cc1cc(Cl)ccc1OCC(=O)Nc1ccc(CC(=O)OCCOC(=O)c2ccc(-c3c4nc(c(-c5c(F)c(F)c(F)c(F)c5F)c5ccc([nH]5)c(-c5c(F)c(F)c(F)c(F)c5F)c5nc(c(-c6c(F)c(F)c(F)c(F)c6F)c6ccc3[nH]6)C=C5)C=C4)cc2)cc1
REMARK SMILES IDX 21 1 19 2 20 3 18 4 17 5 14 6 15 7 91 8 16 9 90 10 13 11
REMARK SMILES IDX 11 12 12 13 10 15 9 16 8 17 1 18 2 19 3 20 4 21 7 22 5 23
REMARK SMILES IDX 6 24 22 25 23 26 24 27 25 28 26 29 27 30 28 31 89 32 29 33
REMARK SMILES IDX 88 34 30 35 31 36 32 37 82 38 33 39 87 40 81 41 83 42 34 43
REMARK SMILES IDX 86 44 80 45 79 46 35 48 67 49 47 50 66 51 48 52 51 53 65 54
REMARK SMILES IDX 84 55 49 56 50 57 64 59 85 60 52 61 36 62 37 63 45 64 38 65
REMARK SMILES IDX 39 66 43 67 46 68 40 69 41 70 44 71 42 72 68 73 69 74 77 75
REMARK SMILES IDX 70 76 71 77 75 78 78 79 72 80 73 81 76 82 74 83 53 84 54 85
REMARK SMILES IDX 62 86 55 87 56 88 60 89 63 90 57 91 58 92 61 93 59 94
REMARK H PARENT 13 14 83 47 51 58
REMARK Flexibility Score: inf
ROOT
ATOM      1  O   UNL A   1      30.172  28.883  24.015  1.00  0.00    -0.462 OA
ENDROOT
BRANCH   1   2
ATOM      2  C   UNL A   1      29.971  27.814  23.202  1.00  0.00     0.310 C 
ATOM      3  O   UNL A   1      30.318  27.749  22.027  1.00  0.00    -0.252 OA
BRANCH   2   4
ATOM      4  C   UNL A   1      29.215  26.695  23.870  1.00  0.00     0.158 C 
BRANCH   4   5
ATOM      5  C   UNL A   1      30.037  25.619  24.536  1.00  0.00    -0.037 A 
ATOM      6  C   UNL A   1      31.374  23.562  25.904  1.00  0.00     0.041 A 
ATOM      7  C   UNL A   1      31.000  23.381  24.577  1.00  0.00     0.026 A 
ATOM      8  C   UNL A   1      31.181  24.801  26.501  1.00  0.00     0.026 A 
ATOM      9  C   UNL A   1      30.309  24.396  23.907  1.00  0.00     0.006 A 
ATOM     10  C   UNL A   1      30.517  25.825  25.831  1.00  0.00     0.006 A 
BRANCH   6  11
ATOM     11  N   UNL A   1      31.992  22.511  26.584  1.00  0.00    -0.323 N 
ATOM     12  C   UNL A   1      33.330  22.247  26.733  1.00  0.00     0.262 C 
ATOM     13  O   UNL A   1      33.653  21.169  27.240  1.00  0.00    -0.271 OA
ATOM     14  H   UNL A   1      31.382  21.870  27.019  1.00  0.00     0.170 HD
BRANCH  12  15
ATOM     15  C   UNL A   1      34.379  23.371  26.509  1.00  0.00     0.329 C 
BRANCH  15  16
ATOM     16  O   UNL A   1      35.074  23.689  25.324  1.00  0.00    -0.483 OA
BRANCH  16  17
ATOM     17  C   UNL A   1      34.441  24.266  24.267  1.00  0.00     0.123 A 
ATOM     18  C   UNL A   1      34.028  26.620  25.219  1.00  0.00     0.048 C 
ATOM     19  C   UNL A   1      33.996  25.583  24.135  1.00  0.00    -0.007 A 
ATOM     20  C   UNL A   1      33.427  25.978  22.905  1.00  0.00     0.027 A 
ATOM     21  C   UNL A   1      33.234  25.064  21.868  1.00  0.00     0.041 A 
ATOM     22  C   UNL A   1      34.174  23.342  23.240  1.00  0.00     0.048 A 
ATOM     23  Cl  UNL A   1      32.528  25.578  20.387  1.00  0.00    -0.084 Cl
ATOM     24  C   UNL A   1      33.588  23.735  22.039  1.00  0.00     0.024 A 
ENDBRANCH  16  17
ENDBRANCH  15  16
ENDBRANCH  12  15
ENDBRANCH   6  11
ENDBRANCH   4   5
ENDBRANCH   2   4
ENDBRANCH   1   2
BRANCH   1  25
ATOM     25  C   UNL A   1      31.546  29.263  24.222  1.00  0.00     0.274 C 
BRANCH  25  26
ATOM     26  C   UNL A   1      31.777  29.630  25.686  1.00  0.00     0.275 C 
BRANCH  26  27
ATOM     27  O   UNL A   1      33.132  30.084  25.859  1.00  0.00    -0.458 OA
BRANCH  27  28
ATOM     28  C   UNL A   1      33.335  30.955  26.870  1.00  0.00     0.338 C 
ATOM     29  O   UNL A   1      32.601  31.849  27.251  1.00  0.00    -0.246 OA
BRANCH  28  30
ATOM     30  C   UNL A   1      34.642  30.687  27.490  1.00  0.00     0.060 A 
ATOM     31  C   UNL A   1      35.061  29.375  27.719  1.00  0.00     0.016 A 
ATOM     32  C   UNL A   1      35.401  31.762  27.952  1.00  0.00     0.016 A 
ATOM     33  C   UNL A   1      36.208  29.132  28.472  1.00  0.00     0.010 A 
ATOM     34  C   UNL A   1      36.589  31.518  28.641  1.00  0.00     0.010 A 
ATOM     35  C   UNL A   1      36.988  30.201  28.932  1.00  0.00    -0.014 A 
BRANCH  35  36
ATOM     36  C   UNL A   1      38.209  29.958  29.739  1.00  0.00     0.031 A 
ATOM     37  C   UNL A   1      39.297  29.070  29.207  1.00  0.00     0.074 A 
ATOM     38  C   UNL A   1      38.332  30.517  30.957  1.00  0.00     0.049 A 
ATOM     39  N   UNL A   1      40.356  28.600  29.815  1.00  0.00    -0.248 NA
ATOM     40  C   UNL A   1      39.173  28.646  27.804  1.00  0.00     0.031 C 
ATOM     41  C   UNL A   1      37.366  31.429  31.572  1.00  0.00     0.029 A 
ATOM     42  N   UNL A   1      39.319  30.390  31.901  1.00  0.00    -0.354 N 
ATOM     43  C   UNL A   1      41.003  27.797  28.885  1.00  0.00     0.074 A 
ATOM     44  C   UNL A   1      40.216  27.838  27.671  1.00  0.00     0.031 C 
ATOM     45  C   UNL A   1      37.813  31.786  32.786  1.00  0.00     0.029 A 
ATOM     46  C   UNL A   1      39.061  31.080  33.059  1.00  0.00     0.049 A 
ATOM     47  H   UNL A   1      40.134  29.855  31.762  1.00  0.00     0.167 HD
ATOM     48  C   UNL A   1      42.150  27.092  29.034  1.00  0.00     0.037 A 
ATOM     49  C   UNL A   1      39.733  31.111  34.224  1.00  0.00     0.037 A 
ATOM     50  C   UNL A   1      42.947  27.078  30.232  1.00  0.00     0.049 A 
ATOM     51  C   UNL A   1      40.979  30.284  34.378  1.00  0.00     0.074 A 
ATOM     52  C   UNL A   1      44.134  26.409  30.472  1.00  0.00     0.029 A 
ATOM     53  N   UNL A   1      42.639  27.776  31.389  1.00  0.00    -0.354 N 
ATOM     54  N   UNL A   1      41.567  29.506  33.504  1.00  0.00    -0.248 NA
ATOM     55  C   UNL A   1      41.644  30.329  35.688  1.00  0.00     0.031 C 
ATOM     56  C   UNL A   1      44.530  26.677  31.788  1.00  0.00     0.029 A 
ATOM     57  C   UNL A   1      43.607  27.542  32.354  1.00  0.00     0.049 A 
ATOM     58  H   UNL A   1      41.851  28.352  31.510  1.00  0.00     0.167 HD
ATOM     59  C   UNL A   1      42.677  28.980  34.148  1.00  0.00     0.074 A 
ATOM     60  C   UNL A   1      42.688  29.539  35.485  1.00  0.00     0.031 C 
ATOM     61  C   UNL A   1      43.603  28.109  33.677  1.00  0.00     0.037 A 
BRANCH  48  62
ATOM     62  C   UNL A   1      42.599  26.252  27.876  1.00  0.00     0.064 A 
ATOM     63  C   UNL A   1      42.073  24.974  27.643  1.00  0.00     0.173 A 
ATOM     64  C   UNL A   1      43.545  26.750  26.967  1.00  0.00     0.173 A 
ATOM     65  F   UNL A   1      41.177  24.448  28.493  1.00  0.00    -0.203 F 
ATOM     66  C   UNL A   1      42.492  24.216  26.552  1.00  0.00     0.198 A 
ATOM     67  C   UNL A   1      43.944  26.000  25.865  1.00  0.00     0.198 A 
ATOM     68  F   UNL A   1      44.076  27.969  27.144  1.00  0.00    -0.203 F 
ATOM     69  F   UNL A   1      42.003  22.982  26.369  1.00  0.00    -0.200 F 
ATOM     70  C   UNL A   1      43.422  24.731  25.662  1.00  0.00     0.200 A 
ATOM     71  F   UNL A   1      44.838  26.501  25.001  1.00  0.00    -0.200 F 
ATOM     72  F   UNL A   1      43.820  24.002  24.610  1.00  0.00    -0.200 F 
ENDBRANCH  48  62
BRANCH  49  73
ATOM     73  C   UNL A   1      39.224  31.938  35.347  1.00  0.00     0.064 A 
ATOM     74  C   UNL A   1      39.521  33.305  35.423  1.00  0.00     0.173 A 
ATOM     75  C   UNL A   1      38.425  31.382  36.356  1.00  0.00     0.173 A 
ATOM     76  F   UNL A   1      40.303  33.872  34.493  1.00  0.00    -0.203 F 
ATOM     77  C   UNL A   1      39.044  34.084  36.473  1.00  0.00     0.198 A 
ATOM     78  C   UNL A   1      37.928  32.169  37.393  1.00  0.00     0.198 A 
ATOM     79  F   UNL A   1      38.114  30.078  36.326  1.00  0.00    -0.203 F 
ATOM     80  F   UNL A   1      39.370  35.383  36.543  1.00  0.00    -0.200 F 
ATOM     81  C   UNL A   1      38.242  33.518  37.453  1.00  0.00     0.200 A 
ATOM     82  F   UNL A   1      37.145  31.620  38.332  1.00  0.00    -0.200 F 
ATOM     83  F   UNL A   1      37.778  34.271  38.460  1.00  0.00    -0.200 F 
ENDBRANCH  49  73
BRANCH  61  84
ATOM     84  C   UNL A   1      44.717  27.732  34.604  1.00  0.00     0.064 A 
ATOM     85  C   UNL A   1      45.893  28.490  34.679  1.00  0.00     0.173 A 
ATOM     86  C   UNL A   1      44.593  26.618  35.447  1.00  0.00     0.173 A 
ATOM     87  F   UNL A   1      46.063  29.553  33.879  1.00  0.00    -0.203 F 
ATOM     88  C   UNL A   1      46.916  28.134  35.553  1.00  0.00     0.198 A 
ATOM     89  C   UNL A   1      45.609  26.278  36.335  1.00  0.00     0.198 A 
ATOM     90  F   UNL A   1      43.484  25.863  35.412  1.00  0.00    -0.203 F 
ATOM     91  F   UNL A   1      48.049  28.850  35.583  1.00  0.00    -0.200 F 
ATOM     92  C   UNL A   1      46.771  27.032  36.384  1.00  0.00     0.200 A 
ATOM     93  F   UNL A   1      45.464  25.217  37.142  1.00  0.00    -0.200 F 
ATOM     94  F   UNL A   1      47.756  26.693  37.227  1.00  0.00    -0.200 F 
ENDBRANCH  61  84
ENDBRANCH  35  36
ENDBRANCH  28  30
ENDBRANCH  27  28
ENDBRANCH  26  27
ENDBRANCH  25  26
ENDBRANCH   1  25
TORSDOF 16
ENDMDL
MODEL 2
REMARK VINA RESULT:     -11.9      4.118      9.334
REMARK SMILES Cc1cc(Cl)ccc1OCC(=O)Nc1ccc(CC(=O)OCCOC(=O)c2ccc(-c3c4nc(c(-c5c(F)c(F)c(F)c(F)c5F)c5ccc([nH]5)c(-c5c(F)c(F)c(F)c(F)c5F)c5nc(c(-c6c(F)c(F)c(F)c(F)c6F)c6ccc3[nH]6)C=C5)C=C4)cc2)cc1
REMARK SMILES IDX 21 1 19 2 20 3 18 4 17 5 14 6 15 7 91 8 16 9 90 10 13 11
REMARK SMILES IDX 11 12 12 13 10 15 9 16 8 17 1 18 2 19 3 20 4 21 7 22 5 23
REMARK SMILES IDX 6 24 22 25 23 26 24 27 25 28 26 29 27 30 28 31 89 32 29 33
REMARK SMILES IDX 88 34 30 35 31 36 32 37 82 38 33 39 87 40 81 41 83 42 34 43
REMARK SMILES IDX 86 44 80 45 79 46 35 48 67 49 47 50 66 51 48 52 51 53 65 54
REMARK SMILES IDX 84 55 49 56 50 57 64 59 85 60 52 61 36 62 37 63 45 64 38 65
REMARK SMILES IDX 39 66 43 67 46 68 40 69 41 70 44 71 42 72 68 73 69 74 77 75
REMARK SMILES IDX 70 76 71 77 75 78 78 79 72 80 73 81 76 82 74 83 53 84 54 85
REMARK SMILES IDX 62 86 55 87 56 88 60 89 63 90 57 91 58 92 61 93 59 94
REMARK H PARENT 13 14 83 47 51 58
REMARK Flexibility Score: inf
ROOT
ATOM      1  O   UNL A   1      33.915  20.223  24.445  1.00  0.00    -0.462 OA
ENDROOT
BRANCH   1   2
ATOM      2  C   UNL A   1      32.607  20.579  24.364  1.00  0.00     0.310 C 
ATOM      3  O   UNL A   1      31.781  20.433  25.259  1.00  0.00    -0.252 OA
BRANCH   2   4
ATOM      4  C   UNL A   1      32.227  21.139  23.017  1.00  0.00     0.158 C 
BRANCH   4   5
ATOM      5  C   UNL A   1      32.291  22.638  22.860  1.00  0.00    -0.037 A 
ATOM      6  C   UNL A   1      32.416  25.394  22.332  1.00  0.00     0.041 A 
ATOM      7  C   UNL A   1      31.219  24.824  22.751  1.00  0.00     0.026 A 
ATOM      8  C   UNL A   1      33.562  24.612  22.289  1.00  0.00     0.026 A 
ATOM      9  C   UNL A   1      31.152  23.447  22.986  1.00  0.00     0.006 A 
ATOM     10  C   UNL A   1      33.508  23.245  22.546  1.00  0.00     0.006 A 
BRANCH   6  11
ATOM     11  N   UNL A   1      32.447  26.756  22.025  1.00  0.00    -0.323 N 
ATOM     12  C   UNL A   1      32.800  27.813  22.824  1.00  0.00     0.262 C 
ATOM     13  O   UNL A   1      32.601  28.953  22.396  1.00  0.00    -0.271 OA
ATOM     14  H   UNL A   1      32.180  26.989  21.105  1.00  0.00     0.170 HD
BRANCH  12  15
ATOM     15  C   UNL A   1      33.653  27.578  24.102  1.00  0.00     0.329 C 
BRANCH  15  16
ATOM     16  O   UNL A   1      33.203  27.355  25.419  1.00  0.00    -0.483 OA
BRANCH  16  17
ATOM     17  C   UNL A   1      32.575  26.199  25.765  1.00  0.00     0.123 A 
ATOM     18  C   UNL A   1      34.580  24.587  25.793  1.00  0.00     0.048 C 
ATOM     19  C   UNL A   1      33.137  24.941  25.998  1.00  0.00    -0.007 A 
ATOM     20  C   UNL A   1      32.287  23.896  26.422  1.00  0.00     0.027 A 
ATOM     21  C   UNL A   1      30.908  24.080  26.529  1.00  0.00     0.041 A 
ATOM     22  C   UNL A   1      31.176  26.346  25.808  1.00  0.00     0.048 A 
ATOM     23  Cl  UNL A   1      29.903  22.780  27.037  1.00  0.00    -0.084 Cl
ATOM     24  C   UNL A   1      30.343  25.302  26.201  1.00  0.00     0.024 A 
ENDBRANCH  16  17
ENDBRANCH  15  16
ENDBRANCH  12  15
ENDBRANCH   6  11
ENDBRANCH   4   5
ENDBRANCH   2   4
ENDBRANCH   1   2
BRANCH   1  25
ATOM     25  C   UNL A   1      34.696  20.933  25.426  1.00  0.00     0.274 C 
BRANCH  25  26
ATOM     26  C   UNL A   1      36.162  20.978  25.001  1.00  0.00     0.275 C 
BRANCH  26  27
ATOM     27  O   UNL A   1      36.911  21.765  25.944  1.00  0.00    -0.458 OA
BRANCH  27  28
ATOM     28  C   UNL A   1      38.252  21.605  25.910  1.00  0.00     0.338 C 
ATOM     29  O   UNL A   1      38.884  20.646  25.506  1.00  0.00    -0.246 OA
BRANCH  28  30
ATOM     30  C   UNL A   1      38.900  22.802  26.467  1.00  0.00     0.060 A 
ATOM     31  C   UNL A   1      38.451  24.078  26.120  1.00  0.00     0.016 A 
ATOM     32  C   UNL A   1      40.044  22.644  27.251  1.00  0.00     0.016 A 
ATOM     33  C   UNL A   1      39.182  25.201  26.501  1.00  0.00     0.010 A 
ATOM     34  C   UNL A   1      40.733  23.774  27.693  1.00  0.00     0.010 A 
ATOM     35  C   UNL A   1      40.325  25.060  27.298  1.00  0.00    -0.014 A 
BRANCH  35  36
ATOM     36  C   UNL A   1      41.118  26.246  27.707  1.00  0.00     0.031 A 
ATOM     37  C   UNL A   1      40.470  27.347  28.497  1.00  0.00     0.074 A 
ATOM     38  C   UNL A   1      42.411  26.346  27.350  1.00  0.00     0.049 A 
ATOM     39  N   UNL A   1      40.934  28.531  28.806  1.00  0.00    -0.248 NA
ATOM     40  C   UNL A   1      39.113  27.084  29.001  1.00  0.00     0.031 C 
ATOM     41  C   UNL A   1      43.168  25.330  26.617  1.00  0.00     0.029 A 
ATOM     42  N   UNL A   1      43.316  27.358  27.548  1.00  0.00    -0.354 N 
ATOM     43  C   UNL A   1      39.917  29.166  29.506  1.00  0.00     0.074 A 
ATOM     44  C   UNL A   1      38.806  28.240  29.573  1.00  0.00     0.031 C 
ATOM     45  C   UNL A   1      44.424  25.767  26.435  1.00  0.00     0.029 A 
ATOM     46  C   UNL A   1      44.542  27.115  26.981  1.00  0.00     0.049 A 
ATOM     47  H   UNL A   1      43.106  28.179  28.049  1.00  0.00     0.167 HD
ATOM     48  C   UNL A   1      39.913  30.411  30.042  1.00  0.00     0.037 A 
ATOM     49  C   UNL A   1      45.627  27.903  26.879  1.00  0.00     0.037 A 
ATOM     50  C   UNL A   1      41.030  31.317  30.002  1.00  0.00     0.049 A 
ATOM     51  C   UNL A   1      45.582  29.295  27.444  1.00  0.00     0.074 A 
ATOM     52  C   UNL A   1      41.129  32.592  30.532  1.00  0.00     0.029 A 
ATOM     53  N   UNL A   1      42.247  31.039  29.399  1.00  0.00    -0.354 N 
ATOM     54  N   UNL A   1      44.607  29.898  28.078  1.00  0.00    -0.248 NA
ATOM     55  C   UNL A   1      46.784  30.121  27.263  1.00  0.00     0.031 C 
ATOM     56  C   UNL A   1      42.397  33.097  30.225  1.00  0.00     0.029 A 
ATOM     57  C   UNL A   1      43.100  32.123  29.533  1.00  0.00     0.049 A 
ATOM     58  H   UNL A   1      42.474  30.197  28.944  1.00  0.00     0.167 HD
ATOM     59  C   UNL A   1      45.079  31.166  28.386  1.00  0.00     0.074 A 
ATOM     60  C   UNL A   1      46.435  31.241  27.880  1.00  0.00     0.031 C 
ATOM     61  C   UNL A   1      44.446  32.178  29.026  1.00  0.00     0.037 A 
BRANCH  48  62
ATOM     62  C   UNL A   1      38.649  30.875  30.700  1.00  0.00     0.064 A 
ATOM     63  C   UNL A   1      38.480  30.827  32.091  1.00  0.00     0.173 A 
ATOM     64  C   UNL A   1      37.605  31.409  29.928  1.00  0.00     0.173 A 
ATOM     65  F   UNL A   1      39.443  30.311  32.870  1.00  0.00    -0.203 F 
ATOM     66  C   UNL A   1      37.303  31.278  32.684  1.00  0.00     0.198 A 
ATOM     67  C   UNL A   1      36.441  31.880  30.526  1.00  0.00     0.198 A 
ATOM     68  F   UNL A   1      37.721  31.479  28.594  1.00  0.00    -0.203 F 
ATOM     69  F   UNL A   1      37.148  31.189  34.012  1.00  0.00    -0.200 F 
ATOM     70  C   UNL A   1      36.288  31.809  31.902  1.00  0.00     0.200 A 
ATOM     71  F   UNL A   1      35.463  32.399  29.770  1.00  0.00    -0.200 F 
ATOM     72  F   UNL A   1      35.158  32.247  32.475  1.00  0.00    -0.200 F 
ENDBRANCH  48  62
BRANCH  49  73
ATOM     73  C   UNL A   1      46.842  27.400  26.190  1.00  0.00     0.064 A 
ATOM     74  C   UNL A   1      47.845  26.731  26.902  1.00  0.00     0.173 A 
ATOM     75  C   UNL A   1      47.017  27.568  24.809  1.00  0.00     0.173 A 
ATOM     76  F   UNL A   1      47.730  26.571  28.229  1.00  0.00    -0.203 F 
ATOM     77  C   UNL A   1      48.985  26.256  26.260  1.00  0.00     0.198 A 
ATOM     78  C   UNL A   1      48.147  27.069  24.163  1.00  0.00     0.198 A 
ATOM     79  F   UNL A   1      46.083  28.202  24.085  1.00  0.00    -0.203 F 
ATOM     80  F   UNL A   1      49.947  25.648  26.969  1.00  0.00    -0.200 F 
ATOM     81  C   UNL A   1      49.132  26.418  24.890  1.00  0.00     0.200 A 
ATOM     82  F   UNL A   1      48.279  27.221  22.838  1.00  0.00    -0.200 F 
ATOM     83  F   UNL A   1      50.226  25.954  24.271  1.00  0.00    -0.200 F 
ENDBRANCH  49  73
BRANCH  61  84
ATOM     84  C   UNL A   1      45.223  33.441  29.240  1.00  0.00     0.064 A 
ATOM     85  C   UNL A   1      45.180  34.491  28.313  1.00  0.00     0.173 A 
ATOM     86  C   UNL A   1      45.995  33.613  30.398  1.00  0.00     0.173 A 
ATOM     87  F   UNL A   1      44.469  34.364  27.182  1.00  0.00    -0.203 F 
ATOM     88  C   UNL A   1      45.897  35.664  28.529  1.00  0.00     0.198 A 
ATOM     89  C   UNL A   1      46.695  34.795  30.622  1.00  0.00     0.198 A 
ATOM     90  F   UNL A   1      46.066  32.636  31.315  1.00  0.00    -0.203 F 
ATOM     91  F   UNL A   1      45.873  36.641  27.613  1.00  0.00    -0.200 F 
ATOM     92  C   UNL A   1      46.649  35.817  29.686  1.00  0.00     0.200 A 
ATOM     93  F   UNL A   1      47.415  34.945  31.743  1.00  0.00    -0.200 F 
ATOM     94  F   UNL A   1      47.338  36.948  29.893  1.00  0.00    -0.200 F 
ENDBRANCH  61  84
ENDBRANCH  35  36
ENDBRANCH  28  30
ENDBRANCH  27  28
ENDBRANCH  26  27
ENDBRANCH  25  26
ENDBRANCH   1  25
TORSDOF 16
ENDMDL
MODEL 3
REMARK VINA RESULT:     -11.8      1.225      2.291
REMARK SMILES Cc1cc(Cl)ccc1OCC(=O)Nc1ccc(CC(=O)OCCOC(=O)c2ccc(-c3c4nc(c(-c5c(F)c(F)c(F)c(F)c5F)c5ccc([nH]5)c(-c5c(F)c(F)c(F)c(F)c5F)c5nc(c(-c6c(F)c(F)c(F)c(F)c6F)c6ccc3[nH]6)C=C5)C=C4)cc2)cc1
REMARK SMILES IDX 21 1 19 2 20 3 18 4 17 5 14 6 15 7 91 8 16 9 90 10 13 11
REMARK SMILES IDX 11 12 12 13 10 15 9 16 8 17 1 18 2 19 3 20 4 21 7 22 5 23
REMARK SMILES IDX 6 24 22 25 23 26 24 27 25 28 26 29 27 30 28 31 89 32 29 33
REMARK SMILES IDX 88 34 30 35 31 36 32 37 82 38 33 39 87 40 81 41 83 42 34 43
REMARK SMILES IDX 86 44 80 45 79 46 35 48 67 49 47 50 66 51 48 52 51 53 65 54
REMARK SMILES IDX 84 55 49 56 50 57 64 59 85 60 52 61 36 62 37 63 45 64 38 65
REMARK SMILES IDX 39 66 43 67 46 68 40 69 41 70 44 71 42 72 68 73 69 74 77 75
REMARK SMILES IDX 70 76 71 77 75 78 78 79 72 80 73 81 76 82 74 83 53 84 54 85
REMARK SMILES IDX 62 86 55 87 56 88 60 89 63 90 57 91 58 92 61 93 59 94
REMARK H PARENT 13 14 83 47 51 58
REMARK Flexibility Score: inf
ROOT
ATOM      1  O   UNL A   1      30.512  28.304  24.170  1.00  0.00    -0.462 OA
ENDROOT
BRANCH   1   2
ATOM      2  C   UNL A   1      30.700  27.303  23.272  1.00  0.00     0.310 C 
ATOM      3  O   UNL A   1      30.657  27.435  22.052  1.00  0.00    -0.252 OA
BRANCH   2   4
ATOM      4  C   UNL A   1      30.920  25.960  23.917  1.00  0.00     0.158 C 
BRANCH   4   5
ATOM      5  C   UNL A   1      32.351  25.546  24.160  1.00  0.00    -0.037 A 
ATOM      6  C   UNL A   1      34.929  24.601  24.748  1.00  0.00     0.041 A 
ATOM      7  C   UNL A   1      34.384  24.384  23.488  1.00  0.00     0.026 A 
ATOM      8  C   UNL A   1      34.235  25.382  25.663  1.00  0.00     0.026 A 
ATOM      9  C   UNL A   1      33.089  24.830  23.207  1.00  0.00     0.006 A 
ATOM     10  C   UNL A   1      32.956  25.851  25.381  1.00  0.00     0.006 A 
BRANCH   6  11
ATOM     11  N   UNL A   1      36.192  24.080  25.040  1.00  0.00    -0.323 N 
ATOM     12  C   UNL A   1      36.544  22.788  25.340  1.00  0.00     0.262 C 
ATOM     13  O   UNL A   1      37.698  22.579  25.725  1.00  0.00    -0.271 OA
ATOM     14  H   UNL A   1      36.932  24.730  25.028  1.00  0.00     0.170 HD
BRANCH  12  15
ATOM     15  C   UNL A   1      35.602  21.612  24.960  1.00  0.00     0.329 C 
BRANCH  15  16
ATOM     16  O   UNL A   1      34.588  21.021  25.741  1.00  0.00    -0.483 OA
BRANCH  16  17
ATOM     17  C   UNL A   1      33.372  21.615  25.886  1.00  0.00     0.123 A 
ATOM     18  C   UNL A   1      32.358  21.138  23.570  1.00  0.00     0.048 C 
ATOM     19  C   UNL A   1      32.313  21.658  24.976  1.00  0.00    -0.007 A 
ATOM     20  C   UNL A   1      31.109  22.275  25.380  1.00  0.00     0.027 A 
ATOM     21  C   UNL A   1      30.994  22.901  26.622  1.00  0.00     0.041 A 
ATOM     22  C   UNL A   1      33.264  22.312  27.103  1.00  0.00     0.048 A 
ATOM     23  Cl  UNL A   1      29.515  23.651  27.074  1.00  0.00    -0.084 Cl
ATOM     24  C   UNL A   1      32.080  22.941  27.481  1.00  0.00     0.024 A 
ENDBRANCH  16  17
ENDBRANCH  15  16
ENDBRANCH  12  15
ENDBRANCH   6  11
ENDBRANCH   4   5
ENDBRANCH   2   4
ENDBRANCH   1   2
BRANCH   1  25
ATOM     25  C   UNL A   1      31.534  29.319  24.199  1.00  0.00     0.274 C 
BRANCH  25  26
ATOM     26  C   UNL A   1      31.645  29.918  25.599  1.00  0.00     0.275 C 
BRANCH  26  27
ATOM     27  O   UNL A   1      33.030  30.146  25.915  1.00  0.00    -0.458 OA
BRANCH  27  28
ATOM     28  C   UNL A   1      33.269  31.046  26.892  1.00  0.00     0.338 C 
ATOM     29  O   UNL A   1      32.567  31.976  27.246  1.00  0.00    -0.246 OA
BRANCH  28  30
ATOM     30  C   UNL A   1      34.571  30.758  27.513  1.00  0.00     0.060 A 
ATOM     31  C   UNL A   1      34.953  29.442  27.781  1.00  0.00     0.016 A 
ATOM     32  C   UNL A   1      35.365  31.824  27.937  1.00  0.00     0.016 A 
ATOM     33  C   UNL A   1      36.098  29.188  28.533  1.00  0.00     0.010 A 
ATOM     34  C   UNL A   1      36.550  31.566  28.627  1.00  0.00     0.010 A 
ATOM     35  C   UNL A   1      36.912  30.247  28.956  1.00  0.00    -0.014 A 
BRANCH  35  36
ATOM     36  C   UNL A   1      38.131  29.994  29.763  1.00  0.00     0.031 A 
ATOM     37  C   UNL A   1      39.214  29.102  29.227  1.00  0.00     0.074 A 
ATOM     38  C   UNL A   1      38.256  30.545  30.984  1.00  0.00     0.049 A 
ATOM     39  N   UNL A   1      40.270  28.622  29.834  1.00  0.00    -0.248 NA
ATOM     40  C   UNL A   1      39.089  28.686  27.822  1.00  0.00     0.031 C 
ATOM     41  C   UNL A   1      37.294  31.459  31.602  1.00  0.00     0.029 A 
ATOM     42  N   UNL A   1      39.241  30.407  31.929  1.00  0.00    -0.354 N 
ATOM     43  C   UNL A   1      40.913  27.821  28.900  1.00  0.00     0.074 A 
ATOM     44  C   UNL A   1      40.128  27.873  27.685  1.00  0.00     0.031 C 
ATOM     45  C   UNL A   1      37.741  31.807  32.819  1.00  0.00     0.029 A 
ATOM     46  C   UNL A   1      38.985  31.093  33.090  1.00  0.00     0.049 A 
ATOM     47  H   UNL A   1      40.053  29.869  31.788  1.00  0.00     0.167 HD
ATOM     48  C   UNL A   1      42.056  27.108  29.046  1.00  0.00     0.037 A 
ATOM     49  C   UNL A   1      39.656  31.113  34.256  1.00  0.00     0.037 A 
ATOM     50  C   UNL A   1      42.852  27.084  30.245  1.00  0.00     0.049 A 
ATOM     51  C   UNL A   1      40.897  30.279  34.407  1.00  0.00     0.074 A 
ATOM     52  C   UNL A   1      44.035  26.406  30.484  1.00  0.00     0.029 A 
ATOM     53  N   UNL A   1      42.546  27.777  31.406  1.00  0.00    -0.354 N 
ATOM     54  N   UNL A   1      41.482  29.502  33.529  1.00  0.00    -0.248 NA
ATOM     55  C   UNL A   1      41.561  30.313  35.718  1.00  0.00     0.031 C 
ATOM     56  C   UNL A   1      44.431  26.666  31.801  1.00  0.00     0.029 A 
ATOM     57  C   UNL A   1      43.512  27.533  32.371  1.00  0.00     0.049 A 
ATOM     58  H   UNL A   1      41.761  28.357  31.529  1.00  0.00     0.167 HD
ATOM     59  C   UNL A   1      42.588  28.966  34.171  1.00  0.00     0.074 A 
ATOM     60  C   UNL A   1      42.601  29.518  35.511  1.00  0.00     0.031 C 
ATOM     61  C   UNL A   1      43.509  28.093  33.697  1.00  0.00     0.037 A 
BRANCH  48  62
ATOM     62  C   UNL A   1      42.502  26.272  27.885  1.00  0.00     0.064 A 
ATOM     63  C   UNL A   1      41.990  24.987  27.661  1.00  0.00     0.173 A 
ATOM     64  C   UNL A   1      43.430  26.781  26.963  1.00  0.00     0.173 A 
ATOM     65  F   UNL A   1      41.112  24.451  28.523  1.00  0.00    -0.203 F 
ATOM     66  C   UNL A   1      42.405  24.232  26.566  1.00  0.00     0.198 A 
ATOM     67  C   UNL A   1      43.824  26.034  25.857  1.00  0.00     0.198 A 
ATOM     68  F   UNL A   1      43.946  28.008  27.131  1.00  0.00    -0.203 F 
ATOM     69  F   UNL A   1      41.930  22.991  26.392  1.00  0.00    -0.200 F 
ATOM     70  C   UNL A   1      43.317  24.758  25.663  1.00  0.00     0.200 A 
ATOM     71  F   UNL A   1      44.701  26.546  24.981  1.00  0.00    -0.200 F 
ATOM     72  F   UNL A   1      43.712  24.032  24.608  1.00  0.00    -0.200 F 
ENDBRANCH  48  62
BRANCH  49  73
ATOM     73  C   UNL A   1      39.151  31.937  35.382  1.00  0.00     0.064 A 
ATOM     74  C   UNL A   1      38.335  31.374  36.373  1.00  0.00     0.173 A 
ATOM     75  C   UNL A   1      39.480  33.295  35.497  1.00  0.00     0.173 A 
ATOM     76  F   UNL A   1      37.975  30.085  36.289  1.00  0.00    -0.203 F 
ATOM     77  C   UNL A   1      37.860  32.142  37.432  1.00  0.00     0.198 A 
ATOM     78  C   UNL A   1      39.024  34.056  36.572  1.00  0.00     0.198 A 
ATOM     79  F   UNL A   1      40.258  33.878  34.573  1.00  0.00    -0.203 F 
ATOM     80  F   UNL A   1      37.054  31.588  38.349  1.00  0.00    -0.200 F 
ATOM     81  C   UNL A   1      38.211  33.480  37.536  1.00  0.00     0.200 A 
ATOM     82  F   UNL A   1      39.374  35.346  36.672  1.00  0.00    -0.200 F 
ATOM     83  F   UNL A   1      37.758  34.216  38.560  1.00  0.00    -0.200 F 
ENDBRANCH  49  73
BRANCH  61  84
ATOM     84  C   UNL A   1      44.620  27.704  34.623  1.00  0.00     0.064 A 
ATOM     85  C   UNL A   1      45.800  28.455  34.704  1.00  0.00     0.173 A 
ATOM     86  C   UNL A   1      44.490  26.585  35.459  1.00  0.00     0.173 A 
ATOM     87  F   UNL A   1      45.977  29.523  33.910  1.00  0.00    -0.203 F 
ATOM     88  C   UNL A   1      46.820  28.090  35.578  1.00  0.00     0.198 A 
ATOM     89  C   UNL A   1      45.502  26.235  36.346  1.00  0.00     0.198 A 
ATOM     90  F   UNL A   1      43.377  25.837  35.418  1.00  0.00    -0.203 F 
ATOM     91  F   UNL A   1      47.957  28.799  35.613  1.00  0.00    -0.200 F 
ATOM     92  C   UNL A   1      46.668  26.983  36.402  1.00  0.00     0.200 A 
ATOM     93  F   UNL A   1      45.351  25.170  37.147  1.00  0.00    -0.200 F 
ATOM     94  F   UNL A   1      47.650  26.634  37.244  1.00  0.00    -0.200 F 
ENDBRANCH  61  84
ENDBRANCH  35  36
ENDBRANCH  28  30
ENDBRANCH  27  28
ENDBRANCH  26  27
ENDBRANCH  25  26
ENDBRANCH   1  25
TORSDOF 16
ENDMDL
