MODEL 1
REMARK VINA RESULT:      -9.5      0.000      0.000
REMARK SMILES C=CC[N@@H+](CC(=O)OCCOC(=O)c1ccc(-c2c3nc(c(-c4c(F)c(F)c(F)c(F)c4F)c4ccc([nH]4)c(-c4c(F)c(F)c(F)c(F)c4F)c4nc(c(-c5c(F)c(F)c(F)c(F)c5F)c5ccc2[nH]5)C=C4)C=C3)cc1)[C@@H](C)c1cc(F)ccc1F
REMARK SMILES IDX 9 1 8 2 6 3 7 4 5 5 4 6 3 8 2 9 1 10 77 11 78 12 79 13 80 14
REMARK SMILES IDX 85 15 81 16 84 17 86 18 82 19 83 20 10 21 11 22 12 23 13 24
REMARK SMILES IDX 14 25 15 26 76 27 16 28 75 29 17 30 18 31 19 32 69 33 20 34
REMARK SMILES IDX 74 35 68 36 70 37 21 38 73 39 67 40 66 41 22 43 54 44 34 45
REMARK SMILES IDX 53 46 35 47 38 48 52 49 71 50 36 51 37 52 51 54 72 55 39 56
REMARK SMILES IDX 23 57 24 58 32 59 25 60 26 61 30 62 33 63 27 64 28 65 31 66
REMARK SMILES IDX 29 67 55 68 56 69 64 70 57 71 58 72 62 73 65 74 59 75 60 76
REMARK SMILES IDX 63 77 61 78 40 79 41 80 49 81 42 82 43 83 47 84 50 85 44 86
REMARK SMILES IDX 45 87 48 88 46 89
REMARK H PARENT 4 7 70 42 38 53
REMARK Flexibility Score: inf
ROOT
ATOM      1  C   UNL A   1      33.646  33.567  28.030  1.00  0.00     0.274 C 
ENDROOT
BRANCH   1   2
ATOM      2  O   UNL A   1      32.740  34.195  28.966  1.00  0.00    -0.458 OA
BRANCH   2   3
ATOM      3  C   UNL A   1      33.291  35.020  29.894  1.00  0.00     0.361 C 
ATOM      4  O   UNL A   1      32.691  35.971  30.396  1.00  0.00    -0.245 OA
BRANCH   3   5
ATOM      5  C   UNL A   1      34.716  34.669  30.335  1.00  0.00     0.387 C 
BRANCH   5   6
ATOM      6  N   UNL A   1      34.986  33.397  31.039  1.00  0.00    -0.316 N 
ATOM      7  H   UNL A   1      34.412  32.715  30.543  1.00  0.00     0.349 HD
BRANCH   6   8
ATOM      8  C   UNL A   1      34.411  33.309  32.370  1.00  0.00     0.291 C 
BRANCH   8   9
ATOM      9  C   UNL A   1      34.591  34.593  33.122  1.00  0.00     0.025 C 
ATOM     10  C   UNL A   1      35.113  34.674  34.353  1.00  0.00     0.010 C 
ENDBRANCH   8   9
ENDBRANCH   6   8
BRANCH   6  11
ATOM     11  C   UNL A   1      36.281  32.745  30.773  1.00  0.00     0.215 C 
ATOM     12  C   UNL A   1      37.075  33.179  29.523  1.00  0.00     0.081 C 
BRANCH  11  13
ATOM     13  C   UNL A   1      37.171  32.693  32.017  1.00  0.00     0.048 A 
ATOM     14  C   UNL A   1      38.059  33.751  32.286  1.00  0.00     0.052 A 
ATOM     15  C   UNL A   1      37.143  31.627  32.932  1.00  0.00     0.132 A 
ATOM     16  C   UNL A   1      38.836  33.743  33.446  1.00  0.00     0.123 A 
ATOM     17  C   UNL A   1      37.917  31.627  34.092  1.00  0.00     0.043 A 
ATOM     18  F   UNL A   1      36.363  30.557  32.722  1.00  0.00    -0.206 F 
ATOM     19  F   UNL A   1      39.659  34.771  33.694  1.00  0.00    -0.207 F 
ATOM     20  C   UNL A   1      38.765  32.695  34.355  1.00  0.00     0.042 A 
ENDBRANCH  11  13
ENDBRANCH   6  11
ENDBRANCH   5   6
ENDBRANCH   3   5
ENDBRANCH   2   3
ENDBRANCH   1   2
BRANCH   1  21
ATOM     21  C   UNL A   1      33.523  32.033  28.072  1.00  0.00     0.275 C 
BRANCH  21  22
ATOM     22  O   UNL A   1      34.468  31.343  27.220  1.00  0.00    -0.458 OA
BRANCH  22  23
ATOM     23  C   UNL A   1      34.798  30.113  27.650  1.00  0.00     0.338 C 
ATOM     24  O   UNL A   1      34.116  29.103  27.595  1.00  0.00    -0.246 OA
BRANCH  23  25
ATOM     25  C   UNL A   1      36.118  29.976  28.234  1.00  0.00     0.060 A 
ATOM     26  C   UNL A   1      37.193  30.120  27.349  1.00  0.00     0.016 A 
ATOM     27  C   UNL A   1      36.277  29.410  29.498  1.00  0.00     0.016 A 
ATOM     28  C   UNL A   1      38.448  29.675  27.723  1.00  0.00     0.010 A 
ATOM     29  C   UNL A   1      37.547  28.988  29.883  1.00  0.00     0.010 A 
ATOM     30  C   UNL A   1      38.629  29.113  28.995  1.00  0.00    -0.014 A 
BRANCH  30  31
ATOM     31  C   UNL A   1      39.992  28.766  29.431  1.00  0.00     0.031 A 
ATOM     32  C   UNL A   1      40.771  29.663  30.334  1.00  0.00     0.074 A 
ATOM     33  C   UNL A   1      40.494  27.602  28.986  1.00  0.00     0.049 A 
ATOM     34  N   UNL A   1      42.014  29.552  30.724  1.00  0.00    -0.248 NA
ATOM     35  C   UNL A   1      40.069  30.836  30.876  1.00  0.00     0.031 C 
ATOM     36  C   UNL A   1      39.771  26.650  28.139  1.00  0.00     0.029 A 
ATOM     37  N   UNL A   1      41.717  27.023  29.177  1.00  0.00    -0.354 N 
ATOM     38  C   UNL A   1      42.254  30.645  31.542  1.00  0.00     0.074 A 
ATOM     39  C   UNL A   1      41.025  31.410  31.598  1.00  0.00     0.031 C 
ATOM     40  C   UNL A   1      40.566  25.602  27.883  1.00  0.00     0.029 A 
ATOM     41  C   UNL A   1      41.866  25.842  28.498  1.00  0.00     0.049 A 
ATOM     42  H   UNL A   1      42.420  27.415  29.744  1.00  0.00     0.167 HD
ATOM     43  C   UNL A   1      43.404  30.971  32.176  1.00  0.00     0.037 A 
ATOM     44  C   UNL A   1      42.947  25.058  28.357  1.00  0.00     0.037 A 
ATOM     45  C   UNL A   1      44.612  30.188  32.102  1.00  0.00     0.049 A 
ATOM     46  C   UNL A   1      44.218  25.467  29.035  1.00  0.00     0.074 A 
ATOM     47  C   UNL A   1      45.843  30.434  32.687  1.00  0.00     0.029 A 
ATOM     48  N   UNL A   1      44.736  28.999  31.395  1.00  0.00    -0.354 N 
ATOM     49  N   UNL A   1      44.451  26.522  29.777  1.00  0.00    -0.248 NA
ATOM     50  C   UNL A   1      45.377  24.587  28.852  1.00  0.00     0.031 C 
ATOM     51  C   UNL A   1      46.717  29.407  32.310  1.00  0.00     0.029 A 
ATOM     52  C   UNL A   1      46.023  28.504  31.519  1.00  0.00     0.049 A 
ATOM     53  H   UNL A   1      44.013  28.571  30.881  1.00  0.00     0.167 HD
ATOM     54  C   UNL A   1      45.778  26.431  30.162  1.00  0.00     0.074 A 
ATOM     55  C   UNL A   1      46.297  25.210  29.577  1.00  0.00     0.031 C 
ATOM     56  C   UNL A   1      46.504  27.284  30.925  1.00  0.00     0.037 A 
BRANCH  43  57
ATOM     57  C   UNL A   1      43.428  32.241  32.972  1.00  0.00     0.064 A 
ATOM     58  C   UNL A   1      43.883  33.448  32.421  1.00  0.00     0.173 A 
ATOM     59  C   UNL A   1      42.943  32.260  34.288  1.00  0.00     0.173 A 
ATOM     60  F   UNL A   1      44.367  33.478  31.171  1.00  0.00    -0.203 F 
ATOM     61  C   UNL A   1      43.860  34.627  33.165  1.00  0.00     0.198 A 
ATOM     62  C   UNL A   1      42.906  33.443  35.022  1.00  0.00     0.198 A 
ATOM     63  F   UNL A   1      42.497  31.132  34.861  1.00  0.00    -0.203 F 
ATOM     64  F   UNL A   1      44.322  35.764  32.627  1.00  0.00    -0.200 F 
ATOM     65  C   UNL A   1      43.367  34.624  34.461  1.00  0.00     0.200 A 
ATOM     66  F   UNL A   1      42.423  33.440  36.273  1.00  0.00    -0.200 F 
ATOM     67  F   UNL A   1      43.340  35.760  35.171  1.00  0.00    -0.200 F 
ENDBRANCH  43  57
BRANCH  44  68
ATOM     68  C   UNL A   1      42.852  23.840  27.521  1.00  0.00     0.064 A 
ATOM     69  C   UNL A   1      43.193  23.869  26.164  1.00  0.00     0.173 A 
ATOM     70  C   UNL A   1      42.491  22.605  28.082  1.00  0.00     0.173 A 
ATOM     71  F   UNL A   1      43.534  25.030  25.584  1.00  0.00    -0.203 F 
ATOM     72  C   UNL A   1      43.178  22.707  25.396  1.00  0.00     0.198 A 
ATOM     73  C   UNL A   1      42.500  21.440  27.320  1.00  0.00     0.198 A 
ATOM     74  F   UNL A   1      42.170  22.527  29.382  1.00  0.00    -0.203 F 
ATOM     75  F   UNL A   1      43.494  22.761  24.095  1.00  0.00    -0.200 F 
ATOM     76  C   UNL A   1      42.842  21.493  25.977  1.00  0.00     0.200 A 
ATOM     77  F   UNL A   1      42.194  20.266  27.890  1.00  0.00    -0.200 F 
ATOM     78  F   UNL A   1      42.848  20.371  25.243  1.00  0.00    -0.200 F 
ENDBRANCH  44  68
BRANCH  56  79
ATOM     79  C   UNL A   1      47.926  26.901  31.182  1.00  0.00     0.064 A 
ATOM     80  C   UNL A   1      48.268  26.027  32.222  1.00  0.00     0.173 A 
ATOM     81  C   UNL A   1      48.952  27.395  30.363  1.00  0.00     0.173 A 
ATOM     82  F   UNL A   1      47.320  25.546  33.040  1.00  0.00    -0.203 F 
ATOM     83  C   UNL A   1      49.596  25.673  32.446  1.00  0.00     0.198 A 
ATOM     84  C   UNL A   1      50.274  27.026  30.579  1.00  0.00     0.198 A 
ATOM     85  F   UNL A   1      48.667  28.235  29.357  1.00  0.00    -0.203 F 
ATOM     86  F   UNL A   1      49.908  24.864  33.467  1.00  0.00    -0.200 F 
ATOM     87  C   UNL A   1      50.596  26.169  31.622  1.00  0.00     0.200 A 
ATOM     88  F   UNL A   1      51.240  27.502  29.781  1.00  0.00    -0.200 F 
ATOM     89  F   UNL A   1      51.874  25.827  31.839  1.00  0.00    -0.200 F 
ENDBRANCH  56  79
ENDBRANCH  30  31
ENDBRANCH  23  25
ENDBRANCH  22  23
ENDBRANCH  21  22
ENDBRANCH   1  21
TORSDOF 16
ENDMDL
MODEL 2
REMARK VINA RESULT:      -9.5      4.101      9.820
REMARK SMILES C=CC[N@@H+](CC(=O)OCCOC(=O)c1ccc(-c2c3nc(c(-c4c(F)c(F)c(F)c(F)c4F)c4ccc([nH]4)c(-c4c(F)c(F)c(F)c(F)c4F)c4nc(c(-c5c(F)c(F)c(F)c(F)c5F)c5ccc2[nH]5)C=C4)C=C3)cc1)[C@@H](C)c1cc(F)ccc1F
REMARK SMILES IDX 9 1 8 2 6 3 7 4 5 5 4 6 3 8 2 9 1 10 77 11 78 12 79 13 80 14
REMARK SMILES IDX 85 15 81 16 84 17 86 18 82 19 83 20 10 21 11 22 12 23 13 24
REMARK SMILES IDX 14 25 15 26 76 27 16 28 75 29 17 30 18 31 19 32 69 33 20 34
REMARK SMILES IDX 74 35 68 36 70 37 21 38 73 39 67 40 66 41 22 43 54 44 34 45
REMARK SMILES IDX 53 46 35 47 38 48 52 49 71 50 36 51 37 52 51 54 72 55 39 56
REMARK SMILES IDX 23 57 24 58 32 59 25 60 26 61 30 62 33 63 27 64 28 65 31 66
REMARK SMILES IDX 29 67 55 68 56 69 64 70 57 71 58 72 62 73 65 74 59 75 60 76
REMARK SMILES IDX 63 77 61 78 40 79 41 80 49 81 42 82 43 83 47 84 50 85 44 86
REMARK SMILES IDX 45 87 48 88 46 89
REMARK H PARENT 4 7 70 42 38 53
REMARK Flexibility Score: inf
ROOT
ATOM      1  C   UNL A   1      31.760  28.455  26.873  1.00  0.00     0.274 C 
ENDROOT
BRANCH   1   2
ATOM      2  O   UNL A   1      31.698  27.723  25.628  1.00  0.00    -0.458 OA
BRANCH   2   3
ATOM      3  C   UNL A   1      31.216  26.454  25.685  1.00  0.00     0.361 C 
ATOM      4  O   UNL A   1      30.957  25.875  26.740  1.00  0.00    -0.245 OA
BRANCH   3   5
ATOM      5  C   UNL A   1      30.955  25.780  24.334  1.00  0.00     0.387 C 
BRANCH   5   6
ATOM      6  N   UNL A   1      32.050  25.086  23.623  1.00  0.00    -0.316 N 
ATOM      7  H   UNL A   1      32.896  25.518  23.991  1.00  0.00     0.349 HD
BRANCH   6   8
ATOM      8  C   UNL A   1      32.169  25.428  22.216  1.00  0.00     0.291 C 
BRANCH   8   9
ATOM      9  C   UNL A   1      33.304  26.380  21.986  1.00  0.00     0.025 C 
ATOM     10  C   UNL A   1      33.292  27.666  22.358  1.00  0.00     0.010 C 
ENDBRANCH   8   9
ENDBRANCH   6   8
BRANCH   6  11
ATOM     11  C   UNL A   1      32.366  23.712  24.055  1.00  0.00     0.215 C 
ATOM     12  C   UNL A   1      31.853  22.539  23.194  1.00  0.00     0.081 C 
BRANCH  11  13
ATOM     13  C   UNL A   1      33.843  23.543  24.419  1.00  0.00     0.048 A 
ATOM     14  C   UNL A   1      34.785  23.277  23.409  1.00  0.00     0.052 A 
ATOM     15  C   UNL A   1      34.322  23.651  25.735  1.00  0.00     0.132 A 
ATOM     16  C   UNL A   1      36.142  23.176  23.719  1.00  0.00     0.123 A 
ATOM     17  C   UNL A   1      35.679  23.555  26.039  1.00  0.00     0.043 A 
ATOM     18  F   UNL A   1      33.482  23.851  26.762  1.00  0.00    -0.206 F 
ATOM     19  F   UNL A   1      37.026  22.944  22.739  1.00  0.00    -0.207 F 
ATOM     20  C   UNL A   1      36.598  23.323  25.023  1.00  0.00     0.042 A 
ENDBRANCH  11  13
ENDBRANCH   6  11
ENDBRANCH   5   6
ENDBRANCH   3   5
ENDBRANCH   2   3
ENDBRANCH   1   2
BRANCH   1  21
ATOM     21  C   UNL A   1      31.792  29.975  26.629  1.00  0.00     0.275 C 
BRANCH  21  22
ATOM     22  O   UNL A   1      33.100  30.488  26.278  1.00  0.00    -0.458 OA
BRANCH  22  23
ATOM     23  C   UNL A   1      33.611  31.346  27.176  1.00  0.00     0.338 C 
ATOM     24  O   UNL A   1      33.089  32.359  27.611  1.00  0.00    -0.246 OA
BRANCH  23  25
ATOM     25  C   UNL A   1      34.928  31.021  27.689  1.00  0.00     0.060 A 
ATOM     26  C   UNL A   1      35.090  29.714  28.165  1.00  0.00     0.016 A 
ATOM     27  C   UNL A   1      35.840  32.032  27.992  1.00  0.00     0.016 A 
ATOM     28  C   UNL A   1      36.172  29.412  28.973  1.00  0.00     0.010 A 
ATOM     29  C   UNL A   1      36.942  31.719  28.784  1.00  0.00     0.010 A 
ATOM     30  C   UNL A   1      37.104  30.413  29.279  1.00  0.00    -0.014 A 
BRANCH  30  31
ATOM     31  C   UNL A   1      38.318  30.049  30.028  1.00  0.00     0.031 A 
ATOM     32  C   UNL A   1      39.351  29.146  29.441  1.00  0.00     0.074 A 
ATOM     33  C   UNL A   1      38.455  30.576  31.257  1.00  0.00     0.049 A 
ATOM     34  N   UNL A   1      40.420  28.649  30.008  1.00  0.00    -0.248 NA
ATOM     35  C   UNL A   1      39.170  28.747  28.037  1.00  0.00     0.031 C 
ATOM     36  C   UNL A   1      37.509  31.506  31.876  1.00  0.00     0.029 A 
ATOM     37  N   UNL A   1      39.430  30.408  32.199  1.00  0.00    -0.354 N 
ATOM     38  C   UNL A   1      41.032  27.866  29.041  1.00  0.00     0.074 A 
ATOM     39  C   UNL A   1      40.218  27.954  27.846  1.00  0.00     0.031 C 
ATOM     40  C   UNL A   1      37.951  31.829  33.099  1.00  0.00     0.029 A 
ATOM     41  C   UNL A   1      39.174  31.082  33.364  1.00  0.00     0.049 A 
ATOM     42  H   UNL A   1      40.233  29.858  32.056  1.00  0.00     0.167 HD
ATOM     43  C   UNL A   1      42.167  27.138  29.159  1.00  0.00     0.037 A 
ATOM     44  C   UNL A   1      39.836  31.067  34.533  1.00  0.00     0.037 A 
ATOM     45  C   UNL A   1      42.957  27.070  30.362  1.00  0.00     0.049 A 
ATOM     46  C   UNL A   1      41.065  30.219  34.646  1.00  0.00     0.074 A 
ATOM     47  C   UNL A   1      44.114  26.349  30.600  1.00  0.00     0.029 A 
ATOM     48  N   UNL A   1      42.666  27.757  31.533  1.00  0.00    -0.354 N 
ATOM     49  N   UNL A   1      41.619  29.451  33.741  1.00  0.00    -0.248 NA
ATOM     50  C   UNL A   1      41.756  30.227  35.940  1.00  0.00     0.031 C 
ATOM     51  C   UNL A   1      44.506  26.580  31.925  1.00  0.00     0.029 A 
ATOM     52  C   UNL A   1      43.613  27.470  32.501  1.00  0.00     0.049 A 
ATOM     53  H   UNL A   1      41.897  28.361  31.657  1.00  0.00     0.167 HD
ATOM     54  C   UNL A   1      42.731  28.889  34.346  1.00  0.00     0.074 A 
ATOM     55  C   UNL A   1      42.777  29.416  35.697  1.00  0.00     0.031 C 
ATOM     56  C   UNL A   1      43.629  28.014  33.834  1.00  0.00     0.037 A 
BRANCH  43  57
ATOM     57  C   UNL A   1      42.604  26.329  27.975  1.00  0.00     0.064 A 
ATOM     58  C   UNL A   1      42.108  25.039  27.740  1.00  0.00     0.173 A 
ATOM     59  C   UNL A   1      43.495  26.872  27.036  1.00  0.00     0.173 A 
ATOM     60  F   UNL A   1      41.264  24.472  28.614  1.00  0.00    -0.203 F 
ATOM     61  C   UNL A   1      42.496  24.318  26.612  1.00  0.00     0.198 A 
ATOM     62  C   UNL A   1      43.867  26.155  25.902  1.00  0.00     0.198 A 
ATOM     63  F   UNL A   1      43.997  28.103  27.215  1.00  0.00    -0.203 F 
ATOM     64  F   UNL A   1      42.028  23.076  26.419  1.00  0.00    -0.200 F 
ATOM     65  C   UNL A   1      43.369  24.878  25.692  1.00  0.00     0.200 A 
ATOM     66  F   UNL A   1      44.706  26.701  25.010  1.00  0.00    -0.200 F 
ATOM     67  F   UNL A   1      43.736  24.185  24.605  1.00  0.00    -0.200 F 
ENDBRANCH  43  57
BRANCH  44  68
ATOM     68  C   UNL A   1      39.316  31.864  35.667  1.00  0.00     0.064 A 
ATOM     69  C   UNL A   1      38.409  31.313  36.580  1.00  0.00     0.173 A 
ATOM     70  C   UNL A   1      39.776  33.169  35.905  1.00  0.00     0.173 A 
ATOM     71  F   UNL A   1      37.936  30.073  36.386  1.00  0.00    -0.203 F 
ATOM     72  C   UNL A   1      37.981  32.036  37.691  1.00  0.00     0.198 A 
ATOM     73  C   UNL A   1      39.366  33.882  37.027  1.00  0.00     0.198 A 
ATOM     74  F   UNL A   1      40.656  33.733  35.064  1.00  0.00    -0.203 F 
ATOM     75  F   UNL A   1      37.102  31.493  38.543  1.00  0.00    -0.200 F 
ATOM     76  C   UNL A   1      38.468  33.316  37.918  1.00  0.00     0.200 A 
ATOM     77  F   UNL A   1      39.854  35.110  37.253  1.00  0.00    -0.200 F 
ATOM     78  F   UNL A   1      38.071  34.003  38.998  1.00  0.00    -0.200 F 
ENDBRANCH  44  68
BRANCH  56  79
ATOM     79  C   UNL A   1      44.744  27.598  34.740  1.00  0.00     0.064 A 
ATOM     80  C   UNL A   1      45.936  28.331  34.811  1.00  0.00     0.173 A 
ATOM     81  C   UNL A   1      44.606  26.469  35.561  1.00  0.00     0.173 A 
ATOM     82  F   UNL A   1      46.115  29.405  34.028  1.00  0.00    -0.203 F 
ATOM     83  C   UNL A   1      46.963  27.936  35.663  1.00  0.00     0.198 A 
ATOM     84  C   UNL A   1      45.627  26.089  36.424  1.00  0.00     0.198 A 
ATOM     85  F   UNL A   1      43.481  25.740  35.523  1.00  0.00    -0.203 F 
ATOM     86  F   UNL A   1      48.110  28.628  35.692  1.00  0.00    -0.200 F 
ATOM     87  C   UNL A   1      46.806  26.820  36.471  1.00  0.00     0.200 A 
ATOM     88  F   UNL A   1      45.474  25.012  37.207  1.00  0.00    -0.200 F 
ATOM     89  F   UNL A   1      47.797  26.441  37.291  1.00  0.00    -0.200 F 
ENDBRANCH  56  79
ENDBRANCH  30  31
ENDBRANCH  23  25
ENDBRANCH  22  23
ENDBRANCH  21  22
ENDBRANCH   1  21
TORSDOF 16
ENDMDL
MODEL 3
REMARK VINA RESULT:      -9.4      4.038      9.666
REMARK SMILES C=CC[N@@H+](CC(=O)OCCOC(=O)c1ccc(-c2c3nc(c(-c4c(F)c(F)c(F)c(F)c4F)c4ccc([nH]4)c(-c4c(F)c(F)c(F)c(F)c4F)c4nc(c(-c5c(F)c(F)c(F)c(F)c5F)c5ccc2[nH]5)C=C4)C=C3)cc1)[C@@H](C)c1cc(F)ccc1F
REMARK SMILES IDX 9 1 8 2 6 3 7 4 5 5 4 6 3 8 2 9 1 10 77 11 78 12 79 13 80 14
REMARK SMILES IDX 85 15 81 16 84 17 86 18 82 19 83 20 10 21 11 22 12 23 13 24
REMARK SMILES IDX 14 25 15 26 76 27 16 28 75 29 17 30 18 31 19 32 69 33 20 34
REMARK SMILES IDX 74 35 68 36 70 37 21 38 73 39 67 40 66 41 22 43 54 44 34 45
REMARK SMILES IDX 53 46 35 47 38 48 52 49 71 50 36 51 37 52 51 54 72 55 39 56
REMARK SMILES IDX 23 57 24 58 32 59 25 60 26 61 30 62 33 63 27 64 28 65 31 66
REMARK SMILES IDX 29 67 55 68 56 69 64 70 57 71 58 72 62 73 65 74 59 75 60 76
REMARK SMILES IDX 63 77 61 78 40 79 41 80 49 81 42 82 43 83 47 84 50 85 44 86
REMARK SMILES IDX 45 87 48 88 46 89
REMARK H PARENT 4 7 70 42 38 53
REMARK Flexibility Score: inf
ROOT
ATOM      1  C   UNL A   1      31.723  28.432  26.678  1.00  0.00     0.274 C 
ENDROOT
BRANCH   1   2
ATOM      2  O   UNL A   1      31.865  27.646  25.472  1.00  0.00    -0.458 OA
BRANCH   2   3
ATOM      3  C   UNL A   1      32.886  26.751  25.440  1.00  0.00     0.361 C 
ATOM      4  O   UNL A   1      33.916  26.874  26.103  1.00  0.00    -0.245 OA
BRANCH   3   5
ATOM      5  C   UNL A   1      32.664  25.520  24.555  1.00  0.00     0.387 C 
BRANCH   5   6
ATOM      6  N   UNL A   1      32.003  24.316  25.103  1.00  0.00    -0.316 N 
ATOM      7  H   UNL A   1      31.188  24.188  24.504  1.00  0.00     0.349 HD
BRANCH   6   8
ATOM      8  C   UNL A   1      31.358  24.515  26.389  1.00  0.00     0.291 C 
BRANCH   8   9
ATOM      9  C   UNL A   1      30.877  23.215  26.959  1.00  0.00     0.025 C 
ATOM     10  C   UNL A   1      29.585  22.889  27.097  1.00  0.00     0.010 C 
ENDBRANCH   8   9
ENDBRANCH   6   8
BRANCH   6  11
ATOM     11  C   UNL A   1      32.629  23.014  24.808  1.00  0.00     0.215 C 
ATOM     12  C   UNL A   1      32.147  22.237  23.565  1.00  0.00     0.081 C 
BRANCH  11  13
ATOM     13  C   UNL A   1      34.157  23.074  24.881  1.00  0.00     0.048 A 
ATOM     14  C   UNL A   1      34.917  22.955  23.703  1.00  0.00     0.052 A 
ATOM     15  C   UNL A   1      34.858  23.255  26.084  1.00  0.00     0.132 A 
ATOM     16  C   UNL A   1      36.308  23.063  23.746  1.00  0.00     0.123 A 
ATOM     17  C   UNL A   1      36.246  23.368  26.122  1.00  0.00     0.043 A 
ATOM     18  F   UNL A   1      34.210  23.325  27.257  1.00  0.00    -0.206 F 
ATOM     19  F   UNL A   1      37.012  22.968  22.610  1.00  0.00    -0.207 F 
ATOM     20  C   UNL A   1      36.978  23.278  24.944  1.00  0.00     0.042 A 
ENDBRANCH  11  13
ENDBRANCH   6  11
ENDBRANCH   5   6
ENDBRANCH   3   5
ENDBRANCH   2   3
ENDBRANCH   1   2
BRANCH   1  21
ATOM     21  C   UNL A   1      31.772  29.941  26.374  1.00  0.00     0.275 C 
BRANCH  21  22
ATOM     22  O   UNL A   1      33.106  30.449  26.132  1.00  0.00    -0.458 OA
BRANCH  22  23
ATOM     23  C   UNL A   1      33.583  31.227  27.118  1.00  0.00     0.338 C 
ATOM     24  O   UNL A   1      33.032  32.184  27.637  1.00  0.00    -0.246 OA
BRANCH  23  25
ATOM     25  C   UNL A   1      34.897  30.879  27.625  1.00  0.00     0.060 A 
ATOM     26  C   UNL A   1      34.985  29.653  28.294  1.00  0.00     0.016 A 
ATOM     27  C   UNL A   1      35.895  31.847  27.729  1.00  0.00     0.016 A 
ATOM     28  C   UNL A   1      36.081  29.393  29.097  1.00  0.00     0.010 A 
ATOM     29  C   UNL A   1      37.010  31.572  28.516  1.00  0.00     0.010 A 
ATOM     30  C   UNL A   1      37.100  30.350  29.205  1.00  0.00    -0.014 A 
BRANCH  30  31
ATOM     31  C   UNL A   1      38.320  30.008  29.954  1.00  0.00     0.031 A 
ATOM     32  C   UNL A   1      39.352  29.094  29.383  1.00  0.00     0.074 A 
ATOM     33  C   UNL A   1      38.463  30.565  31.169  1.00  0.00     0.049 A 
ATOM     34  N   UNL A   1      40.426  28.615  29.955  1.00  0.00    -0.248 NA
ATOM     35  C   UNL A   1      39.163  28.661  27.991  1.00  0.00     0.031 C 
ATOM     36  C   UNL A   1      37.518  31.508  31.772  1.00  0.00     0.029 A 
ATOM     37  N   UNL A   1      39.445  30.424  32.109  1.00  0.00    -0.354 N 
ATOM     38  C   UNL A   1      41.035  27.810  29.003  1.00  0.00     0.074 A 
ATOM     39  C   UNL A   1      40.212  27.867  27.812  1.00  0.00     0.031 C 
ATOM     40  C   UNL A   1      37.967  31.862  32.983  1.00  0.00     0.029 A 
ATOM     41  C   UNL A   1      39.195  31.125  33.258  1.00  0.00     0.049 A 
ATOM     42  H   UNL A   1      40.249  29.873  31.974  1.00  0.00     0.167 HD
ATOM     43  C   UNL A   1      42.173  27.090  29.131  1.00  0.00     0.037 A 
ATOM     44  C   UNL A   1      39.864  31.142  34.423  1.00  0.00     0.037 A 
ATOM     45  C   UNL A   1      42.972  27.054  30.330  1.00  0.00     0.049 A 
ATOM     46  C   UNL A   1      41.097  30.301  34.548  1.00  0.00     0.074 A 
ATOM     47  C   UNL A   1      44.133  26.343  30.578  1.00  0.00     0.029 A 
ATOM     48  N   UNL A   1      42.686  27.769  31.485  1.00  0.00    -0.354 N 
ATOM     49  N   UNL A   1      41.647  29.512  33.658  1.00  0.00    -0.248 NA
ATOM     50  C   UNL A   1      41.797  30.343  35.837  1.00  0.00     0.031 C 
ATOM     51  C   UNL A   1      44.533  26.607  31.894  1.00  0.00     0.029 A 
ATOM     52  C   UNL A   1      43.640  27.508  32.454  1.00  0.00     0.049 A 
ATOM     53  H   UNL A   1      41.915  28.373  31.600  1.00  0.00     0.167 HD
ATOM     54  C   UNL A   1      42.765  28.970  34.270  1.00  0.00     0.074 A 
ATOM     55  C   UNL A   1      42.819  29.530  35.607  1.00  0.00     0.031 C 
ATOM     56  C   UNL A   1      43.663  28.085  33.773  1.00  0.00     0.037 A 
BRANCH  43  57
ATOM     57  C   UNL A   1      42.605  26.254  27.964  1.00  0.00     0.064 A 
ATOM     58  C   UNL A   1      43.492  26.744  26.994  1.00  0.00     0.173 A 
ATOM     59  C   UNL A   1      42.163  24.928  27.841  1.00  0.00     0.173 A 
ATOM     60  F   UNL A   1      43.933  28.008  27.061  1.00  0.00    -0.203 F 
ATOM     61  C   UNL A   1      43.913  25.938  25.938  1.00  0.00     0.198 A 
ATOM     62  C   UNL A   1      42.599  24.120  26.793  1.00  0.00     0.198 A 
ATOM     63  F   UNL A   1      41.314  24.412  28.742  1.00  0.00    -0.203 F 
ATOM     64  F   UNL A   1      44.742  26.433  25.008  1.00  0.00    -0.200 F 
ATOM     65  C   UNL A   1      43.471  24.627  25.841  1.00  0.00     0.200 A 
ATOM     66  F   UNL A   1      42.176  22.851  26.705  1.00  0.00    -0.200 F 
ATOM     67  F   UNL A   1      43.882  23.852  24.828  1.00  0.00    -0.200 F 
ENDBRANCH  43  57
BRANCH  44  68
ATOM     68  C   UNL A   1      39.349  31.965  35.540  1.00  0.00     0.064 A 
ATOM     69  C   UNL A   1      38.468  31.426  36.485  1.00  0.00     0.173 A 
ATOM     70  C   UNL A   1      39.789  33.284  35.729  1.00  0.00     0.173 A 
ATOM     71  F   UNL A   1      38.014  30.173  36.339  1.00  0.00    -0.203 F 
ATOM     72  C   UNL A   1      38.046  32.177  37.581  1.00  0.00     0.198 A 
ATOM     73  C   UNL A   1      39.386  34.025  36.836  1.00  0.00     0.198 A 
ATOM     74  F   UNL A   1      40.645  33.837  34.856  1.00  0.00    -0.203 F 
ATOM     75  F   UNL A   1      37.191  31.645  38.464  1.00  0.00    -0.200 F 
ATOM     76  C   UNL A   1      38.513  33.471  37.760  1.00  0.00     0.200 A 
ATOM     77  F   UNL A   1      39.855  35.268  37.015  1.00  0.00    -0.200 F 
ATOM     78  F   UNL A   1      38.122  34.185  38.825  1.00  0.00    -0.200 F 
ENDBRANCH  44  68
BRANCH  56  79
ATOM     79  C   UNL A   1      44.786  27.695  34.681  1.00  0.00     0.064 A 
ATOM     80  C   UNL A   1      44.687  26.580  35.523  1.00  0.00     0.173 A 
ATOM     81  C   UNL A   1      45.980  28.430  34.687  1.00  0.00     0.173 A 
ATOM     82  F   UNL A   1      43.555  25.861  35.561  1.00  0.00    -0.203 F 
ATOM     83  C   UNL A   1      45.742  26.223  36.358  1.00  0.00     0.198 A 
ATOM     84  C   UNL A   1      47.038  28.061  35.509  1.00  0.00     0.198 A 
ATOM     85  F   UNL A   1      46.116  29.505  33.896  1.00  0.00    -0.203 F 
ATOM     86  F   UNL A   1      45.616  25.175  37.183  1.00  0.00    -0.200 F 
ATOM     87  C   UNL A   1      46.917  26.960  36.346  1.00  0.00     0.200 A 
ATOM     88  F   UNL A   1      48.175  28.771  35.496  1.00  0.00    -0.200 F 
ATOM     89  F   UNL A   1      47.932  26.616  37.151  1.00  0.00    -0.200 F 
ENDBRANCH  56  79
ENDBRANCH  30  31
ENDBRANCH  23  25
ENDBRANCH  22  23
ENDBRANCH  21  22
ENDBRANCH   1  21
TORSDOF 16
ENDMDL
