MODEL 1
REMARK VINA RESULT:     -10.4      0.000      0.000
REMARK SMILES CC(=O)Oc1ccccc1C(=O)OCCOC(=O)c1ccc(-c2c3nc(c(-c4c(F)c(F)c(F)c(F)c4F)c4ccc([nH]4)c(-c4c(F)c(F)c(F)c(F)c4F)c4nc(c(-c5c(F)c(F)c(F)c(F)c5F)c5ccc2[nH]5)C=C4)C=C3)cc1
REMARK SMILES IDX 14 1 13 2 11 3 12 4 10 5 5 6 6 7 7 8 9 9 8 10 4 11 2 12 1 13
REMARK SMILES IDX 3 14 15 15 16 16 17 17 18 18 19 19 20 20 81 21 21 22 80 23
REMARK SMILES IDX 22 24 23 25 24 26 74 27 25 28 79 29 73 30 75 31 26 32 78 33
REMARK SMILES IDX 72 34 71 35 27 37 59 38 39 39 58 40 40 41 43 42 57 43 76 44
REMARK SMILES IDX 41 45 42 46 56 48 77 49 44 50 28 51 29 52 37 53 30 54 31 55
REMARK SMILES IDX 35 56 38 57 32 58 33 59 36 60 34 61 60 62 61 63 69 64 62 65
REMARK SMILES IDX 63 66 67 67 70 68 64 69 65 70 68 71 66 72 45 73 46 74 54 75
REMARK SMILES IDX 47 76 48 77 52 78 55 79 49 80 50 81 53 82 51 83
REMARK H PARENT 75 36 43 47
REMARK Flexibility Score: inf
ROOT
ATOM      1  C   UNL A   1      33.989  35.321  28.810  1.00  0.00     0.275 C 
ENDROOT
BRANCH   1   2
ATOM      2  O   UNL A   1      33.929  33.909  29.091  1.00  0.00    -0.458 OA
BRANCH   2   3
ATOM      3  C   UNL A   1      33.541  33.103  28.069  1.00  0.00     0.342 C 
ATOM      4  O   UNL A   1      32.605  33.314  27.316  1.00  0.00    -0.246 OA
BRANCH   3   5
ATOM      5  C   UNL A   1      34.464  31.949  27.894  1.00  0.00     0.102 A 
ATOM      6  C   UNL A   1      34.063  30.631  27.637  1.00  0.00     0.145 A 
ATOM      7  C   UNL A   1      35.009  29.602  27.538  1.00  0.00     0.048 A 
ATOM      8  C   UNL A   1      36.368  29.884  27.675  1.00  0.00     0.004 A 
ATOM      9  C   UNL A   1      35.841  32.219  27.993  1.00  0.00     0.019 A 
ATOM     10  C   UNL A   1      36.785  31.193  27.902  1.00  0.00     0.001 A 
BRANCH   6  11
ATOM     11  O   UNL A   1      32.723  30.234  27.537  1.00  0.00    -0.426 OA
BRANCH  11  12
ATOM     12  C   UNL A   1      32.391  29.574  26.361  1.00  0.00     0.308 C 
ATOM     13  C   UNL A   1      31.708  28.282  26.700  1.00  0.00     0.139 C 
ATOM     14  O   UNL A   1      32.614  29.957  25.221  1.00  0.00    -0.252 OA
ENDBRANCH  11  12
ENDBRANCH   6  11
ENDBRANCH   3   5
ENDBRANCH   2   3
ENDBRANCH   1   2
BRANCH   1  15
ATOM     15  C   UNL A   1      32.959  36.094  29.630  1.00  0.00     0.275 C 
BRANCH  15  16
ATOM     16  O   UNL A   1      32.432  35.266  30.679  1.00  0.00    -0.458 OA
BRANCH  16  17
ATOM     17  C   UNL A   1      32.551  35.771  31.924  1.00  0.00     0.338 C 
ATOM     18  O   UNL A   1      31.842  36.603  32.471  1.00  0.00    -0.246 OA
BRANCH  17  19
ATOM     19  C   UNL A   1      33.648  35.092  32.619  1.00  0.00     0.060 A 
ATOM     20  C   UNL A   1      34.887  35.730  32.657  1.00  0.00     0.016 A 
ATOM     21  C   UNL A   1      33.506  33.788  33.089  1.00  0.00     0.016 A 
ATOM     22  C   UNL A   1      36.011  35.048  33.108  1.00  0.00     0.010 A 
ATOM     23  C   UNL A   1      34.630  33.114  33.578  1.00  0.00     0.010 A 
ATOM     24  C   UNL A   1      35.900  33.725  33.552  1.00  0.00    -0.014 A 
BRANCH  24  25
ATOM     25  C   UNL A   1      37.125  32.942  33.863  1.00  0.00     0.031 A 
ATOM     26  C   UNL A   1      37.806  33.141  35.190  1.00  0.00     0.074 A 
ATOM     27  C   UNL A   1      37.602  32.027  32.998  1.00  0.00     0.049 A 
ATOM     28  N   UNL A   1      38.964  32.693  35.607  1.00  0.00    -0.248 NA
ATOM     29  C   UNL A   1      37.091  33.963  36.179  1.00  0.00     0.031 C 
ATOM     30  C   UNL A   1      36.997  31.681  31.712  1.00  0.00     0.029 A 
ATOM     31  N   UNL A   1      38.704  31.213  33.079  1.00  0.00    -0.354 N 
ATOM     32  C   UNL A   1      39.145  33.236  36.872  1.00  0.00     0.074 A 
ATOM     33  C   UNL A   1      37.974  34.034  37.165  1.00  0.00     0.031 C 
ATOM     34  C   UNL A   1      37.722  30.708  31.136  1.00  0.00     0.029 A 
ATOM     35  C   UNL A   1      38.877  30.411  31.977  1.00  0.00     0.049 A 
ATOM     36  H   UNL A   1      39.312  31.205  33.853  1.00  0.00     0.167 HD
ATOM     37  C   UNL A   1      40.198  33.085  37.710  1.00  0.00     0.037 A 
ATOM     38  C   UNL A   1      39.874  29.559  31.670  1.00  0.00     0.037 A 
ATOM     39  C   UNL A   1      41.325  32.231  37.448  1.00  0.00     0.049 A 
ATOM     40  C   UNL A   1      41.030  29.404  32.620  1.00  0.00     0.074 A 
ATOM     41  C   UNL A   1      42.442  32.005  38.234  1.00  0.00     0.029 A 
ATOM     42  N   UNL A   1      41.465  31.439  36.318  1.00  0.00    -0.354 N 
ATOM     43  N   UNL A   1      41.229  29.977  33.783  1.00  0.00    -0.248 NA
ATOM     44  C   UNL A   1      42.110  28.495  32.208  1.00  0.00     0.031 C 
ATOM     45  C   UNL A   1      43.267  31.090  37.571  1.00  0.00     0.029 A 
ATOM     46  C   UNL A   1      42.646  30.720  36.389  1.00  0.00     0.049 A 
ATOM     47  H   UNL A   1      40.819  31.393  35.576  1.00  0.00     0.167 HD
ATOM     48  C   UNL A   1      42.441  29.484  34.248  1.00  0.00     0.074 A 
ATOM     49  C   UNL A   1      42.926  28.553  33.251  1.00  0.00     0.031 C 
ATOM     50  C   UNL A   1      43.097  29.780  35.396  1.00  0.00     0.037 A 
BRANCH  37  51
ATOM     51  C   UNL A   1      40.202  33.890  38.976  1.00  0.00     0.064 A 
ATOM     52  C   UNL A   1      40.844  35.131  39.068  1.00  0.00     0.173 A 
ATOM     53  C   UNL A   1      39.512  33.419  40.105  1.00  0.00     0.173 A 
ATOM     54  F   UNL A   1      41.531  35.615  38.022  1.00  0.00    -0.203 F 
ATOM     55  C   UNL A   1      40.812  35.866  40.250  1.00  0.00     0.198 A 
ATOM     56  C   UNL A   1      39.460  34.168  41.277  1.00  0.00     0.198 A 
ATOM     57  F   UNL A   1      38.877  32.239  40.066  1.00  0.00    -0.203 F 
ATOM     58  F   UNL A   1      41.466  37.033  40.330  1.00  0.00    -0.200 F 
ATOM     59  C   UNL A   1      40.114  35.389  41.350  1.00  0.00     0.200 A 
ATOM     60  F   UNL A   1      38.776  33.710  42.335  1.00  0.00    -0.200 F 
ATOM     61  F   UNL A   1      40.077  36.101  42.485  1.00  0.00    -0.200 F 
ENDBRANCH  37  51
BRANCH  38  62
ATOM     62  C   UNL A   1      39.839  28.803  30.390  1.00  0.00     0.064 A 
ATOM     63  C   UNL A   1      39.305  27.508  30.332  1.00  0.00     0.173 A 
ATOM     64  C   UNL A   1      40.354  29.351  29.205  1.00  0.00     0.173 A 
ATOM     65  F   UNL A   1      38.829  26.931  31.444  1.00  0.00    -0.203 F 
ATOM     66  C   UNL A   1      39.302  26.784  29.142  1.00  0.00     0.198 A 
ATOM     67  C   UNL A   1      40.323  28.637  28.010  1.00  0.00     0.198 A 
ATOM     68  F   UNL A   1      40.881  30.584  29.209  1.00  0.00    -0.203 F 
ATOM     69  F   UNL A   1      38.829  25.530  29.124  1.00  0.00    -0.200 F 
ATOM     70  C   UNL A   1      39.804  27.352  27.980  1.00  0.00     0.200 A 
ATOM     71  F   UNL A   1      40.801  29.194  26.888  1.00  0.00    -0.200 F 
ATOM     72  F   UNL A   1      39.799  26.656  26.835  1.00  0.00    -0.200 F 
ENDBRANCH  38  62
BRANCH  50  73
ATOM     73  C   UNL A   1      44.381  29.053  35.658  1.00  0.00     0.064 A 
ATOM     74  C   UNL A   1      45.614  29.560  35.225  1.00  0.00     0.173 A 
ATOM     75  C   UNL A   1      44.376  27.848  36.376  1.00  0.00     0.173 A 
ATOM     76  F   UNL A   1      45.665  30.701  34.523  1.00  0.00    -0.203 F 
ATOM     77  C   UNL A   1      46.798  28.874  35.483  1.00  0.00     0.198 A 
ATOM     78  C   UNL A   1      45.564  27.177  36.652  1.00  0.00     0.198 A 
ATOM     79  F   UNL A   1      43.221  27.326  36.815  1.00  0.00    -0.203 F 
ATOM     80  F   UNL A   1      47.962  29.354  35.026  1.00  0.00    -0.200 F 
ATOM     81  C   UNL A   1      46.772  27.686  36.201  1.00  0.00     0.200 A 
ATOM     82  F   UNL A   1      45.539  26.034  37.352  1.00  0.00    -0.200 F 
ATOM     83  F   UNL A   1      47.912  27.028  36.449  1.00  0.00    -0.200 F 
ENDBRANCH  50  73
ENDBRANCH  24  25
ENDBRANCH  17  19
ENDBRANCH  16  17
ENDBRANCH  15  16
ENDBRANCH   1  15
TORSDOF 13
ENDMDL
MODEL 2
REMARK VINA RESULT:     -10.3      6.019     10.067
REMARK SMILES CC(=O)Oc1ccccc1C(=O)OCCOC(=O)c1ccc(-c2c3nc(c(-c4c(F)c(F)c(F)c(F)c4F)c4ccc([nH]4)c(-c4c(F)c(F)c(F)c(F)c4F)c4nc(c(-c5c(F)c(F)c(F)c(F)c5F)c5ccc2[nH]5)C=C4)C=C3)cc1
REMARK SMILES IDX 14 1 13 2 11 3 12 4 10 5 5 6 6 7 7 8 9 9 8 10 4 11 2 12 1 13
REMARK SMILES IDX 3 14 15 15 16 16 17 17 18 18 19 19 20 20 81 21 21 22 80 23
REMARK SMILES IDX 22 24 23 25 24 26 74 27 25 28 79 29 73 30 75 31 26 32 78 33
REMARK SMILES IDX 72 34 71 35 27 37 59 38 39 39 58 40 40 41 43 42 57 43 76 44
REMARK SMILES IDX 41 45 42 46 56 48 77 49 44 50 28 51 29 52 37 53 30 54 31 55
REMARK SMILES IDX 35 56 38 57 32 58 33 59 36 60 34 61 60 62 61 63 69 64 62 65
REMARK SMILES IDX 63 66 67 67 70 68 64 69 65 70 68 71 66 72 45 73 46 74 54 75
REMARK SMILES IDX 47 76 48 77 52 78 55 79 49 80 50 81 53 82 51 83
REMARK H PARENT 75 36 43 47
REMARK Flexibility Score: inf
ROOT
ATOM      1  C   UNL A   1      35.327  20.573  25.325  1.00  0.00     0.275 C 
ENDROOT
BRANCH   1   2
ATOM      2  O   UNL A   1      34.672  21.851  25.202  1.00  0.00    -0.458 OA
BRANCH   2   3
ATOM      3  C   UNL A   1      34.334  22.473  26.360  1.00  0.00     0.342 C 
ATOM      4  O   UNL A   1      34.535  22.041  27.483  1.00  0.00    -0.246 OA
BRANCH   3   5
ATOM      5  C   UNL A   1      33.762  23.826  26.114  1.00  0.00     0.102 A 
ATOM      6  C   UNL A   1      32.569  24.307  26.669  1.00  0.00     0.145 A 
ATOM      7  C   UNL A   1      32.087  25.580  26.336  1.00  0.00     0.048 A 
ATOM      8  C   UNL A   1      32.805  26.393  25.459  1.00  0.00     0.004 A 
ATOM      9  C   UNL A   1      34.490  24.674  25.260  1.00  0.00     0.019 A 
ATOM     10  C   UNL A   1      34.008  25.940  24.921  1.00  0.00     0.001 A 
BRANCH   6  11
ATOM     11  O   UNL A   1      31.748  23.550  27.515  1.00  0.00    -0.426 OA
BRANCH  11  12
ATOM     12  C   UNL A   1      30.503  23.224  26.988  1.00  0.00     0.308 C 
ATOM     13  C   UNL A   1      30.692  22.299  25.822  1.00  0.00     0.139 C 
ATOM     14  O   UNL A   1      29.417  23.618  27.388  1.00  0.00    -0.252 OA
ENDBRANCH  11  12
ENDBRANCH   6  11
ENDBRANCH   3   5
ENDBRANCH   2   3
ENDBRANCH   1   2
BRANCH   1  15
ATOM     15  C   UNL A   1      36.763  20.633  24.809  1.00  0.00     0.275 C 
BRANCH  15  16
ATOM     16  O   UNL A   1      37.471  21.721  25.427  1.00  0.00    -0.458 OA
BRANCH  16  17
ATOM     17  C   UNL A   1      38.690  21.411  25.913  1.00  0.00     0.338 C 
ATOM     18  O   UNL A   1      39.311  20.367  25.780  1.00  0.00    -0.246 OA
BRANCH  17  19
ATOM     19  C   UNL A   1      39.257  22.583  26.586  1.00  0.00     0.060 A 
ATOM     20  C   UNL A   1      38.731  23.834  26.265  1.00  0.00     0.016 A 
ATOM     21  C   UNL A   1      40.385  22.473  27.397  1.00  0.00     0.016 A 
ATOM     22  C   UNL A   1      39.365  24.992  26.701  1.00  0.00     0.010 A 
ATOM     23  C   UNL A   1      41.001  23.639  27.867  1.00  0.00     0.010 A 
ATOM     24  C   UNL A   1      40.520  24.907  27.488  1.00  0.00    -0.014 A 
BRANCH  24  25
ATOM     25  C   UNL A   1      41.294  26.137  27.802  1.00  0.00     0.031 A 
ATOM     26  C   UNL A   1      40.657  27.210  28.644  1.00  0.00     0.074 A 
ATOM     27  C   UNL A   1      42.567  26.281  27.387  1.00  0.00     0.049 A 
ATOM     28  N   UNL A   1      41.078  28.423  28.904  1.00  0.00    -0.248 NA
ATOM     29  C   UNL A   1      39.368  26.876  29.269  1.00  0.00     0.031 C 
ATOM     30  C   UNL A   1      43.328  25.288  26.629  1.00  0.00     0.029 A 
ATOM     31  N   UNL A   1      43.447  27.320  27.554  1.00  0.00    -0.354 N 
ATOM     32  C   UNL A   1      40.076  29.015  29.661  1.00  0.00     0.074 A 
ATOM     33  C   UNL A   1      39.032  28.028  29.833  1.00  0.00     0.031 C 
ATOM     34  C   UNL A   1      44.569  25.756  26.419  1.00  0.00     0.029 A 
ATOM     35  C   UNL A   1      44.669  27.106  26.966  1.00  0.00     0.049 A 
ATOM     36  H   UNL A   1      43.224  28.141  28.049  1.00  0.00     0.167 HD
ATOM     37  C   UNL A   1      40.031  30.273  30.161  1.00  0.00     0.037 A 
ATOM     38  C   UNL A   1      45.735  27.921  26.852  1.00  0.00     0.037 A 
ATOM     39  C   UNL A   1      41.103  31.226  30.053  1.00  0.00     0.049 A 
ATOM     40  C   UNL A   1      45.663  29.312  27.422  1.00  0.00     0.074 A 
ATOM     41  C   UNL A   1      41.158  32.524  30.529  1.00  0.00     0.029 A 
ATOM     42  N   UNL A   1      42.322  30.971  29.446  1.00  0.00    -0.354 N 
ATOM     43  N   UNL A   1      44.683  29.890  28.074  1.00  0.00    -0.248 NA
ATOM     44  C   UNL A   1      46.840  30.170  27.226  1.00  0.00     0.031 C 
ATOM     45  C   UNL A   1      42.404  33.062  30.193  1.00  0.00     0.029 A 
ATOM     46  C   UNL A   1      43.139  32.086  29.538  1.00  0.00     0.049 A 
ATOM     47  H   UNL A   1      42.572  30.122  29.013  1.00  0.00     0.167 HD
ATOM     48  C   UNL A   1      45.132  31.167  28.383  1.00  0.00     0.074 A 
ATOM     49  C   UNL A   1      46.478  31.276  27.862  1.00  0.00     0.031 C 
ATOM     50  C   UNL A   1      44.484  32.163  29.034  1.00  0.00     0.037 A 
BRANCH  37  51
ATOM     51  C   UNL A   1      38.765  30.707  30.840  1.00  0.00     0.064 A 
ATOM     52  C   UNL A   1      38.620  30.683  32.232  1.00  0.00     0.173 A 
ATOM     53  C   UNL A   1      37.693  31.192  30.073  1.00  0.00     0.173 A 
ATOM     54  F   UNL A   1      39.609  30.212  33.006  1.00  0.00    -0.203 F 
ATOM     55  C   UNL A   1      37.440  31.113  32.835  1.00  0.00     0.198 A 
ATOM     56  C   UNL A   1      36.525  31.645  30.681  1.00  0.00     0.198 A 
ATOM     57  F   UNL A   1      37.784  31.239  28.736  1.00  0.00    -0.203 F 
ATOM     58  F   UNL A   1      37.308  31.046  34.167  1.00  0.00    -0.200 F 
ATOM     59  C   UNL A   1      36.398  31.601  32.061  1.00  0.00     0.200 A 
ATOM     60  F   UNL A   1      35.524  32.125  29.931  1.00  0.00    -0.200 F 
ATOM     61  F   UNL A   1      35.267  32.022  32.643  1.00  0.00    -0.200 F 
ENDBRANCH  37  51
BRANCH  38  62
ATOM     62  C   UNL A   1      46.958  27.455  26.147  1.00  0.00     0.064 A 
ATOM     63  C   UNL A   1      48.020  26.872  26.853  1.00  0.00     0.173 A 
ATOM     64  C   UNL A   1      47.098  27.598  24.758  1.00  0.00     0.173 A 
ATOM     65  F   UNL A   1      47.945  26.741  28.185  1.00  0.00    -0.203 F 
ATOM     66  C   UNL A   1      49.181  26.465  26.199  1.00  0.00     0.198 A 
ATOM     67  C   UNL A   1      48.247  27.163  24.102  1.00  0.00     0.198 A 
ATOM     68  F   UNL A   1      46.113  28.154  24.038  1.00  0.00    -0.203 F 
ATOM     69  F   UNL A   1      50.200  25.954  26.904  1.00  0.00    -0.200 F 
ATOM     70  C   UNL A   1      49.291  26.603  24.824  1.00  0.00     0.200 A 
ATOM     71  F   UNL A   1      48.345  27.292  22.771  1.00  0.00    -0.200 F 
ATOM     72  F   UNL A   1      50.406  26.210  24.195  1.00  0.00    -0.200 F 
ENDBRANCH  38  62
BRANCH  50  73
ATOM     73  C   UNL A   1      45.242  33.435  29.265  1.00  0.00     0.064 A 
ATOM     74  C   UNL A   1      46.037  33.621  30.405  1.00  0.00     0.173 A 
ATOM     75  C   UNL A   1      45.193  34.468  28.317  1.00  0.00     0.173 A 
ATOM     76  F   UNL A   1      46.102  32.666  31.344  1.00  0.00    -0.203 F 
ATOM     77  C   UNL A   1      46.739  34.807  30.599  1.00  0.00     0.198 A 
ATOM     78  C   UNL A   1      45.915  35.643  28.504  1.00  0.00     0.198 A 
ATOM     79  F   UNL A   1      44.451  34.335  27.208  1.00  0.00    -0.203 F 
ATOM     80  F   UNL A   1      47.461  34.982  31.714  1.00  0.00    -0.200 F 
ATOM     81  C   UNL A   1      46.682  35.815  29.647  1.00  0.00     0.200 A 
ATOM     82  F   UNL A   1      45.866  36.613  27.580  1.00  0.00    -0.200 F 
ATOM     83  F   UNL A   1      47.359  36.955  29.835  1.00  0.00    -0.200 F 
ENDBRANCH  50  73
ENDBRANCH  24  25
ENDBRANCH  17  19
ENDBRANCH  16  17
ENDBRANCH  15  16
ENDBRANCH   1  15
TORSDOF 13
ENDMDL
MODEL 3
REMARK VINA RESULT:     -10.3      2.764      8.831
REMARK SMILES CC(=O)Oc1ccccc1C(=O)OCCOC(=O)c1ccc(-c2c3nc(c(-c4c(F)c(F)c(F)c(F)c4F)c4ccc([nH]4)c(-c4c(F)c(F)c(F)c(F)c4F)c4nc(c(-c5c(F)c(F)c(F)c(F)c5F)c5ccc2[nH]5)C=C4)C=C3)cc1
REMARK SMILES IDX 14 1 13 2 11 3 12 4 10 5 5 6 6 7 7 8 9 9 8 10 4 11 2 12 1 13
REMARK SMILES IDX 3 14 15 15 16 16 17 17 18 18 19 19 20 20 81 21 21 22 80 23
REMARK SMILES IDX 22 24 23 25 24 26 74 27 25 28 79 29 73 30 75 31 26 32 78 33
REMARK SMILES IDX 72 34 71 35 27 37 59 38 39 39 58 40 40 41 43 42 57 43 76 44
REMARK SMILES IDX 41 45 42 46 56 48 77 49 44 50 28 51 29 52 37 53 30 54 31 55
REMARK SMILES IDX 35 56 38 57 32 58 33 59 36 60 34 61 60 62 61 63 69 64 62 65
REMARK SMILES IDX 63 66 67 67 70 68 64 69 65 70 68 71 66 72 45 73 46 74 54 75
REMARK SMILES IDX 47 76 48 77 52 78 55 79 49 80 50 81 53 82 51 83
REMARK H PARENT 75 36 43 47
REMARK Flexibility Score: inf
ROOT
ATOM      1  C   UNL A   1      32.766  29.280  25.019  1.00  0.00     0.275 C 
ENDROOT
BRANCH   1   2
ATOM      2  O   UNL A   1      33.016  28.100  25.806  1.00  0.00    -0.458 OA
BRANCH   2   3
ATOM      3  C   UNL A   1      32.245  27.016  25.536  1.00  0.00     0.342 C 
ATOM      4  O   UNL A   1      31.025  26.997  25.528  1.00  0.00    -0.246 OA
BRANCH   3   5
ATOM      5  C   UNL A   1      33.065  25.838  25.142  1.00  0.00     0.102 A 
ATOM      6  C   UNL A   1      33.657  25.656  23.885  1.00  0.00     0.145 A 
ATOM      7  C   UNL A   1      34.371  24.486  23.593  1.00  0.00     0.048 A 
ATOM      8  C   UNL A   1      34.517  23.495  24.563  1.00  0.00     0.004 A 
ATOM      9  C   UNL A   1      33.254  24.843  26.118  1.00  0.00     0.019 A 
ATOM     10  C   UNL A   1      33.959  23.673  25.826  1.00  0.00     0.001 A 
BRANCH   6  11
ATOM     11  O   UNL A   1      33.524  26.565  22.827  1.00  0.00    -0.426 OA
BRANCH  11  12
ATOM     12  C   UNL A   1      32.811  26.091  21.731  1.00  0.00     0.308 C 
ATOM     13  C   UNL A   1      31.350  26.071  22.070  1.00  0.00     0.139 C 
ATOM     14  O   UNL A   1      33.276  25.736  20.657  1.00  0.00    -0.252 OA
ENDBRANCH  11  12
ENDBRANCH   6  11
ENDBRANCH   3   5
ENDBRANCH   2   3
ENDBRANCH   1   2
BRANCH   1  15
ATOM     15  C   UNL A   1      31.954  30.309  25.803  1.00  0.00     0.275 C 
BRANCH  15  16
ATOM     16  O   UNL A   1      32.486  30.459  27.130  1.00  0.00    -0.458 OA
BRANCH  16  17
ATOM     17  C   UNL A   1      33.191  31.589  27.341  1.00  0.00     0.338 C 
ATOM     18  O   UNL A   1      32.805  32.745  27.253  1.00  0.00    -0.246 OA
BRANCH  17  19
ATOM     19  C   UNL A   1      34.536  31.241  27.808  1.00  0.00     0.060 A 
ATOM     20  C   UNL A   1      34.788  29.908  28.127  1.00  0.00     0.016 A 
ATOM     21  C   UNL A   1      35.483  32.228  28.077  1.00  0.00     0.016 A 
ATOM     22  C   UNL A   1      35.967  29.555  28.775  1.00  0.00     0.010 A 
ATOM     23  C   UNL A   1      36.685  31.866  28.695  1.00  0.00     0.010 A 
ATOM     24  C   UNL A   1      36.918  30.533  29.087  1.00  0.00    -0.014 A 
BRANCH  24  25
ATOM     25  C   UNL A   1      38.088  30.185  29.934  1.00  0.00     0.031 A 
ATOM     26  C   UNL A   1      39.179  29.321  29.360  1.00  0.00     0.074 A 
ATOM     27  C   UNL A   1      38.209  30.670  31.185  1.00  0.00     0.049 A 
ATOM     28  N   UNL A   1      40.200  28.762  29.960  1.00  0.00    -0.248 NA
ATOM     29  C   UNL A   1      39.104  29.040  27.918  1.00  0.00     0.031 C 
ATOM     30  C   UNL A   1      37.265  31.576  31.836  1.00  0.00     0.029 A 
ATOM     31  N   UNL A   1      39.186  30.472  32.127  1.00  0.00    -0.354 N 
ATOM     32  C   UNL A   1      40.844  28.011  28.985  1.00  0.00     0.074 A 
ATOM     33  C   UNL A   1      40.111  28.194  27.752  1.00  0.00     0.031 C 
ATOM     34  C   UNL A   1      37.722  31.876  33.063  1.00  0.00     0.029 A 
ATOM     35  C   UNL A   1      38.953  31.131  33.309  1.00  0.00     0.049 A 
ATOM     36  H   UNL A   1      39.980  29.911  31.971  1.00  0.00     0.167 HD
ATOM     37  C   UNL A   1      41.946  27.234  29.113  1.00  0.00     0.037 A 
ATOM     38  C   UNL A   1      39.637  31.108  34.469  1.00  0.00     0.037 A 
ATOM     39  C   UNL A   1      42.716  27.114  30.322  1.00  0.00     0.049 A 
ATOM     40  C   UNL A   1      40.861  30.240  34.584  1.00  0.00     0.074 A 
ATOM     41  C   UNL A   1      43.851  26.355  30.555  1.00  0.00     0.029 A 
ATOM     42  N   UNL A   1      42.443  27.794  31.499  1.00  0.00    -0.354 N 
ATOM     43  N   UNL A   1      41.423  29.476  33.679  1.00  0.00    -0.248 NA
ATOM     44  C   UNL A   1      41.539  30.221  35.889  1.00  0.00     0.031 C 
ATOM     45  C   UNL A   1      44.254  26.563  31.878  1.00  0.00     0.029 A 
ATOM     46  C   UNL A   1      43.390  27.477  32.459  1.00  0.00     0.049 A 
ATOM     47  H   UNL A   1      41.688  28.412  31.633  1.00  0.00     0.167 HD
ATOM     48  C   UNL A   1      42.527  28.903  34.296  1.00  0.00     0.074 A 
ATOM     49  C   UNL A   1      42.567  29.419  35.648  1.00  0.00     0.031 C 
ATOM     50  C   UNL A   1      43.424  28.023  33.790  1.00  0.00     0.037 A 
BRANCH  37  51
ATOM     51  C   UNL A   1      42.365  26.419  27.925  1.00  0.00     0.064 A 
ATOM     52  C   UNL A   1      41.819  25.159  27.656  1.00  0.00     0.173 A 
ATOM     53  C   UNL A   1      43.308  26.936  27.021  1.00  0.00     0.173 A 
ATOM     54  F   UNL A   1      40.928  24.614  28.498  1.00  0.00    -0.203 F 
ATOM     55  C   UNL A   1      42.212  24.435  26.532  1.00  0.00     0.198 A 
ATOM     56  C   UNL A   1      43.679  26.221  25.886  1.00  0.00     0.198 A 
ATOM     57  F   UNL A   1      43.858  28.141  27.233  1.00  0.00    -0.203 F 
ATOM     58  F   UNL A   1      41.705  23.214  26.313  1.00  0.00    -0.200 F 
ATOM     59  C   UNL A   1      43.134  24.969  25.645  1.00  0.00     0.200 A 
ATOM     60  F   UNL A   1      44.563  26.744  25.025  1.00  0.00    -0.200 F 
ATOM     61  F   UNL A   1      43.505  24.275  24.560  1.00  0.00    -0.200 F 
ENDBRANCH  37  51
BRANCH  38  62
ATOM     62  C   UNL A   1      39.167  31.911  35.628  1.00  0.00     0.064 A 
ATOM     63  C   UNL A   1      38.319  31.355  36.595  1.00  0.00     0.173 A 
ATOM     64  C   UNL A   1      39.542  33.255  35.783  1.00  0.00     0.173 A 
ATOM     65  F   UNL A   1      37.909  30.083  36.473  1.00  0.00    -0.203 F 
ATOM     66  C   UNL A   1      37.850  32.115  37.664  1.00  0.00     0.198 A 
ATOM     67  C   UNL A   1      39.096  34.005  36.869  1.00  0.00     0.198 A 
ATOM     68  F   UNL A   1      40.347  33.836  34.883  1.00  0.00    -0.203 F 
ATOM     69  F   UNL A   1      37.002  31.572  38.548  1.00  0.00    -0.200 F 
ATOM     70  C   UNL A   1      38.244  33.437  37.805  1.00  0.00     0.200 A 
ATOM     71  F   UNL A   1      39.487  35.279  37.005  1.00  0.00    -0.200 F 
ATOM     72  F   UNL A   1      37.795  34.167  38.834  1.00  0.00    -0.200 F 
ENDBRANCH  38  62
BRANCH  50  73
ATOM     73  C   UNL A   1      44.551  27.604  34.685  1.00  0.00     0.064 A 
ATOM     74  C   UNL A   1      45.750  28.329  34.744  1.00  0.00     0.173 A 
ATOM     75  C   UNL A   1      44.416  26.481  35.514  1.00  0.00     0.173 A 
ATOM     76  F   UNL A   1      45.930  29.401  33.959  1.00  0.00    -0.203 F 
ATOM     77  C   UNL A   1      46.784  27.929  35.586  1.00  0.00     0.198 A 
ATOM     78  C   UNL A   1      45.443  26.098  36.371  1.00  0.00     0.198 A 
ATOM     79  F   UNL A   1      43.285  25.760  35.496  1.00  0.00    -0.203 F 
ATOM     80  F   UNL A   1      47.938  28.610  35.598  1.00  0.00    -0.200 F 
ATOM     81  C   UNL A   1      46.628  26.818  36.402  1.00  0.00     0.200 A 
ATOM     82  F   UNL A   1      45.288  25.029  37.166  1.00  0.00    -0.200 F 
ATOM     83  F   UNL A   1      47.624  26.435  37.212  1.00  0.00    -0.200 F 
ENDBRANCH  50  73
ENDBRANCH  24  25
ENDBRANCH  17  19
ENDBRANCH  16  17
ENDBRANCH  15  16
ENDBRANCH   1  15
TORSDOF 13
ENDMDL
