MODEL 1
REMARK VINA RESULT:     -12.9      0.000      0.000
REMARK SMILES Cn1ccc(CNC(=O)[C@@H]2[C@@H]3CC[C@@H](C3)[C@@H]2C(=O)OCCOC(=O)c2ccc(-c3c4nc(c(-c5c(F)c(F)c(F)c(F)c5F)c5ccc([nH]5)c(-c5c(F)c(F)c(F)c(F)c5F)c5nc(c(-c6c(F)c(F)c(F)c(F)c6F)c6ccc3[nH]6)C=C5)C=C4)cc2)n1
REMARK SMILES IDX 20 1 19 2 17 3 18 4 16 5 10 6 11 7 12 8 15 9 14 10 13 11
REMARK SMILES IDX 8 12 7 13 9 15 6 16 5 17 1 18 2 19 3 20 88 21 4 22 21 23
REMARK SMILES IDX 22 24 23 25 24 26 25 27 26 28 87 29 27 30 86 31 28 32 29 33
REMARK SMILES IDX 30 34 80 35 31 36 85 37 79 38 81 39 32 40 84 41 78 42 77 43
REMARK SMILES IDX 33 45 65 46 45 47 64 48 46 49 49 50 63 51 82 52 47 53 48 54
REMARK SMILES IDX 62 56 83 57 50 58 34 59 35 60 43 61 36 62 37 63 41 64 44 65
REMARK SMILES IDX 38 66 39 67 42 68 40 69 66 70 67 71 75 72 68 73 69 74 73 75
REMARK SMILES IDX 76 76 70 77 71 78 74 79 72 80 51 81 52 82 60 83 53 84 54 85
REMARK SMILES IDX 58 86 61 87 55 88 56 89 59 90 57 91
REMARK H PARENT 7 14 81 44 49 55
REMARK Flexibility Score: inf
ROOT
ATOM      1  C   UNL A   1      31.683  27.149  26.532  1.00  0.00     0.274 C 
ENDROOT
BRANCH   1   2
ATOM      2  O   UNL A   1      30.651  26.555  25.741  1.00  0.00    -0.462 OA
BRANCH   2   3
ATOM      3  C   UNL A   1      31.043  25.626  24.816  1.00  0.00     0.310 C 
ATOM      4  O   UNL A   1      30.295  25.020  24.085  1.00  0.00    -0.252 OA
BRANCH   3   5
ATOM      5  C   UNL A   1      32.560  25.583  24.829  1.00  0.00     0.115 C 
ATOM      6  C   UNL A   1      33.427  26.023  23.624  1.00  0.00     0.096 C 
ATOM      7  C   UNL A   1      34.497  24.884  23.583  1.00  0.00     0.002 C 
ATOM      8  C   UNL A   1      33.892  23.620  22.950  1.00  0.00     0.005 C 
ATOM      9  C   UNL A   1      34.587  24.426  25.042  1.00  0.00     0.009 C 
ATOM     10  C   UNL A   1      33.084  24.176  25.149  1.00  0.00     0.004 C 
ATOM     11  C   UNL A   1      32.816  23.227  23.964  1.00  0.00     0.005 C 
BRANCH   6  12
ATOM     12  C   UNL A   1      32.847  26.245  22.220  1.00  0.00     0.224 C 
ATOM     13  N   UNL A   1      31.832  27.116  21.994  1.00  0.00    -0.350 N 
ATOM     14  H   UNL A   1      31.207  26.908  21.262  1.00  0.00     0.163 HD
ATOM     15  O   UNL A   1      33.349  25.719  21.221  1.00  0.00    -0.275 OA
BRANCH  13  16
ATOM     16  C   UNL A   1      31.602  28.317  22.742  1.00  0.00     0.174 C 
BRANCH  16  17
ATOM     17  C   UNL A   1      30.224  28.734  22.459  1.00  0.00     0.082 A 
ATOM     18  C   UNL A   1      28.199  31.181  21.064  1.00  0.00     0.173 C 
ATOM     19  N   UNL A   1      28.708  30.017  21.749  1.00  0.00    -0.275 N 
ATOM     20  C   UNL A   1      28.163  29.198  22.681  1.00  0.00     0.108 A 
ATOM     21  N   UNL A   1      29.995  29.747  21.611  1.00  0.00    -0.176 NA
ATOM     22  C   UNL A   1      29.078  28.282  23.093  1.00  0.00     0.047 A 
ENDBRANCH  16  17
ENDBRANCH  13  16
ENDBRANCH   6  12
ENDBRANCH   3   5
ENDBRANCH   2   3
ENDBRANCH   1   2
BRANCH   1  23
ATOM     23  C   UNL A   1      31.408  28.655  26.645  1.00  0.00     0.275 C 
BRANCH  23  24
ATOM     24  O   UNL A   1      32.452  29.483  26.058  1.00  0.00    -0.458 OA
BRANCH  24  25
ATOM     25  C   UNL A   1      32.780  30.616  26.742  1.00  0.00     0.338 C 
ATOM     26  O   UNL A   1      32.049  31.578  26.923  1.00  0.00    -0.246 OA
BRANCH  25  27
ATOM     27  C   UNL A   1      34.166  30.545  27.307  1.00  0.00     0.060 A 
ATOM     28  C   UNL A   1      34.736  29.291  27.541  1.00  0.00     0.016 A 
ATOM     29  C   UNL A   1      34.898  31.682  27.678  1.00  0.00     0.016 A 
ATOM     30  C   UNL A   1      36.044  29.188  28.065  1.00  0.00     0.010 A 
ATOM     31  C   UNL A   1      36.218  31.574  28.205  1.00  0.00     0.010 A 
ATOM     32  C   UNL A   1      36.844  30.326  28.357  1.00  0.00    -0.014 A 
BRANCH  32  33
ATOM     33  C   UNL A   1      38.227  30.096  28.966  1.00  0.00     0.031 A 
ATOM     34  C   UNL A   1      38.342  30.500  30.396  1.00  0.00     0.074 A 
ATOM     35  C   UNL A   1      39.330  29.501  28.419  1.00  0.00     0.049 A 
ATOM     36  N   UNL A   1      39.266  30.204  31.264  1.00  0.00    -0.248 NA
ATOM     37  C   UNL A   1      37.325  31.450  30.870  1.00  0.00     0.031 C 
ATOM     38  C   UNL A   1      39.675  29.347  27.018  1.00  0.00     0.029 A 
ATOM     39  N   UNL A   1      40.308  28.706  29.007  1.00  0.00    -0.354 N 
ATOM     40  C   UNL A   1      38.972  30.968  32.375  1.00  0.00     0.074 A 
ATOM     41  C   UNL A   1      37.776  31.727  32.079  1.00  0.00     0.031 C 
ATOM     42  C   UNL A   1      40.420  28.250  26.823  1.00  0.00     0.029 A 
ATOM     43  C   UNL A   1      40.912  27.815  28.114  1.00  0.00     0.049 A 
ATOM     44  H   UNL A   1      40.553  28.765  29.959  1.00  0.00     0.167 HD
ATOM     45  C   UNL A   1      39.684  31.072  33.518  1.00  0.00     0.037 A 
ATOM     46  C   UNL A   1      41.814  26.821  28.296  1.00  0.00     0.037 A 
ATOM     47  C   UNL A   1      40.944  30.415  33.727  1.00  0.00     0.049 A 
ATOM     48  C   UNL A   1      42.527  26.868  29.621  1.00  0.00     0.074 A 
ATOM     49  C   UNL A   1      41.834  30.563  34.771  1.00  0.00     0.029 A 
ATOM     50  N   UNL A   1      41.505  29.497  32.845  1.00  0.00    -0.354 N 
ATOM     51  N   UNL A   1      42.247  27.595  30.674  1.00  0.00    -0.248 NA
ATOM     52  C   UNL A   1      43.761  26.078  29.742  1.00  0.00     0.031 C 
ATOM     53  C   UNL A   1      42.948  29.755  34.508  1.00  0.00     0.029 A 
ATOM     54  C   UNL A   1      42.722  29.053  33.333  1.00  0.00     0.049 A 
ATOM     55  H   UNL A   1      41.096  29.205  31.999  1.00  0.00     0.167 HD
ATOM     56  C   UNL A   1      43.295  27.405  31.555  1.00  0.00     0.074 A 
ATOM     57  C   UNL A   1      44.166  26.410  30.958  1.00  0.00     0.031 C 
ATOM     58  C   UNL A   1      43.551  28.047  32.719  1.00  0.00     0.037 A 
BRANCH  45  59
ATOM     59  C   UNL A   1      39.125  32.021  34.529  1.00  0.00     0.064 A 
ATOM     60  C   UNL A   1      39.428  33.392  34.479  1.00  0.00     0.173 A 
ATOM     61  C   UNL A   1      38.426  31.540  35.645  1.00  0.00     0.173 A 
ATOM     62  F   UNL A   1      40.150  33.885  33.461  1.00  0.00    -0.203 F 
ATOM     63  C   UNL A   1      39.097  34.235  35.535  1.00  0.00     0.198 A 
ATOM     64  C   UNL A   1      38.068  32.393  36.683  1.00  0.00     0.198 A 
ATOM     65  F   UNL A   1      38.144  30.233  35.755  1.00  0.00    -0.203 F 
ATOM     66  F   UNL A   1      39.493  35.515  35.516  1.00  0.00    -0.200 F 
ATOM     67  C   UNL A   1      38.419  33.735  36.635  1.00  0.00     0.200 A 
ATOM     68  F   UNL A   1      37.425  31.908  37.754  1.00  0.00    -0.200 F 
ATOM     69  F   UNL A   1      38.132  34.540  37.668  1.00  0.00    -0.200 F 
ENDBRANCH  45  59
BRANCH  46  70
ATOM     70  C   UNL A   1      42.240  25.819  27.248  1.00  0.00     0.064 A 
ATOM     71  C   UNL A   1      41.565  24.584  27.131  1.00  0.00     0.173 A 
ATOM     72  C   UNL A   1      43.351  25.989  26.404  1.00  0.00     0.173 A 
ATOM     73  F   UNL A   1      40.531  24.309  27.939  1.00  0.00    -0.203 F 
ATOM     74  C   UNL A   1      41.984  23.586  26.242  1.00  0.00     0.198 A 
ATOM     75  C   UNL A   1      43.726  25.019  25.465  1.00  0.00     0.198 A 
ATOM     76  F   UNL A   1      44.121  27.080  26.507  1.00  0.00    -0.203 F 
ATOM     77  F   UNL A   1      41.374  22.392  26.237  1.00  0.00    -0.200 F 
ATOM     78  C   UNL A   1      43.054  23.812  25.395  1.00  0.00     0.200 A 
ATOM     79  F   UNL A   1      44.764  25.252  24.649  1.00  0.00    -0.200 F 
ATOM     80  F   UNL A   1      43.456  22.863  24.539  1.00  0.00    -0.200 F 
ENDBRANCH  46  70
BRANCH  58  81
ATOM     81  C   UNL A   1      44.799  27.635  33.434  1.00  0.00     0.064 A 
ATOM     82  C   UNL A   1      46.030  28.265  33.203  1.00  0.00     0.173 A 
ATOM     83  C   UNL A   1      44.753  26.578  34.352  1.00  0.00     0.173 A 
ATOM     84  F   UNL A   1      46.123  29.265  32.314  1.00  0.00    -0.203 F 
ATOM     85  C   UNL A   1      47.185  27.821  33.839  1.00  0.00     0.198 A 
ATOM     86  C   UNL A   1      45.902  26.160  35.011  1.00  0.00     0.198 A 
ATOM     87  F   UNL A   1      43.596  25.948  34.601  1.00  0.00    -0.203 F 
ATOM     88  F   UNL A   1      48.365  28.387  33.553  1.00  0.00    -0.200 F 
ATOM     89  C   UNL A   1      47.118  26.772  34.746  1.00  0.00     0.200 A 
ATOM     90  F   UNL A   1      45.834  25.154  35.894  1.00  0.00    -0.200 F 
ATOM     91  F   UNL A   1      48.231  26.341  35.353  1.00  0.00    -0.200 F 
ENDBRANCH  58  81
ENDBRANCH  32  33
ENDBRANCH  25  27
ENDBRANCH  24  25
ENDBRANCH  23  24
ENDBRANCH   1  23
TORSDOF 14
ENDMDL
MODEL 2
REMARK VINA RESULT:     -12.6      0.868      1.554
REMARK SMILES Cn1ccc(CNC(=O)[C@@H]2[C@@H]3CC[C@@H](C3)[C@@H]2C(=O)OCCOC(=O)c2ccc(-c3c4nc(c(-c5c(F)c(F)c(F)c(F)c5F)c5ccc([nH]5)c(-c5c(F)c(F)c(F)c(F)c5F)c5nc(c(-c6c(F)c(F)c(F)c(F)c6F)c6ccc3[nH]6)C=C5)C=C4)cc2)n1
REMARK SMILES IDX 20 1 19 2 17 3 18 4 16 5 10 6 11 7 12 8 15 9 14 10 13 11
REMARK SMILES IDX 8 12 7 13 9 15 6 16 5 17 1 18 2 19 3 20 88 21 4 22 21 23
REMARK SMILES IDX 22 24 23 25 24 26 25 27 26 28 87 29 27 30 86 31 28 32 29 33
REMARK SMILES IDX 30 34 80 35 31 36 85 37 79 38 81 39 32 40 84 41 78 42 77 43
REMARK SMILES IDX 33 45 65 46 45 47 64 48 46 49 49 50 63 51 82 52 47 53 48 54
REMARK SMILES IDX 62 56 83 57 50 58 34 59 35 60 43 61 36 62 37 63 41 64 44 65
REMARK SMILES IDX 38 66 39 67 42 68 40 69 66 70 67 71 75 72 68 73 69 74 73 75
REMARK SMILES IDX 76 76 70 77 71 78 74 79 72 80 51 81 52 82 60 83 53 84 54 85
REMARK SMILES IDX 58 86 61 87 55 88 56 89 59 90 57 91
REMARK H PARENT 7 14 81 44 49 55
REMARK Flexibility Score: inf
ROOT
ATOM      1  C   UNL A   1      33.438  27.837  24.893  1.00  0.00     0.274 C 
ENDROOT
BRANCH   1   2
ATOM      2  O   UNL A   1      33.126  26.882  25.910  1.00  0.00    -0.462 OA
BRANCH   2   3
ATOM      3  C   UNL A   1      32.882  25.600  25.496  1.00  0.00     0.310 C 
ATOM      4  O   UNL A   1      31.831  25.019  25.633  1.00  0.00    -0.252 OA
BRANCH   3   5
ATOM      5  C   UNL A   1      34.122  25.111  24.771  1.00  0.00     0.115 C 
ATOM      6  C   UNL A   1      34.078  24.462  23.366  1.00  0.00     0.096 C 
ATOM      7  C   UNL A   1      35.060  23.260  23.552  1.00  0.00     0.002 C 
ATOM      8  C   UNL A   1      34.362  22.128  24.324  1.00  0.00     0.005 C 
ATOM      9  C   UNL A   1      36.027  23.754  24.633  1.00  0.00     0.009 C 
ATOM     10  C   UNL A   1      34.903  24.091  25.610  1.00  0.00     0.004 C 
ATOM     11  C   UNL A   1      34.122  22.764  25.695  1.00  0.00     0.005 C 
BRANCH   6  12
ATOM     12  C   UNL A   1      32.775  23.976  22.717  1.00  0.00     0.224 C 
ATOM     13  N   UNL A   1      31.776  24.832  22.386  1.00  0.00    -0.350 N 
ATOM     14  H   UNL A   1      30.853  24.492  22.423  1.00  0.00     0.163 HD
ATOM     15  O   UNL A   1      32.623  22.799  22.371  1.00  0.00    -0.275 OA
BRANCH  13  16
ATOM     16  C   UNL A   1      31.966  26.195  21.984  1.00  0.00     0.174 C 
BRANCH  16  17
ATOM     17  C   UNL A   1      30.785  26.938  22.439  1.00  0.00     0.082 A 
ATOM     18  C   UNL A   1      29.243  30.040  22.613  1.00  0.00     0.173 C 
ATOM     19  N   UNL A   1      29.589  28.646  22.754  1.00  0.00    -0.275 N 
ATOM     20  C   UNL A   1      29.217  27.701  23.651  1.00  0.00     0.108 A 
ATOM     21  N   UNL A   1      30.574  28.187  22.001  1.00  0.00    -0.176 NA
ATOM     22  C   UNL A   1      29.890  26.543  23.420  1.00  0.00     0.047 A 
ENDBRANCH  16  17
ENDBRANCH  13  16
ENDBRANCH   6  12
ENDBRANCH   3   5
ENDBRANCH   2   3
ENDBRANCH   1   2
BRANCH   1  23
ATOM     23  C   UNL A   1      32.537  29.065  25.081  1.00  0.00     0.275 C 
BRANCH  23  24
ATOM     24  O   UNL A   1      32.304  29.407  26.476  1.00  0.00    -0.458 OA
BRANCH  24  25
ATOM     25  C   UNL A   1      32.755  30.628  26.883  1.00  0.00     0.338 C 
ATOM     26  O   UNL A   1      32.118  31.669  26.860  1.00  0.00    -0.246 OA
BRANCH  25  27
ATOM     27  C   UNL A   1      34.152  30.554  27.422  1.00  0.00     0.060 A 
ATOM     28  C   UNL A   1      34.692  29.303  27.731  1.00  0.00     0.016 A 
ATOM     29  C   UNL A   1      34.925  31.692  27.696  1.00  0.00     0.016 A 
ATOM     30  C   UNL A   1      36.008  29.198  28.232  1.00  0.00     0.010 A 
ATOM     31  C   UNL A   1      36.253  31.582  28.201  1.00  0.00     0.010 A 
ATOM     32  C   UNL A   1      36.847  30.329  28.427  1.00  0.00    -0.014 A 
BRANCH  32  33
ATOM     33  C   UNL A   1      38.237  30.101  29.020  1.00  0.00     0.031 A 
ATOM     34  C   UNL A   1      38.370  30.516  30.445  1.00  0.00     0.074 A 
ATOM     35  C   UNL A   1      39.331  29.497  28.465  1.00  0.00     0.049 A 
ATOM     36  N   UNL A   1      39.304  30.225  31.304  1.00  0.00    -0.248 NA
ATOM     37  C   UNL A   1      37.362  31.474  30.923  1.00  0.00     0.031 C 
ATOM     38  C   UNL A   1      39.658  29.330  27.061  1.00  0.00     0.029 A 
ATOM     39  N   UNL A   1      40.314  28.705  29.047  1.00  0.00    -0.354 N 
ATOM     40  C   UNL A   1      39.027  31.000  32.411  1.00  0.00     0.074 A 
ATOM     41  C   UNL A   1      37.829  31.760  32.124  1.00  0.00     0.031 C 
ATOM     42  C   UNL A   1      40.397  28.230  26.866  1.00  0.00     0.029 A 
ATOM     43  C   UNL A   1      40.904  27.804  28.155  1.00  0.00     0.049 A 
ATOM     44  H   UNL A   1      40.571  28.772  29.996  1.00  0.00     0.167 HD
ATOM     45  C   UNL A   1      39.752  31.112  33.545  1.00  0.00     0.037 A 
ATOM     46  C   UNL A   1      41.806  26.810  28.335  1.00  0.00     0.037 A 
ATOM     47  C   UNL A   1      41.013  30.454  33.744  1.00  0.00     0.049 A 
ATOM     48  C   UNL A   1      42.536  26.866  29.650  1.00  0.00     0.074 A 
ATOM     49  C   UNL A   1      41.917  30.609  34.775  1.00  0.00     0.029 A 
ATOM     50  N   UNL A   1      41.561  29.526  32.864  1.00  0.00    -0.354 N 
ATOM     51  N   UNL A   1      42.270  27.604  30.700  1.00  0.00    -0.248 NA
ATOM     52  C   UNL A   1      43.769  26.074  29.762  1.00  0.00     0.031 C 
ATOM     53  C   UNL A   1      43.026  29.795  34.506  1.00  0.00     0.029 A 
ATOM     54  C   UNL A   1      42.783  29.083  33.340  1.00  0.00     0.049 A 
ATOM     55  H   UNL A   1      41.141  29.228  32.025  1.00  0.00     0.167 HD
ATOM     56  C   UNL A   1      43.330  27.418  31.569  1.00  0.00     0.074 A 
ATOM     57  C   UNL A   1      44.190  26.415  30.971  1.00  0.00     0.031 C 
ATOM     58  C   UNL A   1      43.601  28.069  32.725  1.00  0.00     0.037 A 
BRANCH  45  59
ATOM     59  C   UNL A   1      39.208  32.072  34.554  1.00  0.00     0.064 A 
ATOM     60  C   UNL A   1      39.570  33.429  34.529  1.00  0.00     0.173 A 
ATOM     61  C   UNL A   1      38.464  31.607  35.647  1.00  0.00     0.173 A 
ATOM     62  F   UNL A   1      40.335  33.904  33.535  1.00  0.00    -0.203 F 
ATOM     63  C   UNL A   1      39.248  34.273  35.588  1.00  0.00     0.198 A 
ATOM     64  C   UNL A   1      38.116  32.461  36.687  1.00  0.00     0.198 A 
ATOM     65  F   UNL A   1      38.126  30.311  35.733  1.00  0.00    -0.203 F 
ATOM     66  F   UNL A   1      39.696  35.535  35.595  1.00  0.00    -0.200 F 
ATOM     67  C   UNL A   1      38.523  33.788  36.665  1.00  0.00     0.200 A 
ATOM     68  F   UNL A   1      37.427  31.991  37.736  1.00  0.00    -0.200 F 
ATOM     69  F   UNL A   1      38.245  34.592  37.701  1.00  0.00    -0.200 F 
ENDBRANCH  45  59
BRANCH  46  70
ATOM     70  C   UNL A   1      42.217  25.798  27.290  1.00  0.00     0.064 A 
ATOM     71  C   UNL A   1      41.557  24.551  27.211  1.00  0.00     0.173 A 
ATOM     72  C   UNL A   1      43.300  25.969  26.412  1.00  0.00     0.173 A 
ATOM     73  F   UNL A   1      40.551  24.275  28.054  1.00  0.00    -0.203 F 
ATOM     74  C   UNL A   1      41.965  23.545  26.326  1.00  0.00     0.198 A 
ATOM     75  C   UNL A   1      43.662  24.991  25.477  1.00  0.00     0.198 A 
ATOM     76  F   UNL A   1      44.057  27.073  26.475  1.00  0.00    -0.203 F 
ATOM     77  F   UNL A   1      41.372  22.342  26.357  1.00  0.00    -0.200 F 
ATOM     78  C   UNL A   1      43.006  23.773  25.445  1.00  0.00     0.200 A 
ATOM     79  F   UNL A   1      44.672  25.225  24.628  1.00  0.00    -0.200 F 
ATOM     80  F   UNL A   1      43.397  22.816  24.593  1.00  0.00    -0.200 F 
ENDBRANCH  46  70
BRANCH  58  81
ATOM     81  C   UNL A   1      44.857  27.660  33.428  1.00  0.00     0.064 A 
ATOM     82  C   UNL A   1      44.875  26.628  34.378  1.00  0.00     0.173 A 
ATOM     83  C   UNL A   1      46.054  28.332  33.152  1.00  0.00     0.173 A 
ATOM     84  F   UNL A   1      43.745  25.976  34.690  1.00  0.00    -0.203 F 
ATOM     85  C   UNL A   1      46.045  26.310  35.058  1.00  0.00     0.198 A 
ATOM     86  C   UNL A   1      47.229  27.988  33.808  1.00  0.00     0.198 A 
ATOM     87  F   UNL A   1      46.080  29.325  32.251  1.00  0.00    -0.203 F 
ATOM     88  F   UNL A   1      46.029  25.370  36.013  1.00  0.00    -0.200 F 
ATOM     89  C   UNL A   1      47.222  26.988  34.768  1.00  0.00     0.200 A 
ATOM     90  F   UNL A   1      48.366  28.635  33.521  1.00  0.00    -0.200 F 
ATOM     91  F   UNL A   1      48.347  26.685  35.428  1.00  0.00    -0.200 F 
ENDBRANCH  58  81
ENDBRANCH  32  33
ENDBRANCH  25  27
ENDBRANCH  24  25
ENDBRANCH  23  24
ENDBRANCH   1  23
TORSDOF 14
ENDMDL
MODEL 3
REMARK VINA RESULT:     -12.6      0.925      1.645
REMARK SMILES Cn1ccc(CNC(=O)[C@@H]2[C@@H]3CC[C@@H](C3)[C@@H]2C(=O)OCCOC(=O)c2ccc(-c3c4nc(c(-c5c(F)c(F)c(F)c(F)c5F)c5ccc([nH]5)c(-c5c(F)c(F)c(F)c(F)c5F)c5nc(c(-c6c(F)c(F)c(F)c(F)c6F)c6ccc3[nH]6)C=C5)C=C4)cc2)n1
REMARK SMILES IDX 20 1 19 2 17 3 18 4 16 5 10 6 11 7 12 8 15 9 14 10 13 11
REMARK SMILES IDX 8 12 7 13 9 15 6 16 5 17 1 18 2 19 3 20 88 21 4 22 21 23
REMARK SMILES IDX 22 24 23 25 24 26 25 27 26 28 87 29 27 30 86 31 28 32 29 33
REMARK SMILES IDX 30 34 80 35 31 36 85 37 79 38 81 39 32 40 84 41 78 42 77 43
REMARK SMILES IDX 33 45 65 46 45 47 64 48 46 49 49 50 63 51 82 52 47 53 48 54
REMARK SMILES IDX 62 56 83 57 50 58 34 59 35 60 43 61 36 62 37 63 41 64 44 65
REMARK SMILES IDX 38 66 39 67 42 68 40 69 66 70 67 71 75 72 68 73 69 74 73 75
REMARK SMILES IDX 76 76 70 77 71 78 74 79 72 80 51 81 52 82 60 83 53 84 54 85
REMARK SMILES IDX 58 86 61 87 55 88 56 89 59 90 57 91
REMARK H PARENT 7 14 81 44 49 55
REMARK Flexibility Score: inf
ROOT
ATOM      1  C   UNL A   1      33.608  27.750  24.583  1.00  0.00     0.274 C 
ENDROOT
BRANCH   1   2
ATOM      2  O   UNL A   1      33.259  26.935  25.705  1.00  0.00    -0.462 OA
BRANCH   2   3
ATOM      3  C   UNL A   1      33.098  25.597  25.464  1.00  0.00     0.310 C 
ATOM      4  O   UNL A   1      32.109  24.959  25.743  1.00  0.00    -0.252 OA
BRANCH   3   5
ATOM      5  C   UNL A   1      34.329  25.116  24.718  1.00  0.00     0.115 C 
ATOM      6  C   UNL A   1      34.256  24.365  23.367  1.00  0.00     0.096 C 
ATOM      7  C   UNL A   1      35.307  23.228  23.591  1.00  0.00     0.002 C 
ATOM      8  C   UNL A   1      34.702  22.123  24.474  1.00  0.00     0.005 C 
ATOM      9  C   UNL A   1      36.293  23.846  24.587  1.00  0.00     0.009 C 
ATOM     10  C   UNL A   1      35.197  24.199  25.590  1.00  0.00     0.004 C 
ATOM     11  C   UNL A   1      34.490  22.846  25.805  1.00  0.00     0.005 C 
BRANCH   6  12
ATOM     12  C   UNL A   1      32.954  23.769  22.816  1.00  0.00     0.224 C 
ATOM     13  N   UNL A   1      31.909  24.552  22.447  1.00  0.00    -0.350 N 
ATOM     14  H   UNL A   1      31.002  24.181  22.552  1.00  0.00     0.163 HD
ATOM     15  O   UNL A   1      32.839  22.561  22.586  1.00  0.00    -0.275 OA
BRANCH  13  16
ATOM     16  C   UNL A   1      32.026  25.878  21.915  1.00  0.00     0.174 C 
BRANCH  16  17
ATOM     17  C   UNL A   1      30.881  26.641  22.427  1.00  0.00     0.082 A 
ATOM     18  C   UNL A   1      29.349  29.749  22.583  1.00  0.00     0.173 C 
ATOM     19  N   UNL A   1      29.709  28.362  22.757  1.00  0.00    -0.275 N 
ATOM     20  C   UNL A   1      29.409  27.458  23.721  1.00  0.00     0.108 A 
ATOM     21  N   UNL A   1      30.634  27.870  21.952  1.00  0.00    -0.176 NA
ATOM     22  C   UNL A   1      30.065  26.290  23.490  1.00  0.00     0.047 A 
ENDBRANCH  16  17
ENDBRANCH  13  16
ENDBRANCH   6  12
ENDBRANCH   3   5
ENDBRANCH   2   3
ENDBRANCH   1   2
BRANCH   1  23
ATOM     23  C   UNL A   1      33.091  29.174  24.833  1.00  0.00     0.275 C 
BRANCH  23  24
ATOM     24  O   UNL A   1      32.520  29.361  26.159  1.00  0.00    -0.458 OA
BRANCH  24  25
ATOM     25  C   UNL A   1      32.851  30.517  26.802  1.00  0.00     0.338 C 
ATOM     26  O   UNL A   1      32.121  31.484  26.954  1.00  0.00    -0.246 OA
BRANCH  25  27
ATOM     27  C   UNL A   1      34.240  30.464  27.362  1.00  0.00     0.060 A 
ATOM     28  C   UNL A   1      34.792  29.222  27.685  1.00  0.00     0.016 A 
ATOM     29  C   UNL A   1      34.994  31.613  27.643  1.00  0.00     0.016 A 
ATOM     30  C   UNL A   1      36.102  29.136  28.207  1.00  0.00     0.010 A 
ATOM     31  C   UNL A   1      36.315  31.523  28.169  1.00  0.00     0.010 A 
ATOM     32  C   UNL A   1      36.922  30.279  28.409  1.00  0.00    -0.014 A 
BRANCH  32  33
ATOM     33  C   UNL A   1      38.306  30.071  29.025  1.00  0.00     0.031 A 
ATOM     34  C   UNL A   1      38.414  30.501  30.447  1.00  0.00     0.074 A 
ATOM     35  C   UNL A   1      39.414  29.476  28.491  1.00  0.00     0.049 A 
ATOM     36  N   UNL A   1      39.338  30.228  31.322  1.00  0.00    -0.248 NA
ATOM     37  C   UNL A   1      37.388  31.451  30.903  1.00  0.00     0.031 C 
ATOM     38  C   UNL A   1      39.764  29.300  27.094  1.00  0.00     0.029 A 
ATOM     39  N   UNL A   1      40.398  28.700  29.094  1.00  0.00    -0.354 N 
ATOM     40  C   UNL A   1      39.036  31.010  32.419  1.00  0.00     0.074 A 
ATOM     41  C   UNL A   1      37.834  31.753  32.108  1.00  0.00     0.031 C 
ATOM     42  C   UNL A   1      40.518  28.206  26.919  1.00  0.00     0.029 A 
ATOM     43  C   UNL A   1      41.011  27.797  28.219  1.00  0.00     0.049 A 
ATOM     44  H   UNL A   1      40.640  28.778  30.046  1.00  0.00     0.167 HD
ATOM     45  C   UNL A   1      39.744  31.140  33.562  1.00  0.00     0.037 A 
ATOM     46  C   UNL A   1      41.921  26.815  28.421  1.00  0.00     0.037 A 
ATOM     47  C   UNL A   1      41.009  30.497  33.785  1.00  0.00     0.049 A 
ATOM     48  C   UNL A   1      42.631  26.891  29.746  1.00  0.00     0.074 A 
ATOM     49  C   UNL A   1      41.896  30.671  34.828  1.00  0.00     0.029 A 
ATOM     50  N   UNL A   1      41.580  29.568  32.921  1.00  0.00    -0.354 N 
ATOM     51  N   UNL A   1      42.342  27.635  30.785  1.00  0.00    -0.248 NA
ATOM     52  C   UNL A   1      43.871  26.115  29.883  1.00  0.00     0.031 C 
ATOM     53  C   UNL A   1      43.017  29.868  34.582  1.00  0.00     0.029 A 
ATOM     54  C   UNL A   1      42.799  29.143  33.419  1.00  0.00     0.049 A 
ATOM     55  H   UNL A   1      41.175  29.258  32.079  1.00  0.00     0.167 HD
ATOM     56  C   UNL A   1      43.390  27.469  31.671  1.00  0.00     0.074 A 
ATOM     57  C   UNL A   1      44.271  26.471  31.094  1.00  0.00     0.031 C 
ATOM     58  C   UNL A   1      43.638  28.133  32.825  1.00  0.00     0.037 A 
BRANCH  45  59
ATOM     59  C   UNL A   1      39.174  32.102  34.554  1.00  0.00     0.064 A 
ATOM     60  C   UNL A   1      39.489  33.470  34.497  1.00  0.00     0.173 A 
ATOM     61  C   UNL A   1      38.455  31.636  35.663  1.00  0.00     0.173 A 
ATOM     62  F   UNL A   1      40.230  33.949  33.486  1.00  0.00    -0.203 F 
ATOM     63  C   UNL A   1      39.146  34.325  35.540  1.00  0.00     0.198 A 
ATOM     64  C   UNL A   1      38.085  32.500  36.687  1.00  0.00     0.198 A 
ATOM     65  F   UNL A   1      38.162  30.332  35.780  1.00  0.00    -0.203 F 
ATOM     66  F   UNL A   1      39.550  35.602  35.516  1.00  0.00    -0.200 F 
ATOM     67  C   UNL A   1      38.446  33.840  36.633  1.00  0.00     0.200 A 
ATOM     68  F   UNL A   1      37.420  32.030  37.752  1.00  0.00    -0.200 F 
ATOM     69  F   UNL A   1      38.147  34.656  37.654  1.00  0.00    -0.200 F 
ENDBRANCH  45  59
BRANCH  46  70
ATOM     70  C   UNL A   1      42.358  25.799  27.391  1.00  0.00     0.064 A 
ATOM     71  C   UNL A   1      43.453  26.074  26.542  1.00  0.00     0.173 A 
ATOM     72  C   UNL A   1      41.684  24.591  27.143  1.00  0.00     0.173 A 
ATOM     73  F   UNL A   1      44.118  27.233  26.664  1.00  0.00    -0.203 F 
ATOM     74  C   UNL A   1      43.834  25.207  25.509  1.00  0.00     0.198 A 
ATOM     75  C   UNL A   1      42.110  23.691  26.158  1.00  0.00     0.198 A 
ATOM     76  F   UNL A   1      40.572  24.283  27.823  1.00  0.00    -0.203 F 
ATOM     77  F   UNL A   1      44.816  25.557  24.666  1.00  0.00    -0.200 F 
ATOM     78  C   UNL A   1      43.173  24.005  25.331  1.00  0.00     0.200 A 
ATOM     79  F   UNL A   1      41.461  22.528  25.995  1.00  0.00    -0.200 F 
ATOM     80  F   UNL A   1      43.536  23.170  24.348  1.00  0.00    -0.200 F 
ENDBRANCH  46  70
BRANCH  58  81
ATOM     81  C   UNL A   1      44.888  27.745  33.550  1.00  0.00     0.064 A 
ATOM     82  C   UNL A   1      46.114  28.381  33.310  1.00  0.00     0.173 A 
ATOM     83  C   UNL A   1      44.849  26.704  34.485  1.00  0.00     0.173 A 
ATOM     84  F   UNL A   1      46.201  29.367  32.404  1.00  0.00    -0.203 F 
ATOM     85  C   UNL A   1      47.271  27.958  33.956  1.00  0.00     0.198 A 
ATOM     86  C   UNL A   1      45.999  26.307  35.155  1.00  0.00     0.198 A 
ATOM     87  F   UNL A   1      43.696  26.069  34.743  1.00  0.00    -0.203 F 
ATOM     88  F   UNL A   1      48.447  28.530  33.663  1.00  0.00    -0.200 F 
ATOM     89  C   UNL A   1      47.211  26.925  34.881  1.00  0.00     0.200 A 
ATOM     90  F   UNL A   1      45.939  25.317  36.054  1.00  0.00    -0.200 F 
ATOM     91  F   UNL A   1      48.326  26.514  35.498  1.00  0.00    -0.200 F 
ENDBRANCH  58  81
ENDBRANCH  32  33
ENDBRANCH  25  27
ENDBRANCH  24  25
ENDBRANCH  23  24
ENDBRANCH   1  23
TORSDOF 14
ENDMDL
