MODEL 1
REMARK VINA RESULT:     -11.6      0.000      0.000
REMARK SMILES O=C(OCCOC(=O)[C@@H](NC(=O)c1ccncc1Cl)C1CC1)c1ccc(-c2c3nc(c(-c4c(F)c(F)c(F)c(F)c4F)c4ccc([nH]4)c(-c4c(F)c(F)c(F)c(F)c4F)c4nc(c(-c5c(F)c(F)c(F)c(F)c5F)c5ccc2[nH]5)C=C4)C=C3)cc1
REMARK SMILES IDX 4 1 3 2 2 3 1 4 23 5 24 6 85 7 25 8 84 9 26 10 27 11 28 12
REMARK SMILES IDX 78 13 29 14 83 15 77 16 79 17 30 18 82 19 76 20 75 21 31 23
REMARK SMILES IDX 63 24 43 25 62 26 44 27 47 28 61 29 80 30 45 31 46 32 60 34
REMARK SMILES IDX 81 35 48 36 32 37 33 38 41 39 34 40 35 41 39 42 42 43 36 44
REMARK SMILES IDX 37 45 40 46 38 47 64 48 65 49 73 50 66 51 67 52 71 53 74 54
REMARK SMILES IDX 68 55 69 56 72 57 70 58 49 59 50 60 58 61 51 62 52 63 56 64
REMARK SMILES IDX 59 65 53 66 54 67 57 68 55 69 5 70 6 71 7 72 8 73 9 74 10 75
REMARK SMILES IDX 11 76 12 78 13 79 14 80 18 81 15 82 17 83 19 84 16 85 20 86
REMARK SMILES IDX 21 87 22 88
REMARK H PARENT 79 22 47 33 10 77
REMARK Flexibility Score: inf
ROOT
ATOM      1  C   UNL A   1      32.690  29.371  24.964  1.00  0.00     0.275 C 
ENDROOT
BRANCH   1   2
ATOM      2  O   UNL A   1      32.280  30.279  26.000  1.00  0.00    -0.458 OA
BRANCH   2   3
ATOM      3  C   UNL A   1      32.997  31.014  26.877  1.00  0.00     0.338 C 
ATOM      4  O   UNL A   1      32.530  32.103  27.213  1.00  0.00    -0.246 OA
BRANCH   3   5
ATOM      5  C   UNL A   1      34.313  30.624  27.498  1.00  0.00     0.060 A 
ATOM      6  C   UNL A   1      34.779  29.335  27.764  1.00  0.00     0.016 A 
ATOM      7  C   UNL A   1      35.190  31.692  27.795  1.00  0.00     0.016 A 
ATOM      8  C   UNL A   1      36.054  29.123  28.317  1.00  0.00     0.010 A 
ATOM      9  C   UNL A   1      36.472  31.486  28.326  1.00  0.00     0.010 A 
ATOM     10  C   UNL A   1      36.910  30.195  28.605  1.00  0.00    -0.014 A 
BRANCH  10  11
ATOM     11  C   UNL A   1      38.159  29.925  29.359  1.00  0.00     0.031 A 
ATOM     12  C   UNL A   1      38.210  30.267  30.803  1.00  0.00     0.074 A 
ATOM     13  C   UNL A   1      39.264  29.414  28.790  1.00  0.00     0.049 A 
ATOM     14  N   UNL A   1      39.165  30.033  31.659  1.00  0.00    -0.248 NA
ATOM     15  C   UNL A   1      37.110  31.093  31.313  1.00  0.00     0.031 C 
ATOM     16  C   UNL A   1      39.521  29.404  27.370  1.00  0.00     0.029 A 
ATOM     17  N   UNL A   1      40.360  28.773  29.316  1.00  0.00    -0.354 N 
ATOM     18  C   UNL A   1      38.853  30.797  32.766  1.00  0.00     0.074 A 
ATOM     19  C   UNL A   1      37.587  31.447  32.495  1.00  0.00     0.031 C 
ATOM     20  C   UNL A   1      40.554  28.590  27.109  1.00  0.00     0.029 A 
ATOM     21  C   UNL A   1      41.069  28.070  28.359  1.00  0.00     0.049 A 
ATOM     22  H   UNL A   1      40.611  28.809  30.267  1.00  0.00     0.167 HD
ATOM     23  C   UNL A   1      39.612  30.985  33.869  1.00  0.00     0.037 A 
ATOM     24  C   UNL A   1      41.995  27.102  28.503  1.00  0.00     0.037 A 
ATOM     25  C   UNL A   1      40.877  30.332  34.082  1.00  0.00     0.049 A 
ATOM     26  C   UNL A   1      42.613  27.002  29.867  1.00  0.00     0.074 A 
ATOM     27  C   UNL A   1      41.735  30.428  35.161  1.00  0.00     0.029 A 
ATOM     28  N   UNL A   1      41.468  29.449  33.182  1.00  0.00    -0.354 N 
ATOM     29  N   UNL A   1      42.296  27.671  30.948  1.00  0.00    -0.248 NA
ATOM     30  C   UNL A   1      43.785  26.132  30.013  1.00  0.00     0.031 C 
ATOM     31  C   UNL A   1      42.844  29.609  34.913  1.00  0.00     0.029 A 
ATOM     32  C   UNL A   1      42.661  28.967  33.698  1.00  0.00     0.049 A 
ATOM     33  H   UNL A   1      41.093  29.204  32.306  1.00  0.00     0.167 HD
ATOM     34  C   UNL A   1      43.284  27.389  31.870  1.00  0.00     0.074 A 
ATOM     35  C   UNL A   1      44.142  26.387  31.265  1.00  0.00     0.031 C 
ATOM     36  C   UNL A   1      43.501  27.974  33.072  1.00  0.00     0.037 A 
BRANCH  23  37
ATOM     37  C   UNL A   1      39.105  32.002  34.846  1.00  0.00     0.064 A 
ATOM     38  C   UNL A   1      39.421  33.365  34.723  1.00  0.00     0.173 A 
ATOM     39  C   UNL A   1      38.396  31.593  35.986  1.00  0.00     0.173 A 
ATOM     40  F   UNL A   1      40.132  33.800  33.671  1.00  0.00    -0.203 F 
ATOM     41  C   UNL A   1      39.103  34.267  35.735  1.00  0.00     0.198 A 
ATOM     42  C   UNL A   1      38.045  32.506  36.977  1.00  0.00     0.198 A 
ATOM     43  F   UNL A   1      38.077  30.302  36.158  1.00  0.00    -0.203 F 
ATOM     44  F   UNL A   1      39.511  35.540  35.644  1.00  0.00    -0.200 F 
ATOM     45  C   UNL A   1      38.417  33.837  36.859  1.00  0.00     0.200 A 
ATOM     46  F   UNL A   1      37.379  32.091  38.062  1.00  0.00    -0.200 F 
ATOM     47  F   UNL A   1      38.134  34.701  37.844  1.00  0.00    -0.200 F 
ENDBRANCH  23  37
BRANCH  24  48
ATOM     48  C   UNL A   1      42.379  26.167  27.402  1.00  0.00     0.064 A 
ATOM     49  C   UNL A   1      41.625  24.994  27.200  1.00  0.00     0.173 A 
ATOM     50  C   UNL A   1      43.465  26.371  26.541  1.00  0.00     0.173 A 
ATOM     51  F   UNL A   1      40.588  24.719  28.006  1.00  0.00    -0.203 F 
ATOM     52  C   UNL A   1      41.952  24.070  26.206  1.00  0.00     0.198 A 
ATOM     53  C   UNL A   1      43.763  25.469  25.515  1.00  0.00     0.198 A 
ATOM     54  F   UNL A   1      44.259  27.440  26.697  1.00  0.00    -0.203 F 
ATOM     55  F   UNL A   1      41.250  22.932  26.094  1.00  0.00    -0.200 F 
ATOM     56  C   UNL A   1      43.015  24.313  25.356  1.00  0.00     0.200 A 
ATOM     57  F   UNL A   1      44.792  25.713  24.691  1.00  0.00    -0.200 F 
ATOM     58  F   UNL A   1      43.333  23.427  24.402  1.00  0.00    -0.200 F 
ENDBRANCH  24  48
BRANCH  36  59
ATOM     59  C   UNL A   1      44.736  27.542  33.795  1.00  0.00     0.064 A 
ATOM     60  C   UNL A   1      45.953  28.223  33.631  1.00  0.00     0.173 A 
ATOM     61  C   UNL A   1      44.699  26.445  34.662  1.00  0.00     0.173 A 
ATOM     62  F   UNL A   1      46.036  29.267  32.791  1.00  0.00    -0.203 F 
ATOM     63  C   UNL A   1      47.098  27.801  34.296  1.00  0.00     0.198 A 
ATOM     64  C   UNL A   1      45.841  26.041  35.344  1.00  0.00     0.198 A 
ATOM     65  F   UNL A   1      43.557  25.765  34.843  1.00  0.00    -0.203 F 
ATOM     66  F   UNL A   1      48.262  28.433  34.090  1.00  0.00    -0.200 F 
ATOM     67  C   UNL A   1      47.040  26.714  35.156  1.00  0.00     0.200 A 
ATOM     68  F   UNL A   1      45.784  24.994  36.177  1.00  0.00    -0.200 F 
ATOM     69  F   UNL A   1      48.145  26.306  35.794  1.00  0.00    -0.200 F 
ENDBRANCH  36  59
ENDBRANCH  10  11
ENDBRANCH   3   5
ENDBRANCH   2   3
ENDBRANCH   1   2
BRANCH   1  70
ATOM     70  C   UNL A   1      32.015  28.007  25.090  1.00  0.00     0.274 C 
BRANCH  70  71
ATOM     71  O   UNL A   1      30.669  28.019  24.584  1.00  0.00    -0.461 OA
BRANCH  71  72
ATOM     72  C   UNL A   1      30.177  26.813  24.153  1.00  0.00     0.329 C 
ATOM     73  O   UNL A   1      29.011  26.594  23.860  1.00  0.00    -0.250 OA
BRANCH  72  74
ATOM     74  C   UNL A   1      31.269  25.727  24.210  1.00  0.00     0.195 C 
BRANCH  74  75
ATOM     75  N   UNL A   1      30.958  24.777  25.283  1.00  0.00    -0.338 N 
ATOM     76  C   UNL A   1      31.783  24.162  26.184  1.00  0.00     0.253 C 
ATOM     77  H   UNL A   1      30.004  24.544  25.368  1.00  0.00     0.164 HD
ATOM     78  O   UNL A   1      31.373  23.922  27.314  1.00  0.00    -0.269 OA
BRANCH  76  79
ATOM     79  C   UNL A   1      33.104  23.656  25.769  1.00  0.00     0.061 A 
ATOM     80  C   UNL A   1      34.198  24.535  25.823  1.00  0.00     0.035 A 
ATOM     81  C   UNL A   1      33.260  22.395  25.203  1.00  0.00     0.072 A 
ATOM     82  C   UNL A   1      35.425  24.093  25.359  1.00  0.00     0.112 A 
ATOM     83  C   UNL A   1      34.533  22.048  24.770  1.00  0.00     0.132 A 
ATOM     84  Cl  UNL A   1      31.979  21.261  25.037  1.00  0.00    -0.082 Cl
ATOM     85  N   UNL A   1      35.620  22.864  24.835  1.00  0.00    -0.263 NA
ENDBRANCH  76  79
ENDBRANCH  74  75
BRANCH  74  86
ATOM     86  C   UNL A   1      31.434  25.112  22.849  1.00  0.00     0.023 C 
ATOM     87  C   UNL A   1      31.798  25.975  21.669  1.00  0.00     0.007 C 
ATOM     88  C   UNL A   1      32.798  24.997  22.206  1.00  0.00     0.007 C 
ENDBRANCH  74  86
ENDBRANCH  72  74
ENDBRANCH  71  72
ENDBRANCH  70  71
ENDBRANCH   1  70
TORSDOF 14
ENDMDL
MODEL 2
REMARK VINA RESULT:     -11.5      1.258      1.606
REMARK SMILES O=C(OCCOC(=O)[C@@H](NC(=O)c1ccncc1Cl)C1CC1)c1ccc(-c2c3nc(c(-c4c(F)c(F)c(F)c(F)c4F)c4ccc([nH]4)c(-c4c(F)c(F)c(F)c(F)c4F)c4nc(c(-c5c(F)c(F)c(F)c(F)c5F)c5ccc2[nH]5)C=C4)C=C3)cc1
REMARK SMILES IDX 4 1 3 2 2 3 1 4 23 5 24 6 85 7 25 8 84 9 26 10 27 11 28 12
REMARK SMILES IDX 78 13 29 14 83 15 77 16 79 17 30 18 82 19 76 20 75 21 31 23
REMARK SMILES IDX 63 24 43 25 62 26 44 27 47 28 61 29 80 30 45 31 46 32 60 34
REMARK SMILES IDX 81 35 48 36 32 37 33 38 41 39 34 40 35 41 39 42 42 43 36 44
REMARK SMILES IDX 37 45 40 46 38 47 64 48 65 49 73 50 66 51 67 52 71 53 74 54
REMARK SMILES IDX 68 55 69 56 72 57 70 58 49 59 50 60 58 61 51 62 52 63 56 64
REMARK SMILES IDX 59 65 53 66 54 67 57 68 55 69 5 70 6 71 7 72 8 73 9 74 10 75
REMARK SMILES IDX 11 76 12 78 13 79 14 80 18 81 15 82 17 83 19 84 16 85 20 86
REMARK SMILES IDX 21 87 22 88
REMARK H PARENT 79 22 47 33 10 77
REMARK Flexibility Score: inf
ROOT
ATOM      1  C   UNL A   1      31.121  30.323  25.151  1.00  0.00     0.275 C 
ENDROOT
BRANCH   1   2
ATOM      2  O   UNL A   1      32.431  30.174  25.722  1.00  0.00    -0.458 OA
BRANCH   2   3
ATOM      3  C   UNL A   1      33.049  30.839  26.722  1.00  0.00     0.338 C 
ATOM      4  O   UNL A   1      32.478  31.831  27.176  1.00  0.00    -0.246 OA
BRANCH   3   5
ATOM      5  C   UNL A   1      34.370  30.474  27.350  1.00  0.00     0.060 A 
ATOM      6  C   UNL A   1      34.883  29.195  27.570  1.00  0.00     0.016 A 
ATOM      7  C   UNL A   1      35.198  31.562  27.708  1.00  0.00     0.016 A 
ATOM      8  C   UNL A   1      36.156  29.010  28.137  1.00  0.00     0.010 A 
ATOM      9  C   UNL A   1      36.479  31.385  28.252  1.00  0.00     0.010 A 
ATOM     10  C   UNL A   1      36.963  30.101  28.485  1.00  0.00    -0.014 A 
BRANCH  10  11
ATOM     11  C   UNL A   1      38.210  29.849  29.248  1.00  0.00     0.031 A 
ATOM     12  C   UNL A   1      38.247  30.201  30.691  1.00  0.00     0.074 A 
ATOM     13  C   UNL A   1      39.324  29.347  28.691  1.00  0.00     0.049 A 
ATOM     14  N   UNL A   1      39.198  29.981  31.555  1.00  0.00    -0.248 NA
ATOM     15  C   UNL A   1      37.134  31.017  31.188  1.00  0.00     0.031 C 
ATOM     16  C   UNL A   1      39.592  29.332  27.273  1.00  0.00     0.029 A 
ATOM     17  N   UNL A   1      40.424  28.721  29.228  1.00  0.00    -0.354 N 
ATOM     18  C   UNL A   1      38.870  30.748  32.656  1.00  0.00     0.074 A 
ATOM     19  C   UNL A   1      37.599  31.382  32.372  1.00  0.00     0.031 C 
ATOM     20  C   UNL A   1      40.635  28.528  27.024  1.00  0.00     0.029 A 
ATOM     21  C   UNL A   1      41.146  28.021  28.280  1.00  0.00     0.049 A 
ATOM     22  H   UNL A   1      40.667  28.765  30.181  1.00  0.00     0.167 HD
ATOM     23  C   UNL A   1      39.619  30.950  33.763  1.00  0.00     0.037 A 
ATOM     24  C   UNL A   1      42.082  27.063  28.436  1.00  0.00     0.037 A 
ATOM     25  C   UNL A   1      40.889  30.312  33.989  1.00  0.00     0.049 A 
ATOM     26  C   UNL A   1      42.691  26.977  29.805  1.00  0.00     0.074 A 
ATOM     27  C   UNL A   1      41.739  30.424  35.073  1.00  0.00     0.029 A 
ATOM     28  N   UNL A   1      41.497  29.431  33.098  1.00  0.00    -0.354 N 
ATOM     29  N   UNL A   1      42.360  27.649  30.880  1.00  0.00    -0.248 NA
ATOM     30  C   UNL A   1      43.872  26.121  29.964  1.00  0.00     0.031 C 
ATOM     31  C   UNL A   1      42.858  29.615  34.838  1.00  0.00     0.029 A 
ATOM     32  C   UNL A   1      42.690  28.964  33.625  1.00  0.00     0.049 A 
ATOM     33  H   UNL A   1      41.130  29.177  32.221  1.00  0.00     0.167 HD
ATOM     34  C   UNL A   1      43.343  27.383  31.810  1.00  0.00     0.074 A 
ATOM     35  C   UNL A   1      44.217  26.387  31.217  1.00  0.00     0.031 C 
ATOM     36  C   UNL A   1      43.546  27.977  33.010  1.00  0.00     0.037 A 
BRANCH  23  37
ATOM     37  C   UNL A   1      39.094  31.967  34.730  1.00  0.00     0.064 A 
ATOM     38  C   UNL A   1      39.378  33.335  34.590  1.00  0.00     0.173 A 
ATOM     39  C   UNL A   1      38.400  31.556  35.879  1.00  0.00     0.173 A 
ATOM     40  F   UNL A   1      40.074  33.773  33.529  1.00  0.00    -0.203 F 
ATOM     41  C   UNL A   1      39.046  34.242  35.593  1.00  0.00     0.198 A 
ATOM     42  C   UNL A   1      38.034  32.472  36.861  1.00  0.00     0.198 A 
ATOM     43  F   UNL A   1      38.112  30.260  36.068  1.00  0.00    -0.203 F 
ATOM     44  F   UNL A   1      39.425  35.522  35.484  1.00  0.00    -0.200 F 
ATOM     45  C   UNL A   1      38.375  33.810  36.726  1.00  0.00     0.200 A 
ATOM     46  F   UNL A   1      37.383  32.055  37.955  1.00  0.00    -0.200 F 
ATOM     47  F   UNL A   1      38.077  34.679  37.702  1.00  0.00    -0.200 F 
ENDBRANCH  23  37
BRANCH  24  48
ATOM     48  C   UNL A   1      42.484  26.126  27.343  1.00  0.00     0.064 A 
ATOM     49  C   UNL A   1      41.735  24.951  27.133  1.00  0.00     0.173 A 
ATOM     50  C   UNL A   1      43.581  26.331  26.497  1.00  0.00     0.173 A 
ATOM     51  F   UNL A   1      40.687  24.676  27.924  1.00  0.00    -0.203 F 
ATOM     52  C   UNL A   1      42.078  24.025  26.146  1.00  0.00     0.198 A 
ATOM     53  C   UNL A   1      43.896  25.427  25.478  1.00  0.00     0.198 A 
ATOM     54  F   UNL A   1      44.371  27.401  26.662  1.00  0.00    -0.203 F 
ATOM     55  F   UNL A   1      41.380  22.886  26.026  1.00  0.00    -0.200 F 
ATOM     56  C   UNL A   1      43.153  24.269  25.311  1.00  0.00     0.200 A 
ATOM     57  F   UNL A   1      44.937  25.671  24.668  1.00  0.00    -0.200 F 
ATOM     58  F   UNL A   1      43.486  23.381  24.364  1.00  0.00    -0.200 F 
ENDBRANCH  24  48
BRANCH  36  59
ATOM     59  C   UNL A   1      44.780  27.563  33.744  1.00  0.00     0.064 A 
ATOM     60  C   UNL A   1      45.997  28.239  33.564  1.00  0.00     0.173 A 
ATOM     61  C   UNL A   1      44.742  26.486  34.638  1.00  0.00     0.173 A 
ATOM     62  F   UNL A   1      46.082  29.261  32.699  1.00  0.00    -0.203 F 
ATOM     63  C   UNL A   1      47.142  27.833  34.240  1.00  0.00     0.198 A 
ATOM     64  C   UNL A   1      45.883  26.099  35.331  1.00  0.00     0.198 A 
ATOM     65  F   UNL A   1      43.600  25.812  34.835  1.00  0.00    -0.203 F 
ATOM     66  F   UNL A   1      48.306  28.458  34.020  1.00  0.00    -0.200 F 
ATOM     67  C   UNL A   1      47.083  26.767  35.127  1.00  0.00     0.200 A 
ATOM     68  F   UNL A   1      45.825  25.072  36.189  1.00  0.00    -0.200 F 
ATOM     69  F   UNL A   1      48.187  26.374  35.776  1.00  0.00    -0.200 F 
ENDBRANCH  36  59
ENDBRANCH  10  11
ENDBRANCH   3   5
ENDBRANCH   2   3
ENDBRANCH   1   2
BRANCH   1  70
ATOM     70  C   UNL A   1      30.809  29.233  24.128  1.00  0.00     0.274 C 
BRANCH  70  71
ATOM     71  O   UNL A   1      31.994  28.557  23.675  1.00  0.00    -0.461 OA
BRANCH  71  72
ATOM     72  C   UNL A   1      31.793  27.415  22.943  1.00  0.00     0.329 C 
ATOM     73  O   UNL A   1      31.037  27.318  21.986  1.00  0.00    -0.250 OA
BRANCH  72  74
ATOM     74  C   UNL A   1      32.551  26.227  23.565  1.00  0.00     0.195 C 
BRANCH  74  75
ATOM     75  N   UNL A   1      33.290  25.516  22.516  1.00  0.00    -0.338 N 
ATOM     76  C   UNL A   1      33.284  24.191  22.177  1.00  0.00     0.253 C 
ATOM     77  H   UNL A   1      33.884  26.081  21.970  1.00  0.00     0.164 HD
ATOM     78  O   UNL A   1      33.429  23.867  21.004  1.00  0.00    -0.269 OA
BRANCH  76  79
ATOM     79  C   UNL A   1      33.252  23.149  23.219  1.00  0.00     0.061 A 
ATOM     80  C   UNL A   1      32.005  22.773  23.743  1.00  0.00     0.035 A 
ATOM     81  C   UNL A   1      34.418  22.642  23.783  1.00  0.00     0.072 A 
ATOM     82  C   UNL A   1      31.972  21.855  24.778  1.00  0.00     0.112 A 
ATOM     83  C   UNL A   1      34.276  21.724  24.816  1.00  0.00     0.132 A 
ATOM     84  Cl  UNL A   1      35.997  23.075  23.257  1.00  0.00    -0.082 Cl
ATOM     85  N   UNL A   1      33.082  21.316  25.327  1.00  0.00    -0.263 NA
ENDBRANCH  76  79
ENDBRANCH  74  75
BRANCH  74  86
ATOM     86  C   UNL A   1      33.394  26.715  24.710  1.00  0.00     0.023 C 
ATOM     87  C   UNL A   1      32.902  26.565  26.127  1.00  0.00     0.007 C 
ATOM     88  C   UNL A   1      34.063  25.743  25.655  1.00  0.00     0.007 C 
ENDBRANCH  74  86
ENDBRANCH  72  74
ENDBRANCH  71  72
ENDBRANCH  70  71
ENDBRANCH   1  70
TORSDOF 14
ENDMDL
MODEL 3
REMARK VINA RESULT:     -11.4      0.680      1.861
REMARK SMILES O=C(OCCOC(=O)[C@@H](NC(=O)c1ccncc1Cl)C1CC1)c1ccc(-c2c3nc(c(-c4c(F)c(F)c(F)c(F)c4F)c4ccc([nH]4)c(-c4c(F)c(F)c(F)c(F)c4F)c4nc(c(-c5c(F)c(F)c(F)c(F)c5F)c5ccc2[nH]5)C=C4)C=C3)cc1
REMARK SMILES IDX 4 1 3 2 2 3 1 4 23 5 24 6 85 7 25 8 84 9 26 10 27 11 28 12
REMARK SMILES IDX 78 13 29 14 83 15 77 16 79 17 30 18 82 19 76 20 75 21 31 23
REMARK SMILES IDX 63 24 43 25 62 26 44 27 47 28 61 29 80 30 45 31 46 32 60 34
REMARK SMILES IDX 81 35 48 36 32 37 33 38 41 39 34 40 35 41 39 42 42 43 36 44
REMARK SMILES IDX 37 45 40 46 38 47 64 48 65 49 73 50 66 51 67 52 71 53 74 54
REMARK SMILES IDX 68 55 69 56 72 57 70 58 49 59 50 60 58 61 51 62 52 63 56 64
REMARK SMILES IDX 59 65 53 66 54 67 57 68 55 69 5 70 6 71 7 72 8 73 9 74 10 75
REMARK SMILES IDX 11 76 12 78 13 79 14 80 18 81 15 82 17 83 19 84 16 85 20 86
REMARK SMILES IDX 21 87 22 88
REMARK H PARENT 79 22 47 33 10 77
REMARK Flexibility Score: inf
ROOT
ATOM      1  C   UNL A   1      32.761  29.548  24.827  1.00  0.00     0.275 C 
ENDROOT
BRANCH   1   2
ATOM      2  O   UNL A   1      32.344  30.301  25.978  1.00  0.00    -0.458 OA
BRANCH   2   3
ATOM      3  C   UNL A   1      33.050  31.028  26.871  1.00  0.00     0.338 C 
ATOM      4  O   UNL A   1      32.571  32.106  27.224  1.00  0.00    -0.246 OA
BRANCH   3   5
ATOM      5  C   UNL A   1      34.365  30.639  27.494  1.00  0.00     0.060 A 
ATOM      6  C   UNL A   1      34.842  29.349  27.739  1.00  0.00     0.016 A 
ATOM      7  C   UNL A   1      35.230  31.709  27.817  1.00  0.00     0.016 A 
ATOM      8  C   UNL A   1      36.115  29.140  28.297  1.00  0.00     0.010 A 
ATOM      9  C   UNL A   1      36.511  31.506  28.353  1.00  0.00     0.010 A 
ATOM     10  C   UNL A   1      36.959  30.214  28.610  1.00  0.00    -0.014 A 
BRANCH  10  11
ATOM     11  C   UNL A   1      38.206  29.942  29.367  1.00  0.00     0.031 A 
ATOM     12  C   UNL A   1      38.257  30.294  30.809  1.00  0.00     0.074 A 
ATOM     13  C   UNL A   1      39.308  29.420  28.803  1.00  0.00     0.049 A 
ATOM     14  N   UNL A   1      39.210  30.061  31.667  1.00  0.00    -0.248 NA
ATOM     15  C   UNL A   1      37.161  31.130  31.312  1.00  0.00     0.031 C 
ATOM     16  C   UNL A   1      39.567  29.399  27.384  1.00  0.00     0.029 A 
ATOM     17  N   UNL A   1      40.400  28.776  29.335  1.00  0.00    -0.354 N 
ATOM     18  C   UNL A   1      38.901  30.834  32.769  1.00  0.00     0.074 A 
ATOM     19  C   UNL A   1      37.640  31.489  32.492  1.00  0.00     0.031 C 
ATOM     20  C   UNL A   1      40.595  28.577  27.130  1.00  0.00     0.029 A 
ATOM     21  C   UNL A   1      41.105  28.063  28.384  1.00  0.00     0.049 A 
ATOM     22  H   UNL A   1      40.650  28.818  30.286  1.00  0.00     0.167 HD
ATOM     23  C   UNL A   1      39.660  31.025  33.872  1.00  0.00     0.037 A 
ATOM     24  C   UNL A   1      42.025  27.090  28.535  1.00  0.00     0.037 A 
ATOM     25  C   UNL A   1      40.921  30.366  34.091  1.00  0.00     0.049 A 
ATOM     26  C   UNL A   1      42.641  26.996  29.901  1.00  0.00     0.074 A 
ATOM     27  C   UNL A   1      41.779  30.465  35.169  1.00  0.00     0.029 A 
ATOM     28  N   UNL A   1      41.508  29.474  33.197  1.00  0.00    -0.354 N 
ATOM     29  N   UNL A   1      42.328  27.674  30.977  1.00  0.00    -0.248 NA
ATOM     30  C   UNL A   1      43.809  26.120  30.054  1.00  0.00     0.031 C 
ATOM     31  C   UNL A   1      42.883  29.637  34.928  1.00  0.00     0.029 A 
ATOM     32  C   UNL A   1      42.697  28.988  33.718  1.00  0.00     0.049 A 
ATOM     33  H   UNL A   1      41.132  29.225  32.323  1.00  0.00     0.167 HD
ATOM     34  C   UNL A   1      43.312  27.393  31.901  1.00  0.00     0.074 A 
ATOM     35  C   UNL A   1      44.166  26.383  31.305  1.00  0.00     0.031 C 
ATOM     36  C   UNL A   1      43.532  27.986  33.099  1.00  0.00     0.037 A 
BRANCH  23  37
ATOM     37  C   UNL A   1      39.158  32.052  34.840  1.00  0.00     0.064 A 
ATOM     38  C   UNL A   1      39.478  33.413  34.706  1.00  0.00     0.173 A 
ATOM     39  C   UNL A   1      38.450  31.655  35.985  1.00  0.00     0.173 A 
ATOM     40  F   UNL A   1      40.189  33.836  33.649  1.00  0.00    -0.203 F 
ATOM     41  C   UNL A   1      39.165  34.324  35.710  1.00  0.00     0.198 A 
ATOM     42  C   UNL A   1      38.104  32.577  36.969  1.00  0.00     0.198 A 
ATOM     43  F   UNL A   1      38.128  30.366  36.169  1.00  0.00    -0.203 F 
ATOM     44  F   UNL A   1      39.577  35.595  35.607  1.00  0.00    -0.200 F 
ATOM     45  C   UNL A   1      38.480  33.906  36.840  1.00  0.00     0.200 A 
ATOM     46  F   UNL A   1      37.439  32.174  38.060  1.00  0.00    -0.200 F 
ATOM     47  F   UNL A   1      38.201  34.780  37.818  1.00  0.00    -0.200 F 
ENDBRANCH  23  37
BRANCH  24  48
ATOM     48  C   UNL A   1      42.405  26.145  27.441  1.00  0.00     0.064 A 
ATOM     49  C   UNL A   1      43.478  26.474  26.590  1.00  0.00     0.173 A 
ATOM     50  C   UNL A   1      41.753  24.932  27.189  1.00  0.00     0.173 A 
ATOM     51  F   UNL A   1      44.132  27.634  26.755  1.00  0.00    -0.203 F 
ATOM     52  C   UNL A   1      43.863  25.644  25.534  1.00  0.00     0.198 A 
ATOM     53  C   UNL A   1      42.168  24.079  26.162  1.00  0.00     0.198 A 
ATOM     54  F   UNL A   1      40.693  24.569  27.926  1.00  0.00    -0.203 F 
ATOM     55  F   UNL A   1      44.844  26.028  24.704  1.00  0.00    -0.200 F 
ATOM     56  C   UNL A   1      43.214  24.441  25.327  1.00  0.00     0.200 A 
ATOM     57  F   UNL A   1      41.538  22.912  25.969  1.00  0.00    -0.200 F 
ATOM     58  F   UNL A   1      43.578  23.643  24.314  1.00  0.00    -0.200 F 
ENDBRANCH  24  48
BRANCH  36  59
ATOM     59  C   UNL A   1      44.764  27.552  33.826  1.00  0.00     0.064 A 
ATOM     60  C   UNL A   1      44.751  26.439  34.682  1.00  0.00     0.173 A 
ATOM     61  C   UNL A   1      45.965  28.250  33.660  1.00  0.00     0.173 A 
ATOM     62  F   UNL A   1      43.614  25.756  34.888  1.00  0.00    -0.203 F 
ATOM     63  C   UNL A   1      45.899  26.056  35.366  1.00  0.00     0.198 A 
ATOM     64  C   UNL A   1      47.117  27.849  34.327  1.00  0.00     0.198 A 
ATOM     65  F   UNL A   1      46.018  29.321  32.854  1.00  0.00    -0.203 F 
ATOM     66  F   UNL A   1      45.858  25.021  36.217  1.00  0.00    -0.200 F 
ATOM     67  C   UNL A   1      47.082  26.758  35.184  1.00  0.00     0.200 A 
ATOM     68  F   UNL A   1      48.260  28.524  34.147  1.00  0.00    -0.200 F 
ATOM     69  F   UNL A   1      48.188  26.390  35.845  1.00  0.00    -0.200 F 
ENDBRANCH  36  59
ENDBRANCH  10  11
ENDBRANCH   3   5
ENDBRANCH   2   3
ENDBRANCH   1   2
BRANCH   1  70
ATOM     70  C   UNL A   1      31.602  28.796  24.177  1.00  0.00     0.274 C 
BRANCH  70  71
ATOM     71  O   UNL A   1      31.094  27.747  25.019  1.00  0.00    -0.461 OA
BRANCH  71  72
ATOM     72  C   UNL A   1      30.349  26.781  24.392  1.00  0.00     0.329 C 
ATOM     73  O   UNL A   1      29.211  26.935  23.971  1.00  0.00    -0.250 OA
BRANCH  72  74
ATOM     74  C   UNL A   1      31.087  25.429  24.403  1.00  0.00     0.195 C 
BRANCH  74  75
ATOM     75  N   UNL A   1      30.453  24.534  25.377  1.00  0.00    -0.338 N 
ATOM     76  C   UNL A   1      31.001  23.569  26.175  1.00  0.00     0.253 C 
ATOM     77  H   UNL A   1      29.478  24.645  25.469  1.00  0.00     0.164 HD
ATOM     78  O   UNL A   1      30.526  23.361  27.286  1.00  0.00    -0.269 OA
BRANCH  76  79
ATOM     79  C   UNL A   1      32.059  22.680  25.662  1.00  0.00     0.061 A 
ATOM     80  C   UNL A   1      31.705  21.374  25.286  1.00  0.00     0.035 A 
ATOM     81  C   UNL A   1      33.399  23.054  25.675  1.00  0.00     0.072 A 
ATOM     82  C   UNL A   1      32.705  20.508  24.880  1.00  0.00     0.112 A 
ATOM     83  C   UNL A   1      34.324  22.111  25.247  1.00  0.00     0.132 A 
ATOM     84  Cl  UNL A   1      33.949  24.606  26.167  1.00  0.00    -0.082 Cl
ATOM     85  N   UNL A   1      34.012  20.848  24.848  1.00  0.00    -0.263 NA
ENDBRANCH  76  79
ENDBRANCH  74  75
BRANCH  74  86
ATOM     86  C   UNL A   1      31.163  24.888  23.003  1.00  0.00     0.023 C 
ATOM     87  C   UNL A   1      31.788  25.713  21.908  1.00  0.00     0.007 C 
ATOM     88  C   UNL A   1      32.486  24.481  22.396  1.00  0.00     0.007 C 
ENDBRANCH  74  86
ENDBRANCH  72  74
ENDBRANCH  71  72
ENDBRANCH  70  71
ENDBRANCH   1  70
TORSDOF 14
ENDMDL
