MODEL 1
REMARK VINA RESULT:     -11.5      0.000      0.000
REMARK SMILES COc1ccc([C@H]2C[NH2+]C[C@@H]2C(=O)OCCOC(=O)c2ccc(-c3c4nc(c(-c5c(F)c(F)c(F)c(F)c5F)c5ccc([nH]5)c(-c5c(F)c(F)c(F)c(F)c5F)c5nc(c(-c6c(F)c(F)c(F)c(F)c6F)c6ccc3[nH]6)C=C5)C=C4)cc2)cc1OC
REMARK SMILES IDX 15 1 14 2 12 3 13 4 11 5 7 6 8 7 9 8 10 9 6 12 3 13 4 14
REMARK SMILES IDX 84 15 5 16 83 17 2 18 1 19 85 20 86 21 16 22 17 23 18 24
REMARK SMILES IDX 19 25 20 26 21 27 82 28 22 29 81 30 23 31 24 32 25 33 75 34
REMARK SMILES IDX 26 35 80 36 74 37 76 38 27 39 79 40 73 41 72 42 28 44 60 45
REMARK SMILES IDX 40 46 59 47 41 48 44 49 58 50 77 51 42 52 43 53 57 55 78 56
REMARK SMILES IDX 45 57 29 58 30 59 38 60 31 61 32 62 36 63 39 64 33 65 34 66
REMARK SMILES IDX 37 67 35 68 61 69 62 70 70 71 63 72 64 73 68 74 71 75 65 76
REMARK SMILES IDX 66 77 69 78 67 79 46 80 47 81 55 82 48 83 49 84 53 85 56 86
REMARK SMILES IDX 50 87 51 88 54 89 52 90
REMARK H PARENT 9 10 9 11 76 43 44 54
REMARK Flexibility Score: inf
ROOT
ATOM      1  C   UNL A   1      31.557  28.252  26.073  1.00  0.00     0.274 C 
ENDROOT
BRANCH   1   2
ATOM      2  O   UNL A   1      31.097  27.283  25.107  1.00  0.00    -0.462 OA
BRANCH   2   3
ATOM      3  C   UNL A   1      30.887  26.017  25.569  1.00  0.00     0.315 C 
ATOM      4  O   UNL A   1      30.154  25.727  26.504  1.00  0.00    -0.252 OA
BRANCH   3   5
ATOM      5  C   UNL A   1      31.695  25.011  24.762  1.00  0.00     0.167 C 
ATOM      6  C   UNL A   1      32.789  24.346  25.618  1.00  0.00     0.094 C 
ATOM      7  C   UNL A   1      33.962  25.312  25.395  1.00  0.00     0.269 C 
ATOM      8  N   UNL A   1      33.887  25.673  23.973  1.00  0.00    -0.345 N 
ATOM      9  C   UNL A   1      32.450  25.752  23.663  1.00  0.00     0.276 C 
ATOM     10  H   UNL A   1      34.336  24.959  23.400  1.00  0.00     0.346 HD
ATOM     11  H   UNL A   1      34.364  26.554  23.781  1.00  0.00     0.346 HD
BRANCH   6  12
ATOM     12  C   UNL A   1      33.147  22.887  25.333  1.00  0.00    -0.034 A 
ATOM     13  C   UNL A   1      33.747  20.189  24.686  1.00  0.00     0.160 A 
ATOM     14  C   UNL A   1      32.475  20.712  24.441  1.00  0.00     0.051 A 
ATOM     15  C   UNL A   1      34.743  21.017  25.207  1.00  0.00     0.161 A 
ATOM     16  C   UNL A   1      32.181  22.043  24.757  1.00  0.00     0.008 A 
ATOM     17  C   UNL A   1      34.431  22.353  25.518  1.00  0.00     0.054 A 
BRANCH  13  18
ATOM     18  O   UNL A   1      34.024  18.902  24.312  1.00  0.00    -0.493 OA
ATOM     19  C   UNL A   1      32.925  18.022  24.554  1.00  0.00     0.278 C 
ENDBRANCH  13  18
BRANCH  15  20
ATOM     20  O   UNL A   1      36.056  20.712  25.453  1.00  0.00    -0.493 OA
ATOM     21  C   UNL A   1      37.043  21.295  24.615  1.00  0.00     0.278 C 
ENDBRANCH  15  20
ENDBRANCH   6  12
ENDBRANCH   3   5
ENDBRANCH   2   3
ENDBRANCH   1   2
BRANCH   1  22
ATOM     22  C   UNL A   1      31.765  29.611  25.410  1.00  0.00     0.275 C 
BRANCH  22  23
ATOM     23  O   UNL A   1      33.090  30.081  25.716  1.00  0.00    -0.458 OA
BRANCH  23  24
ATOM     24  C   UNL A   1      33.205  30.930  26.759  1.00  0.00     0.338 C 
ATOM     25  O   UNL A   1      32.386  31.760  27.133  1.00  0.00    -0.246 OA
BRANCH  24  26
ATOM     26  C   UNL A   1      34.498  30.707  27.435  1.00  0.00     0.060 A 
ATOM     27  C   UNL A   1      34.880  29.420  27.802  1.00  0.00     0.016 A 
ATOM     28  C   UNL A   1      35.305  31.789  27.786  1.00  0.00     0.016 A 
ATOM     29  C   UNL A   1      36.000  29.215  28.603  1.00  0.00     0.010 A 
ATOM     30  C   UNL A   1      36.503  31.566  28.477  1.00  0.00     0.010 A 
ATOM     31  C   UNL A   1      36.857  30.277  28.920  1.00  0.00    -0.014 A 
BRANCH  31  32
ATOM     32  C   UNL A   1      38.108  30.042  29.699  1.00  0.00     0.031 A 
ATOM     33  C   UNL A   1      39.208  29.178  29.140  1.00  0.00     0.074 A 
ATOM     34  C   UNL A   1      38.276  30.603  30.917  1.00  0.00     0.049 A 
ATOM     35  N   UNL A   1      40.250  28.665  29.747  1.00  0.00    -0.248 NA
ATOM     36  C   UNL A   1      39.118  28.830  27.713  1.00  0.00     0.031 C 
ATOM     37  C   UNL A   1      37.328  31.499  31.580  1.00  0.00     0.029 A 
ATOM     38  N   UNL A   1      39.315  30.508  31.814  1.00  0.00    -0.354 N 
ATOM     39  C   UNL A   1      40.894  27.879  28.800  1.00  0.00     0.074 A 
ATOM     40  C   UNL A   1      40.138  27.993  27.571  1.00  0.00     0.031 C 
ATOM     41  C   UNL A   1      37.848  31.917  32.742  1.00  0.00     0.029 A 
ATOM     42  C   UNL A   1      39.114  31.230  32.966  1.00  0.00     0.049 A 
ATOM     43  H   UNL A   1      40.124  29.973  31.647  1.00  0.00     0.167 HD
ATOM     44  C   UNL A   1      42.012  27.128  28.947  1.00  0.00     0.037 A 
ATOM     45  C   UNL A   1      39.832  31.295  34.104  1.00  0.00     0.037 A 
ATOM     46  C   UNL A   1      42.808  27.073  30.147  1.00  0.00     0.049 A 
ATOM     47  C   UNL A   1      41.056  30.439  34.250  1.00  0.00     0.074 A 
ATOM     48  C   UNL A   1      43.964  26.351  30.385  1.00  0.00     0.029 A 
ATOM     49  N   UNL A   1      42.542  27.792  31.303  1.00  0.00    -0.354 N 
ATOM     50  N   UNL A   1      41.603  29.624  33.381  1.00  0.00    -0.248 NA
ATOM     51  C   UNL A   1      41.742  30.480  35.550  1.00  0.00     0.031 C 
ATOM     52  C   UNL A   1      44.386  26.615  31.693  1.00  0.00     0.029 A 
ATOM     53  C   UNL A   1      43.510  27.526  32.258  1.00  0.00     0.049 A 
ATOM     54  H   UNL A   1      41.779  28.403  31.426  1.00  0.00     0.167 HD
ATOM     55  C   UNL A   1      42.685  29.050  34.029  1.00  0.00     0.074 A 
ATOM     56  C   UNL A   1      42.742  29.633  35.353  1.00  0.00     0.031 C 
ATOM     57  C   UNL A   1      43.546  28.108  33.572  1.00  0.00     0.037 A 
BRANCH  44  58
ATOM     58  C   UNL A   1      42.438  26.272  27.792  1.00  0.00     0.064 A 
ATOM     59  C   UNL A   1      41.868  25.015  27.551  1.00  0.00     0.173 A 
ATOM     60  C   UNL A   1      43.386  26.754  26.874  1.00  0.00     0.173 A 
ATOM     61  F   UNL A   1      40.967  24.508  28.403  1.00  0.00    -0.203 F 
ATOM     62  C   UNL A   1      42.241  24.264  26.437  1.00  0.00     0.198 A 
ATOM     63  C   UNL A   1      43.738  26.011  25.750  1.00  0.00     0.198 A 
ATOM     64  F   UNL A   1      43.954  27.956  27.057  1.00  0.00    -0.203 F 
ATOM     65  F   UNL A   1      41.703  23.054  26.237  1.00  0.00    -0.200 F 
ATOM     66  C   UNL A   1      43.168  24.766  25.535  1.00  0.00     0.200 A 
ATOM     67  F   UNL A   1      44.623  26.503  24.873  1.00  0.00    -0.200 F 
ATOM     68  F   UNL A   1      43.512  24.049  24.456  1.00  0.00    -0.200 F 
ENDBRANCH  44  58
BRANCH  45  69
ATOM     69  C   UNL A   1      39.368  32.154  35.225  1.00  0.00     0.064 A 
ATOM     70  C   UNL A   1      39.744  33.501  35.304  1.00  0.00     0.173 A 
ATOM     71  C   UNL A   1      38.536  31.648  36.236  1.00  0.00     0.173 A 
ATOM     72  F   UNL A   1      40.563  34.022  34.379  1.00  0.00    -0.203 F 
ATOM     73  C   UNL A   1      39.309  34.309  36.352  1.00  0.00     0.198 A 
ATOM     74  C   UNL A   1      38.076  32.464  37.266  1.00  0.00     0.198 A 
ATOM     75  F   UNL A   1      38.154  30.363  36.209  1.00  0.00    -0.203 F 
ATOM     76  F   UNL A   1      39.714  35.584  36.426  1.00  0.00    -0.200 F 
ATOM     77  C   UNL A   1      38.467  33.792  37.327  1.00  0.00     0.200 A 
ATOM     78  F   UNL A   1      37.253  31.963  38.196  1.00  0.00    -0.200 F 
ATOM     79  F   UNL A   1      38.040  34.572  38.329  1.00  0.00    -0.200 F 
ENDBRANCH  45  69
BRANCH  57  80
ATOM     80  C   UNL A   1      44.619  27.658  34.514  1.00  0.00     0.064 A 
ATOM     81  C   UNL A   1      45.845  28.335  34.596  1.00  0.00     0.173 A 
ATOM     82  C   UNL A   1      44.416  26.555  35.357  1.00  0.00     0.173 A 
ATOM     83  F   UNL A   1      46.091  29.384  33.796  1.00  0.00    -0.203 F 
ATOM     84  C   UNL A   1      46.837  27.910  35.474  1.00  0.00     0.198 A 
ATOM     85  C   UNL A   1      45.403  26.146  36.247  1.00  0.00     0.198 A 
ATOM     86  F   UNL A   1      43.259  25.877  35.314  1.00  0.00    -0.203 F 
ATOM     87  F   UNL A   1      48.017  28.546  35.507  1.00  0.00    -0.200 F 
ATOM     88  C   UNL A   1      46.614  26.820  36.302  1.00  0.00     0.200 A 
ATOM     89  F   UNL A   1      45.184  25.096  37.051  1.00  0.00    -0.200 F 
ATOM     90  F   UNL A   1      47.571  26.412  37.147  1.00  0.00    -0.200 F 
ENDBRANCH  57  80
ENDBRANCH  31  32
ENDBRANCH  24  26
ENDBRANCH  23  24
ENDBRANCH  22  23
ENDBRANCH   1  22
TORSDOF 14
ENDMDL
MODEL 2
REMARK VINA RESULT:     -11.4      4.458      9.926
REMARK SMILES COc1ccc([C@H]2C[NH2+]C[C@@H]2C(=O)OCCOC(=O)c2ccc(-c3c4nc(c(-c5c(F)c(F)c(F)c(F)c5F)c5ccc([nH]5)c(-c5c(F)c(F)c(F)c(F)c5F)c5nc(c(-c6c(F)c(F)c(F)c(F)c6F)c6ccc3[nH]6)C=C5)C=C4)cc2)cc1OC
REMARK SMILES IDX 15 1 14 2 12 3 13 4 11 5 7 6 8 7 9 8 10 9 6 12 3 13 4 14
REMARK SMILES IDX 84 15 5 16 83 17 2 18 1 19 85 20 86 21 16 22 17 23 18 24
REMARK SMILES IDX 19 25 20 26 21 27 82 28 22 29 81 30 23 31 24 32 25 33 75 34
REMARK SMILES IDX 26 35 80 36 74 37 76 38 27 39 79 40 73 41 72 42 28 44 60 45
REMARK SMILES IDX 40 46 59 47 41 48 44 49 58 50 77 51 42 52 43 53 57 55 78 56
REMARK SMILES IDX 45 57 29 58 30 59 38 60 31 61 32 62 36 63 39 64 33 65 34 66
REMARK SMILES IDX 37 67 35 68 61 69 62 70 70 71 63 72 64 73 68 74 71 75 65 76
REMARK SMILES IDX 66 77 69 78 67 79 46 80 47 81 55 82 48 83 49 84 53 85 56 86
REMARK SMILES IDX 50 87 51 88 54 89 52 90
REMARK H PARENT 9 10 9 11 76 43 44 54
REMARK Flexibility Score: inf
ROOT
ATOM      1  C   UNL A   1      33.677  33.799  28.662  1.00  0.00     0.274 C 
ENDROOT
BRANCH   1   2
ATOM      2  O   UNL A   1      34.662  34.320  29.580  1.00  0.00    -0.462 OA
BRANCH   2   3
ATOM      3  C   UNL A   1      34.750  33.703  30.793  1.00  0.00     0.315 C 
ATOM      4  O   UNL A   1      33.843  33.638  31.610  1.00  0.00    -0.252 OA
BRANCH   3   5
ATOM      5  C   UNL A   1      36.136  33.108  30.992  1.00  0.00     0.167 C 
ATOM      6  C   UNL A   1      36.631  33.295  32.438  1.00  0.00     0.094 C 
ATOM      7  C   UNL A   1      37.342  34.653  32.330  1.00  0.00     0.269 C 
ATOM      8  N   UNL A   1      38.033  34.613  31.035  1.00  0.00    -0.345 N 
ATOM      9  C   UNL A   1      37.133  33.877  30.131  1.00  0.00     0.276 C 
ATOM     10  H   UNL A   1      38.925  34.127  31.121  1.00  0.00     0.346 HD
ATOM     11  H   UNL A   1      38.237  35.549  30.686  1.00  0.00     0.346 HD
BRANCH   6  12
ATOM     12  C   UNL A   1      37.507  32.203  33.053  1.00  0.00    -0.034 A 
ATOM     13  C   UNL A   1      39.135  30.245  34.308  1.00  0.00     0.160 A 
ATOM     14  C   UNL A   1      39.387  31.606  34.497  1.00  0.00     0.051 A 
ATOM     15  C   UNL A   1      38.041  29.849  33.535  1.00  0.00     0.161 A 
ATOM     16  C   UNL A   1      38.583  32.570  33.881  1.00  0.00     0.008 A 
ATOM     17  C   UNL A   1      37.242  30.831  32.924  1.00  0.00     0.054 A 
BRANCH  13  18
ATOM     18  O   UNL A   1      39.901  29.325  34.971  1.00  0.00    -0.493 OA
ATOM     19  C   UNL A   1      41.149  29.091  34.317  1.00  0.00     0.278 C 
ENDBRANCH  13  18
BRANCH  15  20
ATOM     20  O   UNL A   1      37.594  28.577  33.289  1.00  0.00    -0.493 OA
ATOM     21  C   UNL A   1      38.327  27.782  32.368  1.00  0.00     0.278 C 
ENDBRANCH  15  20
ENDBRANCH   6  12
ENDBRANCH   3   5
ENDBRANCH   2   3
ENDBRANCH   1   2
BRANCH   1  22
ATOM     22  C   UNL A   1      34.283  32.698  27.795  1.00  0.00     0.275 C 
BRANCH  22  23
ATOM     23  O   UNL A   1      33.883  31.419  28.318  1.00  0.00    -0.458 OA
BRANCH  23  24
ATOM     24  C   UNL A   1      34.222  30.334  27.589  1.00  0.00     0.338 C 
ATOM     25  O   UNL A   1      33.527  29.743  26.772  1.00  0.00    -0.246 OA
BRANCH  24  26
ATOM     26  C   UNL A   1      35.610  29.944  27.905  1.00  0.00     0.060 A 
ATOM     27  C   UNL A   1      35.937  29.505  29.184  1.00  0.00     0.016 A 
ATOM     28  C   UNL A   1      36.618  30.093  26.952  1.00  0.00     0.016 A 
ATOM     29  C   UNL A   1      37.267  29.315  29.550  1.00  0.00     0.010 A 
ATOM     30  C   UNL A   1      37.941  29.772  27.284  1.00  0.00     0.010 A 
ATOM     31  C   UNL A   1      38.290  29.402  28.597  1.00  0.00    -0.014 A 
BRANCH  31  32
ATOM     32  C   UNL A   1      39.706  29.106  28.968  1.00  0.00     0.031 A 
ATOM     33  C   UNL A   1      40.499  30.081  29.798  1.00  0.00     0.074 A 
ATOM     34  C   UNL A   1      40.296  27.959  28.569  1.00  0.00     0.049 A 
ATOM     35  N   UNL A   1      41.790  30.122  30.021  1.00  0.00    -0.248 NA
ATOM     36  C   UNL A   1      39.746  31.163  30.453  1.00  0.00     0.031 C 
ATOM     37  C   UNL A   1      39.653  26.893  27.799  1.00  0.00     0.029 A 
ATOM     38  N   UNL A   1      41.575  27.492  28.764  1.00  0.00    -0.354 N 
ATOM     39  C   UNL A   1      42.011  31.268  30.774  1.00  0.00     0.074 A 
ATOM     40  C   UNL A   1      40.720  31.889  30.987  1.00  0.00     0.031 C 
ATOM     41  C   UNL A   1      40.514  25.878  27.640  1.00  0.00     0.029 A 
ATOM     42  C   UNL A   1      41.807  26.265  28.190  1.00  0.00     0.049 A 
ATOM     43  H   UNL A   1      42.260  27.990  29.266  1.00  0.00     0.167 HD
ATOM     44  C   UNL A   1      43.184  31.758  31.241  1.00  0.00     0.037 A 
ATOM     45  C   UNL A   1      42.940  25.548  28.066  1.00  0.00     0.037 A 
ATOM     46  C   UNL A   1      44.459  31.102  31.095  1.00  0.00     0.049 A 
ATOM     47  C   UNL A   1      44.231  26.120  28.574  1.00  0.00     0.074 A 
ATOM     48  C   UNL A   1      45.700  31.515  31.546  1.00  0.00     0.029 A 
ATOM     49  N   UNL A   1      44.649  29.878  30.471  1.00  0.00    -0.354 N 
ATOM     50  N   UNL A   1      44.443  27.251  29.201  1.00  0.00    -0.248 NA
ATOM     51  C   UNL A   1      45.448  25.334  28.323  1.00  0.00     0.031 C 
ATOM     52  C   UNL A   1      46.646  30.553  31.175  1.00  0.00     0.029 A 
ATOM     53  C   UNL A   1      45.989  29.525  30.521  1.00  0.00     0.049 A 
ATOM     54  H   UNL A   1      43.937  29.339  30.055  1.00  0.00     0.167 HD
ATOM     55  C   UNL A   1      45.812  27.319  29.408  1.00  0.00     0.074 A 
ATOM     56  C   UNL A   1      46.380  26.100  28.873  1.00  0.00     0.031 C 
ATOM     57  C   UNL A   1      46.536  28.313  29.976  1.00  0.00     0.037 A 
BRANCH  44  58
ATOM     58  C   UNL A   1      43.163  33.088  31.934  1.00  0.00     0.064 A 
ATOM     59  C   UNL A   1      43.351  34.289  31.238  1.00  0.00     0.173 A 
ATOM     60  C   UNL A   1      42.881  33.158  33.308  1.00  0.00     0.173 A 
ATOM     61  F   UNL A   1      43.632  34.273  29.928  1.00  0.00    -0.203 F 
ATOM     62  C   UNL A   1      43.268  35.515  31.896  1.00  0.00     0.198 A 
ATOM     63  C   UNL A   1      42.777  34.386  33.957  1.00  0.00     0.198 A 
ATOM     64  F   UNL A   1      42.686  32.035  34.017  1.00  0.00    -0.203 F 
ATOM     65  F   UNL A   1      43.477  36.652  31.218  1.00  0.00    -0.200 F 
ATOM     66  C   UNL A   1      42.975  35.563  33.251  1.00  0.00     0.200 A 
ATOM     67  F   UNL A   1      42.479  34.429  35.263  1.00  0.00    -0.200 F 
ATOM     68  F   UNL A   1      42.880  36.743  33.878  1.00  0.00    -0.200 F 
ENDBRANCH  44  58
BRANCH  45  69
ATOM     69  C   UNL A   1      42.914  24.235  27.367  1.00  0.00     0.064 A 
ATOM     70  C   UNL A   1      43.247  24.134  26.011  1.00  0.00     0.173 A 
ATOM     71  C   UNL A   1      42.561  23.057  28.043  1.00  0.00     0.173 A 
ATOM     72  F   UNL A   1      43.560  25.237  25.315  1.00  0.00    -0.203 F 
ATOM     73  C   UNL A   1      43.225  22.905  25.355  1.00  0.00     0.198 A 
ATOM     74  C   UNL A   1      42.571  21.824  27.395  1.00  0.00     0.198 A 
ATOM     75  F   UNL A   1      42.228  23.101  29.341  1.00  0.00    -0.203 F 
ATOM     76  F   UNL A   1      43.511  22.840  24.048  1.00  0.00    -0.200 F 
ATOM     77  C   UNL A   1      42.897  21.750  26.050  1.00  0.00     0.200 A 
ATOM     78  F   UNL A   1      42.266  20.711  28.075  1.00  0.00    -0.200 F 
ATOM     79  F   UNL A   1      42.888  20.567  25.422  1.00  0.00    -0.200 F 
ENDBRANCH  45  69
BRANCH  57  80
ATOM     80  C   UNL A   1      48.019  28.115  30.046  1.00  0.00     0.064 A 
ATOM     81  C   UNL A   1      48.615  27.474  31.142  1.00  0.00     0.173 A 
ATOM     82  C   UNL A   1      48.850  28.551  29.003  1.00  0.00     0.173 A 
ATOM     83  F   UNL A   1      47.862  27.058  32.171  1.00  0.00    -0.203 F 
ATOM     84  C   UNL A   1      49.994  27.295  31.200  1.00  0.00     0.198 A 
ATOM     85  C   UNL A   1      50.225  28.350  29.055  1.00  0.00     0.198 A 
ATOM     86  F   UNL A   1      48.324  29.168  27.934  1.00  0.00    -0.203 F 
ATOM     87  F   UNL A   1      50.548  26.716  32.275  1.00  0.00    -0.200 F 
ATOM     88  C   UNL A   1      50.797  27.728  30.155  1.00  0.00     0.200 A 
ATOM     89  F   UNL A   1      51.000  28.765  28.043  1.00  0.00    -0.200 F 
ATOM     90  F   UNL A   1      52.124  27.554  30.213  1.00  0.00    -0.200 F 
ENDBRANCH  57  80
ENDBRANCH  31  32
ENDBRANCH  24  26
ENDBRANCH  23  24
ENDBRANCH  22  23
ENDBRANCH   1  22
TORSDOF 14
ENDMDL
MODEL 3
REMARK VINA RESULT:     -11.4      0.219      1.715
REMARK SMILES COc1ccc([C@H]2C[NH2+]C[C@@H]2C(=O)OCCOC(=O)c2ccc(-c3c4nc(c(-c5c(F)c(F)c(F)c(F)c5F)c5ccc([nH]5)c(-c5c(F)c(F)c(F)c(F)c5F)c5nc(c(-c6c(F)c(F)c(F)c(F)c6F)c6ccc3[nH]6)C=C5)C=C4)cc2)cc1OC
REMARK SMILES IDX 15 1 14 2 12 3 13 4 11 5 7 6 8 7 9 8 10 9 6 12 3 13 4 14
REMARK SMILES IDX 84 15 5 16 83 17 2 18 1 19 85 20 86 21 16 22 17 23 18 24
REMARK SMILES IDX 19 25 20 26 21 27 82 28 22 29 81 30 23 31 24 32 25 33 75 34
REMARK SMILES IDX 26 35 80 36 74 37 76 38 27 39 79 40 73 41 72 42 28 44 60 45
REMARK SMILES IDX 40 46 59 47 41 48 44 49 58 50 77 51 42 52 43 53 57 55 78 56
REMARK SMILES IDX 45 57 29 58 30 59 38 60 31 61 32 62 36 63 39 64 33 65 34 66
REMARK SMILES IDX 37 67 35 68 61 69 62 70 70 71 63 72 64 73 68 74 71 75 65 76
REMARK SMILES IDX 66 77 69 78 67 79 46 80 47 81 55 82 48 83 49 84 53 85 56 86
REMARK SMILES IDX 50 87 51 88 54 89 52 90
REMARK H PARENT 9 10 9 11 76 43 44 54
REMARK Flexibility Score: inf
ROOT
ATOM      1  C   UNL A   1      31.659  28.290  26.065  1.00  0.00     0.274 C 
ENDROOT
BRANCH   1   2
ATOM      2  O   UNL A   1      31.392  27.275  25.073  1.00  0.00    -0.462 OA
BRANCH   2   3
ATOM      3  C   UNL A   1      31.088  26.031  25.544  1.00  0.00     0.315 C 
ATOM      4  O   UNL A   1      30.344  25.805  26.489  1.00  0.00    -0.252 OA
BRANCH   3   5
ATOM      5  C   UNL A   1      31.805  24.961  24.735  1.00  0.00     0.167 C 
ATOM      6  C   UNL A   1      32.864  24.226  25.579  1.00  0.00     0.094 C 
ATOM      7  C   UNL A   1      34.100  25.103  25.323  1.00  0.00     0.269 C 
ATOM      8  N   UNL A   1      34.025  25.453  23.899  1.00  0.00    -0.345 N 
ATOM      9  C   UNL A   1      32.591  25.633  23.613  1.00  0.00     0.276 C 
ATOM     10  H   UNL A   1      34.410  24.703  23.326  1.00  0.00     0.346 HD
ATOM     11  H   UNL A   1      34.561  26.295  23.688  1.00  0.00     0.346 HD
BRANCH   6  12
ATOM     12  C   UNL A   1      33.110  22.742  25.304  1.00  0.00    -0.034 A 
ATOM     13  C   UNL A   1      33.483  19.997  24.689  1.00  0.00     0.160 A 
ATOM     14  C   UNL A   1      32.210  20.570  24.634  1.00  0.00     0.051 A 
ATOM     15  C   UNL A   1      34.585  20.796  25.000  1.00  0.00     0.161 A 
ATOM     16  C   UNL A   1      32.028  21.924  24.934  1.00  0.00     0.008 A 
ATOM     17  C   UNL A   1      34.384  22.156  25.298  1.00  0.00     0.054 A 
BRANCH  13  18
ATOM     18  O   UNL A   1      33.641  18.685  24.332  1.00  0.00    -0.493 OA
ATOM     19  C   UNL A   1      32.879  17.806  25.161  1.00  0.00     0.278 C 
ENDBRANCH  13  18
BRANCH  15  20
ATOM     20  O   UNL A   1      35.907  20.438  25.040  1.00  0.00    -0.493 OA
ATOM     21  C   UNL A   1      36.862  21.450  25.323  1.00  0.00     0.278 C 
ENDBRANCH  15  20
ENDBRANCH   6  12
ENDBRANCH   3   5
ENDBRANCH   2   3
ENDBRANCH   1   2
BRANCH   1  22
ATOM     22  C   UNL A   1      31.803  29.659  25.403  1.00  0.00     0.275 C 
BRANCH  22  23
ATOM     23  O   UNL A   1      33.092  30.204  25.737  1.00  0.00    -0.458 OA
BRANCH  23  24
ATOM     24  C   UNL A   1      33.127  31.100  26.745  1.00  0.00     0.338 C 
ATOM     25  O   UNL A   1      32.315  31.988  26.977  1.00  0.00    -0.246 OA
BRANCH  24  26
ATOM     26  C   UNL A   1      34.316  30.851  27.584  1.00  0.00     0.060 A 
ATOM     27  C   UNL A   1      35.181  31.896  27.894  1.00  0.00     0.016 A 
ATOM     28  C   UNL A   1      34.627  29.557  27.999  1.00  0.00     0.016 A 
ATOM     29  C   UNL A   1      36.399  31.645  28.520  1.00  0.00     0.010 A 
ATOM     30  C   UNL A   1      35.789  29.327  28.747  1.00  0.00     0.010 A 
ATOM     31  C   UNL A   1      36.707  30.365  28.996  1.00  0.00    -0.014 A 
BRANCH  31  32
ATOM     32  C   UNL A   1      37.972  30.115  29.751  1.00  0.00     0.031 A 
ATOM     33  C   UNL A   1      39.056  29.250  29.162  1.00  0.00     0.074 A 
ATOM     34  C   UNL A   1      38.165  30.662  30.970  1.00  0.00     0.049 A 
ATOM     35  N   UNL A   1      40.106  28.726  29.745  1.00  0.00    -0.248 NA
ATOM     36  C   UNL A   1      38.939  28.918  27.733  1.00  0.00     0.031 C 
ATOM     37  C   UNL A   1      37.234  31.556  31.661  1.00  0.00     0.029 A 
ATOM     38  N   UNL A   1      39.219  30.552  31.847  1.00  0.00    -0.354 N 
ATOM     39  C   UNL A   1      40.729  27.946  28.778  1.00  0.00     0.074 A 
ATOM     40  C   UNL A   1      39.951  28.077  27.565  1.00  0.00     0.031 C 
ATOM     41  C   UNL A   1      37.778  31.959  32.817  1.00  0.00     0.029 A 
ATOM     42  C   UNL A   1      39.044  31.262  33.011  1.00  0.00     0.049 A 
ATOM     43  H   UNL A   1      40.022  30.014  31.660  1.00  0.00     0.167 HD
ATOM     44  C   UNL A   1      41.845  27.187  28.896  1.00  0.00     0.037 A 
ATOM     45  C   UNL A   1      39.782  31.312  34.135  1.00  0.00     0.037 A 
ATOM     46  C   UNL A   1      42.662  27.116  30.081  1.00  0.00     0.049 A 
ATOM     47  C   UNL A   1      41.005  30.448  34.250  1.00  0.00     0.074 A 
ATOM     48  C   UNL A   1      43.819  26.385  30.291  1.00  0.00     0.029 A 
ATOM     49  N   UNL A   1      42.422  27.824  31.249  1.00  0.00    -0.354 N 
ATOM     50  N   UNL A   1      41.531  29.639  33.363  1.00  0.00    -0.248 NA
ATOM     51  C   UNL A   1      41.715  30.472  35.537  1.00  0.00     0.031 C 
ATOM     52  C   UNL A   1      44.266  26.633  31.593  1.00  0.00     0.029 A 
ATOM     53  C   UNL A   1      43.406  27.543  32.184  1.00  0.00     0.049 A 
ATOM     54  H   UNL A   1      41.664  28.437  31.392  1.00  0.00     0.167 HD
ATOM     55  C   UNL A   1      42.622  29.053  33.985  1.00  0.00     0.074 A 
ATOM     56  C   UNL A   1      42.706  29.622  35.313  1.00  0.00     0.031 C 
ATOM     57  C   UNL A   1      43.468  28.111  33.503  1.00  0.00     0.037 A 
BRANCH  44  58
ATOM     58  C   UNL A   1      42.245  26.341  27.725  1.00  0.00     0.064 A 
ATOM     59  C   UNL A   1      43.245  26.742  26.828  1.00  0.00     0.173 A 
ATOM     60  C   UNL A   1      41.662  25.077  27.541  1.00  0.00     0.173 A 
ATOM     61  F   UNL A   1      43.824  27.944  26.957  1.00  0.00    -0.203 F 
ATOM     62  C   UNL A   1      43.639  25.911  25.781  1.00  0.00     0.198 A 
ATOM     63  C   UNL A   1      42.075  24.241  26.507  1.00  0.00     0.198 A 
ATOM     64  F   UNL A   1      40.706  24.645  28.378  1.00  0.00    -0.203 F 
ATOM     65  F   UNL A   1      44.579  26.323  24.919  1.00  0.00    -0.200 F 
ATOM     66  C   UNL A   1      43.060  24.660  25.626  1.00  0.00     0.200 A 
ATOM     67  F   UNL A   1      41.524  23.027  26.368  1.00  0.00    -0.200 F 
ATOM     68  F   UNL A   1      43.452  23.856  24.628  1.00  0.00    -0.200 F 
ENDBRANCH  44  58
BRANCH  45  69
ATOM     69  C   UNL A   1      39.345  32.162  35.274  1.00  0.00     0.064 A 
ATOM     70  C   UNL A   1      38.546  31.639  36.299  1.00  0.00     0.173 A 
ATOM     71  C   UNL A   1      39.720  33.512  35.362  1.00  0.00     0.173 A 
ATOM     72  F   UNL A   1      38.136  30.364  36.243  1.00  0.00    -0.203 F 
ATOM     73  C   UNL A   1      38.137  32.434  37.367  1.00  0.00     0.198 A 
ATOM     74  C   UNL A   1      39.337  34.297  36.446  1.00  0.00     0.198 A 
ATOM     75  F   UNL A   1      40.478  34.062  34.402  1.00  0.00    -0.203 F 
ATOM     76  F   UNL A   1      37.342  31.920  38.316  1.00  0.00    -0.200 F 
ATOM     77  C   UNL A   1      38.541  33.759  37.446  1.00  0.00     0.200 A 
ATOM     78  F   UNL A   1      39.741  35.571  36.523  1.00  0.00    -0.200 F 
ATOM     79  F   UNL A   1      38.157  34.519  38.479  1.00  0.00    -0.200 F 
ENDBRANCH  45  69
BRANCH  57  80
ATOM     80  C   UNL A   1      44.557  27.645  34.420  1.00  0.00     0.064 A 
ATOM     81  C   UNL A   1      45.786  28.316  34.487  1.00  0.00     0.173 A 
ATOM     82  C   UNL A   1      44.363  26.534  35.253  1.00  0.00     0.173 A 
ATOM     83  F   UNL A   1      46.023  29.373  33.696  1.00  0.00    -0.203 F 
ATOM     84  C   UNL A   1      46.793  27.876  35.343  1.00  0.00     0.198 A 
ATOM     85  C   UNL A   1      45.364  26.110  36.121  1.00  0.00     0.198 A 
ATOM     86  F   UNL A   1      43.203  25.861  35.223  1.00  0.00    -0.203 F 
ATOM     87  F   UNL A   1      47.976  28.507  35.362  1.00  0.00    -0.200 F 
ATOM     88  C   UNL A   1      46.579  26.778  36.162  1.00  0.00     0.200 A 
ATOM     89  F   UNL A   1      45.155  25.051  36.916  1.00  0.00    -0.200 F 
ATOM     90  F   UNL A   1      47.549  26.356  36.985  1.00  0.00    -0.200 F 
ENDBRANCH  57  80
ENDBRANCH  31  32
ENDBRANCH  24  26
ENDBRANCH  23  24
ENDBRANCH  22  23
ENDBRANCH   1  22
TORSDOF 14
ENDMDL
