MODEL 1
REMARK VINA RESULT:     -11.4      0.000      0.000
REMARK SMILES CC(C)N(CC1CC1)C(=O)N1CC[C@H](C(=O)OCCOC(=O)c2ccc(-c3c4nc(c(-c5c(F)c(F)c(F)c(F)c5F)c5ccc([nH]5)c(-c5c(F)c(F)c(F)c(F)c5F)c5nc(c(-c6c(F)c(F)c(F)c(F)c6F)c6ccc3[nH]6)C=C5)C=C4)cc2)[C@H]1C
REMARK SMILES IDX 18 1 17 2 15 3 16 4 14 5 11 6 12 7 86 8 13 9 87 10 9 11
REMARK SMILES IDX 10 12 4 13 2 14 1 15 3 16 5 17 6 18 7 19 8 20 19 21 20 22
REMARK SMILES IDX 21 23 22 24 23 25 24 26 85 27 25 28 84 29 26 30 27 31 28 32
REMARK SMILES IDX 78 33 29 34 83 35 77 36 79 37 30 38 82 39 76 40 75 41 31 43
REMARK SMILES IDX 63 44 43 45 62 46 44 47 47 48 61 49 80 50 45 51 46 52 60 54
REMARK SMILES IDX 81 55 48 56 32 57 33 58 41 59 34 60 35 61 39 62 42 63 36 64
REMARK SMILES IDX 37 65 40 66 38 67 64 68 65 69 73 70 66 71 67 72 71 73 74 74
REMARK SMILES IDX 68 75 69 76 72 77 70 78 49 79 50 80 58 81 51 82 52 83 56 84
REMARK SMILES IDX 59 85 53 86 54 87 57 88 55 89
REMARK H PARENT 79 42 47 53
REMARK Flexibility Score: inf
ROOT
ATOM      1  C   UNL A   1      31.982  29.005  25.082  1.00  0.00     0.274 C 
ENDROOT
BRANCH   1   2
ATOM      2  O   UNL A   1      31.523  28.015  26.023  1.00  0.00    -0.462 OA
BRANCH   2   3
ATOM      3  C   UNL A   1      32.230  26.850  26.076  1.00  0.00     0.311 C 
ATOM      4  O   UNL A   1      33.437  26.761  25.923  1.00  0.00    -0.252 OA
BRANCH   3   5
ATOM      5  C   UNL A   1      31.287  25.684  26.287  1.00  0.00     0.123 C 
ATOM      6  N   UNL A   1      31.564  24.077  24.519  1.00  0.00    -0.321 N 
ATOM      7  C   UNL A   1      30.583  25.077  24.094  1.00  0.00     0.122 C 
ATOM      8  C   UNL A   1      31.912  24.314  25.938  1.00  0.00     0.098 C 
ATOM      9  C   UNL A   1      30.086  25.767  25.353  1.00  0.00     0.039 C 
ATOM     10  C   UNL A   1      31.286  23.290  26.895  1.00  0.00     0.032 C 
BRANCH   6  11
ATOM     11  C   UNL A   1      32.504  23.725  23.549  1.00  0.00     0.320 C 
ATOM     12  O   UNL A   1      32.694  24.469  22.584  1.00  0.00    -0.248 OA
BRANCH  11  13
ATOM     13  N   UNL A   1      33.106  22.471  23.609  1.00  0.00    -0.322 N 
BRANCH  13  14
ATOM     14  C   UNL A   1      32.246  21.266  23.468  1.00  0.00     0.080 C 
ATOM     15  C   UNL A   1      31.863  21.001  22.007  1.00  0.00     0.031 C 
ATOM     16  C   UNL A   1      32.794  20.002  24.129  1.00  0.00     0.031 C 
ENDBRANCH  13  14
BRANCH  13  17
ATOM     17  C   UNL A   1      34.438  22.211  24.150  1.00  0.00     0.125 C 
BRANCH  17  18
ATOM     18  C   UNL A   1      35.511  23.179  23.719  1.00  0.00     0.009 C 
ATOM     19  C   UNL A   1      36.743  23.501  24.537  1.00  0.00     0.006 C 
ATOM     20  C   UNL A   1      36.874  22.734  23.254  1.00  0.00     0.006 C 
ENDBRANCH  17  18
ENDBRANCH  13  17
ENDBRANCH  11  13
ENDBRANCH   6  11
ENDBRANCH   3   5
ENDBRANCH   2   3
ENDBRANCH   1   2
BRANCH   1  21
ATOM     21  C   UNL A   1      31.755  30.416  25.618  1.00  0.00     0.275 C 
BRANCH  21  22
ATOM     22  O   UNL A   1      32.246  30.523  26.966  1.00  0.00    -0.458 OA
BRANCH  22  23
ATOM     23  C   UNL A   1      32.971  31.627  27.244  1.00  0.00     0.338 C 
ATOM     24  O   UNL A   1      32.600  32.791  27.221  1.00  0.00    -0.246 OA
BRANCH  23  25
ATOM     25  C   UNL A   1      34.336  31.241  27.629  1.00  0.00     0.060 A 
ATOM     26  C   UNL A   1      34.626  29.898  27.826  1.00  0.00     0.016 A 
ATOM     27  C   UNL A   1      35.279  32.215  27.964  1.00  0.00     0.016 A 
ATOM     28  C   UNL A   1      35.812  29.542  28.463  1.00  0.00     0.010 A 
ATOM     29  C   UNL A   1      36.507  31.837  28.532  1.00  0.00     0.010 A 
ATOM     30  C   UNL A   1      36.765  30.496  28.860  1.00  0.00    -0.014 A 
BRANCH  30  31
ATOM     31  C   UNL A   1      37.936  30.087  29.711  1.00  0.00     0.031 A 
ATOM     32  C   UNL A   1      39.126  29.374  29.100  1.00  0.00     0.074 A 
ATOM     33  C   UNL A   1      38.012  30.432  31.014  1.00  0.00     0.049 A 
ATOM     34  N   UNL A   1      40.150  28.810  29.699  1.00  0.00    -0.248 NA
ATOM     35  C   UNL A   1      39.167  29.256  27.635  1.00  0.00     0.031 C 
ATOM     36  C   UNL A   1      36.990  31.164  31.759  1.00  0.00     0.029 A 
ATOM     37  N   UNL A   1      39.031  30.278  31.928  1.00  0.00    -0.354 N 
ATOM     38  C   UNL A   1      40.874  28.168  28.702  1.00  0.00     0.074 A 
ATOM     39  C   UNL A   1      40.209  28.457  27.450  1.00  0.00     0.031 C 
ATOM     40  C   UNL A   1      37.489  31.530  32.949  1.00  0.00     0.029 A 
ATOM     41  C   UNL A   1      38.818  30.950  33.109  1.00  0.00     0.049 A 
ATOM     42  H   UNL A   1      39.835  29.737  31.752  1.00  0.00     0.167 HD
ATOM     43  C   UNL A   1      41.976  27.388  28.825  1.00  0.00     0.037 A 
ATOM     44  C   UNL A   1      39.593  31.076  34.204  1.00  0.00     0.037 A 
ATOM     45  C   UNL A   1      42.715  27.206  30.048  1.00  0.00     0.049 A 
ATOM     46  C   UNL A   1      40.870  30.286  34.297  1.00  0.00     0.074 A 
ATOM     47  C   UNL A   1      43.828  26.413  30.280  1.00  0.00     0.029 A 
ATOM     48  N   UNL A   1      42.446  27.867  31.235  1.00  0.00    -0.354 N 
ATOM     49  N   UNL A   1      41.449  29.538  33.391  1.00  0.00    -0.248 NA
ATOM     50  C   UNL A   1      41.566  30.305  35.594  1.00  0.00     0.031 C 
ATOM     51  C   UNL A   1      44.223  26.585  31.611  1.00  0.00     0.029 A 
ATOM     52  C   UNL A   1      43.376  27.509  32.199  1.00  0.00     0.049 A 
ATOM     53  H   UNL A   1      41.704  28.499  31.374  1.00  0.00     0.167 HD
ATOM     54  C   UNL A   1      42.547  28.965  34.018  1.00  0.00     0.074 A 
ATOM     55  C   UNL A   1      42.597  29.507  35.359  1.00  0.00     0.031 C 
ATOM     56  C   UNL A   1      43.409  28.038  33.536  1.00  0.00     0.037 A 
BRANCH  43  57
ATOM     57  C   UNL A   1      42.423  26.607  27.623  1.00  0.00     0.064 A 
ATOM     58  C   UNL A   1      43.423  27.062  26.755  1.00  0.00     0.173 A 
ATOM     59  C   UNL A   1      41.869  25.339  27.380  1.00  0.00     0.173 A 
ATOM     60  F   UNL A   1      43.974  28.271  26.935  1.00  0.00    -0.203 F 
ATOM     61  C   UNL A   1      43.842  26.283  25.677  1.00  0.00     0.198 A 
ATOM     62  C   UNL A   1      42.308  24.553  26.319  1.00  0.00     0.198 A 
ATOM     63  F   UNL A   1      40.914  24.852  28.187  1.00  0.00    -0.203 F 
ATOM     64  F   UNL A   1      44.776  26.750  24.837  1.00  0.00    -0.200 F 
ATOM     65  C   UNL A   1      43.290  25.026  25.466  1.00  0.00     0.200 A 
ATOM     66  F   UNL A   1      41.784  23.333  26.128  1.00  0.00    -0.200 F 
ATOM     67  F   UNL A   1      43.705  24.275  24.437  1.00  0.00    -0.200 F 
ENDBRANCH  43  57
BRANCH  44  68
ATOM     68  C   UNL A   1      39.176  31.963  35.324  1.00  0.00     0.064 A 
ATOM     69  C   UNL A   1      39.544  33.317  35.332  1.00  0.00     0.173 A 
ATOM     70  C   UNL A   1      38.417  31.491  36.402  1.00  0.00     0.173 A 
ATOM     71  F   UNL A   1      40.305  33.810  34.342  1.00  0.00    -0.203 F 
ATOM     72  C   UNL A   1      39.169  34.160  36.374  1.00  0.00     0.198 A 
ATOM     73  C   UNL A   1      38.009  32.344  37.426  1.00  0.00     0.198 A 
ATOM     74  F   UNL A   1      38.052  30.201  36.455  1.00  0.00    -0.203 F 
ATOM     75  F   UNL A   1      39.574  35.438  36.380  1.00  0.00    -0.200 F 
ATOM     76  C   UNL A   1      38.391  33.676  37.415  1.00  0.00     0.200 A 
ATOM     77  F   UNL A   1      37.249  31.873  38.424  1.00  0.00    -0.200 F 
ATOM     78  F   UNL A   1      38.019  34.490  38.413  1.00  0.00    -0.200 F 
ENDBRANCH  44  68
BRANCH  56  79
ATOM     79  C   UNL A   1      44.456  27.522  34.476  1.00  0.00     0.064 A 
ATOM     80  C   UNL A   1      44.236  26.361  35.234  1.00  0.00     0.173 A 
ATOM     81  C   UNL A   1      45.695  28.166  34.601  1.00  0.00     0.173 A 
ATOM     82  F   UNL A   1      43.061  25.719  35.157  1.00  0.00    -0.203 F 
ATOM     83  C   UNL A   1      45.211  25.877  36.100  1.00  0.00     0.198 A 
ATOM     84  C   UNL A   1      46.676  27.665  35.453  1.00  0.00     0.198 A 
ATOM     85  F   UNL A   1      45.955  29.276  33.895  1.00  0.00    -0.203 F 
ATOM     86  F   UNL A   1      44.965  24.789  36.843  1.00  0.00    -0.200 F 
ATOM     87  C   UNL A   1      46.432  26.526  36.206  1.00  0.00     0.200 A 
ATOM     88  F   UNL A   1      47.859  28.288  35.550  1.00  0.00    -0.200 F 
ATOM     89  F   UNL A   1      47.371  26.056  37.040  1.00  0.00    -0.200 F 
ENDBRANCH  56  79
ENDBRANCH  30  31
ENDBRANCH  23  25
ENDBRANCH  22  23
ENDBRANCH  21  22
ENDBRANCH   1  21
TORSDOF 16
ENDMDL
MODEL 2
REMARK VINA RESULT:     -11.3      4.338      9.792
REMARK SMILES CC(C)N(CC1CC1)C(=O)N1CC[C@H](C(=O)OCCOC(=O)c2ccc(-c3c4nc(c(-c5c(F)c(F)c(F)c(F)c5F)c5ccc([nH]5)c(-c5c(F)c(F)c(F)c(F)c5F)c5nc(c(-c6c(F)c(F)c(F)c(F)c6F)c6ccc3[nH]6)C=C5)C=C4)cc2)[C@H]1C
REMARK SMILES IDX 18 1 17 2 15 3 16 4 14 5 11 6 12 7 86 8 13 9 87 10 9 11
REMARK SMILES IDX 10 12 4 13 2 14 1 15 3 16 5 17 6 18 7 19 8 20 19 21 20 22
REMARK SMILES IDX 21 23 22 24 23 25 24 26 85 27 25 28 84 29 26 30 27 31 28 32
REMARK SMILES IDX 78 33 29 34 83 35 77 36 79 37 30 38 82 39 76 40 75 41 31 43
REMARK SMILES IDX 63 44 43 45 62 46 44 47 47 48 61 49 80 50 45 51 46 52 60 54
REMARK SMILES IDX 81 55 48 56 32 57 33 58 41 59 34 60 35 61 39 62 42 63 36 64
REMARK SMILES IDX 37 65 40 66 38 67 64 68 65 69 73 70 66 71 67 72 71 73 74 74
REMARK SMILES IDX 68 75 69 76 72 77 70 78 49 79 50 80 58 81 51 82 52 83 56 84
REMARK SMILES IDX 59 85 53 86 54 87 57 88 55 89
REMARK H PARENT 79 42 47 53
REMARK Flexibility Score: inf
ROOT
ATOM      1  C   UNL A   1      35.932  20.243  25.016  1.00  0.00     0.274 C 
ENDROOT
BRANCH   1   2
ATOM      2  O   UNL A   1      35.624  21.219  26.029  1.00  0.00    -0.462 OA
BRANCH   2   3
ATOM      3  C   UNL A   1      34.302  21.470  26.254  1.00  0.00     0.311 C 
ATOM      4  O   UNL A   1      33.750  21.370  27.336  1.00  0.00    -0.252 OA
BRANCH   3   5
ATOM      5  C   UNL A   1      33.616  21.825  24.951  1.00  0.00     0.123 C 
ATOM      6  N   UNL A   1      31.877  23.436  25.355  1.00  0.00    -0.321 N 
ATOM      7  C   UNL A   1      31.322  22.093  25.535  1.00  0.00     0.122 C 
ATOM      8  C   UNL A   1      33.257  23.323  24.832  1.00  0.00     0.098 C 
ATOM      9  C   UNL A   1      32.265  21.132  24.830  1.00  0.00     0.039 C 
ATOM     10  C   UNL A   1      33.373  23.684  23.344  1.00  0.00     0.032 C 
BRANCH   6  11
ATOM     11  C   UNL A   1      31.501  24.363  26.328  1.00  0.00     0.320 C 
ATOM     12  O   UNL A   1      31.122  23.969  27.434  1.00  0.00    -0.248 OA
BRANCH  11  13
ATOM     13  N   UNL A   1      31.419  25.712  25.987  1.00  0.00    -0.322 N 
BRANCH  13  14
ATOM     14  C   UNL A   1      32.384  26.657  26.609  1.00  0.00     0.080 C 
ATOM     15  C   UNL A   1      33.622  26.875  25.732  1.00  0.00     0.031 C 
ATOM     16  C   UNL A   1      31.784  27.991  27.052  1.00  0.00     0.031 C 
ENDBRANCH  13  14
BRANCH  13  17
ATOM     17  C   UNL A   1      30.263  26.343  25.358  1.00  0.00     0.125 C 
BRANCH  17  18
ATOM     18  C   UNL A   1      30.307  26.421  23.853  1.00  0.00     0.009 C 
ATOM     19  C   UNL A   1      29.803  27.599  23.048  1.00  0.00     0.006 C 
ATOM     20  C   UNL A   1      31.272  27.306  23.108  1.00  0.00     0.006 C 
ENDBRANCH  17  18
ENDBRANCH  13  17
ENDBRANCH  11  13
ENDBRANCH   6  11
ENDBRANCH   3   5
ENDBRANCH   2   3
ENDBRANCH   1   2
BRANCH   1  21
ATOM     21  C   UNL A   1      37.438  20.020  24.909  1.00  0.00     0.275 C 
BRANCH  21  22
ATOM     22  O   UNL A   1      38.147  21.214  25.285  1.00  0.00    -0.458 OA
BRANCH  22  23
ATOM     23  C   UNL A   1      39.269  21.029  26.011  1.00  0.00     0.338 C 
ATOM     24  O   UNL A   1      39.915  20.001  26.142  1.00  0.00    -0.246 OA
BRANCH  23  25
ATOM     25  C   UNL A   1      39.665  22.296  26.644  1.00  0.00     0.060 A 
ATOM     26  C   UNL A   1      39.073  23.476  26.216  1.00  0.00     0.016 A 
ATOM     27  C   UNL A   1      40.741  22.336  27.534  1.00  0.00     0.016 A 
ATOM     28  C   UNL A   1      39.634  24.695  26.591  1.00  0.00     0.010 A 
ATOM     29  C   UNL A   1      41.245  23.572  27.968  1.00  0.00     0.010 A 
ATOM     30  C   UNL A   1      40.746  24.778  27.446  1.00  0.00    -0.014 A 
BRANCH  30  31
ATOM     31  C   UNL A   1      41.433  26.097  27.669  1.00  0.00     0.031 A 
ATOM     32  C   UNL A   1      40.867  27.109  28.645  1.00  0.00     0.074 A 
ATOM     33  C   UNL A   1      42.621  26.378  27.093  1.00  0.00     0.049 A 
ATOM     34  N   UNL A   1      41.232  28.354  28.851  1.00  0.00    -0.248 NA
ATOM     35  C   UNL A   1      39.734  26.684  29.481  1.00  0.00     0.031 C 
ATOM     36  C   UNL A   1      43.344  25.504  26.169  1.00  0.00     0.029 A 
ATOM     37  N   UNL A   1      43.471  27.448  27.258  1.00  0.00    -0.354 N 
ATOM     38  C   UNL A   1      40.300  28.887  29.733  1.00  0.00     0.074 A 
ATOM     39  C   UNL A   1      39.384  27.820  30.071  1.00  0.00     0.031 C 
ATOM     40  C   UNL A   1      44.578  25.991  25.977  1.00  0.00     0.029 A 
ATOM     41  C   UNL A   1      44.697  27.278  26.656  1.00  0.00     0.049 A 
ATOM     42  H   UNL A   1      43.225  28.259  27.759  1.00  0.00     0.167 HD
ATOM     43  C   UNL A   1      40.204  30.158  30.196  1.00  0.00     0.037 A 
ATOM     44  C   UNL A   1      45.787  28.068  26.637  1.00  0.00     0.037 A 
ATOM     45  C   UNL A   1      41.186  31.187  29.966  1.00  0.00     0.049 A 
ATOM     46  C   UNL A   1      45.711  29.443  27.242  1.00  0.00     0.074 A 
ATOM     47  C   UNL A   1      41.164  32.513  30.370  1.00  0.00     0.029 A 
ATOM     48  N   UNL A   1      42.393  30.991  29.316  1.00  0.00    -0.354 N 
ATOM     49  N   UNL A   1      44.740  29.994  27.927  1.00  0.00    -0.248 NA
ATOM     50  C   UNL A   1      46.860  30.332  27.010  1.00  0.00     0.031 C 
ATOM     51  C   UNL A   1      42.352  33.121  29.951  1.00  0.00     0.029 A 
ATOM     52  C   UNL A   1      43.127  32.167  29.315  1.00  0.00     0.049 A 
ATOM     53  H   UNL A   1      42.686  30.142  28.914  1.00  0.00     0.167 HD
ATOM     54  C   UNL A   1      45.140  31.301  28.168  1.00  0.00     0.074 A 
ATOM     55  C   UNL A   1      46.472  31.442  27.620  1.00  0.00     0.031 C 
ATOM     56  C   UNL A   1      44.444  32.305  28.753  1.00  0.00     0.037 A 
BRANCH  43  57
ATOM     57  C   UNL A   1      38.960  30.542  30.944  1.00  0.00     0.064 A 
ATOM     58  C   UNL A   1      38.879  30.515  32.341  1.00  0.00     0.173 A 
ATOM     59  C   UNL A   1      37.843  31.008  30.230  1.00  0.00     0.173 A 
ATOM     60  F   UNL A   1      39.912  30.067  33.069  1.00  0.00    -0.203 F 
ATOM     61  C   UNL A   1      37.720  30.926  32.998  1.00  0.00     0.198 A 
ATOM     62  C   UNL A   1      36.697  31.442  30.889  1.00  0.00     0.198 A 
ATOM     63  F   UNL A   1      37.871  31.062  28.889  1.00  0.00    -0.203 F 
ATOM     64  F   UNL A   1      37.649  30.861  34.335  1.00  0.00    -0.200 F 
ATOM     65  C   UNL A   1      36.634  31.397  32.272  1.00  0.00     0.200 A 
ATOM     66  F   UNL A   1      35.657  31.911  30.186  1.00  0.00    -0.200 F 
ATOM     67  F   UNL A   1      35.527  31.804  32.907  1.00  0.00    -0.200 F 
ENDBRANCH  43  57
BRANCH  44  68
ATOM     68  C   UNL A   1      47.046  27.599  25.996  1.00  0.00     0.064 A 
ATOM     69  C   UNL A   1      47.219  27.708  24.608  1.00  0.00     0.173 A 
ATOM     70  C   UNL A   1      48.091  27.033  26.738  1.00  0.00     0.173 A 
ATOM     71  F   UNL A   1      46.233  28.206  23.847  1.00  0.00    -0.203 F 
ATOM     72  C   UNL A   1      48.387  27.268  23.990  1.00  0.00     0.198 A 
ATOM     73  C   UNL A   1      49.275  26.628  26.124  1.00  0.00     0.198 A 
ATOM     74  F   UNL A   1      47.972  26.889  28.066  1.00  0.00    -0.203 F 
ATOM     75  F   UNL A   1      48.507  27.341  22.657  1.00  0.00    -0.200 F 
ATOM     76  C   UNL A   1      49.419  26.740  24.750  1.00  0.00     0.200 A 
ATOM     77  F   UNL A   1      50.273  26.128  26.864  1.00  0.00    -0.200 F 
ATOM     78  F   UNL A   1      50.549  26.327  24.158  1.00  0.00    -0.200 F 
ENDBRANCH  44  68
BRANCH  56  79
ATOM     79  C   UNL A   1      45.095  33.655  28.796  1.00  0.00     0.064 A 
ATOM     80  C   UNL A   1      44.880  34.592  27.774  1.00  0.00     0.173 A 
ATOM     81  C   UNL A   1      45.910  34.029  29.873  1.00  0.00     0.173 A 
ATOM     82  F   UNL A   1      44.118  34.273  26.716  1.00  0.00    -0.203 F 
ATOM     83  C   UNL A   1      45.476  35.848  27.817  1.00  0.00     0.198 A 
ATOM     84  C   UNL A   1      46.487  35.296  29.924  1.00  0.00     0.198 A 
ATOM     85  F   UNL A   1      46.142  33.171  30.877  1.00  0.00    -0.203 F 
ATOM     86  F   UNL A   1      45.288  36.713  26.811  1.00  0.00    -0.200 F 
ATOM     87  C   UNL A   1      46.275  36.201  28.894  1.00  0.00     0.200 A 
ATOM     88  F   UNL A   1      47.253  35.639  30.968  1.00  0.00    -0.200 F 
ATOM     89  F   UNL A   1      46.848  37.413  28.935  1.00  0.00    -0.200 F 
ENDBRANCH  56  79
ENDBRANCH  30  31
ENDBRANCH  23  25
ENDBRANCH  22  23
ENDBRANCH  21  22
ENDBRANCH   1  21
TORSDOF 16
ENDMDL
MODEL 3
REMARK VINA RESULT:     -11.3      0.965      2.199
REMARK SMILES CC(C)N(CC1CC1)C(=O)N1CC[C@H](C(=O)OCCOC(=O)c2ccc(-c3c4nc(c(-c5c(F)c(F)c(F)c(F)c5F)c5ccc([nH]5)c(-c5c(F)c(F)c(F)c(F)c5F)c5nc(c(-c6c(F)c(F)c(F)c(F)c6F)c6ccc3[nH]6)C=C5)C=C4)cc2)[C@H]1C
REMARK SMILES IDX 18 1 17 2 15 3 16 4 14 5 11 6 12 7 86 8 13 9 87 10 9 11
REMARK SMILES IDX 10 12 4 13 2 14 1 15 3 16 5 17 6 18 7 19 8 20 19 21 20 22
REMARK SMILES IDX 21 23 22 24 23 25 24 26 85 27 25 28 84 29 26 30 27 31 28 32
REMARK SMILES IDX 78 33 29 34 83 35 77 36 79 37 30 38 82 39 76 40 75 41 31 43
REMARK SMILES IDX 63 44 43 45 62 46 44 47 47 48 61 49 80 50 45 51 46 52 60 54
REMARK SMILES IDX 81 55 48 56 32 57 33 58 41 59 34 60 35 61 39 62 42 63 36 64
REMARK SMILES IDX 37 65 40 66 38 67 64 68 65 69 73 70 66 71 67 72 71 73 74 74
REMARK SMILES IDX 68 75 69 76 72 77 70 78 49 79 50 80 58 81 51 82 52 83 56 84
REMARK SMILES IDX 59 85 53 86 54 87 57 88 55 89
REMARK H PARENT 79 42 47 53
REMARK Flexibility Score: inf
ROOT
ATOM      1  C   UNL A   1      32.641  29.283  24.957  1.00  0.00     0.274 C 
ENDROOT
BRANCH   1   2
ATOM      2  O   UNL A   1      31.845  28.358  24.190  1.00  0.00    -0.462 OA
BRANCH   2   3
ATOM      3  C   UNL A   1      32.368  27.943  23.001  1.00  0.00     0.311 C 
ATOM      4  O   UNL A   1      33.225  28.539  22.372  1.00  0.00    -0.252 OA
BRANCH   3   5
ATOM      5  C   UNL A   1      31.679  26.671  22.552  1.00  0.00     0.123 C 
ATOM      6  N   UNL A   1      32.678  24.772  23.637  1.00  0.00    -0.321 N 
ATOM      7  C   UNL A   1      33.427  25.059  22.412  1.00  0.00     0.122 C 
ATOM      8  C   UNL A   1      31.482  25.642  23.687  1.00  0.00     0.098 C 
ATOM      9  C   UNL A   1      32.525  25.912  21.537  1.00  0.00     0.039 C 
ATOM     10  C   UNL A   1      30.176  24.896  23.380  1.00  0.00     0.032 C 
BRANCH   6  11
ATOM     11  C   UNL A   1      33.464  24.486  24.754  1.00  0.00     0.320 C 
ATOM     12  O   UNL A   1      34.180  25.366  25.239  1.00  0.00    -0.248 OA
BRANCH  11  13
ATOM     13  N   UNL A   1      33.539  23.173  25.215  1.00  0.00    -0.322 N 
BRANCH  13  14
ATOM     14  C   UNL A   1      32.762  22.804  26.428  1.00  0.00     0.080 C 
ATOM     15  C   UNL A   1      33.672  22.416  27.599  1.00  0.00     0.031 C 
ATOM     16  C   UNL A   1      31.719  23.834  26.862  1.00  0.00     0.031 C 
ENDBRANCH  13  14
BRANCH  13  17
ATOM     17  C   UNL A   1      34.576  22.217  24.839  1.00  0.00     0.125 C 
BRANCH  17  18
ATOM     18  C   UNL A   1      35.941  22.807  24.588  1.00  0.00     0.009 C 
ATOM     19  C   UNL A   1      37.173  21.991  24.262  1.00  0.00     0.006 C 
ATOM     20  C   UNL A   1      36.562  22.876  23.217  1.00  0.00     0.006 C 
ENDBRANCH  17  18
ENDBRANCH  13  17
ENDBRANCH  11  13
ENDBRANCH   6  11
ENDBRANCH   3   5
ENDBRANCH   2   3
ENDBRANCH   1   2
BRANCH   1  21
ATOM     21  C   UNL A   1      31.757  30.268  25.716  1.00  0.00     0.275 C 
BRANCH  21  22
ATOM     22  O   UNL A   1      32.253  30.455  27.054  1.00  0.00    -0.458 OA
BRANCH  22  23
ATOM     23  C   UNL A   1      32.985  31.568  27.262  1.00  0.00     0.338 C 
ATOM     24  O   UNL A   1      32.618  32.731  27.183  1.00  0.00    -0.246 OA
BRANCH  23  25
ATOM     25  C   UNL A   1      34.355  31.197  27.646  1.00  0.00     0.060 A 
ATOM     26  C   UNL A   1      34.661  29.857  27.838  1.00  0.00     0.016 A 
ATOM     27  C   UNL A   1      35.287  32.182  27.983  1.00  0.00     0.016 A 
ATOM     28  C   UNL A   1      35.852  29.514  28.473  1.00  0.00     0.010 A 
ATOM     29  C   UNL A   1      36.519  31.817  28.549  1.00  0.00     0.010 A 
ATOM     30  C   UNL A   1      36.794  30.477  28.872  1.00  0.00    -0.014 A 
BRANCH  30  31
ATOM     31  C   UNL A   1      37.970  30.079  29.721  1.00  0.00     0.031 A 
ATOM     32  C   UNL A   1      39.160  29.368  29.111  1.00  0.00     0.074 A 
ATOM     33  C   UNL A   1      38.050  30.435  31.022  1.00  0.00     0.049 A 
ATOM     34  N   UNL A   1      40.189  28.812  29.709  1.00  0.00    -0.248 NA
ATOM     35  C   UNL A   1      39.195  29.239  27.646  1.00  0.00     0.031 C 
ATOM     36  C   UNL A   1      37.028  31.168  31.765  1.00  0.00     0.029 A 
ATOM     37  N   UNL A   1      39.073  30.292  31.932  1.00  0.00    -0.354 N 
ATOM     38  C   UNL A   1      40.912  28.166  28.713  1.00  0.00     0.074 A 
ATOM     39  C   UNL A   1      40.240  28.443  27.463  1.00  0.00     0.031 C 
ATOM     40  C   UNL A   1      37.530  31.545  32.950  1.00  0.00     0.029 A 
ATOM     41  C   UNL A   1      38.863  30.972  33.109  1.00  0.00     0.049 A 
ATOM     42  H   UNL A   1      39.879  29.753  31.757  1.00  0.00     0.167 HD
ATOM     43  C   UNL A   1      42.018  27.392  28.838  1.00  0.00     0.037 A 
ATOM     44  C   UNL A   1      39.642  31.109  34.200  1.00  0.00     0.037 A 
ATOM     45  C   UNL A   1      42.762  27.221  30.060  1.00  0.00     0.049 A 
ATOM     46  C   UNL A   1      40.923  30.325  34.293  1.00  0.00     0.074 A 
ATOM     47  C   UNL A   1      43.880  26.435  30.292  1.00  0.00     0.029 A 
ATOM     48  N   UNL A   1      42.496  27.891  31.243  1.00  0.00    -0.354 N 
ATOM     49  N   UNL A   1      41.501  29.573  33.390  1.00  0.00    -0.248 NA
ATOM     50  C   UNL A   1      41.623  30.357  35.587  1.00  0.00     0.031 C 
ATOM     51  C   UNL A   1      44.280  26.619  31.620  1.00  0.00     0.029 A 
ATOM     52  C   UNL A   1      43.431  27.543  32.205  1.00  0.00     0.049 A 
ATOM     53  H   UNL A   1      41.752  28.520  31.380  1.00  0.00     0.167 HD
ATOM     54  C   UNL A   1      42.604  29.009  34.017  1.00  0.00     0.074 A 
ATOM     55  C   UNL A   1      42.657  29.561  35.354  1.00  0.00     0.031 C 
ATOM     56  C   UNL A   1      43.468  28.083  33.538  1.00  0.00     0.037 A 
BRANCH  43  57
ATOM     57  C   UNL A   1      42.463  26.604  27.640  1.00  0.00     0.064 A 
ATOM     58  C   UNL A   1      43.458  27.056  26.765  1.00  0.00     0.173 A 
ATOM     59  C   UNL A   1      41.913  25.332  27.408  1.00  0.00     0.173 A 
ATOM     60  F   UNL A   1      44.006  28.268  26.934  1.00  0.00    -0.203 F 
ATOM     61  C   UNL A   1      43.875  26.271  25.691  1.00  0.00     0.198 A 
ATOM     62  C   UNL A   1      42.350  24.540  26.351  1.00  0.00     0.198 A 
ATOM     63  F   UNL A   1      40.961  24.848  28.222  1.00  0.00    -0.203 F 
ATOM     64  F   UNL A   1      44.805  26.735  24.845  1.00  0.00    -0.200 F 
ATOM     65  C   UNL A   1      43.328  25.010  25.490  1.00  0.00     0.200 A 
ATOM     66  F   UNL A   1      41.830  23.317  26.170  1.00  0.00    -0.200 F 
ATOM     67  F   UNL A   1      43.741  24.253  24.466  1.00  0.00    -0.200 F 
ENDBRANCH  43  57
BRANCH  44  68
ATOM     68  C   UNL A   1      39.226  32.003  35.315  1.00  0.00     0.064 A 
ATOM     69  C   UNL A   1      38.473  31.497  36.386  1.00  0.00     0.173 A 
ATOM     70  C   UNL A   1      39.557  33.364  35.339  1.00  0.00     0.173 A 
ATOM     71  F   UNL A   1      38.096  30.210  36.391  1.00  0.00    -0.203 F 
ATOM     72  C   UNL A   1      38.068  32.320  37.434  1.00  0.00     0.198 A 
ATOM     73  C   UNL A   1      39.185  34.178  36.407  1.00  0.00     0.198 A 
ATOM     74  F   UNL A   1      40.260  33.903  34.332  1.00  0.00    -0.203 F 
ATOM     75  F   UNL A   1      37.310  31.822  38.421  1.00  0.00    -0.200 F 
ATOM     76  C   UNL A   1      38.435  33.657  37.450  1.00  0.00     0.200 A 
ATOM     77  F   UNL A   1      39.551  35.466  36.423  1.00  0.00    -0.200 F 
ATOM     78  F   UNL A   1      38.057  34.447  38.465  1.00  0.00    -0.200 F 
ENDBRANCH  44  68
BRANCH  56  79
ATOM     79  C   UNL A   1      44.521  27.578  34.477  1.00  0.00     0.064 A 
ATOM     80  C   UNL A   1      45.754  28.238  34.600  1.00  0.00     0.173 A 
ATOM     81  C   UNL A   1      44.293  26.453  35.281  1.00  0.00     0.173 A 
ATOM     82  F   UNL A   1      46.022  29.312  33.842  1.00  0.00    -0.203 F 
ATOM     83  C   UNL A   1      46.729  27.776  35.479  1.00  0.00     0.198 A 
ATOM     84  C   UNL A   1      45.264  26.006  36.175  1.00  0.00     0.198 A 
ATOM     85  F   UNL A   1      43.130  25.790  35.204  1.00  0.00    -0.203 F 
ATOM     86  F   UNL A   1      47.913  28.399  35.551  1.00  0.00    -0.200 F 
ATOM     87  C   UNL A   1      46.482  26.664  36.269  1.00  0.00     0.200 A 
ATOM     88  F   UNL A   1      45.022  24.935  36.943  1.00  0.00    -0.200 F 
ATOM     89  F   UNL A   1      47.422  26.221  37.115  1.00  0.00    -0.200 F 
ENDBRANCH  56  79
ENDBRANCH  30  31
ENDBRANCH  23  25
ENDBRANCH  22  23
ENDBRANCH  21  22
ENDBRANCH   1  21
TORSDOF 16
ENDMDL
