MODEL 1
REMARK VINA RESULT:     -10.6      0.000      0.000
REMARK SMILES C[C@@H]1CCC[C@@](CCOCCO)(C(=O)OCCOC(=O)c2ccc(-c3c4nc(c(-c5c(F)c(F)c(F)c(F)c5F)c5ccc([nH]5)c(-c5c(F)c(F)c(F)c(F)c5F)c5nc(c(-c6c(F)c(F)c(F)c(F)c6F)c6ccc3[nH]6)C=C5)C=C4)cc2)C1
REMARK SMILES IDX 13 1 14 2 6 3 1 4 2 5 3 6 84 7 4 8 5 9 7 10 8 11 9 12 10 13
REMARK SMILES IDX 11 14 12 15 15 17 16 18 17 19 18 20 19 21 20 22 21 23 22 24
REMARK SMILES IDX 83 25 23 26 82 27 24 28 25 29 26 30 76 31 27 32 81 33 75 34
REMARK SMILES IDX 77 35 28 36 80 37 74 38 73 39 29 41 61 42 41 43 60 44 42 45
REMARK SMILES IDX 45 46 59 47 78 48 43 49 44 50 58 52 79 53 46 54 30 55 31 56
REMARK SMILES IDX 39 57 32 58 33 59 37 60 40 61 34 62 35 63 38 64 36 65 62 66
REMARK SMILES IDX 63 67 71 68 64 69 65 70 69 71 72 72 66 73 67 74 70 75 68 76
REMARK SMILES IDX 47 77 48 78 56 79 49 80 50 81 54 82 57 83 51 84 52 85 55 86
REMARK SMILES IDX 53 87
REMARK H PARENT 12 16 77 40 45 51
REMARK Flexibility Score: inf
ROOT
ATOM      1  C   UNL A   1      33.783  23.296  26.469  1.00  0.00     0.312 C 
ATOM      2  O   UNL A   1      33.145  22.677  27.313  1.00  0.00    -0.252 OA
ENDROOT
BRANCH   1   3
ATOM      3  C   UNL A   1      33.207  24.522  25.714  1.00  0.00     0.070 C 
ATOM      4  C   UNL A   1      30.297  26.272  25.028  1.00  0.00     0.007 C 
ATOM      5  C   UNL A   1      31.250  26.268  26.223  1.00  0.00    -0.013 C 
ATOM      6  C   UNL A   1      32.280  27.398  26.128  1.00  0.00     0.003 C 
ATOM      7  C   UNL A   1      31.894  24.890  26.487  1.00  0.00     0.022 C 
ATOM      8  C   UNL A   1      33.480  27.033  25.267  1.00  0.00     0.001 C 
ATOM      9  C   UNL A   1      34.140  25.751  25.773  1.00  0.00     0.019 C 
BRANCH   3  10
ATOM     10  C   UNL A   1      32.854  24.027  24.266  1.00  0.00     0.047 C 
BRANCH  10  11
ATOM     11  C   UNL A   1      33.917  24.076  23.154  1.00  0.00     0.161 C 
BRANCH  11  12
ATOM     12  O   UNL A   1      33.893  25.260  22.361  1.00  0.00    -0.379 OA
BRANCH  12  13
ATOM     13  C   UNL A   1      32.610  25.784  22.061  1.00  0.00     0.188 C 
BRANCH  13  14
ATOM     14  C   UNL A   1      32.114  25.631  20.619  1.00  0.00     0.184 C 
BRANCH  14  15
ATOM     15  O   UNL A   1      33.100  25.838  19.619  1.00  0.00    -0.394 OA
ATOM     16  H   UNL A   1      32.668  25.965  18.760  1.00  0.00     0.210 HD
ENDBRANCH  14  15
ENDBRANCH  13  14
ENDBRANCH  12  13
ENDBRANCH  11  12
ENDBRANCH  10  11
ENDBRANCH   3  10
ENDBRANCH   1   3
BRANCH   1  17
ATOM     17  O   UNL A   1      35.053  22.969  26.096  1.00  0.00    -0.462 OA
BRANCH  17  18
ATOM     18  C   UNL A   1      35.374  21.556  26.105  1.00  0.00     0.274 C 
BRANCH  18  19
ATOM     19  C   UNL A   1      36.379  21.233  25.003  1.00  0.00     0.275 C 
BRANCH  19  20
ATOM     20  O   UNL A   1      37.501  22.112  25.175  1.00  0.00    -0.458 OA
BRANCH  20  21
ATOM     21  C   UNL A   1      38.557  21.600  25.835  1.00  0.00     0.338 C 
ATOM     22  O   UNL A   1      39.000  20.461  25.796  1.00  0.00    -0.246 OA
BRANCH  21  23
ATOM     23  C   UNL A   1      39.237  22.718  26.491  1.00  0.00     0.060 A 
ATOM     24  C   UNL A   1      38.808  24.004  26.167  1.00  0.00     0.016 A 
ATOM     25  C   UNL A   1      40.325  22.522  27.334  1.00  0.00     0.016 A 
ATOM     26  C   UNL A   1      39.507  25.115  26.623  1.00  0.00     0.010 A 
ATOM     27  C   UNL A   1      40.985  23.640  27.851  1.00  0.00     0.010 A 
ATOM     28  C   UNL A   1      40.603  24.945  27.474  1.00  0.00    -0.014 A 
BRANCH  28  29
ATOM     29  C   UNL A   1      41.422  26.112  27.896  1.00  0.00     0.031 A 
ATOM     30  C   UNL A   1      40.779  27.186  28.726  1.00  0.00     0.074 A 
ATOM     31  C   UNL A   1      42.723  26.218  27.562  1.00  0.00     0.049 A 
ATOM     32  N   UNL A   1      41.172  28.412  28.950  1.00  0.00    -0.248 NA
ATOM     33  C   UNL A   1      39.509  26.832  29.381  1.00  0.00     0.031 C 
ATOM     34  C   UNL A   1      43.506  25.211  26.846  1.00  0.00     0.029 A 
ATOM     35  N   UNL A   1      43.615  27.241  27.780  1.00  0.00    -0.354 N 
ATOM     36  C   UNL A   1      40.166  28.997  29.706  1.00  0.00     0.074 A 
ATOM     37  C   UNL A   1      39.151  27.987  29.921  1.00  0.00     0.031 C 
ATOM     38  C   UNL A   1      44.762  25.659  26.693  1.00  0.00     0.029 A 
ATOM     39  C   UNL A   1      44.848  27.019  27.216  1.00  0.00     0.049 A 
ATOM     40  H   UNL A   1      43.393  28.052  28.292  1.00  0.00     0.167 HD
ATOM     41  C   UNL A   1      40.094  30.268  30.164  1.00  0.00     0.037 A 
ATOM     42  C   UNL A   1      45.906  27.841  27.082  1.00  0.00     0.037 A 
ATOM     43  C   UNL A   1      41.136  31.245  29.992  1.00  0.00     0.049 A 
ATOM     44  C   UNL A   1      45.801  29.256  27.585  1.00  0.00     0.074 A 
ATOM     45  C   UNL A   1      41.151  32.577  30.366  1.00  0.00     0.029 A 
ATOM     46  N   UNL A   1      42.371  30.976  29.419  1.00  0.00    -0.354 N 
ATOM     47  N   UNL A   1      44.793  29.852  28.175  1.00  0.00    -0.248 NA
ATOM     48  C   UNL A   1      46.971  30.121  27.379  1.00  0.00     0.031 C 
ATOM     49  C   UNL A   1      42.393  33.116  30.013  1.00  0.00     0.029 A 
ATOM     50  C   UNL A   1      43.161  32.112  29.446  1.00  0.00     0.049 A 
ATOM     51  H   UNL A   1      42.645  30.105  29.049  1.00  0.00     0.167 HD
ATOM     52  C   UNL A   1      45.205  31.155  28.411  1.00  0.00     0.074 A 
ATOM     53  C   UNL A   1      46.565  31.259  27.926  1.00  0.00     0.031 C 
ATOM     54  C   UNL A   1      44.516  32.181  28.966  1.00  0.00     0.037 A 
BRANCH  41  55
ATOM     55  C   UNL A   1      38.833  30.687  30.858  1.00  0.00     0.064 A 
ATOM     56  C   UNL A   1      37.724  31.171  30.151  1.00  0.00     0.173 A 
ATOM     57  C   UNL A   1      38.728  30.578  32.252  1.00  0.00     0.173 A 
ATOM     58  F   UNL A   1      37.784  31.315  28.818  1.00  0.00    -0.203 F 
ATOM     59  C   UNL A   1      36.559  31.544  30.817  1.00  0.00     0.198 A 
ATOM     60  C   UNL A   1      37.554  30.928  32.913  1.00  0.00     0.198 A 
ATOM     61  F   UNL A   1      39.763  30.123  32.975  1.00  0.00    -0.203 F 
ATOM     62  F   UNL A   1      35.524  32.039  30.125  1.00  0.00    -0.200 F 
ATOM     63  C   UNL A   1      36.473  31.416  32.195  1.00  0.00     0.200 A 
ATOM     64  F   UNL A   1      37.470  30.797  34.245  1.00  0.00    -0.200 F 
ATOM     65  F   UNL A   1      35.349  31.769  32.833  1.00  0.00    -0.200 F 
ENDBRANCH  41  55
BRANCH  42  66
ATOM     66  C   UNL A   1      47.128  27.372  26.378  1.00  0.00     0.064 A 
ATOM     67  C   UNL A   1      48.157  26.722  27.072  1.00  0.00     0.173 A 
ATOM     68  C   UNL A   1      47.295  27.573  25.000  1.00  0.00     0.173 A 
ATOM     69  F   UNL A   1      48.058  26.533  28.396  1.00  0.00    -0.203 F 
ATOM     70  C   UNL A   1      49.313  26.301  26.415  1.00  0.00     0.198 A 
ATOM     71  C   UNL A   1      48.437  27.125  24.339  1.00  0.00     0.198 A 
ATOM     72  F   UNL A   1      46.341  28.195  24.290  1.00  0.00    -0.203 F 
ATOM     73  F   UNL A   1      50.301  25.722  27.109  1.00  0.00    -0.200 F 
ATOM     74  C   UNL A   1      49.448  26.495  25.049  1.00  0.00     0.200 A 
ATOM     75  F   UNL A   1      48.557  27.305  23.017  1.00  0.00    -0.200 F 
ATOM     76  F   UNL A   1      50.556  26.087  24.418  1.00  0.00    -0.200 F 
ENDBRANCH  42  66
BRANCH  54  77
ATOM     77  C   UNL A   1      45.234  33.488  29.103  1.00  0.00     0.064 A 
ATOM     78  C   UNL A   1      45.154  34.472  28.107  1.00  0.00     0.173 A 
ATOM     79  C   UNL A   1      45.980  33.770  30.256  1.00  0.00     0.173 A 
ATOM     80  F   UNL A   1      44.463  34.237  26.981  1.00  0.00    -0.203 F 
ATOM     81  C   UNL A   1      45.812  35.688  28.254  1.00  0.00     0.198 A 
ATOM     82  C   UNL A   1      46.621  34.995  30.407  1.00  0.00     0.198 A 
ATOM     83  F   UNL A   1      46.081  32.860  31.236  1.00  0.00    -0.203 F 
ATOM     84  F   UNL A   1      45.754  36.602  27.276  1.00  0.00    -0.200 F 
ATOM     85  C   UNL A   1      46.541  35.951  29.405  1.00  0.00     0.200 A 
ATOM     86  F   UNL A   1      47.320  35.251  31.522  1.00  0.00    -0.200 F 
ATOM     87  F   UNL A   1      47.174  37.124  29.545  1.00  0.00    -0.200 F 
ENDBRANCH  54  77
ENDBRANCH  28  29
ENDBRANCH  21  23
ENDBRANCH  20  21
ENDBRANCH  19  20
ENDBRANCH  18  19
ENDBRANCH  17  18
ENDBRANCH   1  17
TORSDOF 17
ENDMDL
MODEL 2
REMARK VINA RESULT:     -10.3      4.242      9.537
REMARK SMILES C[C@@H]1CCC[C@@](CCOCCO)(C(=O)OCCOC(=O)c2ccc(-c3c4nc(c(-c5c(F)c(F)c(F)c(F)c5F)c5ccc([nH]5)c(-c5c(F)c(F)c(F)c(F)c5F)c5nc(c(-c6c(F)c(F)c(F)c(F)c6F)c6ccc3[nH]6)C=C5)C=C4)cc2)C1
REMARK SMILES IDX 13 1 14 2 6 3 1 4 2 5 3 6 84 7 4 8 5 9 7 10 8 11 9 12 10 13
REMARK SMILES IDX 11 14 12 15 15 17 16 18 17 19 18 20 19 21 20 22 21 23 22 24
REMARK SMILES IDX 83 25 23 26 82 27 24 28 25 29 26 30 76 31 27 32 81 33 75 34
REMARK SMILES IDX 77 35 28 36 80 37 74 38 73 39 29 41 61 42 41 43 60 44 42 45
REMARK SMILES IDX 45 46 59 47 78 48 43 49 44 50 58 52 79 53 46 54 30 55 31 56
REMARK SMILES IDX 39 57 32 58 33 59 37 60 40 61 34 62 35 63 38 64 36 65 62 66
REMARK SMILES IDX 63 67 71 68 64 69 65 70 69 71 72 72 66 73 67 74 70 75 68 76
REMARK SMILES IDX 47 77 48 78 56 79 49 80 50 81 54 82 57 83 51 84 52 85 55 86
REMARK SMILES IDX 53 87
REMARK H PARENT 12 16 77 40 45 51
REMARK Flexibility Score: inf
ROOT
ATOM      1  C   UNL A   1      33.249  26.844  25.502  1.00  0.00     0.312 C 
ATOM      2  O   UNL A   1      33.974  27.119  26.450  1.00  0.00    -0.252 OA
ENDROOT
BRANCH   1   3
ATOM      3  C   UNL A   1      32.983  25.386  25.043  1.00  0.00     0.070 C 
ATOM      4  C   UNL A   1      31.178  22.516  25.753  1.00  0.00     0.007 C 
ATOM      5  C   UNL A   1      30.827  23.810  25.017  1.00  0.00    -0.013 C 
ATOM      6  C   UNL A   1      30.994  23.662  23.503  1.00  0.00     0.003 C 
ATOM      7  C   UNL A   1      31.551  25.049  25.584  1.00  0.00     0.022 C 
ATOM      8  C   UNL A   1      32.429  23.880  23.043  1.00  0.00     0.001 C 
ATOM      9  C   UNL A   1      32.945  25.241  23.506  1.00  0.00     0.019 C 
BRANCH   3  10
ATOM     10  C   UNL A   1      34.051  24.491  25.767  1.00  0.00     0.047 C 
BRANCH  10  11
ATOM     11  C   UNL A   1      35.415  24.230  25.103  1.00  0.00     0.161 C 
BRANCH  11  12
ATOM     12  O   UNL A   1      35.973  22.948  25.376  1.00  0.00    -0.379 OA
BRANCH  12  13
ATOM     13  C   UNL A   1      35.677  21.926  24.439  1.00  0.00     0.188 C 
BRANCH  13  14
ATOM     14  C   UNL A   1      34.545  20.956  24.798  1.00  0.00     0.184 C 
BRANCH  14  15
ATOM     15  O   UNL A   1      34.953  19.617  25.036  1.00  0.00    -0.394 OA
ATOM     16  H   UNL A   1      35.261  19.221  24.206  1.00  0.00     0.210 HD
ENDBRANCH  14  15
ENDBRANCH  13  14
ENDBRANCH  12  13
ENDBRANCH  11  12
ENDBRANCH  10  11
ENDBRANCH   3  10
ENDBRANCH   1   3
BRANCH   1  17
ATOM     17  O   UNL A   1      32.611  27.782  24.745  1.00  0.00    -0.462 OA
BRANCH  17  18
ATOM     18  C   UNL A   1      31.675  28.636  25.446  1.00  0.00     0.274 C 
BRANCH  18  19
ATOM     19  C   UNL A   1      32.234  30.050  25.569  1.00  0.00     0.275 C 
BRANCH  19  20
ATOM     20  O   UNL A   1      32.738  30.195  26.906  1.00  0.00    -0.458 OA
BRANCH  20  21
ATOM     21  C   UNL A   1      33.262  31.397  27.213  1.00  0.00     0.338 C 
ATOM     22  O   UNL A   1      32.710  32.489  27.221  1.00  0.00    -0.246 OA
BRANCH  21  23
ATOM     23  C   UNL A   1      34.605  31.159  27.745  1.00  0.00     0.060 A 
ATOM     24  C   UNL A   1      34.917  29.855  28.126  1.00  0.00     0.016 A 
ATOM     25  C   UNL A   1      35.508  32.196  27.950  1.00  0.00     0.016 A 
ATOM     26  C   UNL A   1      36.109  29.580  28.785  1.00  0.00     0.010 A 
ATOM     27  C   UNL A   1      36.737  31.908  28.549  1.00  0.00     0.010 A 
ATOM     28  C   UNL A   1      37.035  30.605  29.001  1.00  0.00    -0.014 A 
BRANCH  28  29
ATOM     29  C   UNL A   1      38.272  30.354  29.787  1.00  0.00     0.031 A 
ATOM     30  C   UNL A   1      39.343  29.484  29.195  1.00  0.00     0.074 A 
ATOM     31  C   UNL A   1      38.455  30.898  31.006  1.00  0.00     0.049 A 
ATOM     32  N   UNL A   1      40.342  28.877  29.781  1.00  0.00    -0.248 NA
ATOM     33  C   UNL A   1      39.268  29.255  27.742  1.00  0.00     0.031 C 
ATOM     34  C   UNL A   1      37.550  31.838  31.666  1.00  0.00     0.029 A 
ATOM     35  N   UNL A   1      39.474  30.725  31.912  1.00  0.00    -0.354 N 
ATOM     36  C   UNL A   1      40.967  28.137  28.787  1.00  0.00     0.074 A 
ATOM     37  C   UNL A   1      40.249  28.385  27.554  1.00  0.00     0.031 C 
ATOM     38  C   UNL A   1      38.057  32.168  32.865  1.00  0.00     0.029 A 
ATOM     39  C   UNL A   1      39.272  31.392  33.096  1.00  0.00     0.049 A 
ATOM     40  H   UNL A   1      40.271  30.177  31.730  1.00  0.00     0.167 HD
ATOM     41  C   UNL A   1      42.035  27.314  28.902  1.00  0.00     0.037 A 
ATOM     42  C   UNL A   1      39.954  31.337  34.255  1.00  0.00     0.037 A 
ATOM     43  C   UNL A   1      42.774  27.122  30.122  1.00  0.00     0.049 A 
ATOM     44  C   UNL A   1      41.130  30.405  34.368  1.00  0.00     0.074 A 
ATOM     45  C   UNL A   1      43.838  26.274  30.369  1.00  0.00     0.029 A 
ATOM     46  N   UNL A   1      42.537  27.823  31.295  1.00  0.00    -0.354 N 
ATOM     47  N   UNL A   1      41.635  29.597  33.467  1.00  0.00    -0.248 NA
ATOM     48  C   UNL A   1      41.815  30.356  35.668  1.00  0.00     0.031 C 
ATOM     49  C   UNL A   1      44.242  26.456  31.697  1.00  0.00     0.029 A 
ATOM     50  C   UNL A   1      43.447  27.439  32.265  1.00  0.00     0.049 A 
ATOM     51  H   UNL A   1      41.828  28.495  31.421  1.00  0.00     0.167 HD
ATOM     52  C   UNL A   1      42.692  28.948  34.087  1.00  0.00     0.074 A 
ATOM     53  C   UNL A   1      42.777  29.474  35.433  1.00  0.00     0.031 C 
ATOM     54  C   UNL A   1      43.514  27.990  33.593  1.00  0.00     0.037 A 
BRANCH  41  55
ATOM     55  C   UNL A   1      42.442  26.531  27.692  1.00  0.00     0.064 A 
ATOM     56  C   UNL A   1      43.428  26.990  26.809  1.00  0.00     0.173 A 
ATOM     57  C   UNL A   1      41.851  25.286  27.428  1.00  0.00     0.173 A 
ATOM     58  F   UNL A   1      44.007  28.184  27.005  1.00  0.00    -0.203 F 
ATOM     59  C   UNL A   1      43.797  26.238  25.696  1.00  0.00     0.198 A 
ATOM     60  C   UNL A   1      42.239  24.525  26.329  1.00  0.00     0.198 A 
ATOM     61  F   UNL A   1      40.900  24.803  28.242  1.00  0.00    -0.203 F 
ATOM     62  F   UNL A   1      44.715  26.713  24.844  1.00  0.00    -0.200 F 
ATOM     63  C   UNL A   1      43.208  25.005  25.461  1.00  0.00     0.200 A 
ATOM     64  F   UNL A   1      41.673  23.330  26.108  1.00  0.00    -0.200 F 
ATOM     65  F   UNL A   1      43.570  24.280  24.394  1.00  0.00    -0.200 F 
ENDBRANCH  41  55
BRANCH  42  66
ATOM     66  C   UNL A   1      39.498  32.132  35.425  1.00  0.00     0.064 A 
ATOM     67  C   UNL A   1      38.612  31.591  36.367  1.00  0.00     0.173 A 
ATOM     68  C   UNL A   1      39.931  33.452  35.620  1.00  0.00     0.173 A 
ATOM     69  F   UNL A   1      38.146  30.343  36.207  1.00  0.00    -0.203 F 
ATOM     70  C   UNL A   1      38.168  32.344  37.452  1.00  0.00     0.198 A 
ATOM     71  C   UNL A   1      39.510  34.193  36.722  1.00  0.00     0.198 A 
ATOM     72  F   UNL A   1      40.775  34.019  34.746  1.00  0.00    -0.203 F 
ATOM     73  F   UNL A   1      37.287  31.818  38.313  1.00  0.00    -0.200 F 
ATOM     74  C   UNL A   1      38.624  33.641  37.634  1.00  0.00     0.200 A 
ATOM     75  F   UNL A   1      39.963  35.442  36.899  1.00  0.00    -0.200 F 
ATOM     76  F   UNL A   1      38.200  34.363  38.680  1.00  0.00    -0.200 F 
ENDBRANCH  42  66
BRANCH  54  77
ATOM     77  C   UNL A   1      44.586  27.477  34.503  1.00  0.00     0.064 A 
ATOM     78  C   UNL A   1      44.379  26.351  35.312  1.00  0.00     0.173 A 
ATOM     79  C   UNL A   1      45.842  28.099  34.540  1.00  0.00     0.173 A 
ATOM     80  F   UNL A   1      43.188  25.735  35.319  1.00  0.00    -0.203 F 
ATOM     81  C   UNL A   1      45.390  25.874  36.141  1.00  0.00     0.198 A 
ATOM     82  C   UNL A   1      46.856  27.608  35.357  1.00  0.00     0.198 A 
ATOM     83  F   UNL A   1      46.086  29.177  33.781  1.00  0.00    -0.203 F 
ATOM     84  F   UNL A   1      45.162  24.819  36.934  1.00  0.00    -0.200 F 
ATOM     85  C   UNL A   1      46.628  26.500  36.160  1.00  0.00     0.200 A 
ATOM     86  F   UNL A   1      48.054  28.209  35.369  1.00  0.00    -0.200 F 
ATOM     87  F   UNL A   1      47.601  26.040  36.959  1.00  0.00    -0.200 F 
ENDBRANCH  54  77
ENDBRANCH  28  29
ENDBRANCH  21  23
ENDBRANCH  20  21
ENDBRANCH  19  20
ENDBRANCH  18  19
ENDBRANCH  17  18
ENDBRANCH   1  17
TORSDOF 17
ENDMDL
MODEL 3
REMARK VINA RESULT:     -10.3      4.340      9.497
REMARK SMILES C[C@@H]1CCC[C@@](CCOCCO)(C(=O)OCCOC(=O)c2ccc(-c3c4nc(c(-c5c(F)c(F)c(F)c(F)c5F)c5ccc([nH]5)c(-c5c(F)c(F)c(F)c(F)c5F)c5nc(c(-c6c(F)c(F)c(F)c(F)c6F)c6ccc3[nH]6)C=C5)C=C4)cc2)C1
REMARK SMILES IDX 13 1 14 2 6 3 1 4 2 5 3 6 84 7 4 8 5 9 7 10 8 11 9 12 10 13
REMARK SMILES IDX 11 14 12 15 15 17 16 18 17 19 18 20 19 21 20 22 21 23 22 24
REMARK SMILES IDX 83 25 23 26 82 27 24 28 25 29 26 30 76 31 27 32 81 33 75 34
REMARK SMILES IDX 77 35 28 36 80 37 74 38 73 39 29 41 61 42 41 43 60 44 42 45
REMARK SMILES IDX 45 46 59 47 78 48 43 49 44 50 58 52 79 53 46 54 30 55 31 56
REMARK SMILES IDX 39 57 32 58 33 59 37 60 40 61 34 62 35 63 38 64 36 65 62 66
REMARK SMILES IDX 63 67 71 68 64 69 65 70 69 71 72 72 66 73 67 74 70 75 68 76
REMARK SMILES IDX 47 77 48 78 56 79 49 80 50 81 54 82 57 83 51 84 52 85 55 86
REMARK SMILES IDX 53 87
REMARK H PARENT 12 16 77 40 45 51
REMARK Flexibility Score: inf
ROOT
ATOM      1  C   UNL A   1      32.497  26.405  25.882  1.00  0.00     0.312 C 
ATOM      2  O   UNL A   1      33.682  26.700  25.785  1.00  0.00    -0.252 OA
ENDROOT
BRANCH   1   3
ATOM      3  C   UNL A   1      31.913  25.079  25.328  1.00  0.00     0.070 C 
ATOM      4  C   UNL A   1      32.442  22.526  23.048  1.00  0.00     0.007 C 
ATOM      5  C   UNL A   1      32.989  22.798  24.449  1.00  0.00    -0.013 C 
ATOM      6  C   UNL A   1      32.193  22.049  25.521  1.00  0.00     0.003 C 
ATOM      7  C   UNL A   1      33.149  24.301  24.762  1.00  0.00     0.022 C 
ATOM      8  C   UNL A   1      30.936  22.791  25.951  1.00  0.00     0.001 C 
ATOM      9  C   UNL A   1      31.276  24.202  26.428  1.00  0.00     0.019 C 
BRANCH   3  10
ATOM     10  C   UNL A   1      30.947  25.475  24.155  1.00  0.00     0.047 C 
BRANCH  10  11
ATOM     11  C   UNL A   1      31.457  26.355  23.000  1.00  0.00     0.161 C 
BRANCH  11  12
ATOM     12  O   UNL A   1      30.437  27.047  22.285  1.00  0.00    -0.379 OA
BRANCH  12  13
ATOM     13  C   UNL A   1      29.982  28.259  22.863  1.00  0.00     0.188 C 
BRANCH  13  14
ATOM     14  C   UNL A   1      29.867  29.475  21.936  1.00  0.00     0.184 C 
BRANCH  14  15
ATOM     15  O   UNL A   1      31.101  30.089  21.596  1.00  0.00    -0.394 OA
ATOM     16  H   UNL A   1      31.786  29.810  22.224  1.00  0.00     0.210 HD
ENDBRANCH  14  15
ENDBRANCH  13  14
ENDBRANCH  12  13
ENDBRANCH  11  12
ENDBRANCH  10  11
ENDBRANCH   3  10
ENDBRANCH   1   3
BRANCH   1  17
ATOM     17  O   UNL A   1      31.567  27.210  26.472  1.00  0.00    -0.462 OA
BRANCH  17  18
ATOM     18  C   UNL A   1      31.419  28.534  25.903  1.00  0.00     0.274 C 
BRANCH  18  19
ATOM     19  C   UNL A   1      31.808  29.598  26.925  1.00  0.00     0.275 C 
BRANCH  19  20
ATOM     20  O   UNL A   1      33.136  30.038  26.599  1.00  0.00    -0.458 OA
BRANCH  20  21
ATOM     21  C   UNL A   1      33.521  31.208  27.143  1.00  0.00     0.338 C 
ATOM     22  O   UNL A   1      32.860  32.222  27.316  1.00  0.00    -0.246 OA
BRANCH  21  23
ATOM     23  C   UNL A   1      34.862  31.006  27.694  1.00  0.00     0.060 A 
ATOM     24  C   UNL A   1      35.231  29.699  28.011  1.00  0.00     0.016 A 
ATOM     25  C   UNL A   1      35.707  32.072  27.978  1.00  0.00     0.016 A 
ATOM     26  C   UNL A   1      36.420  29.447  28.683  1.00  0.00     0.010 A 
ATOM     27  C   UNL A   1      36.936  31.812  28.590  1.00  0.00     0.010 A 
ATOM     28  C   UNL A   1      37.289  30.502  28.978  1.00  0.00    -0.014 A 
BRANCH  28  29
ATOM     29  C   UNL A   1      38.519  30.268  29.780  1.00  0.00     0.031 A 
ATOM     30  C   UNL A   1      39.607  29.408  29.203  1.00  0.00     0.074 A 
ATOM     31  C   UNL A   1      38.681  30.818  30.999  1.00  0.00     0.049 A 
ATOM     32  N   UNL A   1      40.606  28.815  29.803  1.00  0.00    -0.248 NA
ATOM     33  C   UNL A   1      39.552  29.174  27.750  1.00  0.00     0.031 C 
ATOM     34  C   UNL A   1      37.757  31.750  31.645  1.00  0.00     0.029 A 
ATOM     35  N   UNL A   1      39.691  30.659  31.918  1.00  0.00    -0.354 N 
ATOM     36  C   UNL A   1      41.251  28.079  28.819  1.00  0.00     0.074 A 
ATOM     37  C   UNL A   1      40.545  28.315  27.577  1.00  0.00     0.031 C 
ATOM     38  C   UNL A   1      38.246  32.088  32.849  1.00  0.00     0.029 A 
ATOM     39  C   UNL A   1      39.467  31.328  33.097  1.00  0.00     0.049 A 
ATOM     40  H   UNL A   1      40.496  30.120  31.747  1.00  0.00     0.167 HD
ATOM     41  C   UNL A   1      42.328  27.269  28.950  1.00  0.00     0.037 A 
ATOM     42  C   UNL A   1      40.135  31.284  34.264  1.00  0.00     0.037 A 
ATOM     43  C   UNL A   1      43.054  27.090  30.179  1.00  0.00     0.049 A 
ATOM     44  C   UNL A   1      41.321  30.367  34.394  1.00  0.00     0.074 A 
ATOM     45  C   UNL A   1      44.125  26.255  30.442  1.00  0.00     0.029 A 
ATOM     46  N   UNL A   1      42.795  27.792  31.347  1.00  0.00    -0.354 N 
ATOM     47  N   UNL A   1      41.846  29.561  33.503  1.00  0.00    -0.248 NA
ATOM     48  C   UNL A   1      41.991  30.330  35.702  1.00  0.00     0.031 C 
ATOM     49  C   UNL A   1      44.511  26.446  31.774  1.00  0.00     0.029 A 
ATOM     50  C   UNL A   1      43.698  27.422  32.330  1.00  0.00     0.049 A 
ATOM     51  H   UNL A   1      42.077  28.455  31.462  1.00  0.00     0.167 HD
ATOM     52  C   UNL A   1      42.903  28.927  34.137  1.00  0.00     0.074 A 
ATOM     53  C   UNL A   1      42.965  29.459  35.482  1.00  0.00     0.031 C 
ATOM     54  C   UNL A   1      43.742  27.977  33.656  1.00  0.00     0.037 A 
BRANCH  41  55
ATOM     55  C   UNL A   1      42.759  26.487  27.747  1.00  0.00     0.064 A 
ATOM     56  C   UNL A   1      43.737  26.963  26.865  1.00  0.00     0.173 A 
ATOM     57  C   UNL A   1      42.197  25.227  27.490  1.00  0.00     0.173 A 
ATOM     58  F   UNL A   1      44.287  28.171  27.055  1.00  0.00    -0.203 F 
ATOM     59  C   UNL A   1      44.129  26.211  25.759  1.00  0.00     0.198 A 
ATOM     60  C   UNL A   1      42.608  24.467  26.398  1.00  0.00     0.198 A 
ATOM     61  F   UNL A   1      41.255  24.727  28.304  1.00  0.00    -0.203 F 
ATOM     62  F   UNL A   1      45.039  26.702  24.908  1.00  0.00    -0.200 F 
ATOM     63  C   UNL A   1      43.570  24.963  25.531  1.00  0.00     0.200 A 
ATOM     64  F   UNL A   1      42.071  23.258  26.183  1.00  0.00    -0.200 F 
ATOM     65  F   UNL A   1      43.953  24.239  24.471  1.00  0.00    -0.200 F 
ENDBRANCH  41  55
BRANCH  42  66
ATOM     66  C   UNL A   1      39.656  32.078  35.426  1.00  0.00     0.064 A 
ATOM     67  C   UNL A   1      40.131  33.375  35.661  1.00  0.00     0.173 A 
ATOM     68  C   UNL A   1      38.720  31.552  36.330  1.00  0.00     0.173 A 
ATOM     69  F   UNL A   1      41.049  33.910  34.843  1.00  0.00    -0.203 F 
ATOM     70  C   UNL A   1      39.698  34.111  36.763  1.00  0.00     0.198 A 
ATOM     71  C   UNL A   1      38.265  32.300  37.413  1.00  0.00     0.198 A 
ATOM     72  F   UNL A   1      38.237  30.313  36.152  1.00  0.00    -0.203 F 
ATOM     73  F   UNL A   1      40.201  35.331  36.990  1.00  0.00    -0.200 F 
ATOM     74  C   UNL A   1      38.759  33.577  37.632  1.00  0.00     0.200 A 
ATOM     75  F   UNL A   1      37.349  31.783  38.243  1.00  0.00    -0.200 F 
ATOM     76  F   UNL A   1      38.339  34.286  38.688  1.00  0.00    -0.200 F 
ENDBRANCH  42  66
BRANCH  54  77
ATOM     77  C   UNL A   1      44.809  27.480  34.581  1.00  0.00     0.064 A 
ATOM     78  C   UNL A   1      44.603  26.358  35.397  1.00  0.00     0.173 A 
ATOM     79  C   UNL A   1      46.060  28.111  34.625  1.00  0.00     0.173 A 
ATOM     80  F   UNL A   1      43.416  25.734  35.397  1.00  0.00    -0.203 F 
ATOM     81  C   UNL A   1      45.608  25.896  36.240  1.00  0.00     0.198 A 
ATOM     82  C   UNL A   1      47.070  27.635  35.455  1.00  0.00     0.198 A 
ATOM     83  F   UNL A   1      46.303  29.185  33.859  1.00  0.00    -0.203 F 
ATOM     84  F   UNL A   1      45.381  24.845  37.039  1.00  0.00    -0.200 F 
ATOM     85  C   UNL A   1      46.842  26.532  36.265  1.00  0.00     0.200 A 
ATOM     86  F   UNL A   1      48.263  28.245  35.474  1.00  0.00    -0.200 F 
ATOM     87  F   UNL A   1      47.810  26.085  37.077  1.00  0.00    -0.200 F 
ENDBRANCH  54  77
ENDBRANCH  28  29
ENDBRANCH  21  23
ENDBRANCH  20  21
ENDBRANCH  19  20
ENDBRANCH  18  19
ENDBRANCH  17  18
ENDBRANCH   1  17
TORSDOF 17
ENDMDL
