MODEL 1
REMARK VINA RESULT:     -11.4      0.000      0.000
REMARK SMILES O=C(OCCOC(=O)c1ccc(O)c(Br)n1)c1ccc(-c2c3nc(c(-c4c(F)c(F)c(F)c(F)c4F)c4ccc([nH]4)c(-c4c(F)c(F)c(F)c(F)c4F)c4nc(c(-c5c(F)c(F)c(F)c(F)c5F)c5ccc2[nH]5)C=C4)C=C3)cc1
REMARK SMILES IDX 4 1 3 2 2 3 1 4 17 5 18 6 79 7 19 8 78 9 20 10 21 11 22 12
REMARK SMILES IDX 72 13 23 14 77 15 71 16 73 17 24 18 76 19 70 20 69 21 25 23
REMARK SMILES IDX 57 24 37 25 56 26 38 27 41 28 55 29 74 30 39 31 40 32 54 34
REMARK SMILES IDX 75 35 42 36 26 37 27 38 35 39 28 40 29 41 33 42 36 43 30 44
REMARK SMILES IDX 31 45 34 46 32 47 58 48 59 49 67 50 60 51 61 52 65 53 68 54
REMARK SMILES IDX 62 55 63 56 66 57 64 58 43 59 44 60 52 61 45 62 46 63 50 64
REMARK SMILES IDX 53 65 47 66 48 67 51 68 49 69 5 70 6 71 7 72 8 73 9 74 10 75
REMARK SMILES IDX 16 76 11 77 14 78 12 79 15 80 13 81
REMARK H PARENT 73 22 41 33 13 82
REMARK Flexibility Score: inf
ROOT
ATOM      1  C   UNL A   1      46.530  24.367  24.951  1.00  0.00     0.275 C 
ENDROOT
BRANCH   1   2
ATOM      2  O   UNL A   1      45.366  25.147  24.631  1.00  0.00    -0.458 OA
BRANCH   2   3
ATOM      3  C   UNL A   1      44.119  24.967  25.127  1.00  0.00     0.338 C 
ATOM      4  O   UNL A   1      43.332  24.223  24.548  1.00  0.00    -0.246 OA
BRANCH   3   5
ATOM      5  C   UNL A   1      43.578  25.855  26.203  1.00  0.00     0.060 A 
ATOM      6  C   UNL A   1      43.998  27.158  26.476  1.00  0.00     0.016 A 
ATOM      7  C   UNL A   1      42.576  25.295  27.018  1.00  0.00     0.016 A 
ATOM      8  C   UNL A   1      43.402  27.908  27.492  1.00  0.00     0.010 A 
ATOM      9  C   UNL A   1      41.972  26.039  28.034  1.00  0.00     0.010 A 
ATOM     10  C   UNL A   1      42.395  27.349  28.279  1.00  0.00    -0.014 A 
BRANCH  10  11
ATOM     11  C   UNL A   1      41.925  28.067  29.478  1.00  0.00     0.031 A 
ATOM     12  C   UNL A   1      40.732  28.958  29.344  1.00  0.00     0.074 A 
ATOM     13  C   UNL A   1      42.498  27.872  30.676  1.00  0.00     0.049 A 
ATOM     14  N   UNL A   1      40.119  29.663  30.258  1.00  0.00    -0.248 NA
ATOM     15  C   UNL A   1      40.117  29.028  28.008  1.00  0.00     0.031 C 
ATOM     16  C   UNL A   1      43.562  26.913  30.953  1.00  0.00     0.029 A 
ATOM     17  N   UNL A   1      42.258  28.470  31.886  1.00  0.00    -0.354 N 
ATOM     18  C   UNL A   1      39.007  30.195  29.626  1.00  0.00     0.074 A 
ATOM     19  C   UNL A   1      39.075  29.811  28.234  1.00  0.00     0.031 C 
ATOM     20  C   UNL A   1      43.918  27.022  32.244  1.00  0.00     0.029 A 
ATOM     21  C   UNL A   1      43.128  28.076  32.870  1.00  0.00     0.049 A 
ATOM     22  H   UNL A   1      41.533  29.119  32.034  1.00  0.00     0.167 HD
ATOM     23  C   UNL A   1      37.995  30.906  30.173  1.00  0.00     0.037 A 
ATOM     24  C   UNL A   1      43.280  28.528  34.127  1.00  0.00     0.037 A 
ATOM     25  C   UNL A   1      37.980  31.356  31.537  1.00  0.00     0.049 A 
ATOM     26  C   UNL A   1      42.303  29.543  34.648  1.00  0.00     0.074 A 
ATOM     27  C   UNL A   1      37.057  32.163  32.174  1.00  0.00     0.029 A 
ATOM     28  N   UNL A   1      38.963  31.052  32.471  1.00  0.00    -0.354 N 
ATOM     29  N   UNL A   1      41.260  30.061  34.046  1.00  0.00    -0.248 NA
ATOM     30  C   UNL A   1      42.501  30.013  36.025  1.00  0.00     0.031 C 
ATOM     31  C   UNL A   1      37.506  32.384  33.482  1.00  0.00     0.029 A 
ATOM     32  C   UNL A   1      38.680  31.674  33.676  1.00  0.00     0.049 A 
ATOM     33  H   UNL A   1      39.745  30.479  32.301  1.00  0.00     0.167 HD
ATOM     34  C   UNL A   1      40.636  30.865  34.988  1.00  0.00     0.074 A 
ATOM     35  C   UNL A   1      41.437  30.789  36.193  1.00  0.00     0.031 C 
ATOM     36  C   UNL A   1      39.485  31.574  34.869  1.00  0.00     0.037 A 
BRANCH  23  37
ATOM     37  C   UNL A   1      36.851  31.235  29.265  1.00  0.00     0.064 A 
ATOM     38  C   UNL A   1      36.671  32.539  28.773  1.00  0.00     0.173 A 
ATOM     39  C   UNL A   1      35.895  30.268  28.931  1.00  0.00     0.173 A 
ATOM     40  F   UNL A   1      37.545  33.506  29.091  1.00  0.00    -0.203 F 
ATOM     41  C   UNL A   1      35.557  32.868  28.007  1.00  0.00     0.198 A 
ATOM     42  C   UNL A   1      34.794  30.595  28.145  1.00  0.00     0.198 A 
ATOM     43  F   UNL A   1      36.015  29.012  29.387  1.00  0.00    -0.203 F 
ATOM     44  F   UNL A   1      35.373  34.132  27.603  1.00  0.00    -0.200 F 
ATOM     45  C   UNL A   1      34.620  31.896  27.693  1.00  0.00     0.200 A 
ATOM     46  F   UNL A   1      33.886  29.656  27.843  1.00  0.00    -0.200 F 
ATOM     47  F   UNL A   1      33.537  32.216  26.970  1.00  0.00    -0.200 F 
ENDBRANCH  23  37
BRANCH  24  48
ATOM     48  C   UNL A   1      44.391  28.007  34.965  1.00  0.00     0.064 A 
ATOM     49  C   UNL A   1      45.622  28.669  35.034  1.00  0.00     0.173 A 
ATOM     50  C   UNL A   1      44.226  26.849  35.743  1.00  0.00     0.173 A 
ATOM     51  F   UNL A   1      45.830  29.771  34.301  1.00  0.00    -0.203 F 
ATOM     52  C   UNL A   1      46.650  28.191  35.845  1.00  0.00     0.198 A 
ATOM     53  C   UNL A   1      45.249  26.380  36.564  1.00  0.00     0.198 A 
ATOM     54  F   UNL A   1      43.060  26.185  35.722  1.00  0.00    -0.203 F 
ATOM     55  F   UNL A   1      47.826  28.833  35.881  1.00  0.00    -0.200 F 
ATOM     56  C   UNL A   1      46.462  27.051  36.612  1.00  0.00     0.200 A 
ATOM     57  F   UNL A   1      45.057  25.284  37.309  1.00  0.00    -0.200 F 
ATOM     58  F   UNL A   1      47.449  26.597  37.398  1.00  0.00    -0.200 F 
ENDBRANCH  24  48
BRANCH  36  59
ATOM     59  C   UNL A   1      38.979  32.270  36.097  1.00  0.00     0.064 A 
ATOM     60  C   UNL A   1      38.174  31.618  37.039  1.00  0.00     0.173 A 
ATOM     61  C   UNL A   1      39.359  33.597  36.355  1.00  0.00     0.173 A 
ATOM     62  F   UNL A   1      37.772  30.356  36.827  1.00  0.00    -0.203 F 
ATOM     63  C   UNL A   1      37.753  32.276  38.192  1.00  0.00     0.198 A 
ATOM     64  C   UNL A   1      38.959  34.241  37.522  1.00  0.00     0.198 A 
ATOM     65  F   UNL A   1      40.132  34.261  35.484  1.00  0.00    -0.203 F 
ATOM     66  F   UNL A   1      36.951  31.647  39.064  1.00  0.00    -0.200 F 
ATOM     67  C   UNL A   1      38.153  33.581  38.436  1.00  0.00     0.200 A 
ATOM     68  F   UNL A   1      39.359  35.497  37.762  1.00  0.00    -0.200 F 
ATOM     69  F   UNL A   1      37.756  34.207  39.553  1.00  0.00    -0.200 F 
ENDBRANCH  36  59
ENDBRANCH  10  11
ENDBRANCH   3   5
ENDBRANCH   2   3
ENDBRANCH   1   2
BRANCH   1  70
ATOM     70  C   UNL A   1      46.470  22.935  24.406  1.00  0.00     0.275 C 
BRANCH  70  71
ATOM     71  O   UNL A   1      46.340  21.937  25.433  1.00  0.00    -0.457 OA
BRANCH  71  72
ATOM     72  C   UNL A   1      46.182  20.665  24.972  1.00  0.00     0.357 C 
ATOM     73  O   UNL A   1      47.053  19.940  24.515  1.00  0.00    -0.244 OA
BRANCH  72  74
ATOM     74  C   UNL A   1      44.805  20.201  25.257  1.00  0.00     0.150 A 
ATOM     75  C   UNL A   1      44.522  18.853  25.063  1.00  0.00     0.040 A 
ATOM     76  N   UNL A   1      43.899  21.118  25.683  1.00  0.00    -0.230 NA
ATOM     77  C   UNL A   1      43.259  18.388  25.413  1.00  0.00     0.051 A 
ATOM     78  C   UNL A   1      42.655  20.646  25.930  1.00  0.00     0.148 A 
ATOM     79  C   UNL A   1      42.312  19.294  25.869  1.00  0.00     0.148 A 
ATOM     80  Br  UNL A   1      41.306  21.934  26.299  1.00  0.00    -0.025 Br
BRANCH  79  81
ATOM     81  O   UNL A   1      41.095  18.792  26.231  1.00  0.00    -0.505 OA
ATOM     82  H   UNL A   1      41.043  17.979  26.693  1.00  0.00     0.293 HD
ENDBRANCH  79  81
ENDBRANCH  72  74
ENDBRANCH  71  72
ENDBRANCH  70  71
ENDBRANCH   1  70
TORSDOF 12
ENDMDL
MODEL 2
REMARK VINA RESULT:     -11.3      5.472     11.461
REMARK SMILES O=C(OCCOC(=O)c1ccc(O)c(Br)n1)c1ccc(-c2c3nc(c(-c4c(F)c(F)c(F)c(F)c4F)c4ccc([nH]4)c(-c4c(F)c(F)c(F)c(F)c4F)c4nc(c(-c5c(F)c(F)c(F)c(F)c5F)c5ccc2[nH]5)C=C4)C=C3)cc1
REMARK SMILES IDX 4 1 3 2 2 3 1 4 17 5 18 6 79 7 19 8 78 9 20 10 21 11 22 12
REMARK SMILES IDX 72 13 23 14 77 15 71 16 73 17 24 18 76 19 70 20 69 21 25 23
REMARK SMILES IDX 57 24 37 25 56 26 38 27 41 28 55 29 74 30 39 31 40 32 54 34
REMARK SMILES IDX 75 35 42 36 26 37 27 38 35 39 28 40 29 41 33 42 36 43 30 44
REMARK SMILES IDX 31 45 34 46 32 47 58 48 59 49 67 50 60 51 61 52 65 53 68 54
REMARK SMILES IDX 62 55 63 56 66 57 64 58 43 59 44 60 52 61 45 62 46 63 50 64
REMARK SMILES IDX 53 65 47 66 48 67 51 68 49 69 5 70 6 71 7 72 8 73 9 74 10 75
REMARK SMILES IDX 16 76 11 77 14 78 12 79 15 80 13 81
REMARK H PARENT 73 22 41 33 13 82
REMARK Flexibility Score: inf
ROOT
ATOM      1  C   UNL A   1      33.099  36.301  28.778  1.00  0.00     0.275 C 
ENDROOT
BRANCH   1   2
ATOM      2  O   UNL A   1      34.223  35.518  28.340  1.00  0.00    -0.458 OA
BRANCH   2   3
ATOM      3  C   UNL A   1      34.220  34.190  28.075  1.00  0.00     0.338 C 
ATOM      4  O   UNL A   1      33.221  33.665  27.590  1.00  0.00    -0.246 OA
BRANCH   3   5
ATOM      5  C   UNL A   1      35.292  33.293  28.606  1.00  0.00     0.060 A 
ATOM      6  C   UNL A   1      35.112  31.988  29.071  1.00  0.00     0.016 A 
ATOM      7  C   UNL A   1      36.587  33.843  28.659  1.00  0.00     0.016 A 
ATOM      8  C   UNL A   1      36.194  31.229  29.521  1.00  0.00     0.010 A 
ATOM      9  C   UNL A   1      37.675  33.090  29.105  1.00  0.00     0.010 A 
ATOM     10  C   UNL A   1      37.475  31.779  29.549  1.00  0.00    -0.014 A 
BRANCH  10  11
ATOM     11  C   UNL A   1      38.567  31.052  30.222  1.00  0.00     0.031 A 
ATOM     12  C   UNL A   1      38.922  31.448  31.619  1.00  0.00     0.074 A 
ATOM     13  C   UNL A   1      39.177  30.011  29.633  1.00  0.00     0.049 A 
ATOM     14  N   UNL A   1      39.818  30.937  32.422  1.00  0.00    -0.248 NA
ATOM     15  C   UNL A   1      38.126  32.537  32.209  1.00  0.00     0.031 C 
ATOM     16  C   UNL A   1      38.809  29.442  28.342  1.00  0.00     0.029 A 
ATOM     17  N   UNL A   1      40.235  29.246  30.052  1.00  0.00    -0.354 N 
ATOM     18  C   UNL A   1      39.640  31.589  33.631  1.00  0.00     0.074 A 
ATOM     19  C   UNL A   1      38.618  32.593  33.436  1.00  0.00     0.031 C 
ATOM     20  C   UNL A   1      39.661  28.444  28.050  1.00  0.00     0.029 A 
ATOM     21  C   UNL A   1      40.647  28.330  29.118  1.00  0.00     0.049 A 
ATOM     22  H   UNL A   1      40.658  29.346  30.935  1.00  0.00     0.167 HD
ATOM     23  C   UNL A   1      40.250  31.339  34.812  1.00  0.00     0.037 A 
ATOM     24  C   UNL A   1      41.709  27.505  29.121  1.00  0.00     0.037 A 
ATOM     25  C   UNL A   1      41.323  30.399  34.975  1.00  0.00     0.049 A 
ATOM     26  C   UNL A   1      42.562  27.435  30.356  1.00  0.00     0.074 A 
ATOM     27  C   UNL A   1      42.080  30.133  36.100  1.00  0.00     0.029 A 
ATOM     28  N   UNL A   1      41.811  29.586  33.959  1.00  0.00    -0.354 N 
ATOM     29  N   UNL A   1      42.406  28.064  31.495  1.00  0.00    -0.248 NA
ATOM     30  C   UNL A   1      43.712  26.525  30.321  1.00  0.00     0.031 C 
ATOM     31  C   UNL A   1      43.055  29.191  35.752  1.00  0.00     0.029 A 
ATOM     32  C   UNL A   1      42.875  28.831  34.426  1.00  0.00     0.049 A 
ATOM     33  H   UNL A   1      41.453  29.552  33.043  1.00  0.00     0.167 HD
ATOM     34  C   UNL A   1      43.394  27.578  32.338  1.00  0.00     0.074 A 
ATOM     35  C   UNL A   1      44.164  26.623  31.565  1.00  0.00     0.031 C 
ATOM     36  C   UNL A   1      43.619  27.876  33.642  1.00  0.00     0.037 A 
BRANCH  23  37
ATOM     37  C   UNL A   1      39.754  32.119  35.991  1.00  0.00     0.064 A 
ATOM     38  C   UNL A   1      40.410  33.290  36.408  1.00  0.00     0.173 A 
ATOM     39  C   UNL A   1      38.663  31.672  36.744  1.00  0.00     0.173 A 
ATOM     40  F   UNL A   1      41.480  33.740  35.735  1.00  0.00    -0.203 F 
ATOM     41  C   UNL A   1      40.010  33.964  37.558  1.00  0.00     0.198 A 
ATOM     42  C   UNL A   1      38.249  32.362  37.881  1.00  0.00     0.198 A 
ATOM     43  F   UNL A   1      38.012  30.553  36.393  1.00  0.00    -0.203 F 
ATOM     44  F   UNL A   1      40.691  35.040  37.974  1.00  0.00    -0.200 F 
ATOM     45  C   UNL A   1      38.930  33.500  38.292  1.00  0.00     0.200 A 
ATOM     46  F   UNL A   1      37.207  31.913  38.593  1.00  0.00    -0.200 F 
ATOM     47  F   UNL A   1      38.554  34.139  39.410  1.00  0.00    -0.200 F 
ENDBRANCH  23  37
BRANCH  24  48
ATOM     48  C   UNL A   1      42.003  26.683  27.918  1.00  0.00     0.064 A 
ATOM     49  C   UNL A   1      42.916  27.113  26.948  1.00  0.00     0.173 A 
ATOM     50  C   UNL A   1      41.395  25.430  27.736  1.00  0.00     0.173 A 
ATOM     51  F   UNL A   1      43.512  28.307  27.074  1.00  0.00    -0.203 F 
ATOM     52  C   UNL A   1      43.209  26.323  25.838  1.00  0.00     0.198 A 
ATOM     53  C   UNL A   1      41.699  24.636  26.632  1.00  0.00     0.198 A 
ATOM     54  F   UNL A   1      40.522  24.967  28.644  1.00  0.00    -0.203 F 
ATOM     55  F   UNL A   1      44.075  26.764  24.914  1.00  0.00    -0.200 F 
ATOM     56  C   UNL A   1      42.604  25.084  25.683  1.00  0.00     0.200 A 
ATOM     57  F   UNL A   1      41.119  23.436  26.494  1.00  0.00    -0.200 F 
ATOM     58  F   UNL A   1      42.893  24.323  24.618  1.00  0.00    -0.200 F 
ENDBRANCH  24  48
BRANCH  36  59
ATOM     59  C   UNL A   1      44.699  27.107  34.344  1.00  0.00     0.064 A 
ATOM     60  C   UNL A   1      46.010  27.591  34.439  1.00  0.00     0.173 A 
ATOM     61  C   UNL A   1      44.393  25.894  34.980  1.00  0.00     0.173 A 
ATOM     62  F   UNL A   1      46.353  28.737  33.834  1.00  0.00    -0.203 F 
ATOM     63  C   UNL A   1      46.983  26.876  35.134  1.00  0.00     0.198 A 
ATOM     64  C   UNL A   1      45.360  25.197  35.697  1.00  0.00     0.198 A 
ATOM     65  F   UNL A   1      43.150  25.393  34.919  1.00  0.00    -0.203 F 
ATOM     66  F   UNL A   1      48.242  27.336  35.181  1.00  0.00    -0.200 F 
ATOM     67  C   UNL A   1      46.656  25.687  35.769  1.00  0.00     0.200 A 
ATOM     68  F   UNL A   1      45.038  24.056  36.320  1.00  0.00    -0.200 F 
ATOM     69  F   UNL A   1      47.591  25.008  36.447  1.00  0.00    -0.200 F 
ENDBRANCH  36  59
ENDBRANCH  10  11
ENDBRANCH   3   5
ENDBRANCH   2   3
ENDBRANCH   1   2
BRANCH   1  70
ATOM     70  C   UNL A   1      33.472  37.371  29.810  1.00  0.00     0.275 C 
BRANCH  70  71
ATOM     71  O   UNL A   1      32.804  37.206  31.073  1.00  0.00    -0.457 OA
BRANCH  71  72
ATOM     72  C   UNL A   1      33.619  37.285  32.162  1.00  0.00     0.357 C 
ATOM     73  O   UNL A   1      33.882  38.289  32.806  1.00  0.00    -0.244 OA
BRANCH  72  74
ATOM     74  C   UNL A   1      34.029  35.924  32.574  1.00  0.00     0.150 A 
ATOM     75  C   UNL A   1      33.548  34.849  31.833  1.00  0.00     0.040 A 
ATOM     76  N   UNL A   1      34.844  35.803  33.654  1.00  0.00    -0.230 NA
ATOM     77  C   UNL A   1      33.998  33.573  32.154  1.00  0.00     0.051 A 
ATOM     78  C   UNL A   1      35.190  34.539  33.991  1.00  0.00     0.148 A 
ATOM     79  C   UNL A   1      34.845  33.413  33.241  1.00  0.00     0.148 A 
ATOM     80  Br  UNL A   1      36.132  34.315  35.628  1.00  0.00    -0.025 Br
BRANCH  79  81
ATOM     81  O   UNL A   1      35.288  32.149  33.503  1.00  0.00    -0.505 OA
ATOM     82  H   UNL A   1      35.511  31.904  34.380  1.00  0.00     0.293 HD
ENDBRANCH  79  81
ENDBRANCH  72  74
ENDBRANCH  71  72
ENDBRANCH  70  71
ENDBRANCH   1  70
TORSDOF 12
ENDMDL
MODEL 3
REMARK VINA RESULT:     -11.2      1.790      2.743
REMARK SMILES O=C(OCCOC(=O)c1ccc(O)c(Br)n1)c1ccc(-c2c3nc(c(-c4c(F)c(F)c(F)c(F)c4F)c4ccc([nH]4)c(-c4c(F)c(F)c(F)c(F)c4F)c4nc(c(-c5c(F)c(F)c(F)c(F)c5F)c5ccc2[nH]5)C=C4)C=C3)cc1
REMARK SMILES IDX 4 1 3 2 2 3 1 4 17 5 18 6 79 7 19 8 78 9 20 10 21 11 22 12
REMARK SMILES IDX 72 13 23 14 77 15 71 16 73 17 24 18 76 19 70 20 69 21 25 23
REMARK SMILES IDX 57 24 37 25 56 26 38 27 41 28 55 29 74 30 39 31 40 32 54 34
REMARK SMILES IDX 75 35 42 36 26 37 27 38 35 39 28 40 29 41 33 42 36 43 30 44
REMARK SMILES IDX 31 45 34 46 32 47 58 48 59 49 67 50 60 51 61 52 65 53 68 54
REMARK SMILES IDX 62 55 63 56 66 57 64 58 43 59 44 60 52 61 45 62 46 63 50 64
REMARK SMILES IDX 53 65 47 66 48 67 51 68 49 69 5 70 6 71 7 72 8 73 9 74 10 75
REMARK SMILES IDX 16 76 11 77 14 78 12 79 15 80 13 81
REMARK H PARENT 73 22 41 33 13 82
REMARK Flexibility Score: inf
ROOT
ATOM      1  C   UNL A   1      43.852  22.234  25.171  1.00  0.00     0.275 C 
ENDROOT
BRANCH   1   2
ATOM      2  O   UNL A   1      43.334  23.536  24.848  1.00  0.00    -0.458 OA
BRANCH   2   3
ATOM      3  C   UNL A   1      43.933  24.723  25.107  1.00  0.00     0.338 C 
ATOM      4  O   UNL A   1      45.036  24.969  24.626  1.00  0.00    -0.246 OA
BRANCH   3   5
ATOM      5  C   UNL A   1      43.419  25.632  26.178  1.00  0.00     0.060 A 
ATOM      6  C   UNL A   1      43.898  26.912  26.464  1.00  0.00     0.016 A 
ATOM      7  C   UNL A   1      42.378  25.120  26.974  1.00  0.00     0.016 A 
ATOM      8  C   UNL A   1      43.323  27.686  27.474  1.00  0.00     0.010 A 
ATOM      9  C   UNL A   1      41.794  25.888  27.984  1.00  0.00     0.010 A 
ATOM     10  C   UNL A   1      42.277  27.175  28.242  1.00  0.00    -0.014 A 
BRANCH  10  11
ATOM     11  C   UNL A   1      41.823  27.910  29.437  1.00  0.00     0.031 A 
ATOM     12  C   UNL A   1      40.650  28.826  29.299  1.00  0.00     0.074 A 
ATOM     13  C   UNL A   1      42.393  27.710  30.636  1.00  0.00     0.049 A 
ATOM     14  N   UNL A   1      40.053  29.550  30.208  1.00  0.00    -0.248 NA
ATOM     15  C   UNL A   1      40.036  28.900  27.962  1.00  0.00     0.031 C 
ATOM     16  C   UNL A   1      43.437  26.730  30.918  1.00  0.00     0.029 A 
ATOM     17  N   UNL A   1      42.167  28.320  31.842  1.00  0.00    -0.354 N 
ATOM     18  C   UNL A   1      38.952  30.101  29.574  1.00  0.00     0.074 A 
ATOM     19  C   UNL A   1      39.011  29.707  28.184  1.00  0.00     0.031 C 
ATOM     20  C   UNL A   1      43.796  26.839  32.209  1.00  0.00     0.029 A 
ATOM     21  C   UNL A   1      43.029  27.913  32.828  1.00  0.00     0.049 A 
ATOM     22  H   UNL A   1      41.457  28.986  31.986  1.00  0.00     0.167 HD
ATOM     23  C   UNL A   1      37.957  30.838  30.117  1.00  0.00     0.037 A 
ATOM     24  C   UNL A   1      43.192  28.370  34.083  1.00  0.00     0.037 A 
ATOM     25  C   UNL A   1      37.952  31.296  31.478  1.00  0.00     0.049 A 
ATOM     26  C   UNL A   1      42.238  29.409  34.598  1.00  0.00     0.074 A 
ATOM     27  C   UNL A   1      37.047  32.126  32.110  1.00  0.00     0.029 A 
ATOM     28  N   UNL A   1      38.929  30.976  32.413  1.00  0.00    -0.354 N 
ATOM     29  N   UNL A   1      41.206  29.946  33.993  1.00  0.00    -0.248 NA
ATOM     30  C   UNL A   1      42.446  29.883  35.971  1.00  0.00     0.031 C 
ATOM     31  C   UNL A   1      37.501  32.346  33.417  1.00  0.00     0.029 A 
ATOM     32  C   UNL A   1      38.660  31.612  33.614  1.00  0.00     0.049 A 
ATOM     33  H   UNL A   1      39.699  30.385  32.246  1.00  0.00     0.167 HD
ATOM     34  C   UNL A   1      40.599  30.769  34.930  1.00  0.00     0.074 A 
ATOM     35  C   UNL A   1      41.400  30.683  36.136  1.00  0.00     0.031 C 
ATOM     36  C   UNL A   1      39.464  31.502  34.808  1.00  0.00     0.037 A 
BRANCH  23  37
ATOM     37  C   UNL A   1      36.819  31.185  29.208  1.00  0.00     0.064 A 
ATOM     38  C   UNL A   1      36.633  32.502  28.755  1.00  0.00     0.173 A 
ATOM     39  C   UNL A   1      35.874  30.221  28.834  1.00  0.00     0.173 A 
ATOM     40  F   UNL A   1      37.495  33.466  29.112  1.00  0.00    -0.203 F 
ATOM     41  C   UNL A   1      35.524  32.846  27.988  1.00  0.00     0.198 A 
ATOM     42  C   UNL A   1      34.779  30.564  28.046  1.00  0.00     0.198 A 
ATOM     43  F   UNL A   1      36.001  28.953  29.252  1.00  0.00    -0.203 F 
ATOM     44  F   UNL A   1      35.333  34.121  27.621  1.00  0.00    -0.200 F 
ATOM     45  C   UNL A   1      34.599  31.877  27.634  1.00  0.00     0.200 A 
ATOM     46  F   UNL A   1      33.882  29.628  27.706  1.00  0.00    -0.200 F 
ATOM     47  F   UNL A   1      33.521  32.211  26.909  1.00  0.00    -0.200 F 
ENDBRANCH  23  37
BRANCH  24  48
ATOM     48  C   UNL A   1      44.292  27.830  34.923  1.00  0.00     0.064 A 
ATOM     49  C   UNL A   1      44.122  26.668  35.685  1.00  0.00     0.173 A 
ATOM     50  C   UNL A   1      45.550  28.454  34.951  1.00  0.00     0.173 A 
ATOM     51  F   UNL A   1      42.936  26.045  35.698  1.00  0.00    -0.203 F 
ATOM     52  C   UNL A   1      45.167  26.151  36.448  1.00  0.00     0.198 A 
ATOM     53  C   UNL A   1      46.598  27.928  35.704  1.00  0.00     0.198 A 
ATOM     54  F   UNL A   1      45.767  29.563  34.228  1.00  0.00    -0.203 F 
ATOM     55  F   UNL A   1      44.976  25.046  37.182  1.00  0.00    -0.200 F 
ATOM     56  C   UNL A   1      46.405  26.778  36.454  1.00  0.00     0.200 A 
ATOM     57  F   UNL A   1      47.793  28.533  35.697  1.00  0.00    -0.200 F 
ATOM     58  F   UNL A   1      47.411  26.275  37.182  1.00  0.00    -0.200 F 
ENDBRANCH  24  48
BRANCH  36  59
ATOM     59  C   UNL A   1      38.974  32.216  36.032  1.00  0.00     0.064 A 
ATOM     60  C   UNL A   1      38.184  31.577  36.996  1.00  0.00     0.173 A 
ATOM     61  C   UNL A   1      39.354  33.548  36.263  1.00  0.00     0.173 A 
ATOM     62  F   UNL A   1      37.783  30.311  36.810  1.00  0.00    -0.203 F 
ATOM     63  C   UNL A   1      37.778  32.252  38.144  1.00  0.00     0.198 A 
ATOM     64  C   UNL A   1      38.970  34.209  37.425  1.00  0.00     0.198 A 
ATOM     65  F   UNL A   1      40.112  34.200  35.370  1.00  0.00    -0.203 F 
ATOM     66  F   UNL A   1      36.991  31.636  39.037  1.00  0.00    -0.200 F 
ATOM     67  C   UNL A   1      38.178  33.563  38.362  1.00  0.00     0.200 A 
ATOM     68  F   UNL A   1      39.369  35.471  37.639  1.00  0.00    -0.200 F 
ATOM     69  F   UNL A   1      37.796  34.205  39.474  1.00  0.00    -0.200 F 
ENDBRANCH  36  59
ENDBRANCH  10  11
ENDBRANCH   3   5
ENDBRANCH   2   3
ENDBRANCH   1   2
BRANCH   1  70
ATOM     70  C   UNL A   1      42.951  21.443  26.126  1.00  0.00     0.275 C 
BRANCH  70  71
ATOM     71  O   UNL A   1      41.568  21.436  25.734  1.00  0.00    -0.457 OA
BRANCH  71  72
ATOM     72  C   UNL A   1      40.686  21.309  26.765  1.00  0.00     0.357 C 
ATOM     73  O   UNL A   1      40.901  20.798  27.853  1.00  0.00    -0.244 OA
BRANCH  72  74
ATOM     74  C   UNL A   1      39.439  22.039  26.442  1.00  0.00     0.150 A 
ATOM     75  C   UNL A   1      39.328  23.356  26.877  1.00  0.00     0.040 A 
ATOM     76  N   UNL A   1      38.475  21.380  25.749  1.00  0.00    -0.230 NA
ATOM     77  C   UNL A   1      38.201  24.080  26.503  1.00  0.00     0.051 A 
ATOM     78  C   UNL A   1      37.355  22.090  25.479  1.00  0.00     0.148 A 
ATOM     79  C   UNL A   1      37.203  23.445  25.779  1.00  0.00     0.148 A 
ATOM     80  Br  UNL A   1      35.895  21.135  24.721  1.00  0.00    -0.025 Br
BRANCH  79  81
ATOM     81  O   UNL A   1      36.129  24.200  25.405  1.00  0.00    -0.505 OA
ATOM     82  H   UNL A   1      35.539  24.528  26.055  1.00  0.00     0.293 HD
ENDBRANCH  79  81
ENDBRANCH  72  74
ENDBRANCH  71  72
ENDBRANCH  70  71
ENDBRANCH   1  70
TORSDOF 12
ENDMDL
