MODEL 1
REMARK VINA RESULT:     -10.4      0.000      0.000
REMARK SMILES COCc1cccc(O[C@@H](F)C(=O)OCCOC(=O)c2ccc(-c3c4nc(c(-c5c(F)c(F)c(F)c(F)c5F)c5ccc([nH]5)c(-c5c(F)c(F)c(F)c(F)c5F)c5nc(c(-c6c(F)c(F)c(F)c(F)c6F)c6ccc3[nH]6)C=C5)C=C4)cc2)c1
REMARK SMILES IDX 15 1 14 2 12 3 13 4 10 5 11 6 9 7 8 8 4 9 5 10 83 11 6 12
REMARK SMILES IDX 7 13 3 14 2 15 1 16 16 17 17 18 18 19 19 20 20 21 21 22
REMARK SMILES IDX 82 23 22 24 81 25 23 26 24 27 25 28 75 29 26 30 80 31 74 32
REMARK SMILES IDX 76 33 27 34 79 35 73 36 72 37 28 39 60 40 40 41 59 42 41 43
REMARK SMILES IDX 44 44 58 45 77 46 42 47 43 48 57 50 78 51 45 52 29 53 30 54
REMARK SMILES IDX 38 55 31 56 32 57 36 58 39 59 33 60 34 61 37 62 35 63 61 64
REMARK SMILES IDX 62 65 70 66 63 67 64 68 68 69 71 70 65 71 66 72 69 73 67 74
REMARK SMILES IDX 46 75 47 76 55 77 48 78 49 79 53 80 56 81 50 82 51 83 54 84
REMARK SMILES IDX 52 85
REMARK H PARENT 76 38 44 49
REMARK Flexibility Score: inf
ROOT
ATOM      1  C   UNL A   1      33.252  35.068  28.841  1.00  0.00     0.274 C 
ENDROOT
BRANCH   1   2
ATOM      2  O   UNL A   1      32.461  35.115  30.045  1.00  0.00    -0.457 OA
BRANCH   2   3
ATOM      3  C   UNL A   1      32.743  36.078  30.965  1.00  0.00     0.381 C 
ATOM      4  O   UNL A   1      32.830  37.274  30.695  1.00  0.00    -0.244 OA
BRANCH   3   5
ATOM      5  C   UNL A   1      32.969  35.515  32.399  1.00  0.00     0.461 C 
ATOM      6  F   UNL A   1      33.476  36.475  33.236  1.00  0.00    -0.189 F 
BRANCH   5   7
ATOM      7  O   UNL A   1      33.653  34.304  32.673  1.00  0.00    -0.451 OA
BRANCH   7   8
ATOM      8  C   UNL A   1      34.943  34.398  33.109  1.00  0.00     0.124 A 
ATOM      9  C   UNL A   1      37.342  34.590  32.775  1.00  0.00    -0.019 A 
ATOM     10  C   UNL A   1      37.535  34.229  34.118  1.00  0.00     0.006 A 
ATOM     11  C   UNL A   1      36.031  34.741  32.308  1.00  0.00     0.052 A 
ATOM     12  C   UNL A   1      36.445  33.998  34.958  1.00  0.00     0.004 A 
ATOM     13  C   UNL A   1      35.151  34.067  34.447  1.00  0.00     0.046 A 
BRANCH   9  14
ATOM     14  C   UNL A   1      38.540  34.721  31.861  1.00  0.00     0.195 C 
BRANCH  14  15
ATOM     15  O   UNL A   1      38.240  34.579  30.470  1.00  0.00    -0.380 OA
ATOM     16  C   UNL A   1      39.364  34.767  29.620  1.00  0.00     0.195 C 
ENDBRANCH  14  15
ENDBRANCH   9  14
ENDBRANCH   7   8
ENDBRANCH   5   7
ENDBRANCH   3   5
ENDBRANCH   2   3
ENDBRANCH   1   2
BRANCH   1  17
ATOM     17  C   UNL A   1      32.980  33.781  28.063  1.00  0.00     0.275 C 
BRANCH  17  18
ATOM     18  O   UNL A   1      34.219  33.163  27.673  1.00  0.00    -0.458 OA
BRANCH  18  19
ATOM     19  C   UNL A   1      34.175  31.812  27.633  1.00  0.00     0.338 C 
ATOM     20  O   UNL A   1      33.299  31.106  27.165  1.00  0.00    -0.246 OA
BRANCH  19  21
ATOM     21  C   UNL A   1      35.462  31.272  28.084  1.00  0.00     0.060 A 
ATOM     22  C   UNL A   1      35.478  29.946  28.526  1.00  0.00     0.016 A 
ATOM     23  C   UNL A   1      36.611  32.065  28.144  1.00  0.00     0.016 A 
ATOM     24  C   UNL A   1      36.640  29.408  29.060  1.00  0.00     0.010 A 
ATOM     25  C   UNL A   1      37.775  31.528  28.694  1.00  0.00     0.010 A 
ATOM     26  C   UNL A   1      37.784  30.207  29.177  1.00  0.00    -0.014 A 
BRANCH  26  27
ATOM     27  C   UNL A   1      38.939  29.684  29.935  1.00  0.00     0.031 A 
ATOM     28  C   UNL A   1      39.151  30.146  31.347  1.00  0.00     0.074 A 
ATOM     29  C   UNL A   1      39.747  28.768  29.379  1.00  0.00     0.049 A 
ATOM     30  N   UNL A   1      40.103  29.835  32.187  1.00  0.00    -0.248 NA
ATOM     31  C   UNL A   1      38.156  31.087  31.883  1.00  0.00     0.031 C 
ATOM     32  C   UNL A   1      39.601  28.225  28.030  1.00  0.00     0.029 A 
ATOM     33  N   UNL A   1      40.849  28.130  29.885  1.00  0.00    -0.354 N 
ATOM     34  C   UNL A   1      39.835  30.557  33.341  1.00  0.00     0.074 A 
ATOM     35  C   UNL A   1      38.639  31.333  33.091  1.00  0.00     0.031 C 
ATOM     36  C   UNL A   1      40.584  27.336  27.812  1.00  0.00     0.029 A 
ATOM     37  C   UNL A   1      41.441  27.272  28.994  1.00  0.00     0.049 A 
ATOM     38  H   UNL A   1      41.184  28.274  30.800  1.00  0.00     0.167 HD
ATOM     39  C   UNL A   1      40.528  30.568  34.504  1.00  0.00     0.037 A 
ATOM     40  C   UNL A   1      42.559  26.534  29.118  1.00  0.00     0.037 A 
ATOM     41  C   UNL A   1      41.703  29.776  34.747  1.00  0.00     0.049 A 
ATOM     42  C   UNL A   1      43.318  26.572  30.416  1.00  0.00     0.074 A 
ATOM     43  C   UNL A   1      42.471  29.696  35.896  1.00  0.00     0.029 A 
ATOM     44  N   UNL A   1      42.281  28.922  33.818  1.00  0.00    -0.354 N 
ATOM     45  N   UNL A   1      43.058  27.254  31.506  1.00  0.00    -0.248 NA
ATOM     46  C   UNL A   1      44.521  25.734  30.504  1.00  0.00     0.031 C 
ATOM     47  C   UNL A   1      43.536  28.821  35.648  1.00  0.00     0.029 A 
ATOM     48  C   UNL A   1      43.407  28.324  34.360  1.00  0.00     0.049 A 
ATOM     49  H   UNL A   1      41.942  28.766  32.907  1.00  0.00     0.167 HD
ATOM     50  C   UNL A   1      44.055  26.922  32.412  1.00  0.00     0.074 A 
ATOM     51  C   UNL A   1      44.914  25.960  31.751  1.00  0.00     0.031 C 
ATOM     52  C   UNL A   1      44.246  27.373  33.676  1.00  0.00     0.037 A 
BRANCH  39  53
ATOM     53  C   UNL A   1      40.047  31.492  35.582  1.00  0.00     0.064 A 
ATOM     54  C   UNL A   1      38.920  31.198  36.364  1.00  0.00     0.173 A 
ATOM     55  C   UNL A   1      40.727  32.693  35.836  1.00  0.00     0.173 A 
ATOM     56  F   UNL A   1      38.222  30.073  36.146  1.00  0.00    -0.203 F 
ATOM     57  C   UNL A   1      38.476  32.085  37.343  1.00  0.00     0.198 A 
ATOM     58  C   UNL A   1      40.296  33.565  36.832  1.00  0.00     0.198 A 
ATOM     59  F   UNL A   1      41.810  33.022  35.115  1.00  0.00    -0.203 F 
ATOM     60  F   UNL A   1      37.369  31.806  38.044  1.00  0.00    -0.200 F 
ATOM     61  C   UNL A   1      39.168  33.264  37.579  1.00  0.00     0.200 A 
ATOM     62  F   UNL A   1      40.969  34.700  37.063  1.00  0.00    -0.200 F 
ATOM     63  F   UNL A   1      38.739  34.117  38.521  1.00  0.00    -0.200 F 
ENDBRANCH  39  53
BRANCH  40  64
ATOM     64  C   UNL A   1      43.026  25.713  27.973  1.00  0.00     0.064 A 
ATOM     65  C   UNL A   1      43.943  26.217  27.043  1.00  0.00     0.173 A 
ATOM     66  C   UNL A   1      42.578  24.395  27.801  1.00  0.00     0.173 A 
ATOM     67  F   UNL A   1      44.384  27.480  27.153  1.00  0.00    -0.203 F 
ATOM     68  C   UNL A   1      44.389  25.437  25.978  1.00  0.00     0.198 A 
ATOM     69  C   UNL A   1      43.043  23.607  26.751  1.00  0.00     0.198 A 
ATOM     70  F   UNL A   1      41.699  23.867  28.667  1.00  0.00    -0.203 F 
ATOM     71  F   UNL A   1      45.242  25.954  25.081  1.00  0.00    -0.200 F 
ATOM     72  C   UNL A   1      43.945  24.131  25.837  1.00  0.00     0.200 A 
ATOM     73  F   UNL A   1      42.620  22.342  26.626  1.00  0.00    -0.200 F 
ATOM     74  F   UNL A   1      44.381  23.378  24.819  1.00  0.00    -0.200 F 
ENDBRANCH  40  64
BRANCH  52  75
ATOM     75  C   UNL A   1      45.421  26.820  34.426  1.00  0.00     0.064 A 
ATOM     76  C   UNL A   1      46.684  27.424  34.354  1.00  0.00     0.173 A 
ATOM     77  C   UNL A   1      45.273  25.693  35.247  1.00  0.00     0.173 A 
ATOM     78  F   UNL A   1      46.876  28.495  33.570  1.00  0.00    -0.203 F 
ATOM     79  C   UNL A   1      47.765  26.906  35.062  1.00  0.00     0.198 A 
ATOM     80  C   UNL A   1      46.349  25.191  35.972  1.00  0.00     0.198 A 
ATOM     81  F   UNL A   1      44.083  25.083  35.353  1.00  0.00    -0.203 F 
ATOM     82  F   UNL A   1      48.973  27.472  34.946  1.00  0.00    -0.200 F 
ATOM     83  C   UNL A   1      47.596  25.793  35.874  1.00  0.00     0.200 A 
ATOM     84  F   UNL A   1      46.183  24.123  36.765  1.00  0.00    -0.200 F 
ATOM     85  F   UNL A   1      48.636  25.297  36.556  1.00  0.00    -0.200 F 
ENDBRANCH  52  75
ENDBRANCH  26  27
ENDBRANCH  19  21
ENDBRANCH  18  19
ENDBRANCH  17  18
ENDBRANCH   1  17
TORSDOF 15
ENDMDL
MODEL 2
REMARK VINA RESULT:     -10.0      6.514     12.408
REMARK SMILES COCc1cccc(O[C@@H](F)C(=O)OCCOC(=O)c2ccc(-c3c4nc(c(-c5c(F)c(F)c(F)c(F)c5F)c5ccc([nH]5)c(-c5c(F)c(F)c(F)c(F)c5F)c5nc(c(-c6c(F)c(F)c(F)c(F)c6F)c6ccc3[nH]6)C=C5)C=C4)cc2)c1
REMARK SMILES IDX 15 1 14 2 12 3 13 4 10 5 11 6 9 7 8 8 4 9 5 10 83 11 6 12
REMARK SMILES IDX 7 13 3 14 2 15 1 16 16 17 17 18 18 19 19 20 20 21 21 22
REMARK SMILES IDX 82 23 22 24 81 25 23 26 24 27 25 28 75 29 26 30 80 31 74 32
REMARK SMILES IDX 76 33 27 34 79 35 73 36 72 37 28 39 60 40 40 41 59 42 41 43
REMARK SMILES IDX 44 44 58 45 77 46 42 47 43 48 57 50 78 51 45 52 29 53 30 54
REMARK SMILES IDX 38 55 31 56 32 57 36 58 39 59 33 60 34 61 37 62 35 63 61 64
REMARK SMILES IDX 62 65 70 66 63 67 64 68 68 69 71 70 65 71 66 72 69 73 67 74
REMARK SMILES IDX 46 75 47 76 55 77 48 78 49 79 53 80 56 81 50 82 51 83 54 84
REMARK SMILES IDX 52 85
REMARK H PARENT 76 38 44 49
REMARK Flexibility Score: inf
ROOT
ATOM      1  C   UNL A   1      36.302  20.332  25.005  1.00  0.00     0.274 C 
ENDROOT
BRANCH   1   2
ATOM      2  O   UNL A   1      35.934  21.484  25.790  1.00  0.00    -0.457 OA
BRANCH   2   3
ATOM      3  C   UNL A   1      34.675  21.538  26.305  1.00  0.00     0.381 C 
ATOM      4  O   UNL A   1      34.432  21.578  27.509  1.00  0.00    -0.244 OA
BRANCH   3   5
ATOM      5  C   UNL A   1      33.562  21.522  25.217  1.00  0.00     0.461 C 
ATOM      6  F   UNL A   1      33.043  22.775  25.018  1.00  0.00    -0.189 F 
BRANCH   5   7
ATOM      7  O   UNL A   1      32.480  20.605  25.207  1.00  0.00    -0.451 OA
BRANCH   7   8
ATOM      8  C   UNL A   1      32.664  19.427  24.543  1.00  0.00     0.124 A 
ATOM      9  C   UNL A   1      33.651  17.226  24.256  1.00  0.00    -0.019 A 
ATOM     10  C   UNL A   1      33.218  17.230  22.921  1.00  0.00     0.006 A 
ATOM     11  C   UNL A   1      33.300  18.305  25.074  1.00  0.00     0.052 A 
ATOM     12  C   UNL A   1      32.479  18.300  22.415  1.00  0.00     0.004 A 
ATOM     13  C   UNL A   1      32.218  19.405  23.223  1.00  0.00     0.046 A 
BRANCH   9  14
ATOM     14  C   UNL A   1      34.547  16.108  24.743  1.00  0.00     0.195 C 
BRANCH  14  15
ATOM     15  O   UNL A   1      33.956  15.269  25.739  1.00  0.00    -0.380 OA
ATOM     16  C   UNL A   1      32.637  14.845  25.422  1.00  0.00     0.195 C 
ENDBRANCH  14  15
ENDBRANCH   9  14
ENDBRANCH   7   8
ENDBRANCH   5   7
ENDBRANCH   3   5
ENDBRANCH   2   3
ENDBRANCH   1   2
BRANCH   1  17
ATOM     17  C   UNL A   1      37.819  20.153  24.982  1.00  0.00     0.275 C 
BRANCH  17  18
ATOM     18  O   UNL A   1      38.469  21.349  25.447  1.00  0.00    -0.458 OA
BRANCH  18  19
ATOM     19  C   UNL A   1      39.529  21.124  26.256  1.00  0.00     0.338 C 
ATOM     20  O   UNL A   1      40.155  20.087  26.397  1.00  0.00    -0.246 OA
BRANCH  19  21
ATOM     21  C   UNL A   1      39.971  22.395  26.840  1.00  0.00     0.060 A 
ATOM     22  C   UNL A   1      39.343  23.557  26.384  1.00  0.00     0.016 A 
ATOM     23  C   UNL A   1      41.025  22.458  27.753  1.00  0.00     0.016 A 
ATOM     24  C   UNL A   1      39.783  24.799  26.819  1.00  0.00     0.010 A 
ATOM     25  C   UNL A   1      41.478  23.706  28.180  1.00  0.00     0.010 A 
ATOM     26  C   UNL A   1      40.875  24.879  27.693  1.00  0.00    -0.014 A 
BRANCH  26  27
ATOM     27  C   UNL A   1      41.458  26.206  27.978  1.00  0.00     0.031 A 
ATOM     28  C   UNL A   1      42.835  26.519  27.470  1.00  0.00     0.074 A 
ATOM     29  C   UNL A   1      40.737  27.131  28.632  1.00  0.00     0.049 A 
ATOM     30  N   UNL A   1      43.547  27.606  27.618  1.00  0.00    -0.248 NA
ATOM     31  C   UNL A   1      43.500  25.463  26.692  1.00  0.00     0.031 C 
ATOM     32  C   UNL A   1      39.376  26.939  29.129  1.00  0.00     0.029 A 
ATOM     33  N   UNL A   1      41.050  28.417  28.985  1.00  0.00    -0.354 N 
ATOM     34  C   UNL A   1      44.749  27.357  26.972  1.00  0.00     0.074 A 
ATOM     35  C   UNL A   1      44.679  26.012  26.442  1.00  0.00     0.031 C 
ATOM     36  C   UNL A   1      38.971  28.070  29.731  1.00  0.00     0.029 A 
ATOM     37  C   UNL A   1      40.054  29.049  29.685  1.00  0.00     0.049 A 
ATOM     38  H   UNL A   1      41.907  28.846  28.759  1.00  0.00     0.167 HD
ATOM     39  C   UNL A   1      45.815  28.181  26.835  1.00  0.00     0.037 A 
ATOM     40  C   UNL A   1      40.032  30.274  30.240  1.00  0.00     0.037 A 
ATOM     41  C   UNL A   1      45.864  29.524  27.348  1.00  0.00     0.049 A 
ATOM     42  C   UNL A   1      41.233  31.167  30.084  1.00  0.00     0.074 A 
ATOM     43  C   UNL A   1      46.886  30.451  27.249  1.00  0.00     0.029 A 
ATOM     44  N   UNL A   1      44.839  30.130  28.060  1.00  0.00    -0.354 N 
ATOM     45  N   UNL A   1      42.366  30.928  29.469  1.00  0.00    -0.248 NA
ATOM     46  C   UNL A   1      41.150  32.502  30.693  1.00  0.00     0.031 C 
ATOM     47  C   UNL A   1      46.493  31.608  27.934  1.00  0.00     0.029 A 
ATOM     48  C   UNL A   1      45.210  31.415  28.423  1.00  0.00     0.049 A 
ATOM     49  H   UNL A   1      43.976  29.709  28.277  1.00  0.00     0.167 HD
ATOM     50  C   UNL A   1      43.127  32.081  29.607  1.00  0.00     0.074 A 
ATOM     51  C   UNL A   1      42.317  33.027  30.345  1.00  0.00     0.031 C 
ATOM     52  C   UNL A   1      44.384  32.333  29.164  1.00  0.00     0.037 A 
BRANCH  39  53
ATOM     53  C   UNL A   1      47.021  27.634  26.133  1.00  0.00     0.064 A 
ATOM     54  C   UNL A   1      48.096  27.068  26.835  1.00  0.00     0.173 A 
ATOM     55  C   UNL A   1      47.101  27.676  24.732  1.00  0.00     0.173 A 
ATOM     56  F   UNL A   1      48.077  27.023  28.176  1.00  0.00    -0.203 F 
ATOM     57  C   UNL A   1      49.217  26.588  26.163  1.00  0.00     0.198 A 
ATOM     58  C   UNL A   1      48.213  27.173  24.062  1.00  0.00     0.198 A 
ATOM     59  F   UNL A   1      46.101  28.208  24.014  1.00  0.00    -0.203 F 
ATOM     60  F   UNL A   1      50.253  26.097  26.857  1.00  0.00    -0.200 F 
ATOM     61  C   UNL A   1      49.272  26.637  24.777  1.00  0.00     0.200 A 
ATOM     62  F   UNL A   1      48.261  27.214  22.724  1.00  0.00    -0.200 F 
ATOM     63  F   UNL A   1      50.353  26.176  24.132  1.00  0.00    -0.200 F 
ENDBRANCH  39  53
BRANCH  40  64
ATOM     64  C   UNL A   1      38.837  30.713  31.001  1.00  0.00     0.064 A 
ATOM     65  C   UNL A   1      38.764  30.562  32.392  1.00  0.00     0.173 A 
ATOM     66  C   UNL A   1      37.749  31.315  30.351  1.00  0.00     0.173 A 
ATOM     67  F   UNL A   1      39.770  29.973  33.055  1.00  0.00    -0.203 F 
ATOM     68  C   UNL A   1      37.644  30.989  33.103  1.00  0.00     0.198 A 
ATOM     69  C   UNL A   1      36.641  31.764  31.066  1.00  0.00     0.198 A 
ATOM     70  F   UNL A   1      37.771  31.482  29.020  1.00  0.00    -0.203 F 
ATOM     71  F   UNL A   1      37.584  30.803  34.429  1.00  0.00    -0.200 F 
ATOM     72  C   UNL A   1      36.587  31.596  32.441  1.00  0.00     0.200 A 
ATOM     73  F   UNL A   1      35.628  32.361  30.423  1.00  0.00    -0.200 F 
ATOM     74  F   UNL A   1      35.516  32.015  33.127  1.00  0.00    -0.200 F 
ENDBRANCH  40  64
BRANCH  52  75
ATOM     75  C   UNL A   1      44.948  33.691  29.459  1.00  0.00     0.064 A 
ATOM     76  C   UNL A   1      44.744  34.772  28.589  1.00  0.00     0.173 A 
ATOM     77  C   UNL A   1      45.673  33.919  30.638  1.00  0.00     0.173 A 
ATOM     78  F   UNL A   1      44.069  34.597  27.443  1.00  0.00    -0.203 F 
ATOM     79  C   UNL A   1      45.265  36.029  28.879  1.00  0.00     0.198 A 
ATOM     80  C   UNL A   1      46.172  35.183  30.936  1.00  0.00     0.198 A 
ATOM     81  F   UNL A   1      45.890  32.918  31.504  1.00  0.00    -0.203 F 
ATOM     82  F   UNL A   1      45.096  37.038  28.014  1.00  0.00    -0.200 F 
ATOM     83  C   UNL A   1      45.975  36.235  30.054  1.00  0.00     0.200 A 
ATOM     84  F   UNL A   1      46.849  35.384  32.076  1.00  0.00    -0.200 F 
ATOM     85  F   UNL A   1      46.474  37.447  30.332  1.00  0.00    -0.200 F 
ENDBRANCH  52  75
ENDBRANCH  26  27
ENDBRANCH  19  21
ENDBRANCH  18  19
ENDBRANCH  17  18
ENDBRANCH   1  17
TORSDOF 15
ENDMDL
MODEL 3
REMARK VINA RESULT:      -9.9      5.489     12.033
REMARK SMILES COCc1cccc(O[C@@H](F)C(=O)OCCOC(=O)c2ccc(-c3c4nc(c(-c5c(F)c(F)c(F)c(F)c5F)c5ccc([nH]5)c(-c5c(F)c(F)c(F)c(F)c5F)c5nc(c(-c6c(F)c(F)c(F)c(F)c6F)c6ccc3[nH]6)C=C5)C=C4)cc2)c1
REMARK SMILES IDX 15 1 14 2 12 3 13 4 10 5 11 6 9 7 8 8 4 9 5 10 83 11 6 12
REMARK SMILES IDX 7 13 3 14 2 15 1 16 16 17 17 18 18 19 19 20 20 21 21 22
REMARK SMILES IDX 82 23 22 24 81 25 23 26 24 27 25 28 75 29 26 30 80 31 74 32
REMARK SMILES IDX 76 33 27 34 79 35 73 36 72 37 28 39 60 40 40 41 59 42 41 43
REMARK SMILES IDX 44 44 58 45 77 46 42 47 43 48 57 50 78 51 45 52 29 53 30 54
REMARK SMILES IDX 38 55 31 56 32 57 36 58 39 59 33 60 34 61 37 62 35 63 61 64
REMARK SMILES IDX 62 65 70 66 63 67 64 68 68 69 71 70 65 71 66 72 69 73 67 74
REMARK SMILES IDX 46 75 47 76 55 77 48 78 49 79 53 80 56 81 50 82 51 83 54 84
REMARK SMILES IDX 52 85
REMARK H PARENT 76 38 44 49
REMARK Flexibility Score: inf
ROOT
ATOM      1  C   UNL A   1      42.288  20.380  26.570  1.00  0.00     0.274 C 
ENDROOT
BRANCH   1   2
ATOM      2  O   UNL A   1      42.630  19.705  25.342  1.00  0.00    -0.457 OA
BRANCH   2   3
ATOM      3  C   UNL A   1      43.894  19.219  25.204  1.00  0.00     0.381 C 
ATOM      4  O   UNL A   1      44.215  18.066  25.484  1.00  0.00    -0.244 OA
BRANCH   3   5
ATOM      5  C   UNL A   1      44.908  20.275  24.675  1.00  0.00     0.461 C 
ATOM      6  F   UNL A   1      45.594  20.866  25.704  1.00  0.00    -0.189 F 
BRANCH   5   7
ATOM      7  O   UNL A   1      44.574  21.292  23.744  1.00  0.00    -0.451 OA
BRANCH   7   8
ATOM      8  C   UNL A   1      44.655  22.585  24.174  1.00  0.00     0.124 A 
ATOM      9  C   UNL A   1      45.866  24.562  24.902  1.00  0.00    -0.019 A 
ATOM     10  C   UNL A   1      44.659  25.099  25.376  1.00  0.00     0.006 A 
ATOM     11  C   UNL A   1      45.831  23.331  24.236  1.00  0.00     0.052 A 
ATOM     12  C   UNL A   1      43.457  24.408  25.212  1.00  0.00     0.004 A 
ATOM     13  C   UNL A   1      43.461  23.144  24.626  1.00  0.00     0.046 A 
BRANCH   9  14
ATOM     14  C   UNL A   1      47.164  25.279  25.194  1.00  0.00     0.195 C 
BRANCH  14  15
ATOM     15  O   UNL A   1      47.617  26.136  24.143  1.00  0.00    -0.380 OA
ATOM     16  C   UNL A   1      47.180  27.483  24.274  1.00  0.00     0.195 C 
ENDBRANCH  14  15
ENDBRANCH   9  14
ENDBRANCH   7   8
ENDBRANCH   5   7
ENDBRANCH   3   5
ENDBRANCH   2   3
ENDBRANCH   1   2
BRANCH   1  17
ATOM     17  C   UNL A   1      40.778  20.350  26.802  1.00  0.00     0.275 C 
BRANCH  17  18
ATOM     18  O   UNL A   1      40.366  21.508  27.549  1.00  0.00    -0.458 OA
BRANCH  18  19
ATOM     19  C   UNL A   1      39.713  22.437  26.814  1.00  0.00     0.338 C 
ATOM     20  O   UNL A   1      38.707  22.288  26.143  1.00  0.00    -0.246 OA
BRANCH  19  21
ATOM     21  C   UNL A   1      40.291  23.759  27.082  1.00  0.00     0.060 A 
ATOM     22  C   UNL A   1      41.103  23.881  28.213  1.00  0.00     0.016 A 
ATOM     23  C   UNL A   1      39.986  24.869  26.292  1.00  0.00     0.016 A 
ATOM     24  C   UNL A   1      41.596  25.125  28.581  1.00  0.00     0.010 A 
ATOM     25  C   UNL A   1      40.470  26.122  26.669  1.00  0.00     0.010 A 
ATOM     26  C   UNL A   1      41.254  26.255  27.828  1.00  0.00    -0.014 A 
BRANCH  26  27
ATOM     27  C   UNL A   1      41.614  27.589  28.351  1.00  0.00     0.031 A 
ATOM     28  C   UNL A   1      43.058  27.995  28.377  1.00  0.00     0.074 A 
ATOM     29  C   UNL A   1      40.651  28.440  28.742  1.00  0.00     0.049 A 
ATOM     30  N   UNL A   1      43.602  29.103  28.808  1.00  0.00    -0.248 NA
ATOM     31  C   UNL A   1      44.021  27.018  27.846  1.00  0.00     0.031 C 
ATOM     32  C   UNL A   1      39.218  28.156  28.717  1.00  0.00     0.029 A 
ATOM     33  N   UNL A   1      40.737  29.716  29.232  1.00  0.00    -0.354 N 
ATOM     34  C   UNL A   1      44.967  28.949  28.621  1.00  0.00     0.074 A 
ATOM     35  C   UNL A   1      45.175  27.635  28.050  1.00  0.00     0.031 C 
ATOM     36  C   UNL A   1      38.555  29.230  29.179  1.00  0.00     0.029 A 
ATOM     37  C   UNL A   1      39.520  30.259  29.557  1.00  0.00     0.049 A 
ATOM     38  H   UNL A   1      41.589  30.197  29.340  1.00  0.00     0.167 HD
ATOM     39  C   UNL A   1      45.958  29.829  28.901  1.00  0.00     0.037 A 
ATOM     40  C   UNL A   1      39.226  31.448  30.114  1.00  0.00     0.037 A 
ATOM     41  C   UNL A   1      45.737  31.140  29.449  1.00  0.00     0.049 A 
ATOM     42  C   UNL A   1      40.345  32.404  30.427  1.00  0.00     0.074 A 
ATOM     43  C   UNL A   1      46.667  32.118  29.754  1.00  0.00     0.029 A 
ATOM     44  N   UNL A   1      44.491  31.655  29.774  1.00  0.00    -0.354 N 
ATOM     45  N   UNL A   1      41.635  32.254  30.245  1.00  0.00    -0.248 NA
ATOM     46  C   UNL A   1      39.967  33.695  31.017  1.00  0.00     0.031 C 
ATOM     47  C   UNL A   1      45.985  33.213  30.298  1.00  0.00     0.029 A 
ATOM     48  C   UNL A   1      44.627  32.932  30.294  1.00  0.00     0.049 A 
ATOM     49  H   UNL A   1      43.635  31.183  29.655  1.00  0.00     0.167 HD
ATOM     50  C   UNL A   1      42.223  33.431  30.687  1.00  0.00     0.074 A 
ATOM     51  C   UNL A   1      41.145  34.294  31.126  1.00  0.00     0.031 C 
ATOM     52  C   UNL A   1      43.536  33.767  30.728  1.00  0.00     0.037 A 
BRANCH  39  53
ATOM     53  C   UNL A   1      47.367  29.380  28.652  1.00  0.00     0.064 A 
ATOM     54  C   UNL A   1      48.000  29.575  27.416  1.00  0.00     0.173 A 
ATOM     55  C   UNL A   1      48.094  28.744  29.670  1.00  0.00     0.173 A 
ATOM     56  F   UNL A   1      47.339  30.159  26.404  1.00  0.00    -0.203 F 
ATOM     57  C   UNL A   1      49.301  29.127  27.199  1.00  0.00     0.198 A 
ATOM     58  C   UNL A   1      49.403  28.320  29.458  1.00  0.00     0.198 A 
ATOM     59  F   UNL A   1      47.534  28.532  30.870  1.00  0.00    -0.203 F 
ATOM     60  F   UNL A   1      49.869  29.280  25.995  1.00  0.00    -0.200 F 
ATOM     61  C   UNL A   1      50.002  28.505  28.222  1.00  0.00     0.200 A 
ATOM     62  F   UNL A   1      50.081  27.725  30.448  1.00  0.00    -0.200 F 
ATOM     63  F   UNL A   1      51.254  28.072  28.011  1.00  0.00    -0.200 F 
ENDBRANCH  39  53
BRANCH  40  64
ATOM     64  C   UNL A   1      37.813  31.786  30.418  1.00  0.00     0.064 A 
ATOM     65  C   UNL A   1      37.309  31.698  31.722  1.00  0.00     0.173 A 
ATOM     66  C   UNL A   1      36.944  32.226  29.409  1.00  0.00     0.173 A 
ATOM     67  F   UNL A   1      38.097  31.260  32.716  1.00  0.00    -0.203 F 
ATOM     68  C   UNL A   1      35.985  32.029  32.004  1.00  0.00     0.198 A 
ATOM     69  C   UNL A   1      35.628  32.582  29.696  1.00  0.00     0.198 A 
ATOM     70  F   UNL A   1      37.380  32.329  28.144  1.00  0.00    -0.203 F 
ATOM     71  F   UNL A   1      35.517  31.904  33.254  1.00  0.00    -0.200 F 
ATOM     72  C   UNL A   1      35.148  32.478  30.993  1.00  0.00     0.200 A 
ATOM     73  F   UNL A   1      34.827  33.026  28.718  1.00  0.00    -0.200 F 
ATOM     74  F   UNL A   1      33.879  32.807  31.267  1.00  0.00    -0.200 F 
ENDBRANCH  40  64
BRANCH  52  75
ATOM     75  C   UNL A   1      43.872  35.130  31.255  1.00  0.00     0.064 A 
ATOM     76  C   UNL A   1      44.241  35.325  32.594  1.00  0.00     0.173 A 
ATOM     77  C   UNL A   1      43.855  36.245  30.405  1.00  0.00     0.173 A 
ATOM     78  F   UNL A   1      44.257  34.291  33.447  1.00  0.00    -0.203 F 
ATOM     79  C   UNL A   1      44.560  36.595  33.068  1.00  0.00     0.198 A 
ATOM     80  C   UNL A   1      44.198  37.508  30.876  1.00  0.00     0.198 A 
ATOM     81  F   UNL A   1      43.515  36.107  29.115  1.00  0.00    -0.203 F 
ATOM     82  F   UNL A   1      44.868  36.766  34.360  1.00  0.00    -0.200 F 
ATOM     83  C   UNL A   1      44.543  37.684  32.209  1.00  0.00     0.200 A 
ATOM     84  F   UNL A   1      44.192  38.559  30.043  1.00  0.00    -0.200 F 
ATOM     85  F   UNL A   1      44.852  38.904  32.667  1.00  0.00    -0.200 F 
ENDBRANCH  52  75
ENDBRANCH  26  27
ENDBRANCH  19  21
ENDBRANCH  18  19
ENDBRANCH  17  18
ENDBRANCH   1  17
TORSDOF 15
ENDMDL
