MODEL 1
REMARK VINA RESULT:     -11.8      0.000      0.000
REMARK SMILES Cc1ccc(OCCC[N@H+]2CCCC[C@@H]2C(=O)OCCOC(=O)c2ccc(-c3c4nc(c(-c5c(F)c(F)c(F)c(F)c5F)c5ccc([nH]5)c(-c5c(F)c(F)c(F)c(F)c5F)c5nc(c(-c6c(F)c(F)c(F)c(F)c6F)c6ccc3[nH]6)C=C5)C=C4)cc2)cc1C
REMARK SMILES IDX 18 1 16 2 17 3 15 4 10 5 11 6 12 8 14 9 13 10 9 11 8 12 7 13
REMARK SMILES IDX 6 14 5 15 1 16 2 17 3 18 88 19 4 20 87 21 89 22 19 23 20 24
REMARK SMILES IDX 21 25 22 26 23 27 24 28 25 29 86 30 26 31 85 32 27 33 28 34
REMARK SMILES IDX 29 35 79 36 30 37 84 38 78 39 80 40 31 41 83 42 77 43 76 44
REMARK SMILES IDX 32 46 64 47 44 48 63 49 45 50 48 51 62 52 81 53 46 54 47 55
REMARK SMILES IDX 61 57 82 58 49 59 33 60 34 61 42 62 35 63 36 64 40 65 43 66
REMARK SMILES IDX 37 67 38 68 41 69 39 70 65 71 66 72 74 73 67 74 68 75 72 76
REMARK SMILES IDX 75 77 69 78 70 79 73 80 71 81 50 82 51 83 59 84 52 85 53 86
REMARK SMILES IDX 57 87 60 88 54 89 55 90 58 91 56 92
REMARK H PARENT 10 7 80 45 48 56
REMARK Flexibility Score: inf
ROOT
ATOM      1  O   UNL A   1      35.924  22.008  24.514  1.00  0.00    -0.458 OA
ENDROOT
BRANCH   1   2
ATOM      2  C   UNL A   1      35.136  22.777  25.312  1.00  0.00     0.365 C 
ATOM      3  O   UNL A   1      35.289  22.891  26.522  1.00  0.00    -0.245 OA
BRANCH   2   4
ATOM      4  C   UNL A   1      34.026  23.530  24.575  1.00  0.00     0.295 C 
ATOM      5  N   UNL A   1      32.951  22.632  24.040  1.00  0.00    -0.323 N 
ATOM      6  C   UNL A   1      31.911  23.467  23.386  1.00  0.00     0.262 C 
ATOM      7  H   UNL A   1      33.386  21.984  23.383  1.00  0.00     0.348 HD
ATOM      8  C   UNL A   1      32.450  24.424  22.319  1.00  0.00     0.062 C 
ATOM      9  C   UNL A   1      34.630  24.437  23.494  1.00  0.00     0.078 C 
ATOM     10  C   UNL A   1      33.555  25.310  22.873  1.00  0.00     0.013 C 
BRANCH   5  11
ATOM     11  C   UNL A   1      32.296  21.842  25.119  1.00  0.00     0.266 C 
BRANCH  11  12
ATOM     12  C   UNL A   1      30.964  22.440  25.606  1.00  0.00     0.103 C 
BRANCH  12  13
ATOM     13  C   UNL A   1      31.052  23.284  26.882  1.00  0.00     0.235 C 
BRANCH  13  14
ATOM     14  O   UNL A   1      30.133  24.400  26.849  1.00  0.00    -0.493 OA
BRANCH  14  15
ATOM     15  C   UNL A   1      30.635  25.449  26.128  1.00  0.00     0.119 A 
ATOM     16  C   UNL A   1      32.027  29.043  24.231  1.00  0.00     0.044 C 
ATOM     17  C   UNL A   1      31.549  27.735  24.796  1.00  0.00    -0.048 A 
ATOM     18  C   UNL A   1      32.321  27.130  25.800  1.00  0.00     0.007 A 
ATOM     19  C   UNL A   1      30.371  27.097  24.359  1.00  0.00    -0.045 A 
ATOM     20  C   UNL A   1      31.876  25.978  26.446  1.00  0.00     0.047 A 
ATOM     21  C   UNL A   1      29.919  25.951  25.043  1.00  0.00     0.050 A 
ATOM     22  C   UNL A   1      29.611  27.575  23.152  1.00  0.00     0.045 C 
ENDBRANCH  14  15
ENDBRANCH  13  14
ENDBRANCH  12  13
ENDBRANCH  11  12
ENDBRANCH   5  11
ENDBRANCH   2   4
ENDBRANCH   1   2
BRANCH   1  23
ATOM     23  C   UNL A   1      36.193  20.678  25.004  1.00  0.00     0.274 C 
BRANCH  23  24
ATOM     24  C   UNL A   1      37.685  20.315  25.007  1.00  0.00     0.275 C 
BRANCH  24  25
ATOM     25  O   UNL A   1      38.528  21.453  25.282  1.00  0.00    -0.458 OA
BRANCH  25  26
ATOM     26  C   UNL A   1      39.555  21.207  26.129  1.00  0.00     0.338 C 
ATOM     27  O   UNL A   1      40.194  20.171  26.216  1.00  0.00    -0.246 OA
BRANCH  26  28
ATOM     28  C   UNL A   1      39.953  22.432  26.852  1.00  0.00     0.060 A 
ATOM     29  C   UNL A   1      39.292  23.616  26.498  1.00  0.00     0.016 A 
ATOM     30  C   UNL A   1      40.988  22.461  27.788  1.00  0.00     0.016 A 
ATOM     31  C   UNL A   1      39.674  24.833  27.052  1.00  0.00     0.010 A 
ATOM     32  C   UNL A   1      41.389  23.692  28.333  1.00  0.00     0.010 A 
ATOM     33  C   UNL A   1      40.757  24.885  27.934  1.00  0.00    -0.014 A 
BRANCH  33  34
ATOM     34  C   UNL A   1      41.353  26.217  28.213  1.00  0.00     0.031 A 
ATOM     35  C   UNL A   1      42.730  26.502  27.673  1.00  0.00     0.074 A 
ATOM     36  C   UNL A   1      40.654  27.190  28.823  1.00  0.00     0.049 A 
ATOM     37  N   UNL A   1      43.422  27.614  27.700  1.00  0.00    -0.248 NA
ATOM     38  C   UNL A   1      43.418  25.383  27.008  1.00  0.00     0.031 C 
ATOM     39  C   UNL A   1      39.301  27.057  29.359  1.00  0.00     0.029 A 
ATOM     40  N   UNL A   1      40.991  28.496  29.082  1.00  0.00    -0.354 N 
ATOM     41  C   UNL A   1      44.621  27.323  27.063  1.00  0.00     0.074 A 
ATOM     42  C   UNL A   1      44.580  25.928  26.688  1.00  0.00     0.031 C 
ATOM     43  C   UNL A   1      38.924  28.235  29.889  1.00  0.00     0.029 A 
ATOM     44  C   UNL A   1      40.011  29.201  29.736  1.00  0.00     0.049 A 
ATOM     45  H   UNL A   1      41.855  28.891  28.822  1.00  0.00     0.167 HD
ATOM     46  C   UNL A   1      45.660  28.149  26.796  1.00  0.00     0.037 A 
ATOM     47  C   UNL A   1      40.000  30.481  30.161  1.00  0.00     0.037 A 
ATOM     48  C   UNL A   1      45.702  29.542  27.144  1.00  0.00     0.049 A 
ATOM     49  C   UNL A   1      41.185  31.371  29.874  1.00  0.00     0.074 A 
ATOM     50  C   UNL A   1      46.702  30.464  26.892  1.00  0.00     0.029 A 
ATOM     51  N   UNL A   1      44.695  30.215  27.818  1.00  0.00    -0.354 N 
ATOM     52  N   UNL A   1      42.292  31.101  29.226  1.00  0.00    -0.248 NA
ATOM     53  C   UNL A   1      41.109  32.756  30.366  1.00  0.00     0.031 C 
ATOM     54  C   UNL A   1      46.319  31.688  27.452  1.00  0.00     0.029 A 
ATOM     55  C   UNL A   1      45.060  31.537  28.009  1.00  0.00     0.049 A 
ATOM     56  H   UNL A   1      43.848  29.813  28.118  1.00  0.00     0.167 HD
ATOM     57  C   UNL A   1      43.023  32.282  29.204  1.00  0.00     0.074 A 
ATOM     58  C   UNL A   1      42.227  33.279  29.888  1.00  0.00     0.031 C 
ATOM     59  C   UNL A   1      44.246  32.523  28.672  1.00  0.00     0.037 A 
BRANCH  46  60
ATOM     60  C   UNL A   1      46.851  27.556  26.108  1.00  0.00     0.064 A 
ATOM     61  C   UNL A   1      47.003  27.618  24.715  1.00  0.00     0.173 A 
ATOM     62  C   UNL A   1      47.870  26.947  26.857  1.00  0.00     0.173 A 
ATOM     63  F   UNL A   1      46.047  28.173  23.956  1.00  0.00    -0.203 F 
ATOM     64  C   UNL A   1      48.124  27.074  24.094  1.00  0.00     0.198 A 
ATOM     65  C   UNL A   1      49.000  26.427  26.235  1.00  0.00     0.198 A 
ATOM     66  F   UNL A   1      47.768  26.865  28.192  1.00  0.00    -0.203 F 
ATOM     67  F   UNL A   1      48.231  27.106  22.759  1.00  0.00    -0.200 F 
ATOM     68  C   UNL A   1      49.124  26.486  24.856  1.00  0.00     0.200 A 
ATOM     69  F   UNL A   1      49.970  25.867  26.972  1.00  0.00    -0.200 F 
ATOM     70  F   UNL A   1      50.206  25.970  24.257  1.00  0.00    -0.200 F 
ENDBRANCH  46  60
BRANCH  47  71
ATOM     71  C   UNL A   1      38.835  31.015  30.917  1.00  0.00     0.064 A 
ATOM     72  C   UNL A   1      38.761  30.905  32.313  1.00  0.00     0.173 A 
ATOM     73  C   UNL A   1      37.737  31.573  30.248  1.00  0.00     0.173 A 
ATOM     74  F   UNL A   1      39.773  30.351  32.996  1.00  0.00    -0.203 F 
ATOM     75  C   UNL A   1      37.616  31.294  33.006  1.00  0.00     0.198 A 
ATOM     76  C   UNL A   1      36.604  31.989  30.944  1.00  0.00     0.198 A 
ATOM     77  F   UNL A   1      37.755  31.696  28.912  1.00  0.00    -0.203 F 
ATOM     78  F   UNL A   1      37.542  31.109  34.331  1.00  0.00    -0.200 F 
ATOM     79  C   UNL A   1      36.539  31.837  32.321  1.00  0.00     0.200 A 
ATOM     80  F   UNL A   1      35.568  32.518  30.280  1.00  0.00    -0.200 F 
ATOM     81  F   UNL A   1      35.432  32.194  32.985  1.00  0.00    -0.200 F 
ENDBRANCH  47  71
BRANCH  59  82
ATOM     82  C   UNL A   1      44.781  33.924  28.763  1.00  0.00     0.064 A 
ATOM     83  C   UNL A   1      44.509  34.882  27.777  1.00  0.00     0.173 A 
ATOM     84  C   UNL A   1      45.545  34.319  29.872  1.00  0.00     0.173 A 
ATOM     85  F   UNL A   1      43.793  34.550  26.692  1.00  0.00    -0.203 F 
ATOM     86  C   UNL A   1      45.008  36.178  27.882  1.00  0.00     0.198 A 
ATOM     87  C   UNL A   1      46.015  35.625  29.989  1.00  0.00     0.198 A 
ATOM     88  F   UNL A   1      45.825  33.444  30.849  1.00  0.00    -0.203 F 
ATOM     89  F   UNL A   1      44.778  37.064  26.903  1.00  0.00    -0.200 F 
ATOM     90  C   UNL A   1      45.754  36.550  28.990  1.00  0.00     0.200 A 
ATOM     91  F   UNL A   1      46.724  35.987  31.068  1.00  0.00    -0.200 F 
ATOM     92  F   UNL A   1      46.229  37.799  29.092  1.00  0.00    -0.200 F 
ENDBRANCH  59  82
ENDBRANCH  33  34
ENDBRANCH  26  28
ENDBRANCH  25  26
ENDBRANCH  24  25
ENDBRANCH  23  24
ENDBRANCH   1  23
TORSDOF 16
ENDMDL
MODEL 2
REMARK VINA RESULT:     -11.5      1.196      2.719
REMARK SMILES Cc1ccc(OCCC[N@H+]2CCCC[C@@H]2C(=O)OCCOC(=O)c2ccc(-c3c4nc(c(-c5c(F)c(F)c(F)c(F)c5F)c5ccc([nH]5)c(-c5c(F)c(F)c(F)c(F)c5F)c5nc(c(-c6c(F)c(F)c(F)c(F)c6F)c6ccc3[nH]6)C=C5)C=C4)cc2)cc1C
REMARK SMILES IDX 18 1 16 2 17 3 15 4 10 5 11 6 12 8 14 9 13 10 9 11 8 12 7 13
REMARK SMILES IDX 6 14 5 15 1 16 2 17 3 18 88 19 4 20 87 21 89 22 19 23 20 24
REMARK SMILES IDX 21 25 22 26 23 27 24 28 25 29 86 30 26 31 85 32 27 33 28 34
REMARK SMILES IDX 29 35 79 36 30 37 84 38 78 39 80 40 31 41 83 42 77 43 76 44
REMARK SMILES IDX 32 46 64 47 44 48 63 49 45 50 48 51 62 52 81 53 46 54 47 55
REMARK SMILES IDX 61 57 82 58 49 59 33 60 34 61 42 62 35 63 36 64 40 65 43 66
REMARK SMILES IDX 37 67 38 68 41 69 39 70 65 71 66 72 74 73 67 74 68 75 72 76
REMARK SMILES IDX 75 77 69 78 70 79 73 80 71 81 50 82 51 83 59 84 52 85 53 86
REMARK SMILES IDX 57 87 60 88 54 89 55 90 58 91 56 92
REMARK H PARENT 10 7 80 45 48 56
REMARK Flexibility Score: inf
ROOT
ATOM      1  O   UNL A   1      35.854  21.138  26.032  1.00  0.00    -0.458 OA
ENDROOT
BRANCH   1   2
ATOM      2  C   UNL A   1      34.515  21.370  25.990  1.00  0.00     0.365 C 
ATOM      3  O   UNL A   1      33.820  21.554  26.981  1.00  0.00    -0.245 OA
BRANCH   2   4
ATOM      4  C   UNL A   1      33.919  21.408  24.581  1.00  0.00     0.295 C 
ATOM      5  N   UNL A   1      33.532  22.787  24.136  1.00  0.00    -0.323 N 
ATOM      6  C   UNL A   1      33.008  22.712  22.748  1.00  0.00     0.262 C 
ATOM      7  H   UNL A   1      32.831  23.138  24.788  1.00  0.00     0.348 HD
ATOM      8  C   UNL A   1      31.873  21.703  22.555  1.00  0.00     0.062 C 
ATOM      9  C   UNL A   1      32.763  20.405  24.469  1.00  0.00     0.078 C 
ATOM     10  C   UNL A   1      32.276  20.316  23.034  1.00  0.00     0.013 C 
BRANCH   5  11
ATOM     11  C   UNL A   1      34.692  23.721  24.141  1.00  0.00     0.266 C 
BRANCH  11  12
ATOM     12  C   UNL A   1      34.560  24.873  25.152  1.00  0.00     0.103 C 
BRANCH  12  13
ATOM     13  C   UNL A   1      33.894  26.145  24.613  1.00  0.00     0.235 C 
BRANCH  13  14
ATOM     14  O   UNL A   1      32.732  26.510  25.391  1.00  0.00    -0.493 OA
BRANCH  14  15
ATOM     15  C   UNL A   1      32.921  27.685  26.065  1.00  0.00     0.119 A 
ATOM     16  C   UNL A   1      33.544  31.598  27.727  1.00  0.00     0.044 C 
ATOM     17  C   UNL A   1      33.359  30.187  27.244  1.00  0.00    -0.048 A 
ATOM     18  C   UNL A   1      32.068  29.783  26.869  1.00  0.00     0.007 A 
ATOM     19  C   UNL A   1      34.419  29.262  27.156  1.00  0.00    -0.045 A 
ATOM     20  C   UNL A   1      31.847  28.528  26.306  1.00  0.00     0.047 A 
ATOM     21  C   UNL A   1      34.186  28.009  26.555  1.00  0.00     0.050 A 
ATOM     22  C   UNL A   1      35.777  29.555  27.733  1.00  0.00     0.045 C 
ENDBRANCH  14  15
ENDBRANCH  13  14
ENDBRANCH  12  13
ENDBRANCH  11  12
ENDBRANCH   5  11
ENDBRANCH   2   4
ENDBRANCH   1   2
BRANCH   1  23
ATOM     23  C   UNL A   1      36.371  20.293  24.983  1.00  0.00     0.274 C 
BRANCH  23  24
ATOM     24  C   UNL A   1      37.895  20.109  25.038  1.00  0.00     0.275 C 
BRANCH  24  25
ATOM     25  O   UNL A   1      38.580  21.312  25.442  1.00  0.00    -0.458 OA
BRANCH  25  26
ATOM     26  C   UNL A   1      39.676  21.109  26.210  1.00  0.00     0.338 C 
ATOM     27  O   UNL A   1      40.390  20.119  26.214  1.00  0.00    -0.246 OA
BRANCH  26  28
ATOM     28  C   UNL A   1      40.037  22.333  26.955  1.00  0.00     0.060 A 
ATOM     29  C   UNL A   1      39.371  23.511  26.593  1.00  0.00     0.016 A 
ATOM     30  C   UNL A   1      41.044  22.368  27.920  1.00  0.00     0.016 A 
ATOM     31  C   UNL A   1      39.720  24.728  27.168  1.00  0.00     0.010 A 
ATOM     32  C   UNL A   1      41.413  23.598  28.487  1.00  0.00     0.010 A 
ATOM     33  C   UNL A   1      40.777  24.787  28.081  1.00  0.00    -0.014 A 
BRANCH  33  34
ATOM     34  C   UNL A   1      41.346  26.123  28.389  1.00  0.00     0.031 A 
ATOM     35  C   UNL A   1      42.727  26.439  27.876  1.00  0.00     0.074 A 
ATOM     36  C   UNL A   1      40.621  27.077  29.000  1.00  0.00     0.049 A 
ATOM     37  N   UNL A   1      43.400  27.561  27.930  1.00  0.00    -0.248 NA
ATOM     38  C   UNL A   1      43.443  25.340  27.208  1.00  0.00     0.031 C 
ATOM     39  C   UNL A   1      39.261  26.914  29.511  1.00  0.00     0.029 A 
ATOM     40  N   UNL A   1      40.932  28.384  29.283  1.00  0.00    -0.354 N 
ATOM     41  C   UNL A   1      44.614  27.298  27.309  1.00  0.00     0.074 A 
ATOM     42  C   UNL A   1      44.603  25.908  26.915  1.00  0.00     0.031 C 
ATOM     43  C   UNL A   1      38.857  28.078  30.051  1.00  0.00     0.029 A 
ATOM     44  C   UNL A   1      39.930  29.064  29.930  1.00  0.00     0.049 A 
ATOM     45  H   UNL A   1      41.794  28.796  29.043  1.00  0.00     0.167 HD
ATOM     46  C   UNL A   1      45.644  28.145  27.072  1.00  0.00     0.037 A 
ATOM     47  C   UNL A   1      39.891  30.337  30.372  1.00  0.00     0.037 A 
ATOM     48  C   UNL A   1      45.657  29.533  27.440  1.00  0.00     0.049 A 
ATOM     49  C   UNL A   1      41.066  31.250  30.118  1.00  0.00     0.074 A 
ATOM     50  C   UNL A   1      46.647  30.474  27.218  1.00  0.00     0.029 A 
ATOM     51  N   UNL A   1      44.629  30.180  28.107  1.00  0.00    -0.354 N 
ATOM     52  N   UNL A   1      42.188  31.007  29.485  1.00  0.00    -0.248 NA
ATOM     53  C   UNL A   1      40.959  32.627  30.628  1.00  0.00     0.031 C 
ATOM     54  C   UNL A   1      46.234  31.684  27.789  1.00  0.00     0.029 A 
ATOM     55  C   UNL A   1      44.968  31.505  28.322  1.00  0.00     0.049 A 
ATOM     56  H   UNL A   1      43.783  29.760  28.386  1.00  0.00     0.167 HD
ATOM     57  C   UNL A   1      42.900  32.200  29.492  1.00  0.00     0.074 A 
ATOM     58  C   UNL A   1      42.076  33.175  30.176  1.00  0.00     0.031 C 
ATOM     59  C   UNL A   1      44.128  32.468  28.984  1.00  0.00     0.037 A 
BRANCH  46  60
ATOM     60  C   UNL A   1      46.856  27.581  26.396  1.00  0.00     0.064 A 
ATOM     61  C   UNL A   1      47.885  26.966  27.124  1.00  0.00     0.173 A 
ATOM     62  C   UNL A   1      46.971  27.627  24.999  1.00  0.00     0.173 A 
ATOM     63  F   UNL A   1      47.828  26.915  28.463  1.00  0.00    -0.203 F 
ATOM     64  C   UNL A   1      48.998  26.435  26.477  1.00  0.00     0.198 A 
ATOM     65  C   UNL A   1      48.072  27.072  24.354  1.00  0.00     0.198 A 
ATOM     66  F   UNL A   1      46.011  28.204  24.261  1.00  0.00    -0.203 F 
ATOM     67  F   UNL A   1      49.990  25.889  27.193  1.00  0.00    -0.200 F 
ATOM     68  C   UNL A   1      49.086  26.482  25.093  1.00  0.00     0.200 A 
ATOM     69  F   UNL A   1      48.153  27.110  23.017  1.00  0.00    -0.200 F 
ATOM     70  F   UNL A   1      50.154  25.963  24.471  1.00  0.00    -0.200 F 
ENDBRANCH  46  60
BRANCH  47  71
ATOM     71  C   UNL A   1      38.705  30.842  31.116  1.00  0.00     0.064 A 
ATOM     72  C   UNL A   1      37.682  31.545  30.463  1.00  0.00     0.173 A 
ATOM     73  C   UNL A   1      38.614  30.701  32.507  1.00  0.00     0.173 A 
ATOM     74  F   UNL A   1      37.739  31.733  29.136  1.00  0.00    -0.203 F 
ATOM     75  C   UNL A   1      36.635  32.123  31.179  1.00  0.00     0.198 A 
ATOM     76  C   UNL A   1      37.551  31.253  33.219  1.00  0.00     0.198 A 
ATOM     77  F   UNL A   1      39.569  30.042  33.180  1.00  0.00    -0.203 F 
ATOM     78  F   UNL A   1      35.711  32.853  30.540  1.00  0.00    -0.200 F 
ATOM     79  C   UNL A   1      36.571  31.976  32.557  1.00  0.00     0.200 A 
ATOM     80  F   UNL A   1      37.489  31.105  34.549  1.00  0.00    -0.200 F 
ATOM     81  F   UNL A   1      35.574  32.547  33.247  1.00  0.00    -0.200 F 
ENDBRANCH  47  71
BRANCH  59  82
ATOM     82  C   UNL A   1      44.638  33.876  29.104  1.00  0.00     0.064 A 
ATOM     83  C   UNL A   1      45.437  34.281  30.182  1.00  0.00     0.173 A 
ATOM     84  C   UNL A   1      44.352  34.820  28.106  1.00  0.00     0.173 A 
ATOM     85  F   UNL A   1      45.729  33.418  31.168  1.00  0.00    -0.203 F 
ATOM     86  C   UNL A   1      45.907  35.589  30.273  1.00  0.00     0.198 A 
ATOM     87  C   UNL A   1      44.850  36.119  28.184  1.00  0.00     0.198 A 
ATOM     88  F   UNL A   1      43.600  34.482  27.048  1.00  0.00    -0.203 F 
ATOM     89  F   UNL A   1      46.627  35.967  31.338  1.00  0.00    -0.200 F 
ATOM     90  C   UNL A   1      45.619  36.504  29.272  1.00  0.00     0.200 A 
ATOM     91  F   UNL A   1      44.582  36.998  27.208  1.00  0.00    -0.200 F 
ATOM     92  F   UNL A   1      46.075  37.761  29.359  1.00  0.00    -0.200 F 
ENDBRANCH  59  82
ENDBRANCH  33  34
ENDBRANCH  26  28
ENDBRANCH  25  26
ENDBRANCH  24  25
ENDBRANCH  23  24
ENDBRANCH   1  23
TORSDOF 16
ENDMDL
MODEL 3
REMARK VINA RESULT:     -11.4      1.012      1.917
REMARK SMILES Cc1ccc(OCCC[N@H+]2CCCC[C@@H]2C(=O)OCCOC(=O)c2ccc(-c3c4nc(c(-c5c(F)c(F)c(F)c(F)c5F)c5ccc([nH]5)c(-c5c(F)c(F)c(F)c(F)c5F)c5nc(c(-c6c(F)c(F)c(F)c(F)c6F)c6ccc3[nH]6)C=C5)C=C4)cc2)cc1C
REMARK SMILES IDX 18 1 16 2 17 3 15 4 10 5 11 6 12 8 14 9 13 10 9 11 8 12 7 13
REMARK SMILES IDX 6 14 5 15 1 16 2 17 3 18 88 19 4 20 87 21 89 22 19 23 20 24
REMARK SMILES IDX 21 25 22 26 23 27 24 28 25 29 86 30 26 31 85 32 27 33 28 34
REMARK SMILES IDX 29 35 79 36 30 37 84 38 78 39 80 40 31 41 83 42 77 43 76 44
REMARK SMILES IDX 32 46 64 47 44 48 63 49 45 50 48 51 62 52 81 53 46 54 47 55
REMARK SMILES IDX 61 57 82 58 49 59 33 60 34 61 42 62 35 63 36 64 40 65 43 66
REMARK SMILES IDX 37 67 38 68 41 69 39 70 65 71 66 72 74 73 67 74 68 75 72 76
REMARK SMILES IDX 75 77 69 78 70 79 73 80 71 81 50 82 51 83 59 84 52 85 53 86
REMARK SMILES IDX 57 87 60 88 54 89 55 90 58 91 56 92
REMARK H PARENT 10 7 80 45 48 56
REMARK Flexibility Score: inf
ROOT
ATOM      1  O   UNL A   1      35.972  21.292  25.819  1.00  0.00    -0.458 OA
ENDROOT
BRANCH   1   2
ATOM      2  C   UNL A   1      34.621  21.441  25.861  1.00  0.00     0.365 C 
ATOM      3  O   UNL A   1      33.974  21.537  26.897  1.00  0.00    -0.245 OA
BRANCH   2   4
ATOM      4  C   UNL A   1      33.944  21.506  24.490  1.00  0.00     0.295 C 
ATOM      5  N   UNL A   1      33.537  22.893  24.093  1.00  0.00    -0.323 N 
ATOM      6  C   UNL A   1      32.933  22.845  22.737  1.00  0.00     0.262 C 
ATOM      7  H   UNL A   1      32.876  23.235  24.791  1.00  0.00     0.348 HD
ATOM      8  C   UNL A   1      31.785  21.842  22.593  1.00  0.00     0.062 C 
ATOM      9  C   UNL A   1      32.779  20.508  24.429  1.00  0.00     0.078 C 
ATOM     10  C   UNL A   1      32.209  20.446  23.023  1.00  0.00     0.013 C 
BRANCH   5  11
ATOM     11  C   UNL A   1      34.698  23.824  24.046  1.00  0.00     0.266 C 
BRANCH  11  12
ATOM     12  C   UNL A   1      34.684  24.894  25.152  1.00  0.00     0.103 C 
BRANCH  12  13
ATOM     13  C   UNL A   1      33.568  25.939  25.038  1.00  0.00     0.235 C 
BRANCH  13  14
ATOM     14  O   UNL A   1      33.089  26.064  23.680  1.00  0.00    -0.493 OA
BRANCH  14  15
ATOM     15  C   UNL A   1      31.852  26.647  23.630  1.00  0.00     0.119 A 
ATOM     16  C   UNL A   1      27.857  28.141  23.114  1.00  0.00     0.044 C 
ATOM     17  C   UNL A   1      29.280  27.716  23.342  1.00  0.00    -0.048 A 
ATOM     18  C   UNL A   1      29.513  26.613  24.179  1.00  0.00     0.007 A 
ATOM     19  C   UNL A   1      30.380  28.376  22.757  1.00  0.00    -0.045 A 
ATOM     20  C   UNL A   1      30.797  26.098  24.342  1.00  0.00     0.047 A 
ATOM     21  C   UNL A   1      31.668  27.824  22.906  1.00  0.00     0.050 A 
ATOM     22  C   UNL A   1      30.224  29.680  22.024  1.00  0.00     0.045 C 
ENDBRANCH  14  15
ENDBRANCH  13  14
ENDBRANCH  12  13
ENDBRANCH  11  12
ENDBRANCH   5  11
ENDBRANCH   2   4
ENDBRANCH   1   2
BRANCH   1  23
ATOM     23  C   UNL A   1      36.454  20.249  24.948  1.00  0.00     0.274 C 
BRANCH  23  24
ATOM     24  C   UNL A   1      37.970  20.020  25.044  1.00  0.00     0.275 C 
BRANCH  24  25
ATOM     25  O   UNL A   1      38.684  21.217  25.416  1.00  0.00    -0.458 OA
BRANCH  25  26
ATOM     26  C   UNL A   1      39.751  21.013  26.224  1.00  0.00     0.338 C 
ATOM     27  O   UNL A   1      40.444  20.009  26.275  1.00  0.00    -0.246 OA
BRANCH  26  28
ATOM     28  C   UNL A   1      40.112  22.248  26.949  1.00  0.00     0.060 A 
ATOM     29  C   UNL A   1      39.463  23.425  26.554  1.00  0.00     0.016 A 
ATOM     30  C   UNL A   1      41.105  22.292  27.929  1.00  0.00     0.016 A 
ATOM     31  C   UNL A   1      39.815  24.649  27.110  1.00  0.00     0.010 A 
ATOM     32  C   UNL A   1      41.477  23.531  28.477  1.00  0.00     0.010 A 
ATOM     33  C   UNL A   1      40.859  24.717  28.037  1.00  0.00    -0.014 A 
BRANCH  33  34
ATOM     34  C   UNL A   1      41.437  26.054  28.327  1.00  0.00     0.031 A 
ATOM     35  C   UNL A   1      42.819  26.354  27.809  1.00  0.00     0.074 A 
ATOM     36  C   UNL A   1      40.718  27.019  28.926  1.00  0.00     0.049 A 
ATOM     37  N   UNL A   1      43.498  27.472  27.847  1.00  0.00    -0.248 NA
ATOM     38  C   UNL A   1      43.528  25.242  27.153  1.00  0.00     0.031 C 
ATOM     39  C   UNL A   1      39.358  26.871  29.442  1.00  0.00     0.029 A 
ATOM     40  N   UNL A   1      41.038  28.329  29.192  1.00  0.00    -0.354 N 
ATOM     41  C   UNL A   1      44.710  27.195  27.228  1.00  0.00     0.074 A 
ATOM     42  C   UNL A   1      44.690  25.800  26.852  1.00  0.00     0.031 C 
ATOM     43  C   UNL A   1      38.961  28.045  29.967  1.00  0.00     0.029 A 
ATOM     44  C   UNL A   1      40.040  29.023  29.831  1.00  0.00     0.049 A 
ATOM     45  H   UNL A   1      41.902  28.732  28.946  1.00  0.00     0.167 HD
ATOM     46  C   UNL A   1      45.745  28.032  26.979  1.00  0.00     0.037 A 
ATOM     47  C   UNL A   1      40.009  30.302  30.257  1.00  0.00     0.037 A 
ATOM     48  C   UNL A   1      45.767  29.425  27.328  1.00  0.00     0.049 A 
ATOM     49  C   UNL A   1      41.189  31.204  29.990  1.00  0.00     0.074 A 
ATOM     50  C   UNL A   1      46.762  30.357  27.093  1.00  0.00     0.029 A 
ATOM     51  N   UNL A   1      44.743  30.086  27.988  1.00  0.00    -0.354 N 
ATOM     52  N   UNL A   1      42.309  30.946  29.359  1.00  0.00    -0.248 NA
ATOM     53  C   UNL A   1      41.091  32.588  30.482  1.00  0.00     0.031 C 
ATOM     54  C   UNL A   1      46.357  31.576  27.648  1.00  0.00     0.029 A 
ATOM     55  C   UNL A   1      45.091  31.412  28.185  1.00  0.00     0.049 A 
ATOM     56  H   UNL A   1      43.895  29.675  28.274  1.00  0.00     0.167 HD
ATOM     57  C   UNL A   1      43.028  32.135  29.349  1.00  0.00     0.074 A 
ATOM     58  C   UNL A   1      42.212  33.123  30.021  1.00  0.00     0.031 C 
ATOM     59  C   UNL A   1      44.257  32.389  28.836  1.00  0.00     0.037 A 
BRANCH  46  60
ATOM     60  C   UNL A   1      46.952  27.452  26.309  1.00  0.00     0.064 A 
ATOM     61  C   UNL A   1      47.083  27.437  24.913  1.00  0.00     0.173 A 
ATOM     62  C   UNL A   1      48.007  26.935  27.077  1.00  0.00     0.173 A 
ATOM     63  F   UNL A   1      46.094  27.902  24.136  1.00  0.00    -0.203 F 
ATOM     64  C   UNL A   1      48.220  26.906  24.308  1.00  0.00     0.198 A 
ATOM     65  C   UNL A   1      49.152  26.429  26.470  1.00  0.00     0.198 A 
ATOM     66  F   UNL A   1      47.926  26.928  28.416  1.00  0.00    -0.203 F 
ATOM     67  F   UNL A   1      48.308  26.863  22.972  1.00  0.00    -0.200 F 
ATOM     68  C   UNL A   1      49.255  26.410  25.087  1.00  0.00     0.200 A 
ATOM     69  F   UNL A   1      50.155  25.957  27.223  1.00  0.00    -0.200 F 
ATOM     70  F   UNL A   1      50.352  25.907  24.504  1.00  0.00    -0.200 F 
ENDBRANCH  46  60
BRANCH  47  71
ATOM     71  C   UNL A   1      38.828  30.823  30.995  1.00  0.00     0.064 A 
ATOM     72  C   UNL A   1      38.754  30.753  32.394  1.00  0.00     0.173 A 
ATOM     73  C   UNL A   1      37.714  31.327  30.309  1.00  0.00     0.173 A 
ATOM     74  F   UNL A   1      39.782  30.251  33.095  1.00  0.00    -0.203 F 
ATOM     75  C   UNL A   1      37.597  31.128  33.074  1.00  0.00     0.198 A 
ATOM     76  C   UNL A   1      36.568  31.730  30.991  1.00  0.00     0.198 A 
ATOM     77  F   UNL A   1      37.731  31.410  28.970  1.00  0.00    -0.203 F 
ATOM     78  F   UNL A   1      37.525  30.982  34.404  1.00  0.00    -0.200 F 
ATOM     79  C   UNL A   1      36.505  31.617  32.372  1.00  0.00     0.200 A 
ATOM     80  F   UNL A   1      35.518  32.206  30.310  1.00  0.00    -0.200 F 
ATOM     81  F   UNL A   1      35.386  31.961  33.024  1.00  0.00    -0.200 F 
ENDBRANCH  47  71
BRANCH  59  82
ATOM     82  C   UNL A   1      44.776  33.795  28.937  1.00  0.00     0.064 A 
ATOM     83  C   UNL A   1      45.575  34.211  30.011  1.00  0.00     0.173 A 
ATOM     84  C   UNL A   1      44.498  34.727  27.925  1.00  0.00     0.173 A 
ATOM     85  F   UNL A   1      45.859  33.360  31.010  1.00  0.00    -0.203 F 
ATOM     86  C   UNL A   1      46.053  35.516  30.085  1.00  0.00     0.198 A 
ATOM     87  C   UNL A   1      45.004  36.023  27.986  1.00  0.00     0.198 A 
ATOM     88  F   UNL A   1      43.747  34.377  26.870  1.00  0.00    -0.203 F 
ATOM     89  F   UNL A   1      46.773  35.906  31.146  1.00  0.00    -0.200 F 
ATOM     90  C   UNL A   1      45.773  36.419  29.070  1.00  0.00     0.200 A 
ATOM     91  F   UNL A   1      44.745  36.889  26.996  1.00  0.00    -0.200 F 
ATOM     92  F   UNL A   1      46.237  37.674  29.139  1.00  0.00    -0.200 F 
ENDBRANCH  59  82
ENDBRANCH  33  34
ENDBRANCH  26  28
ENDBRANCH  25  26
ENDBRANCH  24  25
ENDBRANCH  23  24
ENDBRANCH   1  23
TORSDOF 16
ENDMDL
