MODEL 1
REMARK VINA RESULT:      -8.3      0.000      0.000
REMARK SMILES NS(=O)(=O)c1ccc(-n2nc(C(=O)NCCCCCCCCCCC(=O)OCCOC(=O)c3ccc(-c4c5nc(c(-c6c(F)c(F)c(F)c(F)c6F)c6ccc([nH]6)c(-c6c(F)c(F)c(F)c(F)c6F)c6nc(c(-c7c(F)c(F)c(F)c(F)c7F)c7ccc4[nH]7)C=C6)C=C5)cc3)cc2-c2ccccc2)cc1
REMARK SMILES IDX 21 1 20 2 19 3 18 4 17 5 16 6 15 7 14 8 12 9 13 10 11 12
REMARK SMILES IDX 9 13 10 14 97 15 96 16 8 17 5 18 6 19 105 20 7 21 104 22
REMARK SMILES IDX 2 23 3 24 4 25 1 26 98 29 99 30 103 31 100 32 102 33 101 34
REMARK SMILES IDX 22 35 23 36 24 37 25 38 26 39 27 40 28 41 29 42 30 43 31 44
REMARK SMILES IDX 32 45 33 46 34 47 95 48 35 49 94 50 36 51 37 52 38 53 88 54
REMARK SMILES IDX 39 55 93 56 87 57 89 58 40 59 92 60 86 61 85 62 41 64 73 65
REMARK SMILES IDX 53 66 72 67 54 68 57 69 71 70 90 71 55 72 56 73 70 75 91 76
REMARK SMILES IDX 58 77 42 78 43 79 51 80 44 81 45 82 49 83 52 84 46 85 47 86
REMARK SMILES IDX 50 87 48 88 74 89 75 90 83 91 76 92 77 93 81 94 84 95 78 96
REMARK SMILES IDX 79 97 82 98 80 99 59 100 60 101 68 102 61 103 62 104 66 105
REMARK SMILES IDX 69 106 63 107 64 108 67 109 65 110
REMARK H PARENT 14 11 1 27 1 28 89 63 57 74
REMARK Flexibility Score: inf
ROOT
ATOM      1  C   UNL A   1      39.140  27.587  28.102  1.00  0.00     0.000 C 
ENDROOT
BRANCH   1   2
ATOM      2  C   UNL A   1      38.750  27.870  29.552  1.00  0.00     0.000 C 
BRANCH   2   3
ATOM      3  C   UNL A   1      37.793  29.057  29.669  1.00  0.00     0.000 C 
BRANCH   3   4
ATOM      4  C   UNL A   1      37.873  29.984  28.450  1.00  0.00     0.000 C 
BRANCH   4   5
ATOM      5  C   UNL A   1      36.535  30.100  27.709  1.00  0.00     0.002 C 
BRANCH   5   6
ATOM      6  C   UNL A   1      35.473  30.842  28.527  1.00  0.00     0.021 C 
BRANCH   6   7
ATOM      7  C   UNL A   1      35.837  32.318  28.674  1.00  0.00     0.116 C 
BRANCH   7   8
ATOM      8  N   UNL A   1      34.890  32.949  29.556  1.00  0.00    -0.351 N 
ATOM      9  C   UNL A   1      34.897  33.145  30.912  1.00  0.00     0.271 C 
ATOM     10  O   UNL A   1      33.861  33.616  31.392  1.00  0.00    -0.267 OA
ATOM     11  H   UNL A   1      34.092  33.304  29.101  1.00  0.00     0.163 HD
BRANCH   9  12
ATOM     12  C   UNL A   1      36.105  32.885  31.719  1.00  0.00     0.151 A 
ATOM     13  N   UNL A   1      37.218  32.709  33.545  1.00  0.00    -0.232 N 
ATOM     14  N   UNL A   1      35.975  32.616  33.030  1.00  0.00    -0.162 NA
ATOM     15  C   UNL A   1      38.179  32.878  32.566  1.00  0.00     0.075 A 
ATOM     16  C   UNL A   1      37.478  32.853  31.379  1.00  0.00     0.065 A 
BRANCH  13  17
ATOM     17  C   UNL A   1      37.400  32.610  34.939  1.00  0.00     0.065 A 
ATOM     18  C   UNL A   1      37.937  32.440  37.649  1.00  0.00     0.082 A 
ATOM     19  C   UNL A   1      37.371  33.609  37.131  1.00  0.00     0.024 A 
ATOM     20  C   UNL A   1      38.201  31.340  36.824  1.00  0.00     0.024 A 
ATOM     21  C   UNL A   1      37.117  33.701  35.766  1.00  0.00     0.030 A 
ATOM     22  C   UNL A   1      37.899  31.413  35.467  1.00  0.00     0.030 A 
BRANCH  18  23
ATOM     23  S   UNL A   1      38.395  32.334  39.349  1.00  0.00     0.238 S 
ATOM     24  O   UNL A   1      39.839  32.418  39.435  1.00  0.00    -0.207 OA
ATOM     25  O   UNL A   1      37.632  31.283  39.967  1.00  0.00    -0.207 OA
BRANCH  23  26
ATOM     26  N   UNL A   1      37.837  33.771  40.021  1.00  0.00    -0.225 NA
ATOM     27  H   UNL A   1      36.942  34.019  39.600  1.00  0.00     0.137 HD
ATOM     28  H   UNL A   1      38.514  34.514  39.844  1.00  0.00     0.137 HD
ENDBRANCH  23  26
ENDBRANCH  18  23
ENDBRANCH  13  17
BRANCH  15  29
ATOM     29  C   UNL A   1      39.623  32.928  32.754  1.00  0.00     0.000 A 
ATOM     30  C   UNL A   1      40.311  31.831  33.282  1.00  0.00     0.010 A 
ATOM     31  C   UNL A   1      40.337  34.072  32.375  1.00  0.00     0.010 A 
ATOM     32  C   UNL A   1      41.697  31.884  33.442  1.00  0.00     0.001 A 
ATOM     33  C   UNL A   1      41.722  34.124  32.540  1.00  0.00     0.001 A 
ATOM     34  C   UNL A   1      42.400  33.030  33.073  1.00  0.00     0.000 A 
ENDBRANCH  15  29
ENDBRANCH   9  12
ENDBRANCH   7   8
ENDBRANCH   6   7
ENDBRANCH   5   6
ENDBRANCH   4   5
ENDBRANCH   3   4
ENDBRANCH   2   3
ENDBRANCH   1   2
BRANCH   1  35
ATOM     35  C   UNL A   1      40.356  26.663  28.016  1.00  0.00     0.001 C 
BRANCH  35  36
ATOM     36  C   UNL A   1      39.991  25.208  28.320  1.00  0.00     0.012 C 
BRANCH  36  37
ATOM     37  C   UNL A   1      40.961  24.151  27.780  1.00  0.00     0.123 C 
BRANCH  37  38
ATOM     38  C   UNL A   1      40.380  22.819  27.343  1.00  0.00     0.305 C 
ATOM     39  O   UNL A   1      39.279  22.718  26.813  1.00  0.00    -0.252 OA
BRANCH  38  40
ATOM     40  O   UNL A   1      41.224  21.780  27.562  1.00  0.00    -0.462 OA
BRANCH  40  41
ATOM     41  C   UNL A   1      42.641  22.034  27.513  1.00  0.00     0.274 C 
BRANCH  41  42
ATOM     42  C   UNL A   1      43.239  21.616  26.175  1.00  0.00     0.275 C 
BRANCH  42  43
ATOM     43  O   UNL A   1      42.847  22.529  25.154  1.00  0.00    -0.458 OA
BRANCH  43  44
ATOM     44  C   UNL A   1      43.855  22.920  24.349  1.00  0.00     0.338 C 
ATOM     45  O   UNL A   1      44.445  22.248  23.523  1.00  0.00    -0.246 OA
BRANCH  44  46
ATOM     46  C   UNL A   1      44.313  24.250  24.733  1.00  0.00     0.060 A 
ATOM     47  C   UNL A   1      45.633  24.379  25.183  1.00  0.00     0.016 A 
ATOM     48  C   UNL A   1      43.330  25.209  24.996  1.00  0.00     0.016 A 
ATOM     49  C   UNL A   1      45.914  25.382  26.082  1.00  0.00     0.010 A 
ATOM     50  C   UNL A   1      43.604  26.184  25.915  1.00  0.00     0.010 A 
ATOM     51  C   UNL A   1      44.866  26.207  26.504  1.00  0.00    -0.014 A 
BRANCH  51  52
ATOM     52  C   UNL A   1      45.142  27.213  27.504  1.00  0.00     0.031 A 
ATOM     53  C   UNL A   1      44.329  27.003  28.717  1.00  0.00     0.074 A 
ATOM     54  C   UNL A   1      46.142  28.107  27.367  1.00  0.00     0.049 A 
ATOM     55  N   UNL A   1      43.370  27.743  29.159  1.00  0.00    -0.248 NA
ATOM     56  C   UNL A   1      44.461  25.713  29.419  1.00  0.00     0.031 C 
ATOM     57  C   UNL A   1      47.173  28.117  26.323  1.00  0.00     0.029 A 
ATOM     58  N   UNL A   1      46.530  29.123  28.192  1.00  0.00    -0.354 N 
ATOM     59  C   UNL A   1      42.975  27.141  30.349  1.00  0.00     0.074 A 
ATOM     60  C   UNL A   1      43.480  25.798  30.318  1.00  0.00     0.031 C 
ATOM     61  C   UNL A   1      48.191  28.921  26.706  1.00  0.00     0.029 A 
ATOM     62  C   UNL A   1      47.816  29.591  27.938  1.00  0.00     0.049 A 
ATOM     63  H   UNL A   1      45.953  29.489  28.901  1.00  0.00     0.167 HD
ATOM     64  C   UNL A   1      42.633  27.924  31.408  1.00  0.00     0.037 A 
ATOM     65  C   UNL A   1      48.534  30.424  28.733  1.00  0.00     0.037 A 
ATOM     66  C   UNL A   1      42.358  29.270  30.972  1.00  0.00     0.049 A 
ATOM     67  C   UNL A   1      47.584  31.124  29.628  1.00  0.00     0.074 A 
ATOM     68  C   UNL A   1      41.318  29.945  30.375  1.00  0.00     0.029 A 
ATOM     69  N   UNL A   1      43.484  30.029  30.809  1.00  0.00    -0.354 N 
ATOM     70  N   UNL A   1      46.705  31.990  29.206  1.00  0.00    -0.248 NA
ATOM     71  C   UNL A   1      47.360  30.607  30.976  1.00  0.00     0.031 C 
ATOM     72  C   UNL A   1      41.881  31.120  29.790  1.00  0.00     0.029 A 
ATOM     73  C   UNL A   1      43.243  31.153  30.072  1.00  0.00     0.049 A 
ATOM     74  H   UNL A   1      44.365  29.793  31.180  1.00  0.00     0.167 HD
ATOM     75  C   UNL A   1      45.623  31.805  30.042  1.00  0.00     0.074 A 
ATOM     76  C   UNL A   1      46.134  31.087  31.200  1.00  0.00     0.031 C 
ATOM     77  C   UNL A   1      44.351  31.927  29.568  1.00  0.00     0.037 A 
BRANCH  64  78
ATOM     78  C   UNL A   1      43.074  27.663  32.836  1.00  0.00     0.064 A 
ATOM     79  C   UNL A   1      42.105  27.733  33.857  1.00  0.00     0.173 A 
ATOM     80  C   UNL A   1      44.416  27.673  33.280  1.00  0.00     0.173 A 
ATOM     81  F   UNL A   1      40.797  27.750  33.557  1.00  0.00    -0.203 F 
ATOM     82  C   UNL A   1      42.455  27.879  35.203  1.00  0.00     0.198 A 
ATOM     83  C   UNL A   1      44.760  27.767  34.627  1.00  0.00     0.198 A 
ATOM     84  F   UNL A   1      45.456  27.710  32.440  1.00  0.00    -0.203 F 
ATOM     85  F   UNL A   1      41.499  28.064  36.123  1.00  0.00    -0.200 F 
ATOM     86  C   UNL A   1      43.783  27.902  35.586  1.00  0.00     0.200 A 
ATOM     87  F   UNL A   1      46.055  27.812  34.972  1.00  0.00    -0.200 F 
ATOM     88  F   UNL A   1      44.122  28.098  36.866  1.00  0.00    -0.200 F 
ENDBRANCH  64  78
BRANCH  65  89
ATOM     89  C   UNL A   1      49.995  30.458  28.972  1.00  0.00     0.064 A 
ATOM     90  C   UNL A   1      50.675  29.326  29.452  1.00  0.00     0.173 A 
ATOM     91  C   UNL A   1      50.791  31.495  28.450  1.00  0.00     0.173 A 
ATOM     92  F   UNL A   1      49.986  28.279  29.930  1.00  0.00    -0.203 F 
ATOM     93  C   UNL A   1      52.067  29.220  29.375  1.00  0.00     0.198 A 
ATOM     94  C   UNL A   1      52.181  31.389  28.378  1.00  0.00     0.198 A 
ATOM     95  F   UNL A   1      50.229  32.584  27.908  1.00  0.00    -0.203 F 
ATOM     96  F   UNL A   1      52.676  28.095  29.777  1.00  0.00    -0.200 F 
ATOM     97  C   UNL A   1      52.818  30.245  28.824  1.00  0.00     0.200 A 
ATOM     98  F   UNL A   1      52.893  32.372  27.809  1.00  0.00    -0.200 F 
ATOM     99  F   UNL A   1      54.145  30.114  28.682  1.00  0.00    -0.200 F 
ENDBRANCH  65  89
BRANCH  77 100
ATOM    100  C   UNL A   1      44.136  32.796  28.374  1.00  0.00     0.064 A 
ATOM    101  C   UNL A   1      44.255  32.369  27.043  1.00  0.00     0.173 A 
ATOM    102  C   UNL A   1      43.718  34.112  28.604  1.00  0.00     0.173 A 
ATOM    103  F   UNL A   1      44.587  31.103  26.753  1.00  0.00    -0.203 F 
ATOM    104  C   UNL A   1      43.992  33.243  25.988  1.00  0.00     0.198 A 
ATOM    105  C   UNL A   1      43.422  34.969  27.552  1.00  0.00     0.198 A 
ATOM    106  F   UNL A   1      43.558  34.555  29.862  1.00  0.00    -0.203 F 
ATOM    107  F   UNL A   1      44.124  32.825  24.720  1.00  0.00    -0.200 F 
ATOM    108  C   UNL A   1      43.568  34.538  26.244  1.00  0.00     0.200 A 
ATOM    109  F   UNL A   1      42.976  36.206  27.809  1.00  0.00    -0.200 F 
ATOM    110  F   UNL A   1      43.281  35.367  25.231  1.00  0.00    -0.200 F 
ENDBRANCH  77 100
ENDBRANCH  51  52
ENDBRANCH  44  46
ENDBRANCH  43  44
ENDBRANCH  42  43
ENDBRANCH  41  42
ENDBRANCH  40  41
ENDBRANCH  38  40
ENDBRANCH  37  38
ENDBRANCH  36  37
ENDBRANCH  35  36
ENDBRANCH   1  35
TORSDOF 26
ENDMDL
MODEL 2
REMARK VINA RESULT:      -8.3      5.269     10.309
REMARK SMILES NS(=O)(=O)c1ccc(-n2nc(C(=O)NCCCCCCCCCCC(=O)OCCOC(=O)c3ccc(-c4c5nc(c(-c6c(F)c(F)c(F)c(F)c6F)c6ccc([nH]6)c(-c6c(F)c(F)c(F)c(F)c6F)c6nc(c(-c7c(F)c(F)c(F)c(F)c7F)c7ccc4[nH]7)C=C6)C=C5)cc3)cc2-c2ccccc2)cc1
REMARK SMILES IDX 21 1 20 2 19 3 18 4 17 5 16 6 15 7 14 8 12 9 13 10 11 12
REMARK SMILES IDX 9 13 10 14 97 15 96 16 8 17 5 18 6 19 105 20 7 21 104 22
REMARK SMILES IDX 2 23 3 24 4 25 1 26 98 29 99 30 103 31 100 32 102 33 101 34
REMARK SMILES IDX 22 35 23 36 24 37 25 38 26 39 27 40 28 41 29 42 30 43 31 44
REMARK SMILES IDX 32 45 33 46 34 47 95 48 35 49 94 50 36 51 37 52 38 53 88 54
REMARK SMILES IDX 39 55 93 56 87 57 89 58 40 59 92 60 86 61 85 62 41 64 73 65
REMARK SMILES IDX 53 66 72 67 54 68 57 69 71 70 90 71 55 72 56 73 70 75 91 76
REMARK SMILES IDX 58 77 42 78 43 79 51 80 44 81 45 82 49 83 52 84 46 85 47 86
REMARK SMILES IDX 50 87 48 88 74 89 75 90 83 91 76 92 77 93 81 94 84 95 78 96
REMARK SMILES IDX 79 97 82 98 80 99 59 100 60 101 68 102 61 103 62 104 66 105
REMARK SMILES IDX 69 106 63 107 64 108 67 109 65 110
REMARK H PARENT 14 11 1 27 1 28 89 63 57 74
REMARK Flexibility Score: inf
ROOT
ATOM      1  C   UNL A   1      41.542  29.245  30.397  1.00  0.00     0.000 C 
ENDROOT
BRANCH   1   2
ATOM      2  C   UNL A   1      40.958  27.864  30.100  1.00  0.00     0.000 C 
BRANCH   2   3
ATOM      3  C   UNL A   1      39.521  27.947  29.582  1.00  0.00     0.000 C 
BRANCH   3   4
ATOM      4  C   UNL A   1      39.359  27.263  28.219  1.00  0.00     0.000 C 
BRANCH   4   5
ATOM      5  C   UNL A   1      39.993  25.866  28.182  1.00  0.00     0.002 C 
BRANCH   5   6
ATOM      6  C   UNL A   1      38.971  24.765  27.884  1.00  0.00     0.021 C 
BRANCH   6   7
ATOM      7  C   UNL A   1      39.022  24.365  26.411  1.00  0.00     0.116 C 
BRANCH   7   8
ATOM      8  N   UNL A   1      39.647  23.073  26.297  1.00  0.00    -0.351 N 
ATOM      9  C   UNL A   1      39.131  21.831  26.031  1.00  0.00     0.271 C 
ATOM     10  O   UNL A   1      39.923  20.889  26.128  1.00  0.00    -0.267 OA
ATOM     11  H   UNL A   1      40.621  23.083  26.435  1.00  0.00     0.163 HD
BRANCH   9  12
ATOM     12  C   UNL A   1      37.737  21.660  25.576  1.00  0.00     0.151 A 
ATOM     13  N   UNL A   1      35.653  22.159  25.480  1.00  0.00    -0.232 N 
ATOM     14  N   UNL A   1      36.875  22.684  25.699  1.00  0.00    -0.162 NA
ATOM     15  C   UNL A   1      35.716  20.843  25.061  1.00  0.00     0.075 A 
ATOM     16  C   UNL A   1      37.064  20.562  24.990  1.00  0.00     0.065 A 
BRANCH  13  17
ATOM     17  C   UNL A   1      34.510  22.961  25.670  1.00  0.00     0.065 A 
ATOM     18  C   UNL A   1      32.181  24.437  25.914  1.00  0.00     0.082 A 
ATOM     19  C   UNL A   1      32.506  23.496  26.896  1.00  0.00     0.024 A 
ATOM     20  C   UNL A   1      33.034  24.671  24.829  1.00  0.00     0.024 A 
ATOM     21  C   UNL A   1      33.668  22.742  26.764  1.00  0.00     0.030 A 
ATOM     22  C   UNL A   1      34.223  23.953  24.724  1.00  0.00     0.030 A 
BRANCH  18  23
ATOM     23  S   UNL A   1      30.653  25.316  25.976  1.00  0.00     0.238 S 
ATOM     24  O   UNL A   1      30.949  26.730  26.089  1.00  0.00    -0.207 OA
ATOM     25  O   UNL A   1      29.761  24.626  26.869  1.00  0.00    -0.207 OA
BRANCH  23  26
ATOM     26  N   UNL A   1      30.003  25.132  24.436  1.00  0.00    -0.225 NA
ATOM     27  H   UNL A   1      30.572  25.645  23.763  1.00  0.00     0.137 HD
ATOM     28  H   UNL A   1      29.050  25.496  24.423  1.00  0.00     0.137 HD
ENDBRANCH  23  26
ENDBRANCH  18  23
ENDBRANCH  13  17
BRANCH  15  29
ATOM     29  C   UNL A   1      34.601  19.998  24.654  1.00  0.00     0.000 A 
ATOM     30  C   UNL A   1      33.390  20.564  24.243  1.00  0.00     0.010 A 
ATOM     31  C   UNL A   1      34.749  18.605  24.644  1.00  0.00     0.010 A 
ATOM     32  C   UNL A   1      32.335  19.746  23.839  1.00  0.00     0.001 A 
ATOM     33  C   UNL A   1      33.690  17.788  24.244  1.00  0.00     0.001 A 
ATOM     34  C   UNL A   1      32.485  18.359  23.842  1.00  0.00     0.000 A 
ENDBRANCH  15  29
ENDBRANCH   9  12
ENDBRANCH   7   8
ENDBRANCH   6   7
ENDBRANCH   5   6
ENDBRANCH   4   5
ENDBRANCH   3   4
ENDBRANCH   2   3
ENDBRANCH   1   2
BRANCH   1  35
ATOM     35  C   UNL A   1      42.688  29.166  31.407  1.00  0.00     0.001 C 
BRANCH  35  36
ATOM     36  C   UNL A   1      43.654  30.345  31.267  1.00  0.00     0.012 C 
BRANCH  36  37
ATOM     37  C   UNL A   1      43.592  31.393  32.383  1.00  0.00     0.123 C 
BRANCH  37  38
ATOM     38  C   UNL A   1      42.433  32.374  32.366  1.00  0.00     0.305 C 
ATOM     39  O   UNL A   1      41.351  32.130  32.888  1.00  0.00    -0.252 OA
BRANCH  38  40
ATOM     40  O   UNL A   1      42.745  33.545  31.758  1.00  0.00    -0.462 OA
BRANCH  40  41
ATOM     41  C   UNL A   1      41.665  34.376  31.292  1.00  0.00     0.274 C 
BRANCH  41  42
ATOM     42  C   UNL A   1      41.981  34.999  29.938  1.00  0.00     0.275 C 
BRANCH  42  43
ATOM     43  O   UNL A   1      42.549  34.024  29.068  1.00  0.00    -0.458 OA
BRANCH  43  44
ATOM     44  C   UNL A   1      43.386  34.535  28.142  1.00  0.00     0.338 C 
ATOM     45  O   UNL A   1      43.195  35.501  27.427  1.00  0.00    -0.246 OA
BRANCH  44  46
ATOM     46  C   UNL A   1      44.520  33.639  27.946  1.00  0.00     0.060 A 
ATOM     47  C   UNL A   1      44.651  33.019  26.698  1.00  0.00     0.016 A 
ATOM     48  C   UNL A   1      45.160  33.165  29.095  1.00  0.00     0.016 A 
ATOM     49  C   UNL A   1      45.266  31.788  26.650  1.00  0.00     0.010 A 
ATOM     50  C   UNL A   1      45.741  31.927  29.051  1.00  0.00     0.010 A 
ATOM     51  C   UNL A   1      45.713  31.223  27.849  1.00  0.00    -0.014 A 
BRANCH  51  52
ATOM     52  C   UNL A   1      46.293  29.900  27.812  1.00  0.00     0.031 A 
ATOM     53  C   UNL A   1      45.251  28.855  27.859  1.00  0.00     0.074 A 
ATOM     54  C   UNL A   1      47.608  29.697  27.593  1.00  0.00     0.049 A 
ATOM     55  N   UNL A   1      45.011  28.028  28.818  1.00  0.00    -0.248 NA
ATOM     56  C   UNL A   1      44.225  28.859  26.801  1.00  0.00     0.031 C 
ATOM     57  C   UNL A   1      48.599  30.708  27.210  1.00  0.00     0.029 A 
ATOM     58  N   UNL A   1      48.319  28.533  27.542  1.00  0.00    -0.354 N 
ATOM     59  C   UNL A   1      43.975  27.228  28.346  1.00  0.00     0.074 A 
ATOM     60  C   UNL A   1      43.376  27.935  27.251  1.00  0.00     0.031 C 
ATOM     61  C   UNL A   1      49.706  30.093  26.735  1.00  0.00     0.029 A 
ATOM     62  C   UNL A   1      49.558  28.660  26.920  1.00  0.00     0.049 A 
ATOM     63  H   UNL A   1      47.986  27.683  27.910  1.00  0.00     0.167 HD
ATOM     64  C   UNL A   1      43.979  25.898  28.632  1.00  0.00     0.037 A 
ATOM     65  C   UNL A   1      50.365  27.641  26.533  1.00  0.00     0.037 A 
ATOM     66  C   UNL A   1      44.871  25.621  29.730  1.00  0.00     0.049 A 
ATOM     67  C   UNL A   1      49.966  26.434  27.294  1.00  0.00     0.074 A 
ATOM     68  C   UNL A   1      44.847  25.726  31.101  1.00  0.00     0.029 A 
ATOM     69  N   UNL A   1      46.181  25.516  29.352  1.00  0.00    -0.354 N 
ATOM     70  N   UNL A   1      50.126  26.312  28.582  1.00  0.00    -0.248 NA
ATOM     71  C   UNL A   1      49.053  25.473  26.680  1.00  0.00     0.031 C 
ATOM     72  C   UNL A   1      46.209  25.742  31.531  1.00  0.00     0.029 A 
ATOM     73  C   UNL A   1      47.031  25.611  30.417  1.00  0.00     0.049 A 
ATOM     74  H   UNL A   1      46.477  25.387  28.422  1.00  0.00     0.167 HD
ATOM     75  C   UNL A   1      49.042  25.561  28.986  1.00  0.00     0.074 A 
ATOM     76  C   UNL A   1      48.523  24.933  27.780  1.00  0.00     0.031 C 
ATOM     77  C   UNL A   1      48.444  25.797  30.187  1.00  0.00     0.037 A 
BRANCH  64  78
ATOM     78  C   UNL A   1      43.653  24.811  27.625  1.00  0.00     0.064 A 
ATOM     79  C   UNL A   1      42.926  23.687  28.069  1.00  0.00     0.173 A 
ATOM     80  C   UNL A   1      44.279  24.662  26.368  1.00  0.00     0.173 A 
ATOM     81  F   UNL A   1      42.303  23.703  29.258  1.00  0.00    -0.203 F 
ATOM     82  C   UNL A   1      42.895  22.490  27.347  1.00  0.00     0.198 A 
ATOM     83  C   UNL A   1      44.205  23.484  25.626  1.00  0.00     0.198 A 
ATOM     84  F   UNL A   1      45.085  25.592  25.845  1.00  0.00    -0.203 F 
ATOM     85  F   UNL A   1      42.292  21.413  27.867  1.00  0.00    -0.200 F 
ATOM     86  C   UNL A   1      43.540  22.388  26.128  1.00  0.00     0.200 A 
ATOM     87  F   UNL A   1      44.859  23.400  24.458  1.00  0.00    -0.200 F 
ATOM     88  F   UNL A   1      43.561  21.227  25.461  1.00  0.00    -0.200 F 
ENDBRANCH  64  78
BRANCH  65  89
ATOM     89  C   UNL A   1      51.266  27.557  25.360  1.00  0.00     0.064 A 
ATOM     90  C   UNL A   1      52.620  27.213  25.512  1.00  0.00     0.173 A 
ATOM     91  C   UNL A   1      50.750  27.516  24.051  1.00  0.00     0.173 A 
ATOM     92  F   UNL A   1      53.176  27.191  26.732  1.00  0.00    -0.203 F 
ATOM     93  C   UNL A   1      53.400  26.808  24.425  1.00  0.00     0.198 A 
ATOM     94  C   UNL A   1      51.531  27.115  22.966  1.00  0.00     0.198 A 
ATOM     95  F   UNL A   1      49.454  27.763  23.817  1.00  0.00    -0.203 F 
ATOM     96  F   UNL A   1      54.667  26.417  24.619  1.00  0.00    -0.200 F 
ATOM     97  C   UNL A   1      52.850  26.745  23.154  1.00  0.00     0.200 A 
ATOM     98  F   UNL A   1      50.978  27.023  21.748  1.00  0.00    -0.200 F 
ATOM     99  F   UNL A   1      53.576  26.287  22.124  1.00  0.00    -0.200 F 
ENDBRANCH  65  89
BRANCH  77 100
ATOM    100  C   UNL A   1      49.270  26.415  31.265  1.00  0.00     0.064 A 
ATOM    101  C   UNL A   1      50.177  25.716  32.076  1.00  0.00     0.173 A 
ATOM    102  C   UNL A   1      49.181  27.803  31.427  1.00  0.00     0.173 A 
ATOM    103  F   UNL A   1      50.360  24.397  31.928  1.00  0.00    -0.203 F 
ATOM    104  C   UNL A   1      50.940  26.387  33.032  1.00  0.00     0.198 A 
ATOM    105  C   UNL A   1      49.968  28.473  32.355  1.00  0.00     0.198 A 
ATOM    106  F   UNL A   1      48.351  28.517  30.651  1.00  0.00    -0.203 F 
ATOM    107  F   UNL A   1      51.793  25.705  33.811  1.00  0.00    -0.200 F 
ATOM    108  C   UNL A   1      50.841  27.764  33.164  1.00  0.00     0.200 A 
ATOM    109  F   UNL A   1      49.894  29.807  32.449  1.00  0.00    -0.200 F 
ATOM    110  F   UNL A   1      51.601  28.413  34.057  1.00  0.00    -0.200 F 
ENDBRANCH  77 100
ENDBRANCH  51  52
ENDBRANCH  44  46
ENDBRANCH  43  44
ENDBRANCH  42  43
ENDBRANCH  41  42
ENDBRANCH  40  41
ENDBRANCH  38  40
ENDBRANCH  37  38
ENDBRANCH  36  37
ENDBRANCH  35  36
ENDBRANCH   1  35
TORSDOF 26
ENDMDL
MODEL 3
REMARK VINA RESULT:      -7.9      3.137      7.992
REMARK SMILES NS(=O)(=O)c1ccc(-n2nc(C(=O)NCCCCCCCCCCC(=O)OCCOC(=O)c3ccc(-c4c5nc(c(-c6c(F)c(F)c(F)c(F)c6F)c6ccc([nH]6)c(-c6c(F)c(F)c(F)c(F)c6F)c6nc(c(-c7c(F)c(F)c(F)c(F)c7F)c7ccc4[nH]7)C=C6)C=C5)cc3)cc2-c2ccccc2)cc1
REMARK SMILES IDX 21 1 20 2 19 3 18 4 17 5 16 6 15 7 14 8 12 9 13 10 11 12
REMARK SMILES IDX 9 13 10 14 97 15 96 16 8 17 5 18 6 19 105 20 7 21 104 22
REMARK SMILES IDX 2 23 3 24 4 25 1 26 98 29 99 30 103 31 100 32 102 33 101 34
REMARK SMILES IDX 22 35 23 36 24 37 25 38 26 39 27 40 28 41 29 42 30 43 31 44
REMARK SMILES IDX 32 45 33 46 34 47 95 48 35 49 94 50 36 51 37 52 38 53 88 54
REMARK SMILES IDX 39 55 93 56 87 57 89 58 40 59 92 60 86 61 85 62 41 64 73 65
REMARK SMILES IDX 53 66 72 67 54 68 57 69 71 70 90 71 55 72 56 73 70 75 91 76
REMARK SMILES IDX 58 77 42 78 43 79 51 80 44 81 45 82 49 83 52 84 46 85 47 86
REMARK SMILES IDX 50 87 48 88 74 89 75 90 83 91 76 92 77 93 81 94 84 95 78 96
REMARK SMILES IDX 79 97 82 98 80 99 59 100 60 101 68 102 61 103 62 104 66 105
REMARK SMILES IDX 69 106 63 107 64 108 67 109 65 110
REMARK H PARENT 14 11 1 27 1 28 89 63 57 74
REMARK Flexibility Score: inf
ROOT
ATOM      1  C   UNL A   1      35.888  22.820  24.226  1.00  0.00     0.000 C 
ENDROOT
BRANCH   1   2
ATOM      2  C   UNL A   1      34.540  22.911  24.940  1.00  0.00     0.000 C 
BRANCH   2   3
ATOM      3  C   UNL A   1      34.361  24.248  25.662  1.00  0.00     0.000 C 
BRANCH   3   4
ATOM      4  C   UNL A   1      33.208  25.071  25.074  1.00  0.00     0.000 C 
BRANCH   4   5
ATOM      5  C   UNL A   1      33.684  26.094  24.034  1.00  0.00     0.002 C 
BRANCH   5   6
ATOM      6  C   UNL A   1      32.873  27.393  24.075  1.00  0.00     0.021 C 
BRANCH   6   7
ATOM      7  C   UNL A   1      33.743  28.559  24.539  1.00  0.00     0.116 C 
BRANCH   7   8
ATOM      8  N   UNL A   1      32.892  29.634  24.976  1.00  0.00    -0.351 N 
ATOM      9  C   UNL A   1      32.873  30.371  26.132  1.00  0.00     0.271 C 
ATOM     10  O   UNL A   1      31.923  31.149  26.257  1.00  0.00    -0.267 OA
ATOM     11  H   UNL A   1      32.197  29.887  24.326  1.00  0.00     0.163 HD
BRANCH   9  12
ATOM     12  C   UNL A   1      33.972  30.286  27.114  1.00  0.00     0.151 A 
ATOM     13  N   UNL A   1      35.233  31.029  28.682  1.00  0.00    -0.232 N 
ATOM     14  N   UNL A   1      34.005  31.154  28.140  1.00  0.00    -0.162 NA
ATOM     15  C   UNL A   1      35.946  29.983  28.128  1.00  0.00     0.075 A 
ATOM     16  C   UNL A   1      35.084  29.417  27.213  1.00  0.00     0.065 A 
BRANCH  13  17
ATOM     17  C   UNL A   1      35.631  31.909  29.708  1.00  0.00     0.065 A 
ATOM     18  C   UNL A   1      36.538  33.515  31.773  1.00  0.00     0.082 A 
ATOM     19  C   UNL A   1      36.877  33.832  30.454  1.00  0.00     0.024 A 
ATOM     20  C   UNL A   1      35.716  32.420  32.062  1.00  0.00     0.024 A 
ATOM     21  C   UNL A   1      36.435  33.015  29.418  1.00  0.00     0.030 A 
ATOM     22  C   UNL A   1      35.231  31.632  31.022  1.00  0.00     0.030 A 
BRANCH  18  23
ATOM     23  S   UNL A   1      37.188  34.448  33.121  1.00  0.00     0.238 S 
ATOM     24  O   UNL A   1      36.151  35.342  33.594  1.00  0.00    -0.207 OA
ATOM     25  O   UNL A   1      38.512  34.894  32.777  1.00  0.00    -0.207 OA
BRANCH  23  26
ATOM     26  N   UNL A   1      37.383  33.320  34.353  1.00  0.00    -0.225 NA
ATOM     27  H   UNL A   1      37.119  33.740  35.244  1.00  0.00     0.137 HD
ATOM     28  H   UNL A   1      38.359  33.025  34.393  1.00  0.00     0.137 HD
ENDBRANCH  23  26
ENDBRANCH  18  23
ENDBRANCH  13  17
BRANCH  15  29
ATOM     29  C   UNL A   1      37.264  29.509  28.530  1.00  0.00     0.000 A 
ATOM     30  C   UNL A   1      37.451  28.892  29.771  1.00  0.00     0.010 A 
ATOM     31  C   UNL A   1      38.351  29.643  27.657  1.00  0.00     0.010 A 
ATOM     32  C   UNL A   1      38.713  28.426  30.139  1.00  0.00     0.001 A 
ATOM     33  C   UNL A   1      39.614  29.180  28.030  1.00  0.00     0.001 A 
ATOM     34  C   UNL A   1      39.794  28.572  29.270  1.00  0.00     0.000 A 
ENDBRANCH  15  29
ENDBRANCH   9  12
ENDBRANCH   7   8
ENDBRANCH   6   7
ENDBRANCH   5   6
ENDBRANCH   4   5
ENDBRANCH   3   4
ENDBRANCH   2   3
ENDBRANCH   1   2
BRANCH   1  35
ATOM     35  C   UNL A   1      36.971  23.610  24.962  1.00  0.00     0.001 C 
BRANCH  35  36
ATOM     36  C   UNL A   1      37.911  22.694  25.749  1.00  0.00     0.012 C 
BRANCH  36  37
ATOM     37  C   UNL A   1      38.004  21.248  25.250  1.00  0.00     0.123 C 
BRANCH  37  38
ATOM     38  C   UNL A   1      39.267  20.470  25.572  1.00  0.00     0.305 C 
ATOM     39  O   UNL A   1      39.337  19.250  25.470  1.00  0.00    -0.252 OA
BRANCH  38  40
ATOM     40  O   UNL A   1      40.299  21.270  25.937  1.00  0.00    -0.462 OA
BRANCH  40  41
ATOM     41  C   UNL A   1      41.536  20.646  26.328  1.00  0.00     0.274 C 
BRANCH  41  42
ATOM     42  C   UNL A   1      42.653  21.669  26.493  1.00  0.00     0.275 C 
BRANCH  42  43
ATOM     43  O   UNL A   1      43.704  21.404  25.569  1.00  0.00    -0.458 OA
BRANCH  43  44
ATOM     44  C   UNL A   1      43.986  22.435  24.747  1.00  0.00     0.338 C 
ATOM     45  O   UNL A   1      43.742  22.520  23.557  1.00  0.00    -0.246 OA
BRANCH  44  46
ATOM     46  C   UNL A   1      44.832  23.404  25.433  1.00  0.00     0.060 A 
ATOM     47  C   UNL A   1      45.753  22.917  26.368  1.00  0.00     0.016 A 
ATOM     48  C   UNL A   1      44.416  24.739  25.409  1.00  0.00     0.016 A 
ATOM     49  C   UNL A   1      46.101  23.735  27.419  1.00  0.00     0.010 A 
ATOM     50  C   UNL A   1      44.737  25.538  26.472  1.00  0.00     0.010 A 
ATOM     51  C   UNL A   1      45.507  24.999  27.500  1.00  0.00    -0.014 A 
BRANCH  51  52
ATOM     52  C   UNL A   1      45.813  25.832  28.641  1.00  0.00     0.031 A 
ATOM     53  C   UNL A   1      47.213  26.300  28.604  1.00  0.00     0.074 A 
ATOM     54  C   UNL A   1      44.865  26.238  29.509  1.00  0.00     0.049 A 
ATOM     55  N   UNL A   1      48.173  25.969  29.397  1.00  0.00    -0.248 NA
ATOM     56  C   UNL A   1      47.648  27.077  27.429  1.00  0.00     0.031 C 
ATOM     57  C   UNL A   1      43.416  26.059  29.372  1.00  0.00     0.029 A 
ATOM     58  N   UNL A   1      44.976  27.004  30.633  1.00  0.00    -0.354 N 
ATOM     59  C   UNL A   1      49.262  26.722  28.971  1.00  0.00     0.074 A 
ATOM     60  C   UNL A   1      48.961  27.163  27.639  1.00  0.00     0.031 C 
ATOM     61  C   UNL A   1      42.779  26.892  30.225  1.00  0.00     0.029 A 
ATOM     62  C   UNL A   1      43.768  27.545  31.065  1.00  0.00     0.049 A 
ATOM     63  H   UNL A   1      45.831  27.159  31.096  1.00  0.00     0.167 HD
ATOM     64  C   UNL A   1      50.110  27.246  29.896  1.00  0.00     0.037 A 
ATOM     65  C   UNL A   1      43.615  28.510  32.005  1.00  0.00     0.037 A 
ATOM     66  C   UNL A   1      49.945  26.583  31.165  1.00  0.00     0.049 A 
ATOM     67  C   UNL A   1      44.850  28.542  32.823  1.00  0.00     0.074 A 
ATOM     68  C   UNL A   1      50.342  25.400  31.744  1.00  0.00     0.029 A 
ATOM     69  N   UNL A   1      48.894  27.063  31.896  1.00  0.00    -0.354 N 
ATOM     70  N   UNL A   1      45.211  27.573  33.617  1.00  0.00    -0.248 NA
ATOM     71  C   UNL A   1      45.893  29.514  32.504  1.00  0.00     0.031 C 
ATOM     72  C   UNL A   1      49.441  25.155  32.824  1.00  0.00     0.029 A 
ATOM     73  C   UNL A   1      48.538  26.210  32.902  1.00  0.00     0.049 A 
ATOM     74  H   UNL A   1      48.446  27.921  31.719  1.00  0.00     0.167 HD
ATOM     75  C   UNL A   1      46.589  27.578  33.551  1.00  0.00     0.074 A 
ATOM     76  C   UNL A   1      46.954  28.878  33.007  1.00  0.00     0.031 C 
ATOM     77  C   UNL A   1      47.291  26.412  33.599  1.00  0.00     0.037 A 
BRANCH  64  78
ATOM     78  C   UNL A   1      50.656  28.661  29.844  1.00  0.00     0.064 A 
ATOM     79  C   UNL A   1      49.738  29.730  29.784  1.00  0.00     0.173 A 
ATOM     80  C   UNL A   1      51.991  28.999  29.527  1.00  0.00     0.173 A 
ATOM     81  F   UNL A   1      48.437  29.526  30.048  1.00  0.00    -0.203 F 
ATOM     82  C   UNL A   1      50.115  31.009  29.367  1.00  0.00     0.198 A 
ATOM     83  C   UNL A   1      52.373  30.288  29.159  1.00  0.00     0.198 A 
ATOM     84  F   UNL A   1      52.968  28.089  29.441  1.00  0.00    -0.203 F 
ATOM     85  F   UNL A   1      49.183  31.960  29.210  1.00  0.00    -0.200 F 
ATOM     86  C   UNL A   1      51.431  31.286  29.049  1.00  0.00     0.200 A 
ATOM     87  F   UNL A   1      53.651  30.527  28.832  1.00  0.00    -0.200 F 
ATOM     88  F   UNL A   1      51.785  32.495  28.594  1.00  0.00    -0.200 F 
ENDBRANCH  64  78
BRANCH  65  89
ATOM     89  C   UNL A   1      42.608  29.593  32.077  1.00  0.00     0.064 A 
ATOM     90  C   UNL A   1      42.555  30.598  31.097  1.00  0.00     0.173 A 
ATOM     91  C   UNL A   1      41.495  29.491  32.933  1.00  0.00     0.173 A 
ATOM     92  F   UNL A   1      43.560  30.735  30.219  1.00  0.00    -0.203 F 
ATOM     93  C   UNL A   1      41.437  31.425  30.954  1.00  0.00     0.198 A 
ATOM     94  C   UNL A   1      40.380  30.320  32.791  1.00  0.00     0.198 A 
ATOM     95  F   UNL A   1      41.425  28.520  33.855  1.00  0.00    -0.203 F 
ATOM     96  F   UNL A   1      41.392  32.325  29.961  1.00  0.00    -0.200 F 
ATOM     97  C   UNL A   1      40.344  31.275  31.792  1.00  0.00     0.200 A 
ATOM     98  F   UNL A   1      39.314  30.140  33.584  1.00  0.00    -0.200 F 
ATOM     99  F   UNL A   1      39.242  32.016  31.608  1.00  0.00    -0.200 F 
ENDBRANCH  65  89
BRANCH  77 100
ATOM    100  C   UNL A   1      46.657  25.249  34.287  1.00  0.00     0.064 A 
ATOM    101  C   UNL A   1      45.816  24.313  33.665  1.00  0.00     0.173 A 
ATOM    102  C   UNL A   1      46.984  25.042  35.633  1.00  0.00     0.173 A 
ATOM    103  F   UNL A   1      45.517  24.415  32.362  1.00  0.00    -0.203 F 
ATOM    104  C   UNL A   1      45.303  23.231  34.380  1.00  0.00     0.198 A 
ATOM    105  C   UNL A   1      46.500  23.944  36.332  1.00  0.00     0.198 A 
ATOM    106  F   UNL A   1      47.811  25.893  36.261  1.00  0.00    -0.203 F 
ATOM    107  F   UNL A   1      44.489  22.353  33.777  1.00  0.00    -0.200 F 
ATOM    108  C   UNL A   1      45.652  23.044  35.709  1.00  0.00     0.200 A 
ATOM    109  F   UNL A   1      46.874  23.750  37.604  1.00  0.00    -0.200 F 
ATOM    110  F   UNL A   1      45.188  21.984  36.386  1.00  0.00    -0.200 F 
ENDBRANCH  77 100
ENDBRANCH  51  52
ENDBRANCH  44  46
ENDBRANCH  43  44
ENDBRANCH  42  43
ENDBRANCH  41  42
ENDBRANCH  40  41
ENDBRANCH  38  40
ENDBRANCH  37  38
ENDBRANCH  36  37
ENDBRANCH  35  36
ENDBRANCH   1  35
TORSDOF 26
ENDMDL
