MODEL 1
REMARK VINA RESULT:     -12.3      0.000      0.000
REMARK SMILES CN(c1ccccc1C(=O)OCCOC(=O)c1ccc(-c2c3nc(c(-c4c(F)c(F)c(F)c(F)c4F)c4ccc([nH]4)c(-c4c(F)c(F)c(F)c(F)c4F)c4nc(c(-c5c(F)c(F)c(F)c(F)c5F)c5ccc2[nH]5)C=C4)C=C3)cc1)S(=O)(=O)c1ccc(I)cc1
REMARK SMILES IDX 12 1 11 2 9 3 10 4 8 5 3 6 4 7 5 8 7 9 6 10 2 11 1 12 80 13
REMARK SMILES IDX 81 14 82 15 83 16 84 17 89 18 85 19 88 20 86 21 87 22 13 23
REMARK SMILES IDX 14 24 15 25 16 26 17 27 18 28 79 29 19 30 78 31 20 32 21 33
REMARK SMILES IDX 22 34 72 35 23 36 77 37 71 38 73 39 24 40 76 41 70 42 69 43
REMARK SMILES IDX 25 45 57 46 37 47 56 48 38 49 41 50 55 51 74 52 39 53 40 54
REMARK SMILES IDX 54 56 75 57 42 58 26 59 27 60 35 61 28 62 29 63 33 64 36 65
REMARK SMILES IDX 30 66 31 67 34 68 32 69 58 70 59 71 67 72 60 73 61 74 65 75
REMARK SMILES IDX 68 76 62 77 63 78 66 79 64 80 43 81 44 82 52 83 45 84 46 85
REMARK SMILES IDX 50 86 53 87 47 88 48 89 51 90 49 91
REMARK H PARENT 73 44 41 55
REMARK Flexibility Score: inf
ROOT
ATOM      1  C   UNL A   1      35.636  21.747  26.124  1.00  0.00     0.275 C 
ENDROOT
BRANCH   1   2
ATOM      2  O   UNL A   1      34.376  21.071  26.332  1.00  0.00    -0.458 OA
BRANCH   2   3
ATOM      3  C   UNL A   1      33.278  21.811  26.093  1.00  0.00     0.340 C 
ATOM      4  O   UNL A   1      32.894  22.771  26.747  1.00  0.00    -0.246 OA
BRANCH   3   5
ATOM      5  C   UNL A   1      32.517  21.379  24.906  1.00  0.00     0.084 A 
ATOM      6  C   UNL A   1      32.374  22.199  23.783  1.00  0.00     0.066 A 
ATOM      7  C   UNL A   1      32.282  21.590  22.520  1.00  0.00     0.028 A 
ATOM      8  C   UNL A   1      32.185  20.206  22.378  1.00  0.00     0.002 A 
ATOM      9  C   UNL A   1      32.355  19.990  24.761  1.00  0.00     0.018 A 
ATOM     10  C   UNL A   1      32.171  19.406  23.509  1.00  0.00     0.001 A 
BRANCH   6  11
ATOM     11  N   UNL A   1      32.174  23.629  23.776  1.00  0.00    -0.269 N 
ATOM     12  C   UNL A   1      30.862  24.133  23.317  1.00  0.00     0.164 C 
BRANCH  11  13
ATOM     13  S   UNL A   1      33.492  24.585  23.184  1.00  0.00     0.264 S 
ATOM     14  O   UNL A   1      34.717  23.856  23.432  1.00  0.00    -0.201 OA
ATOM     15  O   UNL A   1      33.150  24.997  21.837  1.00  0.00    -0.201 OA
BRANCH  13  16
ATOM     16  C   UNL A   1      33.550  26.068  24.174  1.00  0.00     0.088 A 
ATOM     17  C   UNL A   1      33.440  25.966  25.568  1.00  0.00     0.023 A 
ATOM     18  C   UNL A   1      33.698  27.319  23.571  1.00  0.00     0.023 A 
ATOM     19  C   UNL A   1      33.426  27.122  26.351  1.00  0.00     0.016 A 
ATOM     20  C   UNL A   1      33.637  28.477  24.352  1.00  0.00     0.016 A 
ATOM     21  C   UNL A   1      33.498  28.374  25.738  1.00  0.00     0.013 A 
ATOM     22  I   UNL A   1      33.393  30.097  26.896  1.00  0.00    -0.044 I 
ENDBRANCH  13  16
ENDBRANCH  11  13
ENDBRANCH   6  11
ENDBRANCH   3   5
ENDBRANCH   2   3
ENDBRANCH   1   2
BRANCH   1  23
ATOM     23  C   UNL A   1      36.520  20.987  25.141  1.00  0.00     0.275 C 
BRANCH  23  24
ATOM     24  O   UNL A   1      37.759  21.691  24.938  1.00  0.00    -0.458 OA
BRANCH  24  25
ATOM     25  C   UNL A   1      38.757  21.330  25.771  1.00  0.00     0.338 C 
ATOM     26  O   UNL A   1      39.240  20.222  25.933  1.00  0.00    -0.246 OA
BRANCH  25  27
ATOM     27  C   UNL A   1      39.270  22.505  26.488  1.00  0.00     0.060 A 
ATOM     28  C   UNL A   1      38.749  23.759  26.187  1.00  0.00     0.016 A 
ATOM     29  C   UNL A   1      40.404  22.385  27.287  1.00  0.00     0.016 A 
ATOM     30  C   UNL A   1      39.453  24.904  26.549  1.00  0.00     0.010 A 
ATOM     31  C   UNL A   1      41.031  23.540  27.766  1.00  0.00     0.010 A 
ATOM     32  C   UNL A   1      40.597  24.814  27.357  1.00  0.00    -0.014 A 
BRANCH  32  33
ATOM     33  C   UNL A   1      41.360  26.036  27.744  1.00  0.00     0.031 A 
ATOM     34  C   UNL A   1      40.709  27.098  28.595  1.00  0.00     0.074 A 
ATOM     35  C   UNL A   1      42.639  26.200  27.348  1.00  0.00     0.049 A 
ATOM     36  N   UNL A   1      41.105  28.323  28.844  1.00  0.00    -0.248 NA
ATOM     37  C   UNL A   1      39.436  26.742  29.243  1.00  0.00     0.031 C 
ATOM     38  C   UNL A   1      43.420  25.233  26.575  1.00  0.00     0.029 A 
ATOM     39  N   UNL A   1      43.512  27.242  27.547  1.00  0.00    -0.354 N 
ATOM     40  C   UNL A   1      40.106  28.896  29.621  1.00  0.00     0.074 A 
ATOM     41  C   UNL A   1      39.084  27.889  29.807  1.00  0.00     0.031 C 
ATOM     42  C   UNL A   1      44.663  25.704  26.404  1.00  0.00     0.029 A 
ATOM     43  C   UNL A   1      44.738  27.049  26.958  1.00  0.00     0.049 A 
ATOM     44  H   UNL A   1      43.281  28.049  28.061  1.00  0.00     0.167 HD
ATOM     45  C   UNL A   1      40.049  30.152  30.130  1.00  0.00     0.037 A 
ATOM     46  C   UNL A   1      45.789  27.881  26.825  1.00  0.00     0.037 A 
ATOM     47  C   UNL A   1      41.096  31.132  29.988  1.00  0.00     0.049 A 
ATOM     48  C   UNL A   1      45.683  29.280  27.362  1.00  0.00     0.074 A 
ATOM     49  C   UNL A   1      41.127  32.438  30.447  1.00  0.00     0.029 A 
ATOM     50  N   UNL A   1      42.311  30.899  29.362  1.00  0.00    -0.354 N 
ATOM     51  N   UNL A   1      44.696  29.844  28.012  1.00  0.00    -0.248 NA
ATOM     52  C   UNL A   1      46.831  30.167  27.122  1.00  0.00     0.031 C 
ATOM     53  C   UNL A   1      42.353  33.002  30.078  1.00  0.00     0.029 A 
ATOM     54  C   UNL A   1      43.099  32.037  29.424  1.00  0.00     0.049 A 
ATOM     55  H   UNL A   1      42.574  30.051  28.936  1.00  0.00     0.167 HD
ATOM     56  C   UNL A   1      45.105  31.144  28.270  1.00  0.00     0.074 A 
ATOM     57  C   UNL A   1      46.442  31.279  27.727  1.00  0.00     0.031 C 
ATOM     58  C   UNL A   1      44.433  32.143  28.892  1.00  0.00     0.037 A 
BRANCH  45  59
ATOM     59  C   UNL A   1      38.805  30.555  30.869  1.00  0.00     0.064 A 
ATOM     60  C   UNL A   1      38.720  30.483  32.267  1.00  0.00     0.173 A 
ATOM     61  C   UNL A   1      37.705  31.078  30.171  1.00  0.00     0.173 A 
ATOM     62  F   UNL A   1      39.737  29.979  32.981  1.00  0.00    -0.203 F 
ATOM     63  C   UNL A   1      37.573  30.904  32.937  1.00  0.00     0.198 A 
ATOM     64  C   UNL A   1      36.571  31.521  30.845  1.00  0.00     0.198 A 
ATOM     65  F   UNL A   1      37.739  31.175  28.833  1.00  0.00    -0.203 F 
ATOM     66  F   UNL A   1      37.499  30.794  34.270  1.00  0.00    -0.200 F 
ATOM     67  C   UNL A   1      36.503  31.430  32.226  1.00  0.00     0.200 A 
ATOM     68  F   UNL A   1      35.545  32.042  30.157  1.00  0.00    -0.200 F 
ATOM     69  F   UNL A   1      35.406  31.847  32.873  1.00  0.00    -0.200 F 
ENDBRANCH  45  59
BRANCH  46  70
ATOM     70  C   UNL A   1      47.010  27.431  26.107  1.00  0.00     0.064 A 
ATOM     71  C   UNL A   1      48.093  26.879  26.804  1.00  0.00     0.173 A 
ATOM     72  C   UNL A   1      47.126  27.556  24.714  1.00  0.00     0.173 A 
ATOM     73  F   UNL A   1      48.042  26.764  28.138  1.00  0.00    -0.203 F 
ATOM     74  C   UNL A   1      49.250  26.481  26.137  1.00  0.00     0.198 A 
ATOM     75  C   UNL A   1      48.269  27.126  24.044  1.00  0.00     0.198 A 
ATOM     76  F   UNL A   1      46.120  28.080  23.999  1.00  0.00    -0.203 F 
ATOM     77  F   UNL A   1      50.290  26.002  26.832  1.00  0.00    -0.200 F 
ATOM     78  C   UNL A   1      49.334  26.598  24.756  1.00  0.00     0.200 A 
ATOM     79  F   UNL A   1      48.339  27.227  22.710  1.00  0.00    -0.200 F 
ATOM     80  F   UNL A   1      50.446  26.211  24.116  1.00  0.00    -0.200 F 
ENDBRANCH  46  70
BRANCH  58  81
ATOM     81  C   UNL A   1      45.150  33.447  29.055  1.00  0.00     0.064 A 
ATOM     82  C   UNL A   1      45.955  33.707  30.173  1.00  0.00     0.173 A 
ATOM     83  C   UNL A   1      45.045  34.442  28.071  1.00  0.00     0.173 A 
ATOM     84  F   UNL A   1      46.071  32.793  31.149  1.00  0.00    -0.203 F 
ATOM     85  C   UNL A   1      46.609  34.928  30.314  1.00  0.00     0.198 A 
ATOM     86  C   UNL A   1      45.721  35.651  28.202  1.00  0.00     0.198 A 
ATOM     87  F   UNL A   1      44.289  34.238  26.982  1.00  0.00    -0.203 F 
ATOM     88  F   UNL A   1      47.335  35.175  31.413  1.00  0.00    -0.200 F 
ATOM     89  C   UNL A   1      46.496  35.896  29.326  1.00  0.00     0.200 A 
ATOM     90  F   UNL A   1      45.617  36.583  27.245  1.00  0.00    -0.200 F 
ATOM     91  F   UNL A   1      47.126  37.070  29.464  1.00  0.00    -0.200 F 
ENDBRANCH  58  81
ENDBRANCH  32  33
ENDBRANCH  25  27
ENDBRANCH  24  25
ENDBRANCH  23  24
ENDBRANCH   1  23
TORSDOF 14
ENDMDL
MODEL 2
REMARK VINA RESULT:     -12.3      4.309      9.553
REMARK SMILES CN(c1ccccc1C(=O)OCCOC(=O)c1ccc(-c2c3nc(c(-c4c(F)c(F)c(F)c(F)c4F)c4ccc([nH]4)c(-c4c(F)c(F)c(F)c(F)c4F)c4nc(c(-c5c(F)c(F)c(F)c(F)c5F)c5ccc2[nH]5)C=C4)C=C3)cc1)S(=O)(=O)c1ccc(I)cc1
REMARK SMILES IDX 12 1 11 2 9 3 10 4 8 5 3 6 4 7 5 8 7 9 6 10 2 11 1 12 80 13
REMARK SMILES IDX 81 14 82 15 83 16 84 17 89 18 85 19 88 20 86 21 87 22 13 23
REMARK SMILES IDX 14 24 15 25 16 26 17 27 18 28 79 29 19 30 78 31 20 32 21 33
REMARK SMILES IDX 22 34 72 35 23 36 77 37 71 38 73 39 24 40 76 41 70 42 69 43
REMARK SMILES IDX 25 45 57 46 37 47 56 48 38 49 41 50 55 51 74 52 39 53 40 54
REMARK SMILES IDX 54 56 75 57 42 58 26 59 27 60 35 61 28 62 29 63 33 64 36 65
REMARK SMILES IDX 30 66 31 67 34 68 32 69 58 70 59 71 67 72 60 73 61 74 65 75
REMARK SMILES IDX 68 76 62 77 63 78 66 79 64 80 43 81 44 82 52 83 45 84 46 85
REMARK SMILES IDX 50 86 53 87 47 88 48 89 51 90 49 91
REMARK H PARENT 73 44 41 55
REMARK Flexibility Score: inf
ROOT
ATOM      1  C   UNL A   1      33.042  29.247  24.803  1.00  0.00     0.275 C 
ENDROOT
BRANCH   1   2
ATOM      2  O   UNL A   1      32.679  29.141  23.408  1.00  0.00    -0.458 OA
BRANCH   2   3
ATOM      3  C   UNL A   1      32.516  27.887  22.949  1.00  0.00     0.340 C 
ATOM      4  O   UNL A   1      33.403  27.125  22.592  1.00  0.00    -0.246 OA
BRANCH   3   5
ATOM      5  C   UNL A   1      31.109  27.448  22.908  1.00  0.00     0.084 A 
ATOM      6  C   UNL A   1      30.636  26.413  23.721  1.00  0.00     0.066 A 
ATOM      7  C   UNL A   1      29.304  26.470  24.165  1.00  0.00     0.028 A 
ATOM      8  C   UNL A   1      28.416  27.440  23.701  1.00  0.00     0.002 A 
ATOM      9  C   UNL A   1      30.194  28.385  22.396  1.00  0.00     0.018 A 
ATOM     10  C   UNL A   1      28.852  28.371  22.772  1.00  0.00     0.001 A 
BRANCH   6  11
ATOM     11  N   UNL A   1      31.332  25.196  24.064  1.00  0.00    -0.269 N 
ATOM     12  C   UNL A   1      30.809  23.930  23.506  1.00  0.00     0.164 C 
BRANCH  11  13
ATOM     13  S   UNL A   1      31.827  25.034  25.716  1.00  0.00     0.264 S 
ATOM     14  O   UNL A   1      31.999  26.363  26.262  1.00  0.00    -0.201 OA
ATOM     15  O   UNL A   1      30.914  24.100  26.347  1.00  0.00    -0.201 OA
BRANCH  13  16
ATOM     16  C   UNL A   1      33.432  24.254  25.708  1.00  0.00     0.088 A 
ATOM     17  C   UNL A   1      34.424  24.738  24.846  1.00  0.00     0.023 A 
ATOM     18  C   UNL A   1      33.698  23.169  26.547  1.00  0.00     0.023 A 
ATOM     19  C   UNL A   1      35.666  24.101  24.788  1.00  0.00     0.016 A 
ATOM     20  C   UNL A   1      34.924  22.505  26.454  1.00  0.00     0.016 A 
ATOM     21  C   UNL A   1      35.902  22.972  25.573  1.00  0.00     0.013 A 
ATOM     22  I   UNL A   1      37.720  21.974  25.425  1.00  0.00    -0.044 I 
ENDBRANCH  13  16
ENDBRANCH  11  13
ENDBRANCH   6  11
ENDBRANCH   3   5
ENDBRANCH   2   3
ENDBRANCH   1   2
BRANCH   1  23
ATOM     23  C   UNL A   1      32.023  30.072  25.582  1.00  0.00     0.275 C 
BRANCH  23  24
ATOM     24  O   UNL A   1      32.439  30.211  26.953  1.00  0.00    -0.458 OA
BRANCH  24  25
ATOM     25  C   UNL A   1      33.109  31.350  27.228  1.00  0.00     0.338 C 
ATOM     26  O   UNL A   1      32.687  32.494  27.212  1.00  0.00    -0.246 OA
BRANCH  25  27
ATOM     27  C   UNL A   1      34.491  31.044  27.619  1.00  0.00     0.060 A 
ATOM     28  C   UNL A   1      34.828  29.733  27.937  1.00  0.00     0.016 A 
ATOM     29  C   UNL A   1      35.381  32.084  27.878  1.00  0.00     0.016 A 
ATOM     30  C   UNL A   1      35.988  29.475  28.663  1.00  0.00     0.010 A 
ATOM     31  C   UNL A   1      36.609  31.801  28.484  1.00  0.00     0.010 A 
ATOM     32  C   UNL A   1      36.904  30.501  28.935  1.00  0.00    -0.014 A 
BRANCH  32  33
ATOM     33  C   UNL A   1      38.146  30.233  29.716  1.00  0.00     0.031 A 
ATOM     34  C   UNL A   1      39.246  29.387  29.124  1.00  0.00     0.074 A 
ATOM     35  C   UNL A   1      38.303  30.750  30.952  1.00  0.00     0.049 A 
ATOM     36  N   UNL A   1      40.286  28.846  29.711  1.00  0.00    -0.248 NA
ATOM     37  C   UNL A   1      39.161  29.102  27.683  1.00  0.00     0.031 C 
ATOM     38  C   UNL A   1      37.355  31.634  31.631  1.00  0.00     0.029 A 
ATOM     39  N   UNL A   1      39.325  30.608  31.859  1.00  0.00    -0.354 N 
ATOM     40  C   UNL A   1      40.938  28.110  28.729  1.00  0.00     0.074 A 
ATOM     41  C   UNL A   1      40.183  28.274  27.506  1.00  0.00     0.031 C 
ATOM     42  C   UNL A   1      37.856  31.991  32.822  1.00  0.00     0.029 A 
ATOM     43  C   UNL A   1      39.107  31.277  33.039  1.00  0.00     0.049 A 
ATOM     44  H   UNL A   1      40.136  30.079  31.681  1.00  0.00     0.167 HD
ATOM     45  C   UNL A   1      42.065  27.366  28.842  1.00  0.00     0.037 A 
ATOM     46  C   UNL A   1      39.804  31.276  34.192  1.00  0.00     0.037 A 
ATOM     47  C   UNL A   1      42.845  27.252  30.048  1.00  0.00     0.049 A 
ATOM     48  C   UNL A   1      41.026  30.408  34.303  1.00  0.00     0.074 A 
ATOM     49  C   UNL A   1      43.990  26.506  30.274  1.00  0.00     0.029 A 
ATOM     50  N   UNL A   1      42.571  27.930  31.227  1.00  0.00    -0.354 N 
ATOM     51  N   UNL A   1      41.581  29.642  33.398  1.00  0.00    -0.248 NA
ATOM     52  C   UNL A   1      41.703  30.388  35.607  1.00  0.00     0.031 C 
ATOM     53  C   UNL A   1      44.396  26.716  31.596  1.00  0.00     0.029 A 
ATOM     54  C   UNL A   1      43.527  27.621  32.182  1.00  0.00     0.049 A 
ATOM     55  H   UNL A   1      41.811  28.540  31.365  1.00  0.00     0.167 HD
ATOM     56  C   UNL A   1      42.677  29.058  34.016  1.00  0.00     0.074 A 
ATOM     57  C   UNL A   1      42.723  29.577  35.368  1.00  0.00     0.031 C 
ATOM     58  C   UNL A   1      43.562  28.163  33.515  1.00  0.00     0.037 A 
BRANCH  45  59
ATOM     59  C   UNL A   1      42.518  26.590  27.638  1.00  0.00     0.064 A 
ATOM     60  C   UNL A   1      43.515  27.074  26.778  1.00  0.00     0.173 A 
ATOM     61  C   UNL A   1      41.990  25.316  27.377  1.00  0.00     0.173 A 
ATOM     62  F   UNL A   1      44.043  28.291  26.974  1.00  0.00    -0.203 F 
ATOM     63  C   UNL A   1      43.952  26.319  25.692  1.00  0.00     0.198 A 
ATOM     64  C   UNL A   1      42.447  24.553  26.307  1.00  0.00     0.198 A 
ATOM     65  F   UNL A   1      41.039  24.803  28.174  1.00  0.00    -0.203 F 
ATOM     66  F   UNL A   1      44.880  26.815  24.863  1.00  0.00    -0.200 F 
ATOM     67  C   UNL A   1      43.424  25.056  25.462  1.00  0.00     0.200 A 
ATOM     68  F   UNL A   1      41.946  23.327  26.095  1.00  0.00    -0.200 F 
ATOM     69  F   UNL A   1      43.856  24.325  24.425  1.00  0.00    -0.200 F 
ENDBRANCH  45  59
BRANCH  46  70
ATOM     70  C   UNL A   1      39.332  32.079  35.350  1.00  0.00     0.064 A 
ATOM     71  C   UNL A   1      38.504  31.512  36.329  1.00  0.00     0.173 A 
ATOM     72  C   UNL A   1      39.685  33.429  35.496  1.00  0.00     0.173 A 
ATOM     73  F   UNL A   1      38.117  30.234  36.220  1.00  0.00    -0.203 F 
ATOM     74  C   UNL A   1      38.038  32.269  37.402  1.00  0.00     0.198 A 
ATOM     75  C   UNL A   1      39.247  34.175  36.587  1.00  0.00     0.198 A 
ATOM     76  F   UNL A   1      40.473  34.021  34.586  1.00  0.00    -0.203 F 
ATOM     77  F   UNL A   1      37.208  31.718  38.297  1.00  0.00    -0.200 F 
ATOM     78  C   UNL A   1      38.416  33.598  37.534  1.00  0.00     0.200 A 
ATOM     79  F   UNL A   1      39.627  35.453  36.718  1.00  0.00    -0.200 F 
ATOM     80  F   UNL A   1      37.970  34.324  38.569  1.00  0.00    -0.200 F 
ENDBRANCH  46  70
BRANCH  58  81
ATOM     81  C   UNL A   1      44.675  27.729  34.418  1.00  0.00     0.064 A 
ATOM     82  C   UNL A   1      44.559  26.593  35.232  1.00  0.00     0.173 A 
ATOM     83  C   UNL A   1      45.879  28.448  34.456  1.00  0.00     0.173 A 
ATOM     84  F   UNL A   1      43.419  25.885  35.243  1.00  0.00    -0.203 F 
ATOM     85  C   UNL A   1      45.600  26.208  36.072  1.00  0.00     0.198 A 
ATOM     86  C   UNL A   1      46.928  28.044  35.277  1.00  0.00     0.198 A 
ATOM     87  F   UNL A   1      46.039  29.540  33.692  1.00  0.00    -0.203 F 
ATOM     88  F   UNL A   1      45.451  25.147  36.877  1.00  0.00    -0.200 F 
ATOM     89  C   UNL A   1      46.784  26.930  36.089  1.00  0.00     0.200 A 
ATOM     90  F   UNL A   1      48.074  28.739  35.288  1.00  0.00    -0.200 F 
ATOM     91  F   UNL A   1      47.785  26.557  36.899  1.00  0.00    -0.200 F 
ENDBRANCH  58  81
ENDBRANCH  32  33
ENDBRANCH  25  27
ENDBRANCH  24  25
ENDBRANCH  23  24
ENDBRANCH   1  23
TORSDOF 14
ENDMDL
MODEL 3
REMARK VINA RESULT:     -12.3      4.327      9.610
REMARK SMILES CN(c1ccccc1C(=O)OCCOC(=O)c1ccc(-c2c3nc(c(-c4c(F)c(F)c(F)c(F)c4F)c4ccc([nH]4)c(-c4c(F)c(F)c(F)c(F)c4F)c4nc(c(-c5c(F)c(F)c(F)c(F)c5F)c5ccc2[nH]5)C=C4)C=C3)cc1)S(=O)(=O)c1ccc(I)cc1
REMARK SMILES IDX 12 1 11 2 9 3 10 4 8 5 3 6 4 7 5 8 7 9 6 10 2 11 1 12 80 13
REMARK SMILES IDX 81 14 82 15 83 16 84 17 89 18 85 19 88 20 86 21 87 22 13 23
REMARK SMILES IDX 14 24 15 25 16 26 17 27 18 28 79 29 19 30 78 31 20 32 21 33
REMARK SMILES IDX 22 34 72 35 23 36 77 37 71 38 73 39 24 40 76 41 70 42 69 43
REMARK SMILES IDX 25 45 57 46 37 47 56 48 38 49 41 50 55 51 74 52 39 53 40 54
REMARK SMILES IDX 54 56 75 57 42 58 26 59 27 60 35 61 28 62 29 63 33 64 36 65
REMARK SMILES IDX 30 66 31 67 34 68 32 69 58 70 59 71 67 72 60 73 61 74 65 75
REMARK SMILES IDX 68 76 62 77 63 78 66 79 64 80 43 81 44 82 52 83 45 84 46 85
REMARK SMILES IDX 50 86 53 87 47 88 48 89 51 90 49 91
REMARK H PARENT 73 44 41 55
REMARK Flexibility Score: inf
ROOT
ATOM      1  C   UNL A   1      32.913  29.305  24.748  1.00  0.00     0.275 C 
ENDROOT
BRANCH   1   2
ATOM      2  O   UNL A   1      32.446  29.127  23.392  1.00  0.00    -0.458 OA
BRANCH   2   3
ATOM      3  C   UNL A   1      32.318  27.849  22.990  1.00  0.00     0.340 C 
ATOM      4  O   UNL A   1      33.228  27.089  22.689  1.00  0.00    -0.246 OA
BRANCH   3   5
ATOM      5  C   UNL A   1      30.921  27.379  22.942  1.00  0.00     0.084 A 
ATOM      6  C   UNL A   1      30.487  26.282  23.692  1.00  0.00     0.066 A 
ATOM      7  C   UNL A   1      29.161  26.277  24.158  1.00  0.00     0.028 A 
ATOM      8  C   UNL A   1      28.243  27.253  23.772  1.00  0.00     0.002 A 
ATOM      9  C   UNL A   1      29.977  28.324  22.506  1.00  0.00     0.018 A 
ATOM     10  C   UNL A   1      28.642  28.253  22.900  1.00  0.00     0.001 A 
BRANCH   6  11
ATOM     11  N   UNL A   1      31.217  25.063  23.944  1.00  0.00    -0.269 N 
ATOM     12  C   UNL A   1      30.671  23.810  23.377  1.00  0.00     0.164 C 
BRANCH  11  13
ATOM     13  S   UNL A   1      31.821  24.848  25.554  1.00  0.00     0.264 S 
ATOM     14  O   UNL A   1      32.085  26.159  26.108  1.00  0.00    -0.201 OA
ATOM     15  O   UNL A   1      30.919  23.938  26.232  1.00  0.00    -0.201 OA
BRANCH  13  16
ATOM     16  C   UNL A   1      33.389  24.008  25.417  1.00  0.00     0.088 A 
ATOM     17  C   UNL A   1      33.468  22.647  25.740  1.00  0.00     0.023 A 
ATOM     18  C   UNL A   1      34.530  24.697  24.997  1.00  0.00     0.023 A 
ATOM     19  C   UNL A   1      34.699  21.990  25.692  1.00  0.00     0.016 A 
ATOM     20  C   UNL A   1      35.769  24.050  24.996  1.00  0.00     0.016 A 
ATOM     21  C   UNL A   1      35.849  22.701  25.346  1.00  0.00     0.013 A 
ATOM     22  I   UNL A   1      37.695  21.744  25.357  1.00  0.00    -0.044 I 
ENDBRANCH  13  16
ENDBRANCH  11  13
ENDBRANCH   6  11
ENDBRANCH   3   5
ENDBRANCH   2   3
ENDBRANCH   1   2
BRANCH   1  23
ATOM     23  C   UNL A   1      31.921  30.113  25.577  1.00  0.00     0.275 C 
BRANCH  23  24
ATOM     24  O   UNL A   1      32.374  30.211  26.940  1.00  0.00    -0.458 OA
BRANCH  24  25
ATOM     25  C   UNL A   1      33.029  31.353  27.237  1.00  0.00     0.338 C 
ATOM     26  O   UNL A   1      32.596  32.492  27.239  1.00  0.00    -0.246 OA
BRANCH  25  27
ATOM     27  C   UNL A   1      34.413  31.055  27.630  1.00  0.00     0.060 A 
ATOM     28  C   UNL A   1      34.767  29.740  27.911  1.00  0.00     0.016 A 
ATOM     29  C   UNL A   1      35.286  32.098  27.927  1.00  0.00     0.016 A 
ATOM     30  C   UNL A   1      35.925  29.476  28.637  1.00  0.00     0.010 A 
ATOM     31  C   UNL A   1      36.514  31.815  28.533  1.00  0.00     0.010 A 
ATOM     32  C   UNL A   1      36.825  30.507  28.947  1.00  0.00    -0.014 A 
BRANCH  32  33
ATOM     33  C   UNL A   1      38.065  30.232  29.729  1.00  0.00     0.031 A 
ATOM     34  C   UNL A   1      39.162  29.384  29.137  1.00  0.00     0.074 A 
ATOM     35  C   UNL A   1      38.222  30.747  30.966  1.00  0.00     0.049 A 
ATOM     36  N   UNL A   1      40.199  28.838  29.724  1.00  0.00    -0.248 NA
ATOM     37  C   UNL A   1      39.078  29.101  27.695  1.00  0.00     0.031 C 
ATOM     38  C   UNL A   1      37.276  31.633  31.645  1.00  0.00     0.029 A 
ATOM     39  N   UNL A   1      39.243  30.601  31.874  1.00  0.00    -0.354 N 
ATOM     40  C   UNL A   1      40.850  28.101  28.741  1.00  0.00     0.074 A 
ATOM     41  C   UNL A   1      40.096  28.270  27.518  1.00  0.00     0.031 C 
ATOM     42  C   UNL A   1      37.778  31.987  32.836  1.00  0.00     0.029 A 
ATOM     43  C   UNL A   1      39.026  31.269  33.054  1.00  0.00     0.049 A 
ATOM     44  H   UNL A   1      40.052  30.068  31.695  1.00  0.00     0.167 HD
ATOM     45  C   UNL A   1      41.974  27.352  28.854  1.00  0.00     0.037 A 
ATOM     46  C   UNL A   1      39.722  31.263  34.208  1.00  0.00     0.037 A 
ATOM     47  C   UNL A   1      42.752  27.234  30.061  1.00  0.00     0.049 A 
ATOM     48  C   UNL A   1      40.940  30.391  34.319  1.00  0.00     0.074 A 
ATOM     49  C   UNL A   1      43.894  26.484  30.287  1.00  0.00     0.029 A 
ATOM     50  N   UNL A   1      42.480  27.911  31.241  1.00  0.00    -0.354 N 
ATOM     51  N   UNL A   1      41.494  29.623  33.413  1.00  0.00    -0.248 NA
ATOM     52  C   UNL A   1      41.616  30.366  35.623  1.00  0.00     0.031 C 
ATOM     53  C   UNL A   1      44.299  26.690  31.610  1.00  0.00     0.029 A 
ATOM     54  C   UNL A   1      43.433  27.597  32.196  1.00  0.00     0.049 A 
ATOM     55  H   UNL A   1      41.722  28.523  31.379  1.00  0.00     0.167 HD
ATOM     56  C   UNL A   1      42.587  29.035  34.031  1.00  0.00     0.074 A 
ATOM     57  C   UNL A   1      42.633  29.552  35.384  1.00  0.00     0.031 C 
ATOM     58  C   UNL A   1      43.469  28.137  33.530  1.00  0.00     0.037 A 
BRANCH  45  59
ATOM     59  C   UNL A   1      42.426  26.577  27.650  1.00  0.00     0.064 A 
ATOM     60  C   UNL A   1      43.378  27.088  26.755  1.00  0.00     0.173 A 
ATOM     61  C   UNL A   1      41.943  25.278  27.422  1.00  0.00     0.173 A 
ATOM     62  F   UNL A   1      43.861  28.327  26.919  1.00  0.00    -0.203 F 
ATOM     63  C   UNL A   1      43.816  26.333  25.669  1.00  0.00     0.198 A 
ATOM     64  C   UNL A   1      42.402  24.518  26.351  1.00  0.00     0.198 A 
ATOM     65  F   UNL A   1      41.036  24.740  28.253  1.00  0.00    -0.203 F 
ATOM     66  F   UNL A   1      44.700  26.853  24.807  1.00  0.00    -0.200 F 
ATOM     67  C   UNL A   1      43.334  25.047  25.472  1.00  0.00     0.200 A 
ATOM     68  F   UNL A   1      41.945  23.270  26.171  1.00  0.00    -0.200 F 
ATOM     69  F   UNL A   1      43.767  24.317  24.434  1.00  0.00    -0.200 F 
ENDBRANCH  45  59
BRANCH  46  70
ATOM     70  C   UNL A   1      39.251  32.066  35.367  1.00  0.00     0.064 A 
ATOM     71  C   UNL A   1      39.601  33.416  35.496  1.00  0.00     0.173 A 
ATOM     72  C   UNL A   1      38.456  31.498  36.373  1.00  0.00     0.173 A 
ATOM     73  F   UNL A   1      40.382  33.997  34.575  1.00  0.00    -0.203 F 
ATOM     74  C   UNL A   1      39.184  34.165  36.596  1.00  0.00     0.198 A 
ATOM     75  C   UNL A   1      38.011  32.255  37.454  1.00  0.00     0.198 A 
ATOM     76  F   UNL A   1      38.094  30.208  36.300  1.00  0.00    -0.203 F 
ATOM     77  F   UNL A   1      39.574  35.440  36.721  1.00  0.00    -0.200 F 
ATOM     78  C   UNL A   1      38.383  33.585  37.570  1.00  0.00     0.200 A 
ATOM     79  F   UNL A   1      37.225  31.696  38.384  1.00  0.00    -0.200 F 
ATOM     80  F   UNL A   1      37.980  34.308  38.624  1.00  0.00    -0.200 F 
ENDBRANCH  46  70
BRANCH  58  81
ATOM     81  C   UNL A   1      44.580  27.697  34.434  1.00  0.00     0.064 A 
ATOM     82  C   UNL A   1      45.752  28.453  34.577  1.00  0.00     0.173 A 
ATOM     83  C   UNL A   1      44.461  26.514  35.179  1.00  0.00     0.173 A 
ATOM     84  F   UNL A   1      45.918  29.581  33.870  1.00  0.00    -0.203 F 
ATOM     85  C   UNL A   1      46.778  28.025  35.415  1.00  0.00     0.198 A 
ATOM     86  C   UNL A   1      45.477  26.104  36.035  1.00  0.00     0.198 A 
ATOM     87  F   UNL A   1      43.356  25.760  35.077  1.00  0.00    -0.203 F 
ATOM     88  F   UNL A   1      47.910  28.737  35.502  1.00  0.00    -0.200 F 
ATOM     89  C   UNL A   1      46.637  26.855  36.147  1.00  0.00     0.200 A 
ATOM     90  F   UNL A   1      45.338  24.977  36.747  1.00  0.00    -0.200 F 
ATOM     91  F   UNL A   1      47.626  26.446  36.953  1.00  0.00    -0.200 F 
ENDBRANCH  58  81
ENDBRANCH  32  33
ENDBRANCH  25  27
ENDBRANCH  24  25
ENDBRANCH  23  24
ENDBRANCH   1  23
TORSDOF 14
ENDMDL
