MODEL 1
REMARK VINA RESULT:     -12.0      0.000      0.000
REMARK SMILES Cc1nc(C)c(C(=O)N2CCC([C@H](C)C(=O)OCCOC(=O)c3ccc(-c4c5nc(c(-c6c(F)c(F)c(F)c(F)c6F)c6ccc([nH]6)c(-c6c(F)c(F)c(F)c(F)c6F)c6nc(c(-c7c(F)c(F)c(F)c(F)c7F)c7ccc4[nH]7)C=C6)C=C5)cc3)CC2)s1
REMARK SMILES IDX 18 1 17 2 15 3 16 4 13 5 14 6 12 7 7 8 8 9 9 10 10 11 87 12
REMARK SMILES IDX 11 13 86 14 6 15 1 16 2 17 3 18 88 19 4 20 5 21 19 22 20 23
REMARK SMILES IDX 21 24 22 25 23 26 24 27 85 28 25 29 84 30 26 31 27 32 28 33
REMARK SMILES IDX 78 34 29 35 83 36 77 37 79 38 30 39 82 40 76 41 75 42 31 44
REMARK SMILES IDX 63 45 43 46 62 47 44 48 47 49 61 50 80 51 45 52 46 53 60 55
REMARK SMILES IDX 81 56 48 57 32 58 33 59 41 60 34 61 35 62 39 63 42 64 36 65
REMARK SMILES IDX 37 66 40 67 38 68 64 69 65 70 73 71 66 72 67 73 71 74 74 75
REMARK SMILES IDX 68 76 69 77 72 78 70 79 49 80 50 81 58 82 51 83 52 84 56 85
REMARK SMILES IDX 59 86 53 87 54 88 57 89 55 90
REMARK H PARENT 79 43 47 54
REMARK Flexibility Score: inf
ROOT
ATOM      1  C   UNL A   1      31.389  31.704  26.541  1.00  0.00     0.274 C 
ENDROOT
BRANCH   1   2
ATOM      2  O   UNL A   1      32.374  30.652  26.528  1.00  0.00    -0.462 OA
BRANCH   2   3
ATOM      3  C   UNL A   1      32.224  29.717  25.557  1.00  0.00     0.309 C 
ATOM      4  O   UNL A   1      31.269  29.652  24.789  1.00  0.00    -0.252 OA
BRANCH   3   5
ATOM      5  C   UNL A   1      33.361  28.703  25.521  1.00  0.00     0.099 C 
ATOM      6  C   UNL A   1      34.265  28.808  26.751  1.00  0.00     0.020 C 
BRANCH   5   7
ATOM      7  C   UNL A   1      32.936  27.264  25.107  1.00  0.00     0.006 C 
ATOM      8  C   UNL A   1      33.752  23.498  23.370  1.00  0.00     0.265 C 
ATOM      9  O   UNL A   1      34.152  23.649  22.214  1.00  0.00    -0.268 OA
ATOM     10  N   UNL A   1      33.154  24.565  24.046  1.00  0.00    -0.338 N 
ATOM     11  C   UNL A   1      32.490  25.597  23.270  1.00  0.00     0.120 C 
ATOM     12  C   UNL A   1      33.143  24.746  25.496  1.00  0.00     0.120 C 
ATOM     13  C   UNL A   1      33.031  26.981  23.598  1.00  0.00     0.026 C 
ATOM     14  C   UNL A   1      33.651  26.137  25.884  1.00  0.00     0.026 C 
BRANCH   8  15
ATOM     15  C   UNL A   1      33.845  22.210  24.033  1.00  0.00     0.115 A 
ATOM     16  C   UNL A   1      32.933  18.603  25.148  1.00  0.00     0.079 C 
ATOM     17  C   UNL A   1      33.497  19.938  24.810  1.00  0.00     0.091 A 
ATOM     18  N   UNL A   1      34.751  20.284  25.002  1.00  0.00    -0.246 NA
ATOM     19  S   UNL A   1      32.511  21.126  24.074  1.00  0.00    -0.113 S 
ATOM     20  C   UNL A   1      34.972  21.569  24.522  1.00  0.00     0.061 A 
ATOM     21  C   UNL A   1      36.366  22.090  24.557  1.00  0.00     0.068 C 
ENDBRANCH   8  15
ENDBRANCH   5   7
ENDBRANCH   3   5
ENDBRANCH   2   3
ENDBRANCH   1   2
BRANCH   1  22
ATOM     22  C   UNL A   1      32.013  33.080  26.798  1.00  0.00     0.275 C 
BRANCH  22  23
ATOM     23  O   UNL A   1      32.840  33.081  27.976  1.00  0.00    -0.458 OA
BRANCH  23  24
ATOM     24  C   UNL A   1      33.973  33.815  27.884  1.00  0.00     0.338 C 
ATOM     25  O   UNL A   1      34.077  34.980  27.540  1.00  0.00    -0.246 OA
BRANCH  24  26
ATOM     26  C   UNL A   1      35.114  33.038  28.390  1.00  0.00     0.060 A 
ATOM     27  C   UNL A   1      34.859  31.776  28.931  1.00  0.00     0.016 A 
ATOM     28  C   UNL A   1      36.398  33.581  28.431  1.00  0.00     0.016 A 
ATOM     29  C   UNL A   1      35.885  31.042  29.516  1.00  0.00     0.010 A 
ATOM     30  C   UNL A   1      37.429  32.849  29.030  1.00  0.00     0.010 A 
ATOM     31  C   UNL A   1      37.173  31.582  29.586  1.00  0.00    -0.014 A 
BRANCH  31  32
ATOM     32  C   UNL A   1      38.232  30.854  30.322  1.00  0.00     0.031 A 
ATOM     33  C   UNL A   1      38.453  31.148  31.775  1.00  0.00     0.074 A 
ATOM     34  C   UNL A   1      38.967  29.918  29.697  1.00  0.00     0.049 A 
ATOM     35  N   UNL A   1      39.389  30.708  32.578  1.00  0.00    -0.248 NA
ATOM     36  C   UNL A   1      37.489  32.058  32.413  1.00  0.00     0.031 C 
ATOM     37  C   UNL A   1      38.795  29.501  28.307  1.00  0.00     0.029 A 
ATOM     38  N   UNL A   1      40.011  29.154  30.153  1.00  0.00    -0.354 N 
ATOM     39  C   UNL A   1      39.141  31.304  33.806  1.00  0.00     0.074 A 
ATOM     40  C   UNL A   1      37.971  32.142  33.645  1.00  0.00     0.031 C 
ATOM     41  C   UNL A   1      39.712  28.563  28.016  1.00  0.00     0.029 A 
ATOM     42  C   UNL A   1      40.561  28.349  29.186  1.00  0.00     0.049 A 
ATOM     43  H   UNL A   1      40.335  29.181  31.082  1.00  0.00     0.167 HD
ATOM     44  C   UNL A   1      39.831  31.164  34.963  1.00  0.00     0.037 A 
ATOM     45  C   UNL A   1      41.649  27.557  29.234  1.00  0.00     0.037 A 
ATOM     46  C   UNL A   1      40.987  30.322  35.119  1.00  0.00     0.049 A 
ATOM     47  C   UNL A   1      42.436  27.468  30.513  1.00  0.00     0.074 A 
ATOM     48  C   UNL A   1      41.762  30.115  36.247  1.00  0.00     0.029 A 
ATOM     49  N   UNL A   1      41.534  29.543  34.110  1.00  0.00    -0.354 N 
ATOM     50  N   UNL A   1      42.215  28.055  31.664  1.00  0.00    -0.248 NA
ATOM     51  C   UNL A   1      43.631  26.611  30.496  1.00  0.00     0.031 C 
ATOM     52  C   UNL A   1      42.798  29.237  35.911  1.00  0.00     0.029 A 
ATOM     53  C   UNL A   1      42.645  28.865  34.584  1.00  0.00     0.049 A 
ATOM     54  H   UNL A   1      41.183  29.480  33.191  1.00  0.00     0.167 HD
ATOM     55  C   UNL A   1      43.229  27.630  32.511  1.00  0.00     0.074 A 
ATOM     56  C   UNL A   1      44.059  26.722  31.747  1.00  0.00     0.031 C 
ATOM     57  C   UNL A   1      43.454  27.964  33.806  1.00  0.00     0.037 A 
BRANCH  44  58
ATOM     58  C   UNL A   1      39.373  31.971  36.140  1.00  0.00     0.064 A 
ATOM     59  C   UNL A   1      38.374  31.508  37.008  1.00  0.00     0.173 A 
ATOM     60  C   UNL A   1      39.961  33.215  36.415  1.00  0.00     0.173 A 
ATOM     61  F   UNL A   1      37.771  30.333  36.777  1.00  0.00    -0.203 F 
ATOM     62  C   UNL A   1      37.965  32.273  38.098  1.00  0.00     0.198 A 
ATOM     63  C   UNL A   1      39.565  33.966  37.519  1.00  0.00     0.198 A 
ATOM     64  F   UNL A   1      40.921  33.702  35.615  1.00  0.00    -0.203 F 
ATOM     65  F   UNL A   1      36.980  31.830  38.893  1.00  0.00    -0.200 F 
ATOM     66  C   UNL A   1      38.564  33.497  38.356  1.00  0.00     0.200 A 
ATOM     67  F   UNL A   1      40.149  35.145  37.770  1.00  0.00    -0.200 F 
ATOM     68  F   UNL A   1      38.171  34.229  39.407  1.00  0.00    -0.200 F 
ENDBRANCH  44  58
BRANCH  45  69
ATOM     69  C   UNL A   1      42.074  26.813  28.021  1.00  0.00     0.064 A 
ATOM     70  C   UNL A   1      41.630  25.505  27.783  1.00  0.00     0.173 A 
ATOM     71  C   UNL A   1      42.931  27.396  27.077  1.00  0.00     0.173 A 
ATOM     72  F   UNL A   1      40.831  24.898  28.672  1.00  0.00    -0.203 F 
ATOM     73  C   UNL A   1      42.036  24.806  26.649  1.00  0.00     0.198 A 
ATOM     74  C   UNL A   1      43.316  26.704  25.931  1.00  0.00     0.198 A 
ATOM     75  F   UNL A   1      43.386  28.644  27.262  1.00  0.00    -0.203 F 
ATOM     76  F   UNL A   1      41.628  23.543  26.462  1.00  0.00    -0.200 F 
ATOM     77  C   UNL A   1      42.873  25.408  25.721  1.00  0.00     0.200 A 
ATOM     78  F   UNL A   1      44.117  27.293  25.032  1.00  0.00    -0.200 F 
ATOM     79  F   UNL A   1      43.258  24.735  24.627  1.00  0.00    -0.200 F 
ENDBRANCH  45  69
BRANCH  57  80
ATOM     80  C   UNL A   1      44.629  27.323  34.482  1.00  0.00     0.064 A 
ATOM     81  C   UNL A   1      45.889  27.939  34.498  1.00  0.00     0.173 A 
ATOM     82  C   UNL A   1      44.482  26.101  35.155  1.00  0.00     0.173 A 
ATOM     83  F   UNL A   1      46.082  29.100  33.855  1.00  0.00    -0.203 F 
ATOM     84  C   UNL A   1      46.966  27.342  35.148  1.00  0.00     0.198 A 
ATOM     85  C   UNL A   1      45.555  25.519  35.823  1.00  0.00     0.198 A 
ATOM     86  F   UNL A   1      43.295  25.477  35.171  1.00  0.00    -0.203 F 
ATOM     87  F   UNL A   1      48.172  27.927  35.119  1.00  0.00    -0.200 F 
ATOM     88  C   UNL A   1      46.797  26.137  35.814  1.00  0.00     0.200 A 
ATOM     89  F   UNL A   1      45.389  24.359  36.474  1.00  0.00    -0.200 F 
ATOM     90  F   UNL A   1      47.834  25.567  36.443  1.00  0.00    -0.200 F 
ENDBRANCH  57  80
ENDBRANCH  31  32
ENDBRANCH  24  26
ENDBRANCH  23  24
ENDBRANCH  22  23
ENDBRANCH   1  22
TORSDOF 13
ENDMDL
MODEL 2
REMARK VINA RESULT:     -11.9      1.149      7.509
REMARK SMILES Cc1nc(C)c(C(=O)N2CCC([C@H](C)C(=O)OCCOC(=O)c3ccc(-c4c5nc(c(-c6c(F)c(F)c(F)c(F)c6F)c6ccc([nH]6)c(-c6c(F)c(F)c(F)c(F)c6F)c6nc(c(-c7c(F)c(F)c(F)c(F)c7F)c7ccc4[nH]7)C=C6)C=C5)cc3)CC2)s1
REMARK SMILES IDX 18 1 17 2 15 3 16 4 13 5 14 6 12 7 7 8 8 9 9 10 10 11 87 12
REMARK SMILES IDX 11 13 86 14 6 15 1 16 2 17 3 18 88 19 4 20 5 21 19 22 20 23
REMARK SMILES IDX 21 24 22 25 23 26 24 27 85 28 25 29 84 30 26 31 27 32 28 33
REMARK SMILES IDX 78 34 29 35 83 36 77 37 79 38 30 39 82 40 76 41 75 42 31 44
REMARK SMILES IDX 63 45 43 46 62 47 44 48 47 49 61 50 80 51 45 52 46 53 60 55
REMARK SMILES IDX 81 56 48 57 32 58 33 59 41 60 34 61 35 62 39 63 42 64 36 65
REMARK SMILES IDX 37 66 40 67 38 68 64 69 65 70 73 71 66 72 67 73 71 74 74 75
REMARK SMILES IDX 68 76 69 77 72 78 70 79 49 80 50 81 58 82 51 83 52 84 56 85
REMARK SMILES IDX 59 86 53 87 54 88 57 89 55 90
REMARK H PARENT 79 43 47 54
REMARK Flexibility Score: inf
ROOT
ATOM      1  C   UNL A   1      31.318  29.731  24.985  1.00  0.00     0.274 C 
ENDROOT
BRANCH   1   2
ATOM      2  O   UNL A   1      32.361  29.019  24.291  1.00  0.00    -0.462 OA
BRANCH   2   3
ATOM      3  C   UNL A   1      32.014  27.805  23.793  1.00  0.00     0.309 C 
ATOM      4  O   UNL A   1      30.986  27.200  24.076  1.00  0.00    -0.252 OA
BRANCH   3   5
ATOM      5  C   UNL A   1      33.057  27.227  22.846  1.00  0.00     0.099 C 
ATOM      6  C   UNL A   1      33.948  28.313  22.237  1.00  0.00     0.020 C 
BRANCH   5   7
ATOM      7  C   UNL A   1      33.792  25.963  23.381  1.00  0.00     0.006 C 
ATOM      8  C   UNL A   1      33.960  22.504  25.804  1.00  0.00     0.265 C 
ATOM      9  O   UNL A   1      33.747  22.806  26.980  1.00  0.00    -0.268 OA
ATOM     10  N   UNL A   1      34.237  23.503  24.866  1.00  0.00    -0.338 N 
ATOM     11  C   UNL A   1      34.835  24.744  25.326  1.00  0.00     0.120 C 
ATOM     12  C   UNL A   1      33.963  23.413  23.434  1.00  0.00     0.120 C 
ATOM     13  C   UNL A   1      34.012  25.952  24.904  1.00  0.00     0.026 C 
ATOM     14  C   UNL A   1      33.161  24.623  22.947  1.00  0.00     0.026 C 
BRANCH   8  15
ATOM     15  C   UNL A   1      33.980  21.116  25.380  1.00  0.00     0.115 A 
ATOM     16  C   UNL A   1      32.754  17.714  23.961  1.00  0.00     0.079 C 
ATOM     17  C   UNL A   1      33.441  18.927  24.482  1.00  0.00     0.091 A 
ATOM     18  N   UNL A   1      34.747  19.072  24.540  1.00  0.00    -0.246 NA
ATOM     19  S   UNL A   1      32.528  20.274  25.009  1.00  0.00    -0.113 S 
ATOM     20  C   UNL A   1      35.068  20.339  25.013  1.00  0.00     0.061 A 
ATOM     21  C   UNL A   1      36.505  20.723  25.044  1.00  0.00     0.068 C 
ENDBRANCH   8  15
ENDBRANCH   5   7
ENDBRANCH   3   5
ENDBRANCH   2   3
ENDBRANCH   1   2
BRANCH   1  22
ATOM     22  C   UNL A   1      31.784  30.261  26.346  1.00  0.00     0.275 C 
BRANCH  22  23
ATOM     23  O   UNL A   1      33.195  30.542  26.356  1.00  0.00    -0.458 OA
BRANCH  23  24
ATOM     24  C   UNL A   1      33.584  31.512  27.215  1.00  0.00     0.338 C 
ATOM     25  O   UNL A   1      32.950  32.493  27.563  1.00  0.00    -0.246 OA
BRANCH  24  26
ATOM     26  C   UNL A   1      34.884  31.163  27.808  1.00  0.00     0.060 A 
ATOM     27  C   UNL A   1      35.063  29.858  28.273  1.00  0.00     0.016 A 
ATOM     28  C   UNL A   1      35.872  32.127  28.001  1.00  0.00     0.016 A 
ATOM     29  C   UNL A   1      36.234  29.503  28.934  1.00  0.00     0.010 A 
ATOM     30  C   UNL A   1      37.046  31.774  28.677  1.00  0.00     0.010 A 
ATOM     31  C   UNL A   1      37.225  30.463  29.157  1.00  0.00    -0.014 A 
BRANCH  31  32
ATOM     32  C   UNL A   1      38.411  30.115  29.971  1.00  0.00     0.031 A 
ATOM     33  C   UNL A   1      39.444  29.186  29.408  1.00  0.00     0.074 A 
ATOM     34  C   UNL A   1      38.571  30.650  31.194  1.00  0.00     0.049 A 
ATOM     35  N   UNL A   1      40.498  28.666  29.985  1.00  0.00    -0.248 NA
ATOM     36  C   UNL A   1      39.270  28.789  28.002  1.00  0.00     0.031 C 
ATOM     37  C   UNL A   1      37.668  31.616  31.816  1.00  0.00     0.029 A 
ATOM     38  N   UNL A   1      39.552  30.450  32.133  1.00  0.00    -0.354 N 
ATOM     39  C   UNL A   1      41.097  27.866  29.024  1.00  0.00     0.074 A 
ATOM     40  C   UNL A   1      40.290  27.961  27.826  1.00  0.00     0.031 C 
ATOM     41  C   UNL A   1      38.129  31.917  33.041  1.00  0.00     0.029 A 
ATOM     42  C   UNL A   1      39.332  31.130  33.305  1.00  0.00     0.049 A 
ATOM     43  H   UNL A   1      40.335  29.874  31.981  1.00  0.00     0.167 HD
ATOM     44  C   UNL A   1      42.221  27.118  29.135  1.00  0.00     0.037 A 
ATOM     45  C   UNL A   1      40.008  31.093  34.468  1.00  0.00     0.037 A 
ATOM     46  C   UNL A   1      43.024  27.036  30.325  1.00  0.00     0.049 A 
ATOM     47  C   UNL A   1      41.217  30.205  34.586  1.00  0.00     0.074 A 
ATOM     48  C   UNL A   1      44.178  26.302  30.544  1.00  0.00     0.029 A 
ATOM     49  N   UNL A   1      42.755  27.717  31.504  1.00  0.00    -0.354 N 
ATOM     50  N   UNL A   1      41.765  29.428  33.684  1.00  0.00    -0.248 NA
ATOM     51  C   UNL A   1      41.897  30.183  35.890  1.00  0.00     0.031 C 
ATOM     52  C   UNL A   1      44.587  26.513  31.865  1.00  0.00     0.029 A 
ATOM     53  C   UNL A   1      43.712  27.409  32.458  1.00  0.00     0.049 A 
ATOM     54  H   UNL A   1      41.996  28.330  31.642  1.00  0.00     0.167 HD
ATOM     55  C   UNL A   1      42.858  28.837  34.301  1.00  0.00     0.074 A 
ATOM     56  C   UNL A   1      42.908  29.357  35.652  1.00  0.00     0.031 C 
ATOM     57  C   UNL A   1      43.742  27.942  33.795  1.00  0.00     0.037 A 
BRANCH  44  58
ATOM     58  C   UNL A   1      42.624  26.300  27.946  1.00  0.00     0.064 A 
ATOM     59  C   UNL A   1      43.551  26.771  27.005  1.00  0.00     0.173 A 
ATOM     60  C   UNL A   1      42.090  25.016  27.759  1.00  0.00     0.173 A 
ATOM     61  F   UNL A   1      44.076  27.999  27.132  1.00  0.00    -0.203 F 
ATOM     62  C   UNL A   1      43.914  25.993  25.909  1.00  0.00     0.198 A 
ATOM     63  C   UNL A   1      42.472  24.232  26.673  1.00  0.00     0.198 A 
ATOM     64  F   UNL A   1      41.200  24.519  28.631  1.00  0.00    -0.203 F 
ATOM     65  F   UNL A   1      44.772  26.478  25.000  1.00  0.00    -0.200 F 
ATOM     66  C   UNL A   1      43.379  24.723  25.747  1.00  0.00     0.200 A 
ATOM     67  F   UNL A   1      41.961  23.003  26.522  1.00  0.00    -0.200 F 
ATOM     68  F   UNL A   1      43.733  23.975  24.692  1.00  0.00    -0.200 F 
ENDBRANCH  44  58
BRANCH  45  69
ATOM     69  C   UNL A   1      39.535  31.898  35.622  1.00  0.00     0.064 A 
ATOM     70  C   UNL A   1      38.563  31.400  36.501  1.00  0.00     0.173 A 
ATOM     71  C   UNL A   1      40.045  33.181  35.869  1.00  0.00     0.173 A 
ATOM     72  F   UNL A   1      38.028  30.189  36.289  1.00  0.00    -0.203 F 
ATOM     73  C   UNL A   1      38.114  32.159  37.579  1.00  0.00     0.198 A 
ATOM     74  C   UNL A   1      39.612  33.929  36.962  1.00  0.00     0.198 A 
ATOM     75  F   UNL A   1      40.973  33.703  35.054  1.00  0.00    -0.203 F 
ATOM     76  F   UNL A   1      37.158  31.676  38.383  1.00  0.00    -0.200 F 
ATOM     77  C   UNL A   1      38.644  33.420  37.812  1.00  0.00     0.200 A 
ATOM     78  F   UNL A   1      40.135  35.142  37.189  1.00  0.00    -0.200 F 
ATOM     79  F   UNL A   1      38.214  34.147  38.854  1.00  0.00    -0.200 F 
ENDBRANCH  45  69
BRANCH  57  80
ATOM     80  C   UNL A   1      44.850  27.489  34.699  1.00  0.00     0.064 A 
ATOM     81  C   UNL A   1      46.057  28.197  34.789  1.00  0.00     0.173 A 
ATOM     82  C   UNL A   1      44.684  26.359  35.513  1.00  0.00     0.173 A 
ATOM     83  F   UNL A   1      46.267  29.275  34.020  1.00  0.00    -0.203 F 
ATOM     84  C   UNL A   1      47.067  27.777  35.650  1.00  0.00     0.198 A 
ATOM     85  C   UNL A   1      45.688  25.955  36.388  1.00  0.00     0.198 A 
ATOM     86  F   UNL A   1      43.545  25.652  35.465  1.00  0.00    -0.203 F 
ATOM     87  F   UNL A   1      48.229  28.445  35.693  1.00  0.00    -0.200 F 
ATOM     88  C   UNL A   1      46.880  26.660  36.452  1.00  0.00     0.200 A 
ATOM     89  F   UNL A   1      45.502  24.882  37.170  1.00  0.00    -0.200 F 
ATOM     90  F   UNL A   1      47.852  26.261  37.283  1.00  0.00    -0.200 F 
ENDBRANCH  57  80
ENDBRANCH  31  32
ENDBRANCH  24  26
ENDBRANCH  23  24
ENDBRANCH  22  23
ENDBRANCH   1  22
TORSDOF 13
ENDMDL
MODEL 3
REMARK VINA RESULT:     -11.9      4.612     10.538
REMARK SMILES Cc1nc(C)c(C(=O)N2CCC([C@H](C)C(=O)OCCOC(=O)c3ccc(-c4c5nc(c(-c6c(F)c(F)c(F)c(F)c6F)c6ccc([nH]6)c(-c6c(F)c(F)c(F)c(F)c6F)c6nc(c(-c7c(F)c(F)c(F)c(F)c7F)c7ccc4[nH]7)C=C6)C=C5)cc3)CC2)s1
REMARK SMILES IDX 18 1 17 2 15 3 16 4 13 5 14 6 12 7 7 8 8 9 9 10 10 11 87 12
REMARK SMILES IDX 11 13 86 14 6 15 1 16 2 17 3 18 88 19 4 20 5 21 19 22 20 23
REMARK SMILES IDX 21 24 22 25 23 26 24 27 85 28 25 29 84 30 26 31 27 32 28 33
REMARK SMILES IDX 78 34 29 35 83 36 77 37 79 38 30 39 82 40 76 41 75 42 31 44
REMARK SMILES IDX 63 45 43 46 62 47 44 48 47 49 61 50 80 51 45 52 46 53 60 55
REMARK SMILES IDX 81 56 48 57 32 58 33 59 41 60 34 61 35 62 39 63 42 64 36 65
REMARK SMILES IDX 37 66 40 67 38 68 64 69 65 70 73 71 66 72 67 73 71 74 74 75
REMARK SMILES IDX 68 76 69 77 72 78 70 79 49 80 50 81 58 82 51 83 52 84 56 85
REMARK SMILES IDX 59 86 53 87 54 88 57 89 55 90
REMARK H PARENT 79 43 47 54
REMARK Flexibility Score: inf
ROOT
ATOM      1  C   UNL A   1      38.076  19.880  24.763  1.00  0.00     0.274 C 
ENDROOT
BRANCH   1   2
ATOM      2  O   UNL A   1      37.645  21.224  25.057  1.00  0.00    -0.462 OA
BRANCH   2   3
ATOM      3  C   UNL A   1      36.317  21.378  25.287  1.00  0.00     0.309 C 
ATOM      4  O   UNL A   1      35.460  20.537  25.037  1.00  0.00    -0.252 OA
BRANCH   3   5
ATOM      5  C   UNL A   1      35.965  22.740  25.873  1.00  0.00     0.099 C 
ATOM      6  C   UNL A   1      37.155  23.702  25.846  1.00  0.00     0.020 C 
BRANCH   5   7
ATOM      7  C   UNL A   1      34.605  23.324  25.391  1.00  0.00     0.006 C 
ATOM      8  C   UNL A   1      31.376  26.025  25.759  1.00  0.00     0.265 C 
ATOM      9  O   UNL A   1      30.867  25.919  26.877  1.00  0.00    -0.268 OA
ATOM     10  N   UNL A   1      32.267  25.050  25.302  1.00  0.00    -0.338 N 
ATOM     11  C   UNL A   1      32.151  23.701  25.826  1.00  0.00     0.120 C 
ATOM     12  C   UNL A   1      33.335  25.273  24.331  1.00  0.00     0.120 C 
ATOM     13  C   UNL A   1      33.465  23.215  26.418  1.00  0.00     0.026 C 
ATOM     14  C   UNL A   1      34.680  24.773  24.864  1.00  0.00     0.026 C 
BRANCH   8  15
ATOM     15  C   UNL A   1      31.028  27.126  24.880  1.00  0.00     0.115 A 
ATOM     16  C   UNL A   1      29.006  29.298  22.374  1.00  0.00     0.079 C 
ATOM     17  C   UNL A   1      29.915  28.659  23.363  1.00  0.00     0.091 A 
ATOM     18  N   UNL A   1      30.887  29.284  23.989  1.00  0.00    -0.246 NA
ATOM     19  S   UNL A   1      29.699  27.018  23.793  1.00  0.00    -0.113 S 
ATOM     20  C   UNL A   1      31.505  28.427  24.892  1.00  0.00     0.061 A 
ATOM     21  C   UNL A   1      32.562  28.994  25.772  1.00  0.00     0.068 C 
ENDBRANCH   8  15
ENDBRANCH   5   7
ENDBRANCH   3   5
ENDBRANCH   2   3
ENDBRANCH   1   2
BRANCH   1  22
ATOM     22  C   UNL A   1      39.121  19.375  25.763  1.00  0.00     0.275 C 
BRANCH  22  23
ATOM     23  O   UNL A   1      40.258  20.254  25.841  1.00  0.00    -0.458 OA
BRANCH  23  24
ATOM     24  C   UNL A   1      40.821  20.362  27.066  1.00  0.00     0.338 C 
ATOM     25  O   UNL A   1      41.171  19.458  27.804  1.00  0.00    -0.246 OA
BRANCH  24  26
ATOM     26  C   UNL A   1      41.088  21.776  27.371  1.00  0.00     0.060 A 
ATOM     27  C   UNL A   1      40.576  22.741  26.501  1.00  0.00     0.016 A 
ATOM     28  C   UNL A   1      41.915  22.144  28.430  1.00  0.00     0.016 A 
ATOM     29  C   UNL A   1      40.883  24.085  26.684  1.00  0.00     0.010 A 
ATOM     30  C   UNL A   1      42.236  23.494  28.608  1.00  0.00     0.010 A 
ATOM     31  C   UNL A   1      41.730  24.468  27.728  1.00  0.00    -0.014 A 
BRANCH  31  32
ATOM     32  C   UNL A   1      42.157  25.881  27.841  1.00  0.00     0.031 A 
ATOM     33  C   UNL A   1      43.471  26.303  27.254  1.00  0.00     0.074 A 
ATOM     34  C   UNL A   1      41.359  26.781  28.441  1.00  0.00     0.049 A 
ATOM     35  N   UNL A   1      44.084  27.457  27.333  1.00  0.00    -0.248 NA
ATOM     36  C   UNL A   1      44.192  25.289  26.470  1.00  0.00     0.031 C 
ATOM     37  C   UNL A   1      40.033  26.501  28.987  1.00  0.00     0.029 A 
ATOM     38  N   UNL A   1      41.554  28.116  28.695  1.00  0.00    -0.354 N 
ATOM     39  C   UNL A   1      45.269  27.302  26.630  1.00  0.00     0.074 A 
ATOM     40  C   UNL A   1      45.297  25.942  26.136  1.00  0.00     0.031 C 
ATOM     41  C   UNL A   1      39.536  27.626  29.525  1.00  0.00     0.029 A 
ATOM     42  C   UNL A   1      40.527  28.692  29.400  1.00  0.00     0.049 A 
ATOM     43  H   UNL A   1      42.353  28.610  28.401  1.00  0.00     0.167 HD
ATOM     44  C   UNL A   1      46.247  28.215  26.420  1.00  0.00     0.037 A 
ATOM     45  C   UNL A   1      40.419  29.931  29.916  1.00  0.00     0.037 A 
ATOM     46  C   UNL A   1      46.209  29.568  26.907  1.00  0.00     0.049 A 
ATOM     47  C   UNL A   1      41.547  30.908  29.723  1.00  0.00     0.074 A 
ATOM     48  C   UNL A   1      47.152  30.571  26.754  1.00  0.00     0.029 A 
ATOM     49  N   UNL A   1      45.166  30.110  27.643  1.00  0.00    -0.354 N 
ATOM     50  N   UNL A   1      42.679  30.749  29.082  1.00  0.00    -0.248 NA
ATOM     51  C   UNL A   1      41.385  32.235  30.334  1.00  0.00     0.031 C 
ATOM     52  C   UNL A   1      46.693  31.709  27.427  1.00  0.00     0.029 A 
ATOM     53  C   UNL A   1      45.447  31.428  27.965  1.00  0.00     0.049 A 
ATOM     54  H   UNL A   1      44.345  29.629  27.898  1.00  0.00     0.167 HD
ATOM     55  C   UNL A   1      43.358  31.954  29.198  1.00  0.00     0.074 A 
ATOM     56  C   UNL A   1      42.503  32.843  29.958  1.00  0.00     0.031 C 
ATOM     57  C   UNL A   1      44.580  32.294  28.719  1.00  0.00     0.037 A 
BRANCH  44  58
ATOM     58  C   UNL A   1      47.458  27.764  25.661  1.00  0.00     0.064 A 
ATOM     59  C   UNL A   1      47.497  27.773  24.260  1.00  0.00     0.173 A 
ATOM     60  C   UNL A   1      48.606  27.341  26.349  1.00  0.00     0.173 A 
ATOM     61  F   UNL A   1      46.419  28.154  23.558  1.00  0.00    -0.203 F 
ATOM     62  C   UNL A   1      48.634  27.353  23.574  1.00  0.00     0.198 A 
ATOM     63  C   UNL A   1      49.749  26.943  25.660  1.00  0.00     0.198 A 
ATOM     64  F   UNL A   1      48.620  27.315  27.690  1.00  0.00    -0.203 F 
ATOM     65  F   UNL A   1      48.635  27.331  22.233  1.00  0.00    -0.200 F 
ATOM     66  C   UNL A   1      49.759  26.944  24.273  1.00  0.00     0.200 A 
ATOM     67  F   UNL A   1      50.838  26.555  26.337  1.00  0.00    -0.200 F 
ATOM     68  F   UNL A   1      50.853  26.543  23.610  1.00  0.00    -0.200 F 
ENDBRANCH  44  58
BRANCH  45  69
ATOM     69  C   UNL A   1      39.209  30.304  30.692  1.00  0.00     0.064 A 
ATOM     70  C   UNL A   1      38.112  30.915  30.071  1.00  0.00     0.173 A 
ATOM     71  C   UNL A   1      39.128  30.056  32.070  1.00  0.00     0.173 A 
ATOM     72  F   UNL A   1      38.155  31.195  28.760  1.00  0.00    -0.203 F 
ATOM     73  C   UNL A   1      36.980  31.271  30.802  1.00  0.00     0.198 A 
ATOM     74  C   UNL A   1      37.986  30.392  32.795  1.00  0.00     0.198 A 
ATOM     75  F   UNL A   1      40.154  29.479  32.711  1.00  0.00    -0.203 F 
ATOM     76  F   UNL A   1      35.959  31.887  30.192  1.00  0.00    -0.200 F 
ATOM     77  C   UNL A   1      36.916  31.003  32.162  1.00  0.00     0.200 A 
ATOM     78  F   UNL A   1      37.925  30.122  34.106  1.00  0.00    -0.200 F 
ATOM     79  F   UNL A   1      35.825  31.342  32.862  1.00  0.00    -0.200 F 
ENDBRANCH  45  69
BRANCH  57  80
ATOM     80  C   UNL A   1      45.051  33.693  28.984  1.00  0.00     0.064 A 
ATOM     81  C   UNL A   1      45.940  33.980  30.030  1.00  0.00     0.173 A 
ATOM     82  C   UNL A   1      44.641  34.749  28.156  1.00  0.00     0.173 A 
ATOM     83  F   UNL A   1      46.348  33.006  30.857  1.00  0.00    -0.203 F 
ATOM     84  C   UNL A   1      46.386  35.281  30.250  1.00  0.00     0.198 A 
ATOM     85  C   UNL A   1      45.107  36.043  28.365  1.00  0.00     0.198 A 
ATOM     86  F   UNL A   1      43.796  34.522  27.140  1.00  0.00    -0.203 F 
ATOM     87  F   UNL A   1      47.205  35.541  31.279  1.00  0.00    -0.200 F 
ATOM     88  C   UNL A   1      45.974  36.309  29.415  1.00  0.00     0.200 A 
ATOM     89  F   UNL A   1      44.716  37.035  27.552  1.00  0.00    -0.200 F 
ATOM     90  F   UNL A   1      46.409  37.559  29.625  1.00  0.00    -0.200 F 
ENDBRANCH  57  80
ENDBRANCH  31  32
ENDBRANCH  24  26
ENDBRANCH  23  24
ENDBRANCH  22  23
ENDBRANCH   1  22
TORSDOF 13
ENDMDL
