MODEL 1
REMARK VINA RESULT:     -12.2      0.000      0.000
REMARK SMILES COc1cc(Nc2cn[nH]c(=O)n2)c(C(=O)OCCOC(=O)c2ccc(-c3c4nc(c(-c5c(F)c(F)c(F)c(F)c5F)c5ccc([nH]5)c(-c5c(F)c(F)c(F)c(F)c5F)c5nc(c(-c6c(F)c(F)c(F)c(F)c6F)c6ccc3[nH]6)C=C5)C=C4)cc2)cc1OC
REMARK SMILES IDX 18 1 17 2 15 3 16 4 14 5 3 6 4 7 87 8 5 9 86 10 2 11 1 12
REMARK SMILES IDX 88 13 89 14 6 15 7 17 8 18 13 19 9 20 11 21 10 22 12 23
REMARK SMILES IDX 19 25 20 26 21 27 22 28 23 29 24 30 85 31 25 32 84 33 26 34
REMARK SMILES IDX 27 35 28 36 78 37 29 38 83 39 77 40 79 41 30 42 82 43 76 44
REMARK SMILES IDX 75 45 31 47 63 48 43 49 62 50 44 51 47 52 61 53 80 54 45 55
REMARK SMILES IDX 46 56 60 58 81 59 48 60 32 61 33 62 41 63 34 64 35 65 39 66
REMARK SMILES IDX 42 67 36 68 37 69 40 70 38 71 64 72 65 73 73 74 66 75 67 76
REMARK SMILES IDX 71 77 74 78 68 79 69 80 72 81 70 82 49 83 50 84 58 85 51 86
REMARK SMILES IDX 52 87 56 88 59 89 53 90 54 91 57 92 55 93
REMARK H PARENT 6 16 10 24 79 46 47 57
REMARK Flexibility Score: inf
ROOT
ATOM      1  C   UNL A   1      35.966  20.526  25.005  1.00  0.00     0.275 C 
ENDROOT
BRANCH   1   2
ATOM      2  O   UNL A   1      35.787  21.800  25.661  1.00  0.00    -0.458 OA
BRANCH   2   3
ATOM      3  C   UNL A   1      34.629  21.957  26.348  1.00  0.00     0.340 C 
ATOM      4  O   UNL A   1      34.360  21.457  27.427  1.00  0.00    -0.246 OA
BRANCH   3   5
ATOM      5  C   UNL A   1      33.682  22.815  25.600  1.00  0.00     0.087 A 
ATOM      6  C   UNL A   1      32.195  24.388  23.835  1.00  0.00     0.162 A 
ATOM      7  C   UNL A   1      31.786  23.083  24.138  1.00  0.00     0.077 A 
ATOM      8  C   UNL A   1      33.309  24.942  24.474  1.00  0.00     0.161 A 
ATOM      9  C   UNL A   1      32.487  22.298  25.065  1.00  0.00     0.058 A 
ATOM     10  C   UNL A   1      34.070  24.132  25.324  1.00  0.00     0.068 A 
BRANCH   6  11
ATOM     11  O   UNL A   1      31.422  25.129  22.980  1.00  0.00    -0.493 OA
ATOM     12  C   UNL A   1      30.279  25.684  23.636  1.00  0.00     0.278 C 
ENDBRANCH   6  11
BRANCH   8  13
ATOM     13  O   UNL A   1      33.810  26.209  24.366  1.00  0.00    -0.493 OA
ATOM     14  C   UNL A   1      33.634  27.099  25.458  1.00  0.00     0.278 C 
ENDBRANCH   8  13
BRANCH   9  15
ATOM     15  N   UNL A   1      31.950  21.070  25.498  1.00  0.00    -0.338 N 
ATOM     16  H   UNL A   1      31.286  21.104  26.225  1.00  0.00     0.168 HD
BRANCH  15  17
ATOM     17  C   UNL A   1      32.268  19.824  24.999  1.00  0.00     0.156 A 
ATOM     18  C   UNL A   1      32.260  19.686  23.496  1.00  0.00     0.180 A 
ATOM     19  N   UNL A   1      32.528  18.792  25.737  1.00  0.00    -0.173 NA
ATOM     20  N   UNL A   1      32.435  18.551  22.909  1.00  0.00    -0.176 NA
ATOM     21  C   UNL A   1      32.698  17.571  25.131  1.00  0.00     0.363 A 
ATOM     22  N   UNL A   1      32.629  17.503  23.754  1.00  0.00    -0.227 N 
ATOM     23  O   UNL A   1      32.887  16.542  25.776  1.00  0.00    -0.244 OA
ATOM     24  H   UNL A   1      32.729  16.612  23.346  1.00  0.00     0.195 HD
ENDBRANCH  15  17
ENDBRANCH   9  15
ENDBRANCH   3   5
ENDBRANCH   2   3
ENDBRANCH   1   2
BRANCH   1  25
ATOM     25  C   UNL A   1      37.437  20.110  24.966  1.00  0.00     0.275 C 
BRANCH  25  26
ATOM     26  O   UNL A   1      38.301  21.237  25.215  1.00  0.00    -0.458 OA
BRANCH  26  27
ATOM     27  C   UNL A   1      39.333  21.000  26.047  1.00  0.00     0.338 C 
ATOM     28  O   UNL A   1      40.024  19.996  26.125  1.00  0.00    -0.246 OA
BRANCH  27  29
ATOM     29  C   UNL A   1      39.677  22.207  26.808  1.00  0.00     0.060 A 
ATOM     30  C   UNL A   1      39.066  23.392  26.427  1.00  0.00     0.016 A 
ATOM     31  C   UNL A   1      40.787  22.235  27.652  1.00  0.00     0.016 A 
ATOM     32  C   UNL A   1      39.667  24.604  26.741  1.00  0.00     0.010 A 
ATOM     33  C   UNL A   1      41.303  23.469  28.081  1.00  0.00     0.010 A 
ATOM     34  C   UNL A   1      40.799  24.678  27.569  1.00  0.00    -0.014 A 
BRANCH  34  35
ATOM     35  C   UNL A   1      41.478  25.998  27.801  1.00  0.00     0.031 A 
ATOM     36  C   UNL A   1      40.843  27.064  28.672  1.00  0.00     0.074 A 
ATOM     37  C   UNL A   1      42.720  26.231  27.321  1.00  0.00     0.049 A 
ATOM     38  N   UNL A   1      41.200  28.315  28.847  1.00  0.00    -0.248 NA
ATOM     39  C   UNL A   1      39.645  26.683  29.437  1.00  0.00     0.031 C 
ATOM     40  C   UNL A   1      43.514  25.295  26.525  1.00  0.00     0.029 A 
ATOM     41  N   UNL A   1      43.554  27.316  27.468  1.00  0.00    -0.354 N 
ATOM     42  C   UNL A   1      40.239  28.878  29.680  1.00  0.00     0.074 A 
ATOM     43  C   UNL A   1      39.287  27.835  29.990  1.00  0.00     0.031 C 
ATOM     44  C   UNL A   1      44.745  25.790  26.353  1.00  0.00     0.029 A 
ATOM     45  C   UNL A   1      44.783  27.149  26.874  1.00  0.00     0.049 A 
ATOM     46  H   UNL A   1      43.295  28.134  27.952  1.00  0.00     0.167 HD
ATOM     47  C   UNL A   1      40.151  30.151  30.136  1.00  0.00     0.037 A 
ATOM     48  C   UNL A   1      45.808  28.004  26.695  1.00  0.00     0.037 A 
ATOM     49  C   UNL A   1      41.138  31.173  29.901  1.00  0.00     0.049 A 
ATOM     50  C   UNL A   1      45.668  29.423  27.162  1.00  0.00     0.074 A 
ATOM     51  C   UNL A   1      41.130  32.495  30.318  1.00  0.00     0.029 A 
ATOM     52  N   UNL A   1      42.322  30.982  29.208  1.00  0.00    -0.354 N 
ATOM     53  N   UNL A   1      44.687  29.979  27.829  1.00  0.00    -0.248 NA
ATOM     54  C   UNL A   1      46.756  30.344  26.808  1.00  0.00     0.031 C 
ATOM     55  C   UNL A   1      42.294  33.111  29.847  1.00  0.00     0.029 A 
ATOM     56  C   UNL A   1      43.047  32.163  29.175  1.00  0.00     0.049 A 
ATOM     57  H   UNL A   1      42.607  30.133  28.799  1.00  0.00     0.167 HD
ATOM     58  C   UNL A   1      45.035  31.315  27.967  1.00  0.00     0.074 A 
ATOM     59  C   UNL A   1      46.331  31.479  27.345  1.00  0.00     0.031 C 
ATOM     60  C   UNL A   1      44.331  32.318  28.546  1.00  0.00     0.037 A 
BRANCH  47  61
ATOM     61  C   UNL A   1      38.916  30.541  30.899  1.00  0.00     0.064 A 
ATOM     62  C   UNL A   1      38.851  30.498  32.298  1.00  0.00     0.173 A 
ATOM     63  C   UNL A   1      37.796  31.026  30.205  1.00  0.00     0.173 A 
ATOM     64  F   UNL A   1      39.889  30.030  33.008  1.00  0.00    -0.203 F 
ATOM     65  C   UNL A   1      37.704  30.910  32.974  1.00  0.00     0.198 A 
ATOM     66  C   UNL A   1      36.662  31.462  30.884  1.00  0.00     0.198 A 
ATOM     67  F   UNL A   1      37.807  31.094  28.865  1.00  0.00    -0.203 F 
ATOM     68  F   UNL A   1      37.650  30.827  34.310  1.00  0.00    -0.200 F 
ATOM     69  C   UNL A   1      36.615  31.400  32.267  1.00  0.00     0.200 A 
ATOM     70  F   UNL A   1      35.616  31.947  30.199  1.00  0.00    -0.200 F 
ATOM     71  F   UNL A   1      35.518  31.807  32.921  1.00  0.00    -0.200 F 
ENDBRANCH  47  61
BRANCH  48  72
ATOM     72  C   UNL A   1      47.016  27.559  25.948  1.00  0.00     0.064 A 
ATOM     73  C   UNL A   1      47.099  27.691  24.555  1.00  0.00     0.173 A 
ATOM     74  C   UNL A   1      48.119  27.005  26.616  1.00  0.00     0.173 A 
ATOM     75  F   UNL A   1      46.055  28.172  23.864  1.00  0.00    -0.203 F 
ATOM     76  C   UNL A   1      48.242  27.292  23.863  1.00  0.00     0.198 A 
ATOM     77  C   UNL A   1      49.274  26.644  25.929  1.00  0.00     0.198 A 
ATOM     78  F   UNL A   1      48.086  26.841  27.947  1.00  0.00    -0.203 F 
ATOM     79  F   UNL A   1      48.282  27.388  22.527  1.00  0.00    -0.200 F 
ATOM     80  C   UNL A   1      49.333  26.783  24.552  1.00  0.00     0.200 A 
ATOM     81  F   UNL A   1      50.330  26.167  26.603  1.00  0.00    -0.200 F 
ATOM     82  F   UNL A   1      50.437  26.416  23.888  1.00  0.00    -0.200 F 
ENDBRANCH  48  72
BRANCH  60  83
ATOM     83  C   UNL A   1      44.958  33.679  28.541  1.00  0.00     0.064 A 
ATOM     84  C   UNL A   1      45.859  34.072  29.542  1.00  0.00     0.173 A 
ATOM     85  C   UNL A   1      44.670  34.593  27.517  1.00  0.00     0.173 A 
ATOM     86  F   UNL A   1      46.153  33.237  30.551  1.00  0.00    -0.203 F 
ATOM     87  C   UNL A   1      46.428  35.342  29.532  1.00  0.00     0.198 A 
ATOM     88  C   UNL A   1      45.260  35.853  27.497  1.00  0.00     0.198 A 
ATOM     89  F   UNL A   1      43.817  34.262  26.536  1.00  0.00    -0.203 F 
ATOM     90  F   UNL A   1      47.251  35.713  30.523  1.00  0.00    -0.200 F 
ATOM     91  C   UNL A   1      46.132  36.229  28.507  1.00  0.00     0.200 A 
ATOM     92  F   UNL A   1      44.981  36.706  26.502  1.00  0.00    -0.200 F 
ATOM     93  F   UNL A   1      46.682  37.451  28.500  1.00  0.00    -0.200 F 
ENDBRANCH  60  83
ENDBRANCH  34  35
ENDBRANCH  27  29
ENDBRANCH  26  27
ENDBRANCH  25  26
ENDBRANCH   1  25
TORSDOF 15
ENDMDL
MODEL 2
REMARK VINA RESULT:     -12.2      4.751     10.248
REMARK SMILES COc1cc(Nc2cn[nH]c(=O)n2)c(C(=O)OCCOC(=O)c2ccc(-c3c4nc(c(-c5c(F)c(F)c(F)c(F)c5F)c5ccc([nH]5)c(-c5c(F)c(F)c(F)c(F)c5F)c5nc(c(-c6c(F)c(F)c(F)c(F)c6F)c6ccc3[nH]6)C=C5)C=C4)cc2)cc1OC
REMARK SMILES IDX 18 1 17 2 15 3 16 4 14 5 3 6 4 7 87 8 5 9 86 10 2 11 1 12
REMARK SMILES IDX 88 13 89 14 6 15 7 17 8 18 13 19 9 20 11 21 10 22 12 23
REMARK SMILES IDX 19 25 20 26 21 27 22 28 23 29 24 30 85 31 25 32 84 33 26 34
REMARK SMILES IDX 27 35 28 36 78 37 29 38 83 39 77 40 79 41 30 42 82 43 76 44
REMARK SMILES IDX 75 45 31 47 63 48 43 49 62 50 44 51 47 52 61 53 80 54 45 55
REMARK SMILES IDX 46 56 60 58 81 59 48 60 32 61 33 62 41 63 34 64 35 65 39 66
REMARK SMILES IDX 42 67 36 68 37 69 40 70 38 71 64 72 65 73 73 74 66 75 67 76
REMARK SMILES IDX 71 77 74 78 68 79 69 80 72 81 70 82 49 83 50 84 58 85 51 86
REMARK SMILES IDX 52 87 56 88 59 89 53 90 54 91 57 92 55 93
REMARK H PARENT 6 16 10 24 79 46 47 57
REMARK Flexibility Score: inf
ROOT
ATOM      1  C   UNL A   1      31.459  29.740  25.308  1.00  0.00     0.275 C 
ENDROOT
BRANCH   1   2
ATOM      2  O   UNL A   1      32.721  29.038  25.266  1.00  0.00    -0.458 OA
BRANCH   2   3
ATOM      3  C   UNL A   1      33.128  28.624  24.042  1.00  0.00     0.340 C 
ATOM      4  O   UNL A   1      33.591  29.328  23.160  1.00  0.00    -0.246 OA
BRANCH   3   5
ATOM      5  C   UNL A   1      32.917  27.167  23.879  1.00  0.00     0.087 A 
ATOM      6  C   UNL A   1      32.301  24.445  23.984  1.00  0.00     0.162 A 
ATOM      7  C   UNL A   1      31.584  25.302  23.138  1.00  0.00     0.077 A 
ATOM      8  C   UNL A   1      33.383  24.931  24.725  1.00  0.00     0.161 A 
ATOM      9  C   UNL A   1      31.916  26.660  23.028  1.00  0.00     0.058 A 
ATOM     10  C   UNL A   1      33.655  26.303  24.697  1.00  0.00     0.068 A 
BRANCH   6  11
ATOM     11  O   UNL A   1      31.977  23.113  23.986  1.00  0.00    -0.493 OA
ATOM     12  C   UNL A   1      32.476  22.438  22.829  1.00  0.00     0.278 C 
ENDBRANCH   6  11
BRANCH   8  13
ATOM     13  O   UNL A   1      34.237  24.240  25.538  1.00  0.00    -0.493 OA
ATOM     14  C   UNL A   1      35.571  24.038  25.096  1.00  0.00     0.278 C 
ENDBRANCH   8  13
BRANCH   9  15
ATOM     15  N   UNL A   1      31.314  27.455  22.033  1.00  0.00    -0.338 N 
ATOM     16  H   UNL A   1      31.689  27.393  21.125  1.00  0.00     0.168 HD
BRANCH  15  17
ATOM     17  C   UNL A   1      30.249  28.312  22.214  1.00  0.00     0.156 A 
ATOM     18  C   UNL A   1      29.147  27.824  23.123  1.00  0.00     0.180 A 
ATOM     19  N   UNL A   1      30.137  29.463  21.630  1.00  0.00    -0.173 NA
ATOM     20  N   UNL A   1      28.051  28.483  23.289  1.00  0.00    -0.176 NA
ATOM     21  C   UNL A   1      28.970  30.170  21.780  1.00  0.00     0.363 A 
ATOM     22  N   UNL A   1      27.978  29.645  22.585  1.00  0.00    -0.227 N 
ATOM     23  O   UNL A   1      28.774  31.238  21.205  1.00  0.00    -0.244 OA
ATOM     24  H   UNL A   1      27.141  30.160  22.655  1.00  0.00     0.195 HD
ENDBRANCH  15  17
ENDBRANCH   9  15
ENDBRANCH   3   5
ENDBRANCH   2   3
ENDBRANCH   1   2
BRANCH   1  25
ATOM     25  C   UNL A   1      31.548  31.016  26.147  1.00  0.00     0.275 C 
BRANCH  25  26
ATOM     26  O   UNL A   1      32.489  30.861  27.228  1.00  0.00    -0.458 OA
BRANCH  26  27
ATOM     27  C   UNL A   1      33.272  31.930  27.467  1.00  0.00     0.338 C 
ATOM     28  O   UNL A   1      32.935  33.093  27.622  1.00  0.00    -0.246 OA
BRANCH  27  29
ATOM     29  C   UNL A   1      34.663  31.516  27.694  1.00  0.00     0.060 A 
ATOM     30  C   UNL A   1      34.895  30.166  27.904  1.00  0.00     0.016 A 
ATOM     31  C   UNL A   1      35.651  32.451  28.002  1.00  0.00     0.016 A 
ATOM     32  C   UNL A   1      36.039  29.765  28.583  1.00  0.00     0.010 A 
ATOM     33  C   UNL A   1      36.866  32.019  28.560  1.00  0.00     0.010 A 
ATOM     34  C   UNL A   1      37.050  30.675  28.934  1.00  0.00    -0.014 A 
BRANCH  34  35
ATOM     35  C   UNL A   1      38.221  30.219  29.756  1.00  0.00     0.031 A 
ATOM     36  C   UNL A   1      39.308  29.347  29.158  1.00  0.00     0.074 A 
ATOM     37  C   UNL A   1      38.390  30.659  31.024  1.00  0.00     0.049 A 
ATOM     38  N   UNL A   1      40.297  28.726  29.757  1.00  0.00    -0.248 NA
ATOM     39  C   UNL A   1      39.276  29.135  27.702  1.00  0.00     0.031 C 
ATOM     40  C   UNL A   1      37.485  31.560  31.739  1.00  0.00     0.029 A 
ATOM     41  N   UNL A   1      39.405  30.439  31.926  1.00  0.00    -0.354 N 
ATOM     42  C   UNL A   1      40.953  28.002  28.766  1.00  0.00     0.074 A 
ATOM     43  C   UNL A   1      40.264  28.268  27.524  1.00  0.00     0.031 C 
ATOM     44  C   UNL A   1      38.034  31.904  32.909  1.00  0.00     0.029 A 
ATOM     45  C   UNL A   1      39.245  31.121  33.110  1.00  0.00     0.049 A 
ATOM     46  H   UNL A   1      40.173  29.851  31.742  1.00  0.00     0.167 HD
ATOM     47  C   UNL A   1      42.027  27.182  28.883  1.00  0.00     0.037 A 
ATOM     48  C   UNL A   1      39.941  31.078  34.262  1.00  0.00     0.037 A 
ATOM     49  C   UNL A   1      42.769  26.978  30.100  1.00  0.00     0.049 A 
ATOM     50  C   UNL A   1      41.093  30.125  34.386  1.00  0.00     0.074 A 
ATOM     51  C   UNL A   1      43.867  26.159  30.316  1.00  0.00     0.029 A 
ATOM     52  N   UNL A   1      42.508  27.617  31.302  1.00  0.00    -0.354 N 
ATOM     53  N   UNL A   1      41.617  29.340  33.478  1.00  0.00    -0.248 NA
ATOM     54  C   UNL A   1      41.719  30.016  35.711  1.00  0.00     0.031 C 
ATOM     55  C   UNL A   1      44.246  26.278  31.657  1.00  0.00     0.029 A 
ATOM     56  C   UNL A   1      43.414  27.203  32.265  1.00  0.00     0.049 A 
ATOM     57  H   UNL A   1      41.785  28.269  31.449  1.00  0.00     0.167 HD
ATOM     58  C   UNL A   1      42.626  28.639  34.121  1.00  0.00     0.074 A 
ATOM     59  C   UNL A   1      42.664  29.114  35.487  1.00  0.00     0.031 C 
ATOM     60  C   UNL A   1      43.437  27.675  33.623  1.00  0.00     0.037 A 
BRANCH  47  61
ATOM     61  C   UNL A   1      42.443  26.393  27.674  1.00  0.00     0.064 A 
ATOM     62  C   UNL A   1      43.458  26.821  26.809  1.00  0.00     0.173 A 
ATOM     63  C   UNL A   1      41.846  25.147  27.420  1.00  0.00     0.173 A 
ATOM     64  F   UNL A   1      44.051  28.010  27.000  1.00  0.00    -0.203 F 
ATOM     65  C   UNL A   1      43.849  26.041  25.723  1.00  0.00     0.198 A 
ATOM     66  C   UNL A   1      42.258  24.357  26.350  1.00  0.00     0.198 A 
ATOM     67  F   UNL A   1      40.874  24.686  28.221  1.00  0.00    -0.203 F 
ATOM     68  F   UNL A   1      44.797  26.486  24.886  1.00  0.00    -0.200 F 
ATOM     69  C   UNL A   1      43.255  24.807  25.500  1.00  0.00     0.200 A 
ATOM     70  F   UNL A   1      41.691  23.160  26.145  1.00  0.00    -0.200 F 
ATOM     71  F   UNL A   1      43.642  24.052  24.462  1.00  0.00    -0.200 F 
ENDBRANCH  47  61
BRANCH  48  72
ATOM     72  C   UNL A   1      39.494  31.896  35.423  1.00  0.00     0.064 A 
ATOM     73  C   UNL A   1      39.940  33.213  35.600  1.00  0.00     0.173 A 
ATOM     74  C   UNL A   1      38.600  31.378  36.373  1.00  0.00     0.173 A 
ATOM     75  F   UNL A   1      40.830  33.739  34.746  1.00  0.00    -0.203 F 
ATOM     76  C   UNL A   1      39.501  33.980  36.678  1.00  0.00     0.198 A 
ATOM     77  C   UNL A   1      38.132  32.159  37.426  1.00  0.00     0.198 A 
ATOM     78  F   UNL A   1      38.155  30.117  36.261  1.00  0.00    -0.203 F 
ATOM     79  F   UNL A   1      39.974  35.223  36.850  1.00  0.00    -0.200 F 
ATOM     80  C   UNL A   1      38.587  33.458  37.581  1.00  0.00     0.200 A 
ATOM     81  F   UNL A   1      37.237  31.652  38.286  1.00  0.00    -0.200 F 
ATOM     82  F   UNL A   1      38.152  34.202  38.606  1.00  0.00    -0.200 F 
ENDBRANCH  48  72
BRANCH  60  83
ATOM     83  C   UNL A   1      44.443  27.081  34.563  1.00  0.00     0.064 A 
ATOM     84  C   UNL A   1      45.703  27.667  34.750  1.00  0.00     0.173 A 
ATOM     85  C   UNL A   1      44.138  25.925  35.295  1.00  0.00     0.173 A 
ATOM     86  F   UNL A   1      46.047  28.765  34.059  1.00  0.00    -0.203 F 
ATOM     87  C   UNL A   1      46.632  27.101  35.618  1.00  0.00     0.198 A 
ATOM     88  C   UNL A   1      45.060  25.375  36.181  1.00  0.00     0.198 A 
ATOM     89  F   UNL A   1      42.944  25.329  35.152  1.00  0.00    -0.203 F 
ATOM     90  F   UNL A   1      47.847  27.652  35.748  1.00  0.00    -0.200 F 
ATOM     91  C   UNL A   1      46.308  25.959  36.337  1.00  0.00     0.200 A 
ATOM     92  F   UNL A   1      44.742  24.278  36.881  1.00  0.00    -0.200 F 
ATOM     93  F   UNL A   1      47.204  25.417  37.173  1.00  0.00    -0.200 F 
ENDBRANCH  60  83
ENDBRANCH  34  35
ENDBRANCH  27  29
ENDBRANCH  26  27
ENDBRANCH  25  26
ENDBRANCH   1  25
TORSDOF 15
ENDMDL
MODEL 3
REMARK VINA RESULT:     -12.1      1.076      2.050
REMARK SMILES COc1cc(Nc2cn[nH]c(=O)n2)c(C(=O)OCCOC(=O)c2ccc(-c3c4nc(c(-c5c(F)c(F)c(F)c(F)c5F)c5ccc([nH]5)c(-c5c(F)c(F)c(F)c(F)c5F)c5nc(c(-c6c(F)c(F)c(F)c(F)c6F)c6ccc3[nH]6)C=C5)C=C4)cc2)cc1OC
REMARK SMILES IDX 18 1 17 2 15 3 16 4 14 5 3 6 4 7 87 8 5 9 86 10 2 11 1 12
REMARK SMILES IDX 88 13 89 14 6 15 7 17 8 18 13 19 9 20 11 21 10 22 12 23
REMARK SMILES IDX 19 25 20 26 21 27 22 28 23 29 24 30 85 31 25 32 84 33 26 34
REMARK SMILES IDX 27 35 28 36 78 37 29 38 83 39 77 40 79 41 30 42 82 43 76 44
REMARK SMILES IDX 75 45 31 47 63 48 43 49 62 50 44 51 47 52 61 53 80 54 45 55
REMARK SMILES IDX 46 56 60 58 81 59 48 60 32 61 33 62 41 63 34 64 35 65 39 66
REMARK SMILES IDX 42 67 36 68 37 69 40 70 38 71 64 72 65 73 73 74 66 75 67 76
REMARK SMILES IDX 71 77 74 78 68 79 69 80 72 81 70 82 49 83 50 84 58 85 51 86
REMARK SMILES IDX 52 87 56 88 59 89 53 90 54 91 57 92 55 93
REMARK H PARENT 6 16 10 24 79 46 47 57
REMARK Flexibility Score: inf
ROOT
ATOM      1  C   UNL A   1      36.321  20.145  24.856  1.00  0.00     0.275 C 
ENDROOT
BRANCH   1   2
ATOM      2  O   UNL A   1      35.791  21.286  25.566  1.00  0.00    -0.458 OA
BRANCH   2   3
ATOM      3  C   UNL A   1      35.036  22.142  24.835  1.00  0.00     0.340 C 
ATOM      4  O   UNL A   1      35.291  22.548  23.714  1.00  0.00    -0.246 OA
BRANCH   3   5
ATOM      5  C   UNL A   1      33.835  22.564  25.590  1.00  0.00     0.087 A 
ATOM      6  C   UNL A   1      31.395  23.478  26.598  1.00  0.00     0.162 A 
ATOM      7  C   UNL A   1      31.657  22.105  26.513  1.00  0.00     0.077 A 
ATOM      8  C   UNL A   1      32.384  24.406  26.251  1.00  0.00     0.161 A 
ATOM      9  C   UNL A   1      32.897  21.627  26.065  1.00  0.00     0.058 A 
ATOM     10  C   UNL A   1      33.585  23.937  25.709  1.00  0.00     0.068 A 
BRANCH   6  11
ATOM     11  O   UNL A   1      30.193  23.879  27.119  1.00  0.00    -0.493 OA
ATOM     12  C   UNL A   1      29.334  22.772  27.398  1.00  0.00     0.278 C 
ENDBRANCH   6  11
BRANCH   8  13
ATOM     13  O   UNL A   1      32.340  25.769  26.338  1.00  0.00    -0.493 OA
ATOM     14  C   UNL A   1      31.600  26.482  25.359  1.00  0.00     0.278 C 
ENDBRANCH   8  13
BRANCH   9  15
ATOM     15  N   UNL A   1      33.206  20.257  26.172  1.00  0.00    -0.338 N 
ATOM     16  H   UNL A   1      33.734  19.978  26.954  1.00  0.00     0.168 HD
BRANCH  15  17
ATOM     17  C   UNL A   1      32.837  19.270  25.282  1.00  0.00     0.156 A 
ATOM     18  C   UNL A   1      32.691  17.879  25.851  1.00  0.00     0.180 A 
ATOM     19  N   UNL A   1      32.654  19.468  24.015  1.00  0.00    -0.173 NA
ATOM     20  N   UNL A   1      32.455  16.853  25.106  1.00  0.00    -0.176 NA
ATOM     21  C   UNL A   1      32.421  18.385  23.203  1.00  0.00     0.363 A 
ATOM     22  N   UNL A   1      32.349  17.132  23.779  1.00  0.00    -0.227 N 
ATOM     23  O   UNL A   1      32.299  18.495  21.985  1.00  0.00    -0.244 OA
ATOM     24  H   UNL A   1      32.206  16.369  23.171  1.00  0.00     0.195 HD
ENDBRANCH  15  17
ENDBRANCH   9  15
ENDBRANCH   3   5
ENDBRANCH   2   3
ENDBRANCH   1   2
BRANCH   1  25
ATOM     25  C   UNL A   1      37.838  20.034  25.013  1.00  0.00     0.275 C 
BRANCH  25  26
ATOM     26  O   UNL A   1      38.398  21.264  25.514  1.00  0.00    -0.458 OA
BRANCH  26  27
ATOM     27  C   UNL A   1      39.558  21.137  26.187  1.00  0.00     0.338 C 
ATOM     28  O   UNL A   1      40.358  20.216  26.145  1.00  0.00    -0.246 OA
BRANCH  27  29
ATOM     29  C   UNL A   1      39.875  22.371  26.917  1.00  0.00     0.060 A 
ATOM     30  C   UNL A   1      39.319  23.549  26.441  1.00  0.00     0.016 A 
ATOM     31  C   UNL A   1      40.921  22.416  27.837  1.00  0.00     0.016 A 
ATOM     32  C   UNL A   1      39.923  24.762  26.744  1.00  0.00     0.010 A 
ATOM     33  C   UNL A   1      41.433  23.657  28.248  1.00  0.00     0.010 A 
ATOM     34  C   UNL A   1      40.995  24.852  27.648  1.00  0.00    -0.014 A 
BRANCH  34  35
ATOM     35  C   UNL A   1      41.685  26.167  27.870  1.00  0.00     0.031 A 
ATOM     36  C   UNL A   1      41.059  27.246  28.732  1.00  0.00     0.074 A 
ATOM     37  C   UNL A   1      42.930  26.385  27.390  1.00  0.00     0.049 A 
ATOM     38  N   UNL A   1      41.427  28.494  28.897  1.00  0.00    -0.248 NA
ATOM     39  C   UNL A   1      39.857  26.882  29.499  1.00  0.00     0.031 C 
ATOM     40  C   UNL A   1      43.717  25.435  26.603  1.00  0.00     0.029 A 
ATOM     41  N   UNL A   1      43.774  27.464  27.530  1.00  0.00    -0.354 N 
ATOM     42  C   UNL A   1      40.470  29.073  29.724  1.00  0.00     0.074 A 
ATOM     43  C   UNL A   1      39.509  28.041  30.042  1.00  0.00     0.031 C 
ATOM     44  C   UNL A   1      44.953  25.918  26.428  1.00  0.00     0.029 A 
ATOM     45  C   UNL A   1      45.002  27.281  26.939  1.00  0.00     0.049 A 
ATOM     46  H   UNL A   1      43.522  28.288  28.007  1.00  0.00     0.167 HD
ATOM     47  C   UNL A   1      40.393  30.351  30.171  1.00  0.00     0.037 A 
ATOM     48  C   UNL A   1      46.035  28.125  26.755  1.00  0.00     0.037 A 
ATOM     49  C   UNL A   1      41.389  31.362  29.928  1.00  0.00     0.049 A 
ATOM     50  C   UNL A   1      45.907  29.549  27.210  1.00  0.00     0.074 A 
ATOM     51  C   UNL A   1      41.393  32.686  30.335  1.00  0.00     0.029 A 
ATOM     52  N   UNL A   1      42.573  31.155  29.239  1.00  0.00    -0.354 N 
ATOM     53  N   UNL A   1      44.931  30.119  27.871  1.00  0.00    -0.248 NA
ATOM     54  C   UNL A   1      47.004  30.458  26.850  1.00  0.00     0.031 C 
ATOM     55  C   UNL A   1      42.563  33.288  29.861  1.00  0.00     0.029 A 
ATOM     56  C   UNL A   1      43.308  32.328  29.197  1.00  0.00     0.049 A 
ATOM     57  H   UNL A   1      42.851  30.299  28.837  1.00  0.00     0.167 HD
ATOM     58  C   UNL A   1      45.290  31.453  27.999  1.00  0.00     0.074 A 
ATOM     59  C   UNL A   1      46.589  31.601  27.377  1.00  0.00     0.031 C 
ATOM     60  C   UNL A   1      44.595  32.467  28.569  1.00  0.00     0.037 A 
BRANCH  47  61
ATOM     61  C   UNL A   1      39.161  30.757  30.929  1.00  0.00     0.064 A 
ATOM     62  C   UNL A   1      38.018  31.258  30.294  1.00  0.00     0.173 A 
ATOM     63  C   UNL A   1      39.114  30.579  32.322  1.00  0.00     0.173 A 
ATOM     64  F   UNL A   1      38.016  31.460  28.967  1.00  0.00    -0.203 F 
ATOM     65  C   UNL A   1      36.877  31.582  31.026  1.00  0.00     0.198 A 
ATOM     66  C   UNL A   1      37.963  30.878  33.046  1.00  0.00     0.198 A 
ATOM     67  F   UNL A   1      40.179  30.097  32.979  1.00  0.00    -0.203 F 
ATOM     68  F   UNL A   1      35.806  32.093  30.403  1.00  0.00    -0.200 F 
ATOM     69  C   UNL A   1      36.847  31.383  32.399  1.00  0.00     0.200 A 
ATOM     70  F   UNL A   1      37.934  30.672  34.371  1.00  0.00    -0.200 F 
ATOM     71  F   UNL A   1      35.744  31.683  33.098  1.00  0.00    -0.200 F 
ENDBRANCH  47  61
BRANCH  48  72
ATOM     72  C   UNL A   1      47.240  27.663  26.012  1.00  0.00     0.064 A 
ATOM     73  C   UNL A   1      47.292  27.706  24.612  1.00  0.00     0.173 A 
ATOM     74  C   UNL A   1      48.370  27.182  26.692  1.00  0.00     0.173 A 
ATOM     75  F   UNL A   1      46.223  28.115  23.914  1.00  0.00    -0.203 F 
ATOM     76  C   UNL A   1      48.432  27.292  23.924  1.00  0.00     0.198 A 
ATOM     77  C   UNL A   1      49.521  26.807  26.005  1.00  0.00     0.198 A 
ATOM     78  F   UNL A   1      48.367  27.105  28.031  1.00  0.00    -0.203 F 
ATOM     79  F   UNL A   1      48.443  27.302  22.584  1.00  0.00    -0.200 F 
ATOM     80  C   UNL A   1      49.550  26.857  24.621  1.00  0.00     0.200 A 
ATOM     81  F   UNL A   1      50.602  26.402  26.687  1.00  0.00    -0.200 F 
ATOM     82  F   UNL A   1      50.650  26.476  23.960  1.00  0.00    -0.200 F 
ENDBRANCH  48  72
BRANCH  60  83
ATOM     83  C   UNL A   1      45.234  33.822  28.554  1.00  0.00     0.064 A 
ATOM     84  C   UNL A   1      44.939  34.758  27.552  1.00  0.00     0.173 A 
ATOM     85  C   UNL A   1      46.138  34.194  29.559  1.00  0.00     0.173 A 
ATOM     86  F   UNL A   1      44.092  34.442  26.560  1.00  0.00    -0.203 F 
ATOM     87  C   UNL A   1      45.546  36.011  27.545  1.00  0.00     0.198 A 
ATOM     88  C   UNL A   1      46.725  35.456  29.562  1.00  0.00     0.198 A 
ATOM     89  F   UNL A   1      46.450  33.334  30.540  1.00  0.00    -0.203 F 
ATOM     90  F   UNL A   1      45.284  36.874  26.553  1.00  0.00    -0.200 F 
ATOM     91  C   UNL A   1      46.434  36.360  28.551  1.00  0.00     0.200 A 
ATOM     92  F   UNL A   1      47.575  35.796  30.540  1.00  0.00    -0.200 F 
ATOM     93  F   UNL A   1      47.017  37.567  28.542  1.00  0.00    -0.200 F 
ENDBRANCH  60  83
ENDBRANCH  34  35
ENDBRANCH  27  29
ENDBRANCH  26  27
ENDBRANCH  25  26
ENDBRANCH   1  25
TORSDOF 15
ENDMDL
