MODEL 1
REMARK VINA RESULT:      -9.7      0.000      0.000
REMARK SMILES CC(C)(C[C@@H](O)C(F)(F)F)C(=O)OCCOC(=O)c1ccc(-c2c3nc(c(-c4c(F)c(F)c(F)c(F)c4F)c4ccc([nH]4)c(-c4c(F)c(F)c(F)c(F)c4F)c4nc(c(-c5c(F)c(F)c(F)c(F)c5F)c5ccc2[nH]5)C=C4)C=C3)cc1
REMARK SMILES IDX 14 1 13 2 11 3 12 4 2 5 1 6 3 7 4 8 5 9 6 10 7 12 8 13 9 14
REMARK SMILES IDX 10 15 15 16 16 17 17 18 18 19 19 20 20 21 81 22 21 23 80 24
REMARK SMILES IDX 22 25 23 26 24 27 74 28 25 29 79 30 73 31 75 32 26 33 78 34
REMARK SMILES IDX 72 35 71 36 27 38 59 39 39 40 58 41 40 42 43 43 57 44 76 45
REMARK SMILES IDX 41 46 42 47 56 49 77 50 44 51 28 52 29 53 37 54 30 55 31 56
REMARK SMILES IDX 35 57 38 58 32 59 33 60 36 61 34 62 60 63 61 64 69 65 62 66
REMARK SMILES IDX 63 67 67 68 70 69 64 70 65 71 68 72 66 73 45 74 46 75 54 76
REMARK SMILES IDX 47 77 48 78 52 79 55 80 49 81 50 82 53 83 51 84
REMARK H PARENT 6 11 75 37 43 48
REMARK Flexibility Score: inf
ROOT
ATOM      1  C   UNL A   1      33.389  35.064  29.072  1.00  0.00     0.274 C 
ENDROOT
BRANCH   1   2
ATOM      2  O   UNL A   1      34.457  34.655  29.950  1.00  0.00    -0.462 OA
BRANCH   2   3
ATOM      3  C   UNL A   1      34.114  34.363  31.229  1.00  0.00     0.311 C 
ATOM      4  O   UNL A   1      33.132  34.822  31.802  1.00  0.00    -0.252 OA
BRANCH   3   5
ATOM      5  C   UNL A   1      35.145  33.466  31.927  1.00  0.00     0.065 C 
ATOM      6  C   UNL A   1      36.572  33.981  31.634  1.00  0.00     0.023 C 
ATOM      7  C   UNL A   1      35.011  32.083  31.262  1.00  0.00     0.023 C 
BRANCH   5   8
ATOM      8  C   UNL A   1      34.950  33.313  33.462  1.00  0.00     0.059 C 
BRANCH   8   9
ATOM      9  C   UNL A   1      35.687  34.338  34.349  1.00  0.00     0.220 C 
BRANCH   9  10
ATOM     10  O   UNL A   1      34.719  34.985  35.187  1.00  0.00    -0.384 OA
ATOM     11  H   UNL A   1      35.024  34.966  36.108  1.00  0.00     0.211 HD
ENDBRANCH   9  10
BRANCH   9  12
ATOM     12  C   UNL A   1      36.802  33.654  35.161  1.00  0.00     0.414 C 
ATOM     13  F   UNL A   1      36.852  32.330  34.876  1.00  0.00    -0.168 F 
ATOM     14  F   UNL A   1      38.009  34.176  34.848  1.00  0.00    -0.168 F 
ATOM     15  F   UNL A   1      36.623  33.781  36.493  1.00  0.00    -0.168 F 
ENDBRANCH   9  12
ENDBRANCH   8   9
ENDBRANCH   5   8
ENDBRANCH   3   5
ENDBRANCH   2   3
ENDBRANCH   1   2
BRANCH   1  16
ATOM     16  C   UNL A   1      33.009  33.951  28.093  1.00  0.00     0.275 C 
BRANCH  16  17
ATOM     17  O   UNL A   1      34.192  33.269  27.637  1.00  0.00    -0.458 OA
BRANCH  17  18
ATOM     18  C   UNL A   1      34.144  31.920  27.622  1.00  0.00     0.338 C 
ATOM     19  O   UNL A   1      33.203  31.203  27.313  1.00  0.00    -0.246 OA
BRANCH  18  20
ATOM     20  C   UNL A   1      35.466  31.376  27.975  1.00  0.00     0.060 A 
ATOM     21  C   UNL A   1      35.578  30.024  28.292  1.00  0.00     0.016 A 
ATOM     22  C   UNL A   1      36.562  32.225  28.133  1.00  0.00     0.016 A 
ATOM     23  C   UNL A   1      36.756  29.526  28.839  1.00  0.00     0.010 A 
ATOM     24  C   UNL A   1      37.772  31.708  28.615  1.00  0.00     0.010 A 
ATOM     25  C   UNL A   1      37.868  30.362  29.011  1.00  0.00    -0.014 A 
BRANCH  25  26
ATOM     26  C   UNL A   1      39.090  29.830  29.672  1.00  0.00     0.031 A 
ATOM     27  C   UNL A   1      39.469  30.299  31.052  1.00  0.00     0.074 A 
ATOM     28  C   UNL A   1      39.827  28.877  29.070  1.00  0.00     0.049 A 
ATOM     29  N   UNL A   1      40.528  30.005  31.765  1.00  0.00    -0.248 NA
ATOM     30  C   UNL A   1      38.538  31.224  31.717  1.00  0.00     0.031 C 
ATOM     31  C   UNL A   1      39.555  28.304  27.751  1.00  0.00     0.029 A 
ATOM     32  N   UNL A   1      40.941  28.201  29.504  1.00  0.00    -0.354 N 
ATOM     33  C   UNL A   1      40.419  30.750  32.931  1.00  0.00     0.074 A 
ATOM     34  C   UNL A   1      39.185  31.501  32.841  1.00  0.00     0.031 C 
ATOM     35  C   UNL A   1      40.442  27.327  27.506  1.00  0.00     0.029 A 
ATOM     36  C   UNL A   1      41.378  27.242  28.623  1.00  0.00     0.049 A 
ATOM     37  H   UNL A   1      41.384  28.387  30.362  1.00  0.00     0.167 HD
ATOM     38  C   UNL A   1      41.273  30.807  33.982  1.00  0.00     0.037 A 
ATOM     39  C   UNL A   1      42.420  26.393  28.703  1.00  0.00     0.037 A 
ATOM     40  C   UNL A   1      42.470  30.019  34.105  1.00  0.00     0.049 A 
ATOM     41  C   UNL A   1      43.325  26.439  29.901  1.00  0.00     0.074 A 
ATOM     42  C   UNL A   1      43.410  30.025  35.123  1.00  0.00     0.029 A 
ATOM     43  N   UNL A   1      42.877  29.059  33.191  1.00  0.00    -0.354 N 
ATOM     44  N   UNL A   1      43.252  27.207  30.960  1.00  0.00    -0.248 NA
ATOM     45  C   UNL A   1      44.465  25.512  29.907  1.00  0.00     0.031 C 
ATOM     46  C   UNL A   1      44.391  29.074  34.819  1.00  0.00     0.029 A 
ATOM     47  C   UNL A   1      44.048  28.460  33.626  1.00  0.00     0.049 A 
ATOM     48  H   UNL A   1      42.403  28.836  32.357  1.00  0.00     0.167 HD
ATOM     49  C   UNL A   1      44.338  26.865  31.752  1.00  0.00     0.074 A 
ATOM     50  C   UNL A   1      45.036  25.795  31.069  1.00  0.00     0.031 C 
ATOM     51  C   UNL A   1      44.731  27.402  32.932  1.00  0.00     0.037 A 
BRANCH  38  52
ATOM     52  C   UNL A   1      40.957  31.782  35.073  1.00  0.00     0.064 A 
ATOM     53  C   UNL A   1      41.587  33.030  35.152  1.00  0.00     0.173 A 
ATOM     54  C   UNL A   1      39.982  31.472  36.033  1.00  0.00     0.173 A 
ATOM     55  F   UNL A   1      42.539  33.363  34.267  1.00  0.00    -0.203 F 
ATOM     56  C   UNL A   1      41.262  33.931  36.164  1.00  0.00     0.198 A 
ATOM     57  C   UNL A   1      39.646  32.381  37.031  1.00  0.00     0.198 A 
ATOM     58  F   UNL A   1      39.351  30.289  35.997  1.00  0.00    -0.203 F 
ATOM     59  F   UNL A   1      41.898  35.108  36.241  1.00  0.00    -0.200 F 
ATOM     60  C   UNL A   1      40.288  33.608  37.098  1.00  0.00     0.200 A 
ATOM     61  F   UNL A   1      38.701  32.070  37.929  1.00  0.00    -0.200 F 
ATOM     62  F   UNL A   1      39.973  34.478  38.067  1.00  0.00    -0.200 F 
ENDBRANCH  38  52
BRANCH  39  63
ATOM     63  C   UNL A   1      42.663  25.424  27.605  1.00  0.00     0.064 A 
ATOM     64  C   UNL A   1      43.592  25.704  26.596  1.00  0.00     0.173 A 
ATOM     65  C   UNL A   1      41.986  24.197  27.557  1.00  0.00     0.173 A 
ATOM     66  F   UNL A   1      44.243  26.876  26.591  1.00  0.00    -0.203 F 
ATOM     67  C   UNL A   1      43.834  24.791  25.572  1.00  0.00     0.198 A 
ATOM     68  C   UNL A   1      42.245  23.277  26.545  1.00  0.00     0.198 A 
ATOM     69  F   UNL A   1      41.087  23.888  28.501  1.00  0.00    -0.203 F 
ATOM     70  F   UNL A   1      44.707  25.092  24.601  1.00  0.00    -0.200 F 
ATOM     71  C   UNL A   1      43.166  23.575  25.551  1.00  0.00     0.200 A 
ATOM     72  F   UNL A   1      41.604  22.099  26.533  1.00  0.00    -0.200 F 
ATOM     73  F   UNL A   1      43.406  22.693  24.571  1.00  0.00    -0.200 F 
ENDBRANCH  39  63
BRANCH  51  74
ATOM     74  C   UNL A   1      45.971  26.840  33.553  1.00  0.00     0.064 A 
ATOM     75  C   UNL A   1      47.231  27.392  33.279  1.00  0.00     0.173 A 
ATOM     76  C   UNL A   1      45.900  25.760  34.444  1.00  0.00     0.173 A 
ATOM     77  F   UNL A   1      47.346  28.417  32.422  1.00  0.00    -0.203 F 
ATOM     78  C   UNL A   1      48.381  26.869  33.863  1.00  0.00     0.198 A 
ATOM     79  C   UNL A   1      47.051  25.248  35.037  1.00  0.00     0.198 A 
ATOM     80  F   UNL A   1      44.715  25.201  34.735  1.00  0.00    -0.203 F 
ATOM     81  F   UNL A   1      49.579  27.388  33.563  1.00  0.00    -0.200 F 
ATOM     82  C   UNL A   1      48.289  25.799  34.743  1.00  0.00     0.200 A 
ATOM     83  F   UNL A   1      46.963  24.217  35.888  1.00  0.00    -0.200 F 
ATOM     84  F   UNL A   1      49.398  25.293  35.300  1.00  0.00    -0.200 F 
ENDBRANCH  51  74
ENDBRANCH  25  26
ENDBRANCH  18  20
ENDBRANCH  17  18
ENDBRANCH  16  17
ENDBRANCH   1  16
TORSDOF 15
ENDMDL
MODEL 2
REMARK VINA RESULT:      -9.5      5.445     10.372
REMARK SMILES CC(C)(C[C@@H](O)C(F)(F)F)C(=O)OCCOC(=O)c1ccc(-c2c3nc(c(-c4c(F)c(F)c(F)c(F)c4F)c4ccc([nH]4)c(-c4c(F)c(F)c(F)c(F)c4F)c4nc(c(-c5c(F)c(F)c(F)c(F)c5F)c5ccc2[nH]5)C=C4)C=C3)cc1
REMARK SMILES IDX 14 1 13 2 11 3 12 4 2 5 1 6 3 7 4 8 5 9 6 10 7 12 8 13 9 14
REMARK SMILES IDX 10 15 15 16 16 17 17 18 18 19 19 20 20 21 81 22 21 23 80 24
REMARK SMILES IDX 22 25 23 26 24 27 74 28 25 29 79 30 73 31 75 32 26 33 78 34
REMARK SMILES IDX 72 35 71 36 27 38 59 39 39 40 58 41 40 42 43 43 57 44 76 45
REMARK SMILES IDX 41 46 42 47 56 49 77 50 44 51 28 52 29 53 37 54 30 55 31 56
REMARK SMILES IDX 35 57 38 58 32 59 33 60 36 61 34 62 60 63 61 64 69 65 62 66
REMARK SMILES IDX 63 67 67 68 70 69 64 70 65 71 68 72 66 73 45 74 46 75 54 76
REMARK SMILES IDX 47 77 48 78 52 79 55 80 49 81 50 82 53 83 51 84
REMARK H PARENT 6 11 75 37 43 48
REMARK Flexibility Score: inf
ROOT
ATOM      1  C   UNL A   1      42.172  19.707  26.485  1.00  0.00     0.274 C 
ENDROOT
BRANCH   1   2
ATOM      2  O   UNL A   1      42.928  19.920  25.276  1.00  0.00    -0.462 OA
BRANCH   2   3
ATOM      3  C   UNL A   1      44.014  19.130  25.091  1.00  0.00     0.311 C 
ATOM      4  O   UNL A   1      44.171  18.037  25.622  1.00  0.00    -0.252 OA
BRANCH   3   5
ATOM      5  C   UNL A   1      45.084  19.794  24.215  1.00  0.00     0.065 C 
ATOM      6  C   UNL A   1      45.158  19.082  22.847  1.00  0.00     0.023 C 
ATOM      7  C   UNL A   1      46.425  19.546  24.934  1.00  0.00     0.023 C 
BRANCH   5   8
ATOM      8  C   UNL A   1      44.900  21.323  23.999  1.00  0.00     0.059 C 
BRANCH   8   9
ATOM      9  C   UNL A   1      46.001  22.232  24.584  1.00  0.00     0.220 C 
BRANCH   9  10
ATOM     10  O   UNL A   1      46.578  22.988  23.508  1.00  0.00    -0.384 OA
ATOM     11  H   UNL A   1      47.057  22.391  22.913  1.00  0.00     0.211 HD
ENDBRANCH   9  10
BRANCH   9  12
ATOM     12  C   UNL A   1      45.433  23.133  25.695  1.00  0.00     0.414 C 
ATOM     13  F   UNL A   1      44.761  24.180  25.158  1.00  0.00    -0.168 F 
ATOM     14  F   UNL A   1      44.556  22.447  26.463  1.00  0.00    -0.168 F 
ATOM     15  F   UNL A   1      46.395  23.631  26.500  1.00  0.00    -0.168 F 
ENDBRANCH   9  12
ENDBRANCH   8   9
ENDBRANCH   5   8
ENDBRANCH   3   5
ENDBRANCH   2   3
ENDBRANCH   1   2
BRANCH   1  16
ATOM     16  C   UNL A   1      40.666  19.712  26.214  1.00  0.00     0.275 C 
BRANCH  16  17
ATOM     17  O   UNL A   1      40.019  20.702  27.036  1.00  0.00    -0.458 OA
BRANCH  17  18
ATOM     18  C   UNL A   1      39.400  21.712  26.391  1.00  0.00     0.338 C 
ATOM     19  O   UNL A   1      38.574  21.639  25.493  1.00  0.00    -0.246 OA
BRANCH  18  20
ATOM     20  C   UNL A   1      39.808  22.998  26.983  1.00  0.00     0.060 A 
ATOM     21  C   UNL A   1      39.266  24.177  26.477  1.00  0.00     0.016 A 
ATOM     22  C   UNL A   1      40.828  23.048  27.934  1.00  0.00     0.016 A 
ATOM     23  C   UNL A   1      39.787  25.410  26.857  1.00  0.00     0.010 A 
ATOM     24  C   UNL A   1      41.303  24.292  28.372  1.00  0.00     0.010 A 
ATOM     25  C   UNL A   1      40.815  25.484  27.807  1.00  0.00    -0.014 A 
BRANCH  25  26
ATOM     26  C   UNL A   1      41.414  26.804  28.139  1.00  0.00     0.031 A 
ATOM     27  C   UNL A   1      40.586  27.862  28.819  1.00  0.00     0.074 A 
ATOM     28  C   UNL A   1      42.718  27.038  27.895  1.00  0.00     0.049 A 
ATOM     29  N   UNL A   1      40.906  29.094  29.127  1.00  0.00    -0.248 NA
ATOM     30  C   UNL A   1      39.213  27.489  29.197  1.00  0.00     0.031 C 
ATOM     31  C   UNL A   1      43.646  26.091  27.277  1.00  0.00     0.029 A 
ATOM     32  N   UNL A   1      43.495  28.138  28.166  1.00  0.00    -0.354 N 
ATOM     33  C   UNL A   1      39.764  29.656  29.680  1.00  0.00     0.074 A 
ATOM     34  C   UNL A   1      38.743  28.630  29.679  1.00  0.00     0.031 C 
ATOM     35  C   UNL A   1      44.877  26.627  27.265  1.00  0.00     0.029 A 
ATOM     36  C   UNL A   1      44.815  27.975  27.823  1.00  0.00     0.049 A 
ATOM     37  H   UNL A   1      43.140  28.963  28.567  1.00  0.00     0.167 HD
ATOM     38  C   UNL A   1      39.581  30.916  30.144  1.00  0.00     0.037 A 
ATOM     39  C   UNL A   1      45.857  28.819  27.937  1.00  0.00     0.037 A 
ATOM     40  C   UNL A   1      40.607  31.923  30.203  1.00  0.00     0.049 A 
ATOM     41  C   UNL A   1      45.640  30.194  28.501  1.00  0.00     0.074 A 
ATOM     42  C   UNL A   1      40.509  33.235  30.635  1.00  0.00     0.029 A 
ATOM     43  N   UNL A   1      41.930  31.718  29.845  1.00  0.00    -0.354 N 
ATOM     44  N   UNL A   1      44.535  30.738  28.946  1.00  0.00    -0.248 NA
ATOM     45  C   UNL A   1      46.813  31.078  28.564  1.00  0.00     0.031 C 
ATOM     46  C   UNL A   1      41.773  33.827  30.531  1.00  0.00     0.029 A 
ATOM     47  C   UNL A   1      42.661  32.876  30.056  1.00  0.00     0.049 A 
ATOM     48  H   UNL A   1      42.297  30.874  29.494  1.00  0.00     0.167 HD
ATOM     49  C   UNL A   1      44.874  32.026  29.331  1.00  0.00     0.074 A 
ATOM     50  C   UNL A   1      46.296  32.174  29.100  1.00  0.00     0.031 C 
ATOM     51  C   UNL A   1      44.073  33.006  29.817  1.00  0.00     0.037 A 
BRANCH  38  52
ATOM     52  C   UNL A   1      38.203  31.289  30.597  1.00  0.00     0.064 A 
ATOM     53  C   UNL A   1      37.842  31.276  31.950  1.00  0.00     0.173 A 
ATOM     54  C   UNL A   1      37.242  31.699  29.660  1.00  0.00     0.173 A 
ATOM     55  F   UNL A   1      38.722  30.873  32.879  1.00  0.00    -0.203 F 
ATOM     56  C   UNL A   1      36.561  31.648  32.351  1.00  0.00     0.198 A 
ATOM     57  C   UNL A   1      35.969  32.088  30.065  1.00  0.00     0.198 A 
ATOM     58  F   UNL A   1      37.542  31.728  28.354  1.00  0.00    -0.203 F 
ATOM     59  F   UNL A   1      36.225  31.599  33.647  1.00  0.00    -0.200 F 
ATOM     60  C   UNL A   1      35.628  32.059  31.409  1.00  0.00     0.200 A 
ATOM     61  F   UNL A   1      35.071  32.490  29.155  1.00  0.00    -0.200 F 
ATOM     62  F   UNL A   1      34.398  32.421  31.797  1.00  0.00    -0.200 F 
ENDBRANCH  38  52
BRANCH  39  63
ATOM     63  C   UNL A   1      47.207  28.381  27.504  1.00  0.00     0.064 A 
ATOM     64  C   UNL A   1      48.144  27.921  28.437  1.00  0.00     0.173 A 
ATOM     65  C   UNL A   1      47.577  28.397  26.151  1.00  0.00     0.173 A 
ATOM     66  F   UNL A   1      47.840  27.912  29.743  1.00  0.00    -0.203 F 
ATOM     67  C   UNL A   1      49.407  27.495  28.033  1.00  0.00     0.198 A 
ATOM     68  C   UNL A   1      48.833  27.951  25.747  1.00  0.00     0.198 A 
ATOM     69  F   UNL A   1      46.713  28.832  25.224  1.00  0.00    -0.203 F 
ATOM     70  F   UNL A   1      50.298  27.085  28.947  1.00  0.00    -0.200 F 
ATOM     71  C   UNL A   1      49.749  27.503  26.689  1.00  0.00     0.200 A 
ATOM     72  F   UNL A   1      49.155  27.953  24.446  1.00  0.00    -0.200 F 
ATOM     73  F   UNL A   1      50.961  27.085  26.300  1.00  0.00    -0.200 F 
ENDBRANCH  39  63
BRANCH  51  74
ATOM     74  C   UNL A   1      44.720  34.319  30.126  1.00  0.00     0.064 A 
ATOM     75  C   UNL A   1      44.809  35.328  29.156  1.00  0.00     0.173 A 
ATOM     76  C   UNL A   1      45.234  34.581  31.404  1.00  0.00     0.173 A 
ATOM     77  F   UNL A   1      44.343  35.115  27.917  1.00  0.00    -0.203 F 
ATOM     78  C   UNL A   1      45.408  36.549  29.451  1.00  0.00     0.198 A 
ATOM     79  C   UNL A   1      45.819  35.809  31.699  1.00  0.00     0.198 A 
ATOM     80  F   UNL A   1      45.170  33.644  32.363  1.00  0.00    -0.203 F 
ATOM     81  F   UNL A   1      45.513  37.488  28.501  1.00  0.00    -0.200 F 
ATOM     82  C   UNL A   1      45.910  36.789  30.722  1.00  0.00     0.200 A 
ATOM     83  F   UNL A   1      46.302  36.042  32.927  1.00  0.00    -0.200 F 
ATOM     84  F   UNL A   1      46.491  37.964  31.002  1.00  0.00    -0.200 F 
ENDBRANCH  51  74
ENDBRANCH  25  26
ENDBRANCH  18  20
ENDBRANCH  17  18
ENDBRANCH  16  17
ENDBRANCH   1  16
TORSDOF 15
ENDMDL
MODEL 3
REMARK VINA RESULT:      -9.5      5.311     11.868
REMARK SMILES CC(C)(C[C@@H](O)C(F)(F)F)C(=O)OCCOC(=O)c1ccc(-c2c3nc(c(-c4c(F)c(F)c(F)c(F)c4F)c4ccc([nH]4)c(-c4c(F)c(F)c(F)c(F)c4F)c4nc(c(-c5c(F)c(F)c(F)c(F)c5F)c5ccc2[nH]5)C=C4)C=C3)cc1
REMARK SMILES IDX 14 1 13 2 11 3 12 4 2 5 1 6 3 7 4 8 5 9 6 10 7 12 8 13 9 14
REMARK SMILES IDX 10 15 15 16 16 17 17 18 18 19 19 20 20 21 81 22 21 23 80 24
REMARK SMILES IDX 22 25 23 26 24 27 74 28 25 29 79 30 73 31 75 32 26 33 78 34
REMARK SMILES IDX 72 35 71 36 27 38 59 39 39 40 58 41 40 42 43 43 57 44 76 45
REMARK SMILES IDX 41 46 42 47 56 49 77 50 44 51 28 52 29 53 37 54 30 55 31 56
REMARK SMILES IDX 35 57 38 58 32 59 33 60 36 61 34 62 60 63 61 64 69 65 62 66
REMARK SMILES IDX 63 67 67 68 70 69 64 70 65 71 68 72 66 73 45 74 46 75 54 76
REMARK SMILES IDX 47 77 48 78 52 79 55 80 49 81 50 82 53 83 51 84
REMARK H PARENT 6 11 75 37 43 48
REMARK Flexibility Score: inf
ROOT
ATOM      1  C   UNL A   1      42.078  19.116  26.247  1.00  0.00     0.274 C 
ENDROOT
BRANCH   1   2
ATOM      2  O   UNL A   1      42.830  19.311  25.032  1.00  0.00    -0.462 OA
BRANCH   2   3
ATOM      3  C   UNL A   1      44.125  18.909  25.048  1.00  0.00     0.311 C 
ATOM      4  O   UNL A   1      44.580  18.078  25.825  1.00  0.00    -0.252 OA
BRANCH   3   5
ATOM      5  C   UNL A   1      44.994  19.679  24.045  1.00  0.00     0.065 C 
ATOM      6  C   UNL A   1      45.158  18.854  22.750  1.00  0.00     0.023 C 
ATOM      7  C   UNL A   1      46.386  19.789  24.698  1.00  0.00     0.023 C 
BRANCH   5   8
ATOM      8  C   UNL A   1      44.484  21.106  23.694  1.00  0.00     0.059 C 
BRANCH   8   9
ATOM      9  C   UNL A   1      45.164  22.275  24.436  1.00  0.00     0.220 C 
BRANCH   9  10
ATOM     10  O   UNL A   1      45.993  22.979  23.501  1.00  0.00    -0.384 OA
ATOM     11  H   UNL A   1      45.603  22.922  22.615  1.00  0.00     0.211 HD
ENDBRANCH   9  10
BRANCH   9  12
ATOM     12  C   UNL A   1      44.113  23.189  25.093  1.00  0.00     0.414 C 
ATOM     13  F   UNL A   1      42.863  22.760  24.799  1.00  0.00    -0.168 F 
ATOM     14  F   UNL A   1      44.237  23.168  26.439  1.00  0.00    -0.168 F 
ATOM     15  F   UNL A   1      44.216  24.471  24.682  1.00  0.00    -0.168 F 
ENDBRANCH   9  12
ENDBRANCH   8   9
ENDBRANCH   5   8
ENDBRANCH   3   5
ENDBRANCH   2   3
ENDBRANCH   1   2
BRANCH   1  16
ATOM     16  C   UNL A   1      40.659  19.674  26.125  1.00  0.00     0.275 C 
BRANCH  16  17
ATOM     17  O   UNL A   1      40.701  21.106  25.980  1.00  0.00    -0.458 OA
BRANCH  17  18
ATOM     18  C   UNL A   1      39.559  21.775  26.240  1.00  0.00     0.338 C 
ATOM     19  O   UNL A   1      38.409  21.409  26.038  1.00  0.00    -0.246 OA
BRANCH  18  20
ATOM     20  C   UNL A   1      39.874  23.050  26.906  1.00  0.00     0.060 A 
ATOM     21  C   UNL A   1      39.256  24.216  26.459  1.00  0.00     0.016 A 
ATOM     22  C   UNL A   1      40.881  23.117  27.869  1.00  0.00     0.016 A 
ATOM     23  C   UNL A   1      39.690  25.459  26.911  1.00  0.00     0.010 A 
ATOM     24  C   UNL A   1      41.268  24.363  28.379  1.00  0.00     0.010 A 
ATOM     25  C   UNL A   1      40.704  25.549  27.875  1.00  0.00    -0.014 A 
BRANCH  25  26
ATOM     26  C   UNL A   1      41.209  26.887  28.285  1.00  0.00     0.031 A 
ATOM     27  C   UNL A   1      42.640  27.269  28.020  1.00  0.00     0.074 A 
ATOM     28  C   UNL A   1      40.372  27.789  28.834  1.00  0.00     0.049 A 
ATOM     29  N   UNL A   1      43.284  28.358  28.361  1.00  0.00    -0.248 NA
ATOM     30  C   UNL A   1      43.460  26.298  27.278  1.00  0.00     0.031 C 
ATOM     31  C   UNL A   1      38.953  27.566  29.112  1.00  0.00     0.029 A 
ATOM     32  N   UNL A   1      40.590  29.086  29.228  1.00  0.00    -0.354 N 
ATOM     33  C   UNL A   1      44.591  28.178  27.929  1.00  0.00     0.074 A 
ATOM     34  C   UNL A   1      44.650  26.882  27.287  1.00  0.00     0.031 C 
ATOM     35  C   UNL A   1      38.415  28.703  29.581  1.00  0.00     0.029 A 
ATOM     36  C   UNL A   1      39.460  29.716  29.689  1.00  0.00     0.049 A 
ATOM     37  H   UNL A   1      41.472  29.521  29.186  1.00  0.00     0.167 HD
ATOM     38  C   UNL A   1      45.648  29.016  28.058  1.00  0.00     0.037 A 
ATOM     39  C   UNL A   1      39.287  30.968  30.153  1.00  0.00     0.037 A 
ATOM     40  C   UNL A   1      45.583  30.330  28.640  1.00  0.00     0.049 A 
ATOM     41  C   UNL A   1      40.464  31.897  30.240  1.00  0.00     0.074 A 
ATOM     42  C   UNL A   1      46.606  31.242  28.835  1.00  0.00     0.029 A 
ATOM     43  N   UNL A   1      44.419  30.931  29.095  1.00  0.00    -0.354 N 
ATOM     44  N   UNL A   1      41.711  31.683  29.900  1.00  0.00    -0.248 NA
ATOM     45  C   UNL A   1      40.212  33.237  30.790  1.00  0.00     0.031 C 
ATOM     46  C   UNL A   1      46.063  32.394  29.417  1.00  0.00     0.029 A 
ATOM     47  C   UNL A   1      44.698  32.206  29.560  1.00  0.00     0.049 A 
ATOM     48  H   UNL A   1      43.527  30.514  29.087  1.00  0.00     0.167 HD
ATOM     49  C   UNL A   1      42.393  32.851  30.203  1.00  0.00     0.074 A 
ATOM     50  C   UNL A   1      41.417  33.786  30.723  1.00  0.00     0.031 C 
ATOM     51  C   UNL A   1      43.715  33.119  30.077  1.00  0.00     0.037 A 
BRANCH  38  52
ATOM     52  C   UNL A   1      46.980  28.521  27.586  1.00  0.00     0.064 A 
ATOM     53  C   UNL A   1      47.928  27.997  28.473  1.00  0.00     0.173 A 
ATOM     54  C   UNL A   1      47.294  28.542  26.218  1.00  0.00     0.173 A 
ATOM     55  F   UNL A   1      47.679  27.974  29.791  1.00  0.00    -0.203 F 
ATOM     56  C   UNL A   1      49.153  27.521  28.009  1.00  0.00     0.198 A 
ATOM     57  C   UNL A   1      48.510  28.049  25.756  1.00  0.00     0.198 A 
ATOM     58  F   UNL A   1      46.416  29.034  25.332  1.00  0.00    -0.203 F 
ATOM     59  F   UNL A   1      50.060  27.053  28.877  1.00  0.00    -0.200 F 
ATOM     60  C   UNL A   1      49.440  27.543  26.651  1.00  0.00     0.200 A 
ATOM     61  F   UNL A   1      48.784  28.066  24.444  1.00  0.00    -0.200 F 
ATOM     62  F   UNL A   1      50.617  27.081  26.207  1.00  0.00    -0.200 F 
ENDBRANCH  38  52
BRANCH  39  63
ATOM     63  C   UNL A   1      37.935  31.414  30.574  1.00  0.00     0.064 A 
ATOM     64  C   UNL A   1      37.576  31.431  31.927  1.00  0.00     0.173 A 
ATOM     65  C   UNL A   1      36.988  31.848  29.635  1.00  0.00     0.173 A 
ATOM     66  F   UNL A   1      38.443  31.002  32.855  1.00  0.00    -0.203 F 
ATOM     67  C   UNL A   1      36.314  31.863  32.327  1.00  0.00     0.198 A 
ATOM     68  C   UNL A   1      35.735  32.299  30.039  1.00  0.00     0.198 A 
ATOM     69  F   UNL A   1      37.288  31.846  28.329  1.00  0.00    -0.203 F 
ATOM     70  F   UNL A   1      35.982  31.844  33.626  1.00  0.00    -0.200 F 
ATOM     71  C   UNL A   1      35.396  32.304  31.385  1.00  0.00     0.200 A 
ATOM     72  F   UNL A   1      34.855  32.732  29.125  1.00  0.00    -0.200 F 
ATOM     73  F   UNL A   1      34.186  32.727  31.771  1.00  0.00    -0.200 F 
ENDBRANCH  39  63
BRANCH  51  74
ATOM     74  C   UNL A   1      44.176  34.475  30.512  1.00  0.00     0.064 A 
ATOM     75  C   UNL A   1      44.162  35.563  29.627  1.00  0.00     0.173 A 
ATOM     76  C   UNL A   1      44.613  34.696  31.826  1.00  0.00     0.173 A 
ATOM     77  F   UNL A   1      43.765  35.393  28.357  1.00  0.00    -0.203 F 
ATOM     78  C   UNL A   1      44.588  36.822  30.038  1.00  0.00     0.198 A 
ATOM     79  C   UNL A   1      45.024  35.960  32.238  1.00  0.00     0.198 A 
ATOM     80  F   UNL A   1      44.643  33.684  32.707  1.00  0.00    -0.203 F 
ATOM     81  F   UNL A   1      44.598  37.841  29.168  1.00  0.00    -0.200 F 
ATOM     82  C   UNL A   1      45.016  37.020  31.343  1.00  0.00     0.200 A 
ATOM     83  F   UNL A   1      45.436  36.152  33.498  1.00  0.00    -0.200 F 
ATOM     84  F   UNL A   1      45.430  38.233  31.735  1.00  0.00    -0.200 F 
ENDBRANCH  51  74
ENDBRANCH  25  26
ENDBRANCH  18  20
ENDBRANCH  17  18
ENDBRANCH  16  17
ENDBRANCH   1  16
TORSDOF 15
ENDMDL
