MODEL 1
REMARK VINA RESULT:     -13.6      0.000      0.000
REMARK SMILES O=C(Cc1cncnc1N1CCC2(CC1)OCCC[C@@H]2O)OCCOC(=O)c1ccc(-c2c3nc(c(-c4c(F)c(F)c(F)c(F)c4F)c4ccc([nH]4)c(-c4c(F)c(F)c(F)c(F)c4F)c4nc(c(-c5c(F)c(F)c(F)c(F)c5F)c5ccc2[nH]5)C=C4)C=C3)cc1
REMARK SMILES IDX 23 1 22 2 2 3 1 4 3 5 4 6 5 7 9 8 6 9 8 10 7 11 10 12 11 13
REMARK SMILES IDX 15 14 12 15 14 16 13 17 16 18 20 19 17 20 19 21 18 22 21 23
REMARK SMILES IDX 24 25 25 26 26 27 27 28 28 29 29 30 90 31 30 32 89 33 31 34
REMARK SMILES IDX 32 35 33 36 83 37 34 38 88 39 82 40 84 41 35 42 87 43 81 44
REMARK SMILES IDX 80 45 36 47 68 48 48 49 67 50 49 51 52 52 66 53 85 54 50 55
REMARK SMILES IDX 51 56 65 58 86 59 53 60 37 61 38 62 46 63 39 64 40 65 44 66
REMARK SMILES IDX 47 67 41 68 42 69 45 70 43 71 69 72 70 73 78 74 71 75 72 76
REMARK SMILES IDX 76 77 79 78 73 79 74 80 77 81 75 82 54 83 55 84 63 85 56 86
REMARK SMILES IDX 57 87 61 88 64 89 58 90 59 91 62 92 60 93
REMARK H PARENT 21 24 84 46 52 57
REMARK Flexibility Score: inf
ROOT
ATOM      1  C   UNL A   1      31.785  28.622  26.471  1.00  0.00     0.274 C 
ENDROOT
BRANCH   1   2
ATOM      2  O   UNL A   1      32.635  27.508  26.828  1.00  0.00    -0.462 OA
BRANCH   2   3
ATOM      3  C   UNL A   1      32.313  26.262  26.379  1.00  0.00     0.310 C 
ATOM      4  O   UNL A   1      31.393  25.623  26.877  1.00  0.00    -0.252 OA
BRANCH   3   5
ATOM      5  C   UNL A   1      33.317  25.656  25.438  1.00  0.00     0.163 C 
BRANCH   5   6
ATOM      6  C   UNL A   1      33.022  25.852  23.979  1.00  0.00     0.024 A 
ATOM      7  C   UNL A   1      33.668  26.898  23.324  1.00  0.00     0.121 A 
ATOM      8  C   UNL A   1      32.281  24.952  23.189  1.00  0.00     0.135 A 
ATOM      9  N   UNL A   1      33.651  27.078  22.000  1.00  0.00    -0.244 NA
ATOM     10  N   UNL A   1      32.227  25.146  21.851  1.00  0.00    -0.219 NA
ATOM     11  C   UNL A   1      32.920  26.182  21.329  1.00  0.00     0.224 A 
BRANCH   8  12
ATOM     12  N   UNL A   1      32.099  23.653  23.661  1.00  0.00    -0.356 N 
ATOM     13  C   UNL A   1      32.368  22.750  22.588  1.00  0.00     0.121 C 
ATOM     14  C   UNL A   1      31.174  22.988  24.592  1.00  0.00     0.121 C 
ATOM     15  C   UNL A   1      33.280  21.770  23.277  1.00  0.00     0.060 C 
ATOM     16  C   UNL A   1      31.778  21.575  25.192  1.00  0.00     0.060 C 
ATOM     17  C   UNL A   1      32.735  20.581  24.303  1.00  0.00     0.097 C 
ATOM     18  O   UNL A   1      31.779  19.393  23.535  1.00  0.00    -0.372 OA
ATOM     19  C   UNL A   1      34.047  19.652  25.376  1.00  0.00     0.146 C 
ATOM     20  C   UNL A   1      32.303  17.838  22.801  1.00  0.00     0.161 C 
ATOM     21  C   UNL A   1      35.149  18.115  24.573  1.00  0.00     0.037 C 
ATOM     22  C   UNL A   1      34.180  17.115  23.126  1.00  0.00     0.031 C 
BRANCH  19  23
ATOM     23  O   UNL A   1      33.102  19.578  26.530  1.00  0.00    -0.390 OA
ATOM     24  H   UNL A   1      32.885  18.649  26.710  1.00  0.00     0.211 HD
ENDBRANCH  19  23
ENDBRANCH   8  12
ENDBRANCH   5   6
ENDBRANCH   3   5
ENDBRANCH   2   3
ENDBRANCH   1   2
BRANCH   1  25
ATOM     25  C   UNL A   1      32.170  29.891  27.251  1.00  0.00     0.275 C 
BRANCH  25  26
ATOM     26  O   UNL A   1      33.400  30.448  26.719  1.00  0.00    -0.458 OA
BRANCH  26  27
ATOM     27  C   UNL A   1      34.111  31.293  27.527  1.00  0.00     0.338 C 
ATOM     28  O   UNL A   1      33.654  32.184  28.220  1.00  0.00    -0.246 OA
BRANCH  27  29
ATOM     29  C   UNL A   1      35.437  30.659  27.765  1.00  0.00     0.060 A 
ATOM     30  C   UNL A   1      36.319  31.563  28.254  1.00  0.00     0.016 A 
ATOM     31  C   UNL A   1      35.894  29.329  27.627  1.00  0.00     0.016 A 
ATOM     32  C   UNL A   1      37.548  31.091  28.689  1.00  0.00     0.010 A 
ATOM     33  C   UNL A   1      37.252  28.889  28.016  1.00  0.00     0.010 A 
ATOM     34  C   UNL A   1      38.197  29.771  28.584  1.00  0.00    -0.014 A 
BRANCH  34  35
ATOM     35  C   UNL A   1      39.917  29.313  29.178  1.00  0.00     0.031 A 
ATOM     36  C   UNL A   1      41.386  28.296  28.005  1.00  0.00     0.074 A 
ATOM     37  C   UNL A   1      39.805  29.556  30.691  1.00  0.00     0.049 A 
ATOM     38  N   UNL A   1      42.464  27.432  28.392  1.00  0.00    -0.248 NA
ATOM     39  C   UNL A   1      41.280  27.503  26.460  1.00  0.00     0.031 C 
ATOM     40  C   UNL A   1      40.043  30.935  31.209  1.00  0.00     0.029 A 
ATOM     41  N   UNL A   1      40.292  28.896  31.921  1.00  0.00    -0.354 N 
ATOM     42  C   UNL A   1      42.578  26.209  27.692  1.00  0.00     0.074 A 
ATOM     43  C   UNL A   1      42.003  26.405  26.423  1.00  0.00     0.031 C 
ATOM     44  C   UNL A   1      40.463  31.065  32.469  1.00  0.00     0.029 A 
ATOM     45  C   UNL A   1      40.896  29.753  32.873  1.00  0.00     0.049 A 
ATOM     46  H   UNL A   1      40.203  27.928  32.068  1.00  0.00     0.167 HD
ATOM     47  C   UNL A   1      42.858  24.954  28.170  1.00  0.00     0.037 A 
ATOM     48  C   UNL A   1      41.957  29.643  33.729  1.00  0.00     0.037 A 
ATOM     49  C   UNL A   1      43.422  24.645  29.470  1.00  0.00     0.049 A 
ATOM     50  C   UNL A   1      42.844  28.414  33.752  1.00  0.00     0.074 A 
ATOM     51  C   UNL A   1      43.879  23.412  29.921  1.00  0.00     0.029 A 
ATOM     52  N   UNL A   1      43.575  25.528  30.528  1.00  0.00    -0.354 N 
ATOM     53  N   UNL A   1      42.989  27.464  32.859  1.00  0.00    -0.248 NA
ATOM     54  C   UNL A   1      43.774  28.311  34.893  1.00  0.00     0.031 C 
ATOM     55  C   UNL A   1      44.215  23.525  31.271  1.00  0.00     0.029 A 
ATOM     56  C   UNL A   1      44.075  24.852  31.634  1.00  0.00     0.049 A 
ATOM     57  H   UNL A   1      43.361  26.488  30.500  1.00  0.00     0.167 HD
ATOM     58  C   UNL A   1      44.010  26.648  33.340  1.00  0.00     0.074 A 
ATOM     59  C   UNL A   1      44.513  27.268  34.547  1.00  0.00     0.031 C 
ATOM     60  C   UNL A   1      44.477  25.465  32.869  1.00  0.00     0.037 A 
BRANCH  47  61
ATOM     61  C   UNL A   1      42.394  23.721  27.374  1.00  0.00     0.064 A 
ATOM     62  C   UNL A   1      43.267  22.851  26.707  1.00  0.00     0.173 A 
ATOM     63  C   UNL A   1      41.026  23.353  27.384  1.00  0.00     0.173 A 
ATOM     64  F   UNL A   1      44.579  23.120  26.661  1.00  0.00    -0.203 F 
ATOM     65  C   UNL A   1      42.800  21.700  26.061  1.00  0.00     0.198 A 
ATOM     66  C   UNL A   1      40.571  22.173  26.788  1.00  0.00     0.198 A 
ATOM     67  F   UNL A   1      40.121  24.120  28.012  1.00  0.00    -0.203 F 
ATOM     68  F   UNL A   1      43.656  20.921  25.385  1.00  0.00    -0.200 F 
ATOM     69  C   UNL A   1      41.458  21.353  26.116  1.00  0.00     0.200 A 
ATOM     70  F   UNL A   1      39.278  21.828  26.877  1.00  0.00    -0.200 F 
ATOM     71  F   UNL A   1      41.023  20.232  25.523  1.00  0.00    -0.200 F 
ENDBRANCH  47  61
BRANCH  48  72
ATOM     72  C   UNL A   1      42.425  30.856  34.524  1.00  0.00     0.064 A 
ATOM     73  C   UNL A   1      43.451  31.719  34.079  1.00  0.00     0.173 A 
ATOM     74  C   UNL A   1      41.837  31.170  35.759  1.00  0.00     0.173 A 
ATOM     75  F   UNL A   1      44.073  31.484  32.914  1.00  0.00    -0.203 F 
ATOM     76  C   UNL A   1      43.873  32.814  34.841  1.00  0.00     0.198 A 
ATOM     77  C   UNL A   1      42.228  32.290  36.497  1.00  0.00     0.198 A 
ATOM     78  F   UNL A   1      40.858  30.395  36.246  1.00  0.00    -0.203 F 
ATOM     79  F   UNL A   1      44.888  33.580  34.415  1.00  0.00    -0.200 F 
ATOM     80  C   UNL A   1      43.252  33.105  36.044  1.00  0.00     0.200 A 
ATOM     81  F   UNL A   1      41.607  32.578  37.649  1.00  0.00    -0.200 F 
ATOM     82  F   UNL A   1      43.643  34.163  36.770  1.00  0.00    -0.200 F 
ENDBRANCH  48  72
BRANCH  60  83
ATOM     83  C   UNL A   1      45.407  24.681  33.765  1.00  0.00     0.064 A 
ATOM     84  C   UNL A   1      44.892  23.780  34.714  1.00  0.00     0.173 A 
ATOM     85  C   UNL A   1      46.801  24.749  33.625  1.00  0.00     0.173 A 
ATOM     86  F   UNL A   1      43.565  23.656  34.877  1.00  0.00    -0.203 F 
ATOM     87  C   UNL A   1      45.732  23.016  35.519  1.00  0.00     0.198 A 
ATOM     88  C   UNL A   1      47.640  23.959  34.413  1.00  0.00     0.198 A 
ATOM     89  F   UNL A   1      47.353  25.569  32.719  1.00  0.00    -0.203 F 
ATOM     90  F   UNL A   1      45.210  22.202  36.446  1.00  0.00    -0.200 F 
ATOM     91  C   UNL A   1      47.106  23.102  35.364  1.00  0.00     0.200 A 
ATOM     92  F   UNL A   1      48.969  24.024  34.249  1.00  0.00    -0.200 F 
ATOM     93  F   UNL A   1      47.914  22.358  36.132  1.00  0.00    -0.200 F 
ENDBRANCH  60  83
ENDBRANCH  34  35
ENDBRANCH  27  29
ENDBRANCH  26  27
ENDBRANCH  25  26
ENDBRANCH   1  25
TORSDOF 14
ENDMDL
MODEL 2
REMARK VINA RESULT:     -13.4      2.053      3.977
REMARK SMILES O=C(Cc1cncnc1N1CCC2(CC1)OCCC[C@@H]2O)OCCOC(=O)c1ccc(-c2c3nc(c(-c4c(F)c(F)c(F)c(F)c4F)c4ccc([nH]4)c(-c4c(F)c(F)c(F)c(F)c4F)c4nc(c(-c5c(F)c(F)c(F)c(F)c5F)c5ccc2[nH]5)C=C4)C=C3)cc1
REMARK SMILES IDX 23 1 22 2 2 3 1 4 3 5 4 6 5 7 9 8 6 9 8 10 7 11 10 12 11 13
REMARK SMILES IDX 15 14 12 15 14 16 13 17 16 18 20 19 17 20 19 21 18 22 21 23
REMARK SMILES IDX 24 25 25 26 26 27 27 28 28 29 29 30 90 31 30 32 89 33 31 34
REMARK SMILES IDX 32 35 33 36 83 37 34 38 88 39 82 40 84 41 35 42 87 43 81 44
REMARK SMILES IDX 80 45 36 47 68 48 48 49 67 50 49 51 52 52 66 53 85 54 50 55
REMARK SMILES IDX 51 56 65 58 86 59 53 60 37 61 38 62 46 63 39 64 40 65 44 66
REMARK SMILES IDX 47 67 41 68 42 69 45 70 43 71 69 72 70 73 78 74 71 75 72 76
REMARK SMILES IDX 76 77 79 78 73 79 74 80 77 81 75 82 54 83 55 84 63 85 56 86
REMARK SMILES IDX 57 87 61 88 64 89 58 90 59 91 62 92 60 93
REMARK H PARENT 21 24 84 46 52 57
REMARK Flexibility Score: inf
ROOT
ATOM      1  C   UNL A   1      33.293  29.248  25.618  1.00  0.00     0.274 C 
ENDROOT
BRANCH   1   2
ATOM      2  O   UNL A   1      33.697  28.132  26.444  1.00  0.00    -0.462 OA
BRANCH   2   3
ATOM      3  C   UNL A   1      32.899  27.029  26.497  1.00  0.00     0.310 C 
ATOM      4  O   UNL A   1      31.933  26.976  27.251  1.00  0.00    -0.252 OA
BRANCH   3   5
ATOM      5  C   UNL A   1      33.442  25.826  25.776  1.00  0.00     0.163 C 
BRANCH   5   6
ATOM      6  C   UNL A   1      32.561  24.610  25.814  1.00  0.00     0.024 A 
ATOM      7  C   UNL A   1      32.596  23.822  26.962  1.00  0.00     0.121 A 
ATOM      8  C   UNL A   1      31.579  24.309  24.851  1.00  0.00     0.135 A 
ATOM      9  N   UNL A   1      31.740  22.827  27.216  1.00  0.00    -0.244 NA
ATOM     10  N   UNL A   1      30.730  23.281  25.081  1.00  0.00    -0.219 NA
ATOM     11  C   UNL A   1      30.845  22.607  26.247  1.00  0.00     0.224 A 
BRANCH   8  12
ATOM     12  N   UNL A   1      31.141  25.331  24.011  1.00  0.00    -0.356 N 
ATOM     13  C   UNL A   1      29.876  25.789  24.490  1.00  0.00     0.121 C 
ATOM     14  C   UNL A   1      31.208  25.613  22.568  1.00  0.00     0.121 C 
ATOM     15  C   UNL A   1      30.102  27.277  24.480  1.00  0.00     0.060 C 
ATOM     16  C   UNL A   1      31.028  27.216  22.222  1.00  0.00     0.060 C 
ATOM     17  C   UNL A   1      30.049  28.200  23.098  1.00  0.00     0.097 C 
ATOM     18  O   UNL A   1      28.504  28.271  22.376  1.00  0.00    -0.372 OA
ATOM     19  C   UNL A   1      30.712  30.012  23.204  1.00  0.00     0.146 C 
ATOM     20  C   UNL A   1      27.197  29.475  22.644  1.00  0.00     0.161 C 
ATOM     21  C   UNL A   1      29.528  31.512  23.959  1.00  0.00     0.037 C 
ATOM     22  C   UNL A   1      27.567  31.202  23.660  1.00  0.00     0.031 C 
BRANCH  19  23
ATOM     23  O   UNL A   1      31.284  29.921  21.828  1.00  0.00    -0.390 OA
ATOM     24  H   UNL A   1      30.591  30.113  21.177  1.00  0.00     0.211 HD
ENDBRANCH  19  23
ENDBRANCH   8  12
ENDBRANCH   5   6
ENDBRANCH   3   5
ENDBRANCH   2   3
ENDBRANCH   1   2
BRANCH   1  25
ATOM     25  C   UNL A   1      32.765  30.413  26.472  1.00  0.00     0.275 C 
BRANCH  25  26
ATOM     26  O   UNL A   1      33.565  30.551  27.675  1.00  0.00    -0.458 OA
BRANCH  26  27
ATOM     27  C   UNL A   1      34.546  31.505  27.675  1.00  0.00     0.338 C 
ATOM     28  O   UNL A   1      34.385  32.706  27.793  1.00  0.00    -0.246 OA
BRANCH  27  29
ATOM     29  C   UNL A   1      35.832  30.811  27.967  1.00  0.00     0.060 A 
ATOM     30  C   UNL A   1      36.772  31.696  28.376  1.00  0.00     0.016 A 
ATOM     31  C   UNL A   1      36.203  29.448  27.944  1.00  0.00     0.016 A 
ATOM     32  C   UNL A   1      37.971  31.187  28.849  1.00  0.00     0.010 A 
ATOM     33  C   UNL A   1      37.533  28.958  28.368  1.00  0.00     0.010 A 
ATOM     34  C   UNL A   1      38.535  29.824  28.858  1.00  0.00    -0.014 A 
BRANCH  34  35
ATOM     35  C   UNL A   1      40.226  29.311  29.488  1.00  0.00     0.031 A 
ATOM     36  C   UNL A   1      41.719  28.323  28.321  1.00  0.00     0.074 A 
ATOM     37  C   UNL A   1      40.065  29.488  31.006  1.00  0.00     0.049 A 
ATOM     38  N   UNL A   1      42.769  27.424  28.705  1.00  0.00    -0.248 NA
ATOM     39  C   UNL A   1      41.654  27.602  26.739  1.00  0.00     0.031 C 
ATOM     40  C   UNL A   1      40.307  30.838  31.594  1.00  0.00     0.029 A 
ATOM     41  N   UNL A   1      40.499  28.766  32.221  1.00  0.00    -0.354 N 
ATOM     42  C   UNL A   1      42.889  26.232  27.955  1.00  0.00     0.074 A 
ATOM     43  C   UNL A   1      42.361  26.494  26.678  1.00  0.00     0.031 C 
ATOM     44  C   UNL A   1      40.685  30.905  32.872  1.00  0.00     0.029 A 
ATOM     45  C   UNL A   1      41.083  29.569  33.231  1.00  0.00     0.049 A 
ATOM     46  H   UNL A   1      40.390  27.793  32.321  1.00  0.00     0.167 HD
ATOM     47  C   UNL A   1      43.133  24.952  28.385  1.00  0.00     0.037 A 
ATOM     48  C   UNL A   1      42.113  29.403  34.116  1.00  0.00     0.037 A 
ATOM     49  C   UNL A   1      43.647  24.576  29.688  1.00  0.00     0.049 A 
ATOM     50  C   UNL A   1      42.979  28.159  34.113  1.00  0.00     0.074 A 
ATOM     51  C   UNL A   1      44.069  23.316  30.098  1.00  0.00     0.029 A 
ATOM     52  N   UNL A   1      43.777  25.408  30.789  1.00  0.00    -0.354 N 
ATOM     53  N   UNL A   1      43.140  27.248  33.184  1.00  0.00    -0.248 NA
ATOM     54  C   UNL A   1      43.867  27.990  35.280  1.00  0.00     0.031 C 
ATOM     55  C   UNL A   1      44.360  23.364  31.462  1.00  0.00     0.029 A 
ATOM     56  C   UNL A   1      44.228  24.675  31.879  1.00  0.00     0.049 A 
ATOM     57  H   UNL A   1      43.579  26.372  30.797  1.00  0.00     0.167 HD
ATOM     58  C   UNL A   1      44.131  26.394  33.662  1.00  0.00     0.074 A 
ATOM     59  C   UNL A   1      44.602  26.951  34.912  1.00  0.00     0.031 C 
ATOM     60  C   UNL A   1      44.596  25.226  33.154  1.00  0.00     0.037 A 
BRANCH  47  61
ATOM     61  C   UNL A   1      42.678  23.764  27.519  1.00  0.00     0.064 A 
ATOM     62  C   UNL A   1      43.541  23.019  26.704  1.00  0.00     0.173 A 
ATOM     63  C   UNL A   1      41.342  23.302  27.607  1.00  0.00     0.173 A 
ATOM     64  F   UNL A   1      44.825  23.381  26.576  1.00  0.00    -0.203 F 
ATOM     65  C   UNL A   1      43.090  21.899  25.995  1.00  0.00     0.198 A 
ATOM     66  C   UNL A   1      40.910  22.150  26.943  1.00  0.00     0.198 A 
ATOM     67  F   UNL A   1      40.449  23.946  28.376  1.00  0.00    -0.203 F 
ATOM     68  F   UNL A   1      43.930  21.242  25.182  1.00  0.00    -0.200 F 
ATOM     69  C   UNL A   1      41.783  21.456  26.127  1.00  0.00     0.200 A 
ATOM     70  F   UNL A   1      39.653  21.709  27.106  1.00  0.00    -0.200 F 
ATOM     71  F   UNL A   1      41.368  20.363  25.471  1.00  0.00    -0.200 F 
ENDBRANCH  47  61
BRANCH  48  72
ATOM     72  C   UNL A   1      42.571  30.571  34.980  1.00  0.00     0.064 A 
ATOM     73  C   UNL A   1      43.684  31.378  34.656  1.00  0.00     0.173 A 
ATOM     74  C   UNL A   1      41.885  30.899  36.160  1.00  0.00     0.173 A 
ATOM     75  F   UNL A   1      44.402  31.126  33.551  1.00  0.00    -0.203 F 
ATOM     76  C   UNL A   1      44.094  32.432  35.481  1.00  0.00     0.198 A 
ATOM     77  C   UNL A   1      42.268  31.980  36.958  1.00  0.00     0.198 A 
ATOM     78  F   UNL A   1      40.819  30.176  36.533  1.00  0.00    -0.203 F 
ATOM     79  F   UNL A   1      45.188  33.142  35.173  1.00  0.00    -0.200 F 
ATOM     80  C   UNL A   1      43.377  32.740  36.625  1.00  0.00     0.200 A 
ATOM     81  F   UNL A   1      41.555  32.284  38.052  1.00  0.00    -0.200 F 
ATOM     82  F   UNL A   1      43.757  33.759  37.410  1.00  0.00    -0.200 F 
ENDBRANCH  48  72
BRANCH  60  83
ATOM     83  C   UNL A   1      45.483  24.387  34.045  1.00  0.00     0.064 A 
ATOM     84  C   UNL A   1      46.882  24.454  33.925  1.00  0.00     0.173 A 
ATOM     85  C   UNL A   1      44.957  23.591  35.074  1.00  0.00     0.173 A 
ATOM     86  F   UNL A   1      47.442  25.218  32.972  1.00  0.00    -0.203 F 
ATOM     87  C   UNL A   1      47.718  23.723  34.764  1.00  0.00     0.198 A 
ATOM     88  C   UNL A   1      45.800  22.884  35.933  1.00  0.00     0.198 A 
ATOM     89  F   UNL A   1      43.632  23.508  35.258  1.00  0.00    -0.203 F 
ATOM     90  F   UNL A   1      49.046  23.773  34.592  1.00  0.00    -0.200 F 
ATOM     91  C   UNL A   1      47.177  22.942  35.771  1.00  0.00     0.200 A 
ATOM     92  F   UNL A   1      45.278  22.145  36.923  1.00  0.00    -0.200 F 
ATOM     93  F   UNL A   1      47.982  22.247  36.585  1.00  0.00    -0.200 F 
ENDBRANCH  60  83
ENDBRANCH  34  35
ENDBRANCH  27  29
ENDBRANCH  26  27
ENDBRANCH  25  26
ENDBRANCH   1  25
TORSDOF 14
ENDMDL
MODEL 3
REMARK VINA RESULT:     -13.3      4.735      9.900
REMARK SMILES O=C(Cc1cncnc1N1CCC2(CC1)OCCC[C@@H]2O)OCCOC(=O)c1ccc(-c2c3nc(c(-c4c(F)c(F)c(F)c(F)c4F)c4ccc([nH]4)c(-c4c(F)c(F)c(F)c(F)c4F)c4nc(c(-c5c(F)c(F)c(F)c(F)c5F)c5ccc2[nH]5)C=C4)C=C3)cc1
REMARK SMILES IDX 23 1 22 2 2 3 1 4 3 5 4 6 5 7 9 8 6 9 8 10 7 11 10 12 11 13
REMARK SMILES IDX 15 14 12 15 14 16 13 17 16 18 20 19 17 20 19 21 18 22 21 23
REMARK SMILES IDX 24 25 25 26 26 27 27 28 28 29 29 30 90 31 30 32 89 33 31 34
REMARK SMILES IDX 32 35 33 36 83 37 34 38 88 39 82 40 84 41 35 42 87 43 81 44
REMARK SMILES IDX 80 45 36 47 68 48 48 49 67 50 49 51 52 52 66 53 85 54 50 55
REMARK SMILES IDX 51 56 65 58 86 59 53 60 37 61 38 62 46 63 39 64 40 65 44 66
REMARK SMILES IDX 47 67 41 68 42 69 45 70 43 71 69 72 70 73 78 74 71 75 72 76
REMARK SMILES IDX 76 77 79 78 73 79 74 80 77 81 75 82 54 83 55 84 63 85 56 86
REMARK SMILES IDX 57 87 61 88 64 89 58 90 59 91 62 92 60 93
REMARK H PARENT 21 24 84 46 52 57
REMARK Flexibility Score: inf
ROOT
ATOM      1  C   UNL A   1      35.692  21.917  24.456  1.00  0.00     0.274 C 
ENDROOT
BRANCH   1   2
ATOM      2  O   UNL A   1      35.815  23.358  24.448  1.00  0.00    -0.462 OA
BRANCH   2   3
ATOM      3  C   UNL A   1      34.789  24.105  23.952  1.00  0.00     0.310 C 
ATOM      4  O   UNL A   1      34.665  24.299  22.748  1.00  0.00    -0.252 OA
BRANCH   3   5
ATOM      5  C   UNL A   1      34.007  24.863  24.989  1.00  0.00     0.163 C 
BRANCH   5   6
ATOM      6  C   UNL A   1      32.888  24.095  25.630  1.00  0.00     0.024 A 
ATOM      7  C   UNL A   1      33.142  23.483  26.856  1.00  0.00     0.121 A 
ATOM      8  C   UNL A   1      31.556  24.096  25.172  1.00  0.00     0.135 A 
ATOM      9  N   UNL A   1      32.203  22.931  27.629  1.00  0.00    -0.244 NA
ATOM     10  N   UNL A   1      30.602  23.508  25.929  1.00  0.00    -0.219 NA
ATOM     11  C   UNL A   1      30.969  22.972  27.115  1.00  0.00     0.224 A 
BRANCH   8  12
ATOM     12  N   UNL A   1      31.157  25.112  24.305  1.00  0.00    -0.356 N 
ATOM     13  C   UNL A   1      29.881  25.588  24.736  1.00  0.00     0.121 C 
ATOM     14  C   UNL A   1      31.274  25.374  22.862  1.00  0.00     0.121 C 
ATOM     15  C   UNL A   1      30.122  27.074  24.715  1.00  0.00     0.060 C 
ATOM     16  C   UNL A   1      31.121  26.974  22.489  1.00  0.00     0.060 C 
ATOM     17  C   UNL A   1      30.123  27.978  23.320  1.00  0.00     0.097 C 
ATOM     18  O   UNL A   1      28.604  28.054  22.547  1.00  0.00    -0.372 OA
ATOM     19  C   UNL A   1      30.801  29.786  23.425  1.00  0.00     0.146 C 
ATOM     20  C   UNL A   1      27.300  29.274  22.756  1.00  0.00     0.161 C 
ATOM     21  C   UNL A   1      29.607  31.306  24.121  1.00  0.00     0.037 C 
ATOM     22  C   UNL A   1      27.654  31.011  23.762  1.00  0.00     0.031 C 
BRANCH  19  23
ATOM     23  O   UNL A   1      31.416  29.671  22.070  1.00  0.00    -0.390 OA
ATOM     24  H   UNL A   1      31.373  30.531  21.621  1.00  0.00     0.211 HD
ENDBRANCH  19  23
ENDBRANCH   8  12
ENDBRANCH   5   6
ENDBRANCH   3   5
ENDBRANCH   2   3
ENDBRANCH   1   2
BRANCH   1  25
ATOM     25  C   UNL A   1      36.891  21.258  25.160  1.00  0.00     0.275 C 
BRANCH  25  26
ATOM     26  O   UNL A   1      38.024  22.164  25.166  1.00  0.00    -0.458 OA
BRANCH  26  27
ATOM     27  C   UNL A   1      38.986  21.967  26.119  1.00  0.00     0.338 C 
ATOM     28  O   UNL A   1      39.765  21.033  26.176  1.00  0.00    -0.246 OA
BRANCH  27  29
ATOM     29  C   UNL A   1      39.219  23.279  26.784  1.00  0.00     0.060 A 
ATOM     30  C   UNL A   1      40.322  23.229  27.568  1.00  0.00     0.016 A 
ATOM     31  C   UNL A   1      38.550  24.521  26.697  1.00  0.00     0.016 A 
ATOM     32  C   UNL A   1      40.771  24.419  28.121  1.00  0.00     0.010 A 
ATOM     33  C   UNL A   1      39.014  25.746  27.386  1.00  0.00     0.010 A 
ATOM     34  C   UNL A   1      40.188  25.772  28.171  1.00  0.00    -0.014 A 
BRANCH  34  35
ATOM     35  C   UNL A   1      40.908  27.277  29.030  1.00  0.00     0.031 A 
ATOM     36  C   UNL A   1      39.893  28.449  30.501  1.00  0.00     0.074 A 
ATOM     37  C   UNL A   1      42.156  27.559  28.179  1.00  0.00     0.049 A 
ATOM     38  N   UNL A   1      40.024  29.834  30.852  1.00  0.00    -0.248 NA
ATOM     39  C   UNL A   1      38.236  28.450  31.031  1.00  0.00     0.031 C 
ATOM     40  C   UNL A   1      43.416  26.828  28.502  1.00  0.00     0.029 A 
ATOM     41  N   UNL A   1      42.857  28.758  27.670  1.00  0.00    -0.354 N 
ATOM     42  C   UNL A   1      38.826  30.577  30.951  1.00  0.00     0.074 A 
ATOM     43  C   UNL A   1      37.801  29.668  31.271  1.00  0.00     0.031 C 
ATOM     44  C   UNL A   1      44.574  27.403  28.168  1.00  0.00     0.029 A 
ATOM     45  C   UNL A   1      44.258  28.776  27.874  1.00  0.00     0.049 A 
ATOM     46  H   UNL A   1      42.382  29.492  27.220  1.00  0.00     0.167 HD
ATOM     47  C   UNL A   1      38.551  31.849  30.516  1.00  0.00     0.037 A 
ATOM     48  C   UNL A   1      45.172  29.744  28.186  1.00  0.00     0.037 A 
ATOM     49  C   UNL A   1      39.531  32.849  30.136  1.00  0.00     0.049 A 
ATOM     50  C   UNL A   1      44.757  31.172  28.479  1.00  0.00     0.074 A 
ATOM     51  C   UNL A   1      39.303  34.192  29.858  1.00  0.00     0.029 A 
ATOM     52  N   UNL A   1      40.886  32.634  29.940  1.00  0.00    -0.354 N 
ATOM     53  N   UNL A   1      43.581  31.659  28.792  1.00  0.00    -0.248 NA
ATOM     54  C   UNL A   1      45.850  32.163  28.533  1.00  0.00     0.031 C 
ATOM     55  C   UNL A   1      40.493  34.763  29.405  1.00  0.00     0.029 A 
ATOM     56  C   UNL A   1      41.488  33.808  29.505  1.00  0.00     0.049 A 
ATOM     57  H   UNL A   1      41.352  31.780  30.087  1.00  0.00     0.167 HD
ATOM     58  C   UNL A   1      43.792  33.009  29.063  1.00  0.00     0.074 A 
ATOM     59  C   UNL A   1      45.218  33.240  28.975  1.00  0.00     0.031 C 
ATOM     60  C   UNL A   1      42.900  33.998  29.320  1.00  0.00     0.037 A 
BRANCH  47  61
ATOM     61  C   UNL A   1      37.095  32.247  30.218  1.00  0.00     0.064 A 
ATOM     62  C   UNL A   1      36.297  32.995  31.094  1.00  0.00     0.173 A 
ATOM     63  C   UNL A   1      36.531  31.952  28.952  1.00  0.00     0.173 A 
ATOM     64  F   UNL A   1      36.759  33.327  32.307  1.00  0.00    -0.203 F 
ATOM     65  C   UNL A   1      35.003  33.396  30.742  1.00  0.00     0.198 A 
ATOM     66  C   UNL A   1      35.261  32.404  28.582  1.00  0.00     0.198 A 
ATOM     67  F   UNL A   1      37.230  31.253  28.043  1.00  0.00    -0.203 F 
ATOM     68  F   UNL A   1      34.247  34.062  31.627  1.00  0.00    -0.200 F 
ATOM     69  C   UNL A   1      34.492  33.116  29.483  1.00  0.00     0.200 A 
ATOM     70  F   UNL A   1      34.790  32.159  27.349  1.00  0.00    -0.200 F 
ATOM     71  F   UNL A   1      33.265  33.533  29.141  1.00  0.00    -0.200 F 
ENDBRANCH  47  61
BRANCH  48  72
ATOM     72  C   UNL A   1      46.617  29.363  28.481  1.00  0.00     0.064 A 
ATOM     73  C   UNL A   1      47.107  29.158  29.790  1.00  0.00     0.173 A 
ATOM     74  C   UNL A   1      47.539  29.194  27.436  1.00  0.00     0.173 A 
ATOM     75  F   UNL A   1      46.295  29.310  30.847  1.00  0.00    -0.203 F 
ATOM     76  C   UNL A   1      48.446  28.828  30.032  1.00  0.00     0.198 A 
ATOM     77  C   UNL A   1      48.864  28.819  27.676  1.00  0.00     0.198 A 
ATOM     78  F   UNL A   1      47.146  29.373  26.167  1.00  0.00    -0.203 F 
ATOM     79  F   UNL A   1      48.891  28.696  31.289  1.00  0.00    -0.200 F 
ATOM     80  C   UNL A   1      49.319  28.647  28.973  1.00  0.00     0.200 A 
ATOM     81  F   UNL A   1      49.697  28.624  26.645  1.00  0.00    -0.200 F 
ATOM     82  F   UNL A   1      50.599  28.315  29.199  1.00  0.00    -0.200 F 
ENDBRANCH  48  72
BRANCH  60  83
ATOM     83  C   UNL A   1      43.415  35.418  29.300  1.00  0.00     0.064 A 
ATOM     84  C   UNL A   1      43.529  36.119  28.086  1.00  0.00     0.173 A 
ATOM     85  C   UNL A   1      43.706  36.116  30.482  1.00  0.00     0.173 A 
ATOM     86  F   UNL A   1      43.242  35.508  26.925  1.00  0.00    -0.203 F 
ATOM     87  C   UNL A   1      43.960  37.442  28.050  1.00  0.00     0.198 A 
ATOM     88  C   UNL A   1      44.108  37.452  30.444  1.00  0.00     0.198 A 
ATOM     89  F   UNL A   1      43.589  35.512  31.673  1.00  0.00    -0.203 F 
ATOM     90  F   UNL A   1      44.104  38.066  26.873  1.00  0.00    -0.200 F 
ATOM     91  C   UNL A   1      44.244  38.110  29.230  1.00  0.00     0.200 A 
ATOM     92  F   UNL A   1      44.362  38.107  31.586  1.00  0.00    -0.200 F 
ATOM     93  F   UNL A   1      44.648  39.386  29.195  1.00  0.00    -0.200 F 
ENDBRANCH  60  83
ENDBRANCH  34  35
ENDBRANCH  27  29
ENDBRANCH  26  27
ENDBRANCH  25  26
ENDBRANCH   1  25
TORSDOF 14
ENDMDL
