MODEL 1
REMARK VINA RESULT:     -10.4      0.000      0.000
REMARK SMILES Cc1c(C[NH2+]CC(=O)OCCOC(=O)c2ccc(-c3c4nc(c(-c5c(F)c(F)c(F)c(F)c5F)c5ccc([nH]5)c(-c5c(F)c(F)c(F)c(F)c5F)c5nc(c(-c6c(F)c(F)c(F)c(F)c6F)c6ccc3[nH]6)C=C5)C=C4)cc2)cnn1C
REMARK SMILES IDX 10 1 9 2 7 3 8 4 6 5 5 6 4 9 3 10 1 11 2 12 80 13 78 14
REMARK SMILES IDX 79 15 81 16 11 17 12 18 13 19 14 20 15 21 16 22 77 23 17 24
REMARK SMILES IDX 76 25 18 26 19 27 20 28 70 29 21 30 75 31 69 32 71 33 22 34
REMARK SMILES IDX 74 35 68 36 67 37 23 39 55 40 35 41 54 42 36 43 39 44 53 45
REMARK SMILES IDX 72 46 37 47 38 48 52 50 73 51 40 52 24 53 25 54 33 55 26 56
REMARK SMILES IDX 27 57 31 58 34 59 28 60 29 61 32 62 30 63 56 64 57 65 65 66
REMARK SMILES IDX 58 67 59 68 63 69 66 70 60 71 61 72 64 73 62 74 41 75 42 76
REMARK SMILES IDX 50 77 43 78 44 79 48 80 51 81 45 82 46 83 49 84 47 85
REMARK H PARENT 5 7 5 8 71 38 39 49
REMARK Flexibility Score: inf
ROOT
ATOM      1  C   UNL A   1      45.413  20.779  24.765  1.00  0.00     0.274 C 
ENDROOT
BRANCH   1   2
ATOM      2  O   UNL A   1      44.066  20.301  24.598  1.00  0.00    -0.458 OA
BRANCH   2   3
ATOM      3  C   UNL A   1      43.729  19.157  25.247  1.00  0.00     0.361 C 
ATOM      4  O   UNL A   1      44.438  18.158  25.311  1.00  0.00    -0.245 OA
BRANCH   3   5
ATOM      5  C   UNL A   1      42.345  19.235  25.891  1.00  0.00     0.385 C 
BRANCH   5   6
ATOM      6  N   UNL A   1      41.694  20.556  25.806  1.00  0.00    -0.333 N 
ATOM      7  H   UNL A   1      42.412  21.279  25.840  1.00  0.00     0.347 HD
ATOM      8  H   UNL A   1      41.172  20.589  24.931  1.00  0.00     0.347 HD
BRANCH   6   9
ATOM      9  C   UNL A   1      40.751  20.779  26.896  1.00  0.00     0.301 C 
BRANCH   9  10
ATOM     10  C   UNL A   1      39.589  21.563  26.393  1.00  0.00     0.047 A 
ATOM     11  C   UNL A   1      38.276  19.827  24.968  1.00  0.00     0.067 C 
ATOM     12  C   UNL A   1      38.570  21.166  25.539  1.00  0.00     0.044 A 
ATOM     13  N   UNL A   1      37.834  22.296  25.287  1.00  0.00    -0.272 N 
ATOM     14  C   UNL A   1      39.313  22.925  26.649  1.00  0.00     0.145 A 
ATOM     15  N   UNL A   1      38.255  23.374  25.974  1.00  0.00    -0.181 NA
ATOM     16  C   UNL A   1      36.746  22.444  24.349  1.00  0.00     0.174 C 
ENDBRANCH   9  10
ENDBRANCH   6   9
ENDBRANCH   5   6
ENDBRANCH   3   5
ENDBRANCH   2   3
ENDBRANCH   1   2
BRANCH   1  17
ATOM     17  C   UNL A   1      45.455  21.932  25.772  1.00  0.00     0.275 C 
BRANCH  17  18
ATOM     18  O   UNL A   1      44.131  22.376  26.127  1.00  0.00    -0.458 OA
BRANCH  18  19
ATOM     19  C   UNL A   1      43.694  23.488  25.491  1.00  0.00     0.338 C 
ATOM     20  O   UNL A   1      43.509  23.633  24.296  1.00  0.00    -0.246 OA
BRANCH  19  21
ATOM     21  C   UNL A   1      43.297  24.491  26.494  1.00  0.00     0.060 A 
ATOM     22  C   UNL A   1      42.396  24.106  27.492  1.00  0.00     0.016 A 
ATOM     23  C   UNL A   1      43.792  25.795  26.446  1.00  0.00     0.016 A 
ATOM     24  C   UNL A   1      42.002  25.022  28.465  1.00  0.00     0.010 A 
ATOM     25  C   UNL A   1      43.393  26.713  27.422  1.00  0.00     0.010 A 
ATOM     26  C   UNL A   1      42.503  26.329  28.441  1.00  0.00    -0.014 A 
BRANCH  26  27
ATOM     27  C   UNL A   1      42.112  27.299  29.490  1.00  0.00     0.031 A 
ATOM     28  C   UNL A   1      42.871  27.356  30.782  1.00  0.00     0.074 A 
ATOM     29  C   UNL A   1      41.057  28.108  29.283  1.00  0.00     0.049 A 
ATOM     30  N   UNL A   1      42.613  28.048  31.863  1.00  0.00    -0.248 NA
ATOM     31  C   UNL A   1      44.080  26.523  30.874  1.00  0.00     0.031 C 
ATOM     32  C   UNL A   1      40.268  28.165  28.051  1.00  0.00     0.029 A 
ATOM     33  N   UNL A   1      40.455  29.024  30.108  1.00  0.00    -0.354 N 
ATOM     34  C   UNL A   1      43.611  27.718  32.769  1.00  0.00     0.074 A 
ATOM     35  C   UNL A   1      44.476  26.759  32.118  1.00  0.00     0.031 C 
ATOM     36  C   UNL A   1      39.281  29.061  28.205  1.00  0.00     0.029 A 
ATOM     37  C   UNL A   1      39.334  29.600  29.561  1.00  0.00     0.049 A 
ATOM     38  H   UNL A   1      40.793  29.247  31.005  1.00  0.00     0.167 HD
ATOM     39  C   UNL A   1      43.780  28.179  34.031  1.00  0.00     0.037 A 
ATOM     40  C   UNL A   1      38.431  30.436  30.108  1.00  0.00     0.037 A 
ATOM     41  C   UNL A   1      42.927  29.153  34.660  1.00  0.00     0.049 A 
ATOM     42  C   UNL A   1      38.604  30.866  31.541  1.00  0.00     0.074 A 
ATOM     43  C   UNL A   1      43.059  29.734  35.910  1.00  0.00     0.029 A 
ATOM     44  N   UNL A   1      41.778  29.681  34.092  1.00  0.00    -0.354 N 
ATOM     45  N   UNL A   1      39.571  30.584  32.378  1.00  0.00    -0.248 NA
ATOM     46  C   UNL A   1      37.551  31.719  32.109  1.00  0.00     0.031 C 
ATOM     47  C   UNL A   1      41.958  30.571  36.120  1.00  0.00     0.029 A 
ATOM     48  C   UNL A   1      41.165  30.547  34.984  1.00  0.00     0.049 A 
ATOM     49  H   UNL A   1      41.447  29.472  33.188  1.00  0.00     0.167 HD
ATOM     50  C   UNL A   1      39.255  31.237  33.561  1.00  0.00     0.074 A 
ATOM     51  C   UNL A   1      38.014  31.945  33.330  1.00  0.00     0.031 C 
ATOM     52  C   UNL A   1      39.931  31.246  34.735  1.00  0.00     0.037 A 
BRANCH  39  53
ATOM     53  C   UNL A   1      44.912  27.620  34.838  1.00  0.00     0.064 A 
ATOM     54  C   UNL A   1      46.166  28.244  34.885  1.00  0.00     0.173 A 
ATOM     55  C   UNL A   1      44.711  26.484  35.638  1.00  0.00     0.173 A 
ATOM     56  F   UNL A   1      46.411  29.328  34.134  1.00  0.00    -0.203 F 
ATOM     57  C   UNL A   1      47.182  27.744  35.697  1.00  0.00     0.198 A 
ATOM     58  C   UNL A   1      45.722  26.001  36.465  1.00  0.00     0.198 A 
ATOM     59  F   UNL A   1      43.526  25.854  35.632  1.00  0.00    -0.203 F 
ATOM     60  F   UNL A   1      48.382  28.342  35.711  1.00  0.00    -0.200 F 
ATOM     61  C   UNL A   1      46.957  26.630  36.492  1.00  0.00     0.200 A 
ATOM     62  F   UNL A   1      45.496  24.931  37.241  1.00  0.00    -0.200 F 
ATOM     63  F   UNL A   1      47.930  26.161  37.285  1.00  0.00    -0.200 F 
ENDBRANCH  39  53
BRANCH  40  64
ATOM     64  C   UNL A   1      37.256  30.891  29.318  1.00  0.00     0.064 A 
ATOM     65  C   UNL A   1      36.197  30.020  29.032  1.00  0.00     0.173 A 
ATOM     66  C   UNL A   1      37.185  32.195  28.805  1.00  0.00     0.173 A 
ATOM     67  F   UNL A   1      36.233  28.754  29.475  1.00  0.00    -0.203 F 
ATOM     68  C   UNL A   1      35.122  30.428  28.246  1.00  0.00     0.198 A 
ATOM     69  C   UNL A   1      36.095  32.612  28.045  1.00  0.00     0.198 A 
ATOM     70  F   UNL A   1      38.175  33.067  29.044  1.00  0.00    -0.203 F 
ATOM     71  F   UNL A   1      34.149  29.559  27.941  1.00  0.00    -0.200 F 
ATOM     72  C   UNL A   1      35.068  31.725  27.757  1.00  0.00     0.200 A 
ATOM     73  F   UNL A   1      36.044  33.868  27.583  1.00  0.00    -0.200 F 
ATOM     74  F   UNL A   1      34.036  32.116  26.998  1.00  0.00    -0.200 F 
ENDBRANCH  40  64
BRANCH  52  75
ATOM     75  C   UNL A   1      39.355  32.061  35.855  1.00  0.00     0.064 A 
ATOM     76  C   UNL A   1      38.448  31.506  36.769  1.00  0.00     0.173 A 
ATOM     77  C   UNL A   1      39.756  33.391  36.047  1.00  0.00     0.173 A 
ATOM     78  F   UNL A   1      38.021  30.244  36.615  1.00  0.00    -0.203 F 
ATOM     79  C   UNL A   1      37.950  32.261  37.828  1.00  0.00     0.198 A 
ATOM     80  C   UNL A   1      39.277  34.133  37.123  1.00  0.00     0.198 A 
ATOM     81  F   UNL A   1      40.626  33.965  35.203  1.00  0.00    -0.203 F 
ATOM     82  F   UNL A   1      37.055  31.724  38.668  1.00  0.00    -0.200 F 
ATOM     83  C   UNL A   1      38.372  33.570  38.010  1.00  0.00     0.200 A 
ATOM     84  F   UNL A   1      39.696  35.394  37.305  1.00  0.00    -0.200 F 
ATOM     85  F   UNL A   1      37.902  34.290  39.038  1.00  0.00    -0.200 F 
ENDBRANCH  52  75
ENDBRANCH  26  27
ENDBRANCH  19  21
ENDBRANCH  18  19
ENDBRANCH  17  18
ENDBRANCH   1  17
TORSDOF 14
ENDMDL
MODEL 2
REMARK VINA RESULT:     -10.1      5.195     11.248
REMARK SMILES Cc1c(C[NH2+]CC(=O)OCCOC(=O)c2ccc(-c3c4nc(c(-c5c(F)c(F)c(F)c(F)c5F)c5ccc([nH]5)c(-c5c(F)c(F)c(F)c(F)c5F)c5nc(c(-c6c(F)c(F)c(F)c(F)c6F)c6ccc3[nH]6)C=C5)C=C4)cc2)cnn1C
REMARK SMILES IDX 10 1 9 2 7 3 8 4 6 5 5 6 4 9 3 10 1 11 2 12 80 13 78 14
REMARK SMILES IDX 79 15 81 16 11 17 12 18 13 19 14 20 15 21 16 22 77 23 17 24
REMARK SMILES IDX 76 25 18 26 19 27 20 28 70 29 21 30 75 31 69 32 71 33 22 34
REMARK SMILES IDX 74 35 68 36 67 37 23 39 55 40 35 41 54 42 36 43 39 44 53 45
REMARK SMILES IDX 72 46 37 47 38 48 52 50 73 51 40 52 24 53 25 54 33 55 26 56
REMARK SMILES IDX 27 57 31 58 34 59 28 60 29 61 32 62 30 63 56 64 57 65 65 66
REMARK SMILES IDX 58 67 59 68 63 69 66 70 60 71 61 72 64 73 62 74 41 75 42 76
REMARK SMILES IDX 50 77 43 78 44 79 48 80 51 81 45 82 46 83 49 84 47 85
REMARK H PARENT 5 7 5 8 71 38 39 49
REMARK Flexibility Score: inf
ROOT
ATOM      1  C   UNL A   1      33.850  34.082  28.362  1.00  0.00     0.274 C 
ENDROOT
BRANCH   1   2
ATOM      2  O   UNL A   1      33.303  34.467  29.636  1.00  0.00    -0.458 OA
BRANCH   2   3
ATOM      3  C   UNL A   1      32.904  35.758  29.774  1.00  0.00     0.361 C 
ATOM      4  O   UNL A   1      32.384  36.425  28.886  1.00  0.00    -0.245 OA
BRANCH   3   5
ATOM      5  C   UNL A   1      33.186  36.311  31.171  1.00  0.00     0.385 C 
BRANCH   5   6
ATOM      6  N   UNL A   1      34.307  35.665  31.880  1.00  0.00    -0.333 N 
ATOM      7  H   UNL A   1      34.884  35.171  31.200  1.00  0.00     0.347 HD
ATOM      8  H   UNL A   1      34.834  36.395  32.358  1.00  0.00     0.347 HD
BRANCH   6   9
ATOM      9  C   UNL A   1      33.849  34.714  32.887  1.00  0.00     0.301 C 
BRANCH   9  10
ATOM     10  C   UNL A   1      35.003  33.900  33.359  1.00  0.00     0.047 A 
ATOM     11  C   UNL A   1      35.516  32.360  31.325  1.00  0.00     0.067 C 
ATOM     12  C   UNL A   1      35.674  32.873  32.710  1.00  0.00     0.044 A 
ATOM     13  N   UNL A   1      36.563  32.372  33.626  1.00  0.00    -0.272 N 
ATOM     14  C   UNL A   1      35.631  33.977  34.623  1.00  0.00     0.145 A 
ATOM     15  N   UNL A   1      36.571  33.046  34.791  1.00  0.00    -0.181 NA
ATOM     16  C   UNL A   1      37.401  31.203  33.489  1.00  0.00     0.174 C 
ENDBRANCH   9  10
ENDBRANCH   6   9
ENDBRANCH   5   6
ENDBRANCH   3   5
ENDBRANCH   2   3
ENDBRANCH   1   2
BRANCH   1  17
ATOM     17  C   UNL A   1      33.545  32.610  28.067  1.00  0.00     0.275 C 
BRANCH  17  18
ATOM     18  O   UNL A   1      34.699  31.920  27.551  1.00  0.00    -0.458 OA
BRANCH  18  19
ATOM     19  C   UNL A   1      34.673  30.570  27.654  1.00  0.00     0.338 C 
ATOM     20  O   UNL A   1      33.777  29.820  27.309  1.00  0.00    -0.246 OA
BRANCH  19  21
ATOM     21  C   UNL A   1      35.991  30.096  28.106  1.00  0.00     0.060 A 
ATOM     22  C   UNL A   1      37.086  30.277  27.253  1.00  0.00     0.016 A 
ATOM     23  C   UNL A   1      36.148  29.468  29.342  1.00  0.00     0.016 A 
ATOM     24  C   UNL A   1      38.352  29.851  27.647  1.00  0.00     0.010 A 
ATOM     25  C   UNL A   1      37.419  29.039  29.734  1.00  0.00     0.010 A 
ATOM     26  C   UNL A   1      38.529  29.235  28.892  1.00  0.00    -0.014 A 
BRANCH  26  27
ATOM     27  C   UNL A   1      39.878  28.807  29.329  1.00  0.00     0.031 A 
ATOM     28  C   UNL A   1      40.714  29.712  30.184  1.00  0.00     0.074 A 
ATOM     29  C   UNL A   1      40.354  27.612  28.932  1.00  0.00     0.049 A 
ATOM     30  N   UNL A   1      41.957  29.570  30.569  1.00  0.00    -0.248 NA
ATOM     31  C   UNL A   1      40.070  30.942  30.668  1.00  0.00     0.031 C 
ATOM     32  C   UNL A   1      39.615  26.636  28.131  1.00  0.00     0.029 A 
ATOM     33  N   UNL A   1      41.577  27.024  29.133  1.00  0.00    -0.354 N 
ATOM     34  C   UNL A   1      42.251  30.699  31.320  1.00  0.00     0.074 A 
ATOM     35  C   UNL A   1      41.061  31.522  31.333  1.00  0.00     0.031 C 
ATOM     36  C   UNL A   1      40.403  25.574  27.900  1.00  0.00     0.029 A 
ATOM     37  C   UNL A   1      41.716  25.819  28.489  1.00  0.00     0.049 A 
ATOM     38  H   UNL A   1      42.286  27.426  29.683  1.00  0.00     0.167 HD
ATOM     39  C   UNL A   1      43.414  31.013  31.939  1.00  0.00     0.037 A 
ATOM     40  C   UNL A   1      42.795  25.023  28.356  1.00  0.00     0.037 A 
ATOM     41  C   UNL A   1      44.583  30.174  31.941  1.00  0.00     0.049 A 
ATOM     42  C   UNL A   1      44.096  25.441  28.990  1.00  0.00     0.074 A 
ATOM     43  C   UNL A   1      45.785  30.374  32.599  1.00  0.00     0.029 A 
ATOM     44  N   UNL A   1      44.702  28.982  31.243  1.00  0.00    -0.354 N 
ATOM     45  N   UNL A   1      44.356  26.488  29.733  1.00  0.00    -0.248 NA
ATOM     46  C   UNL A   1      45.258  24.573  28.751  1.00  0.00     0.031 C 
ATOM     47  C   UNL A   1      46.651  29.331  32.253  1.00  0.00     0.029 A 
ATOM     48  C   UNL A   1      45.972  28.458  31.417  1.00  0.00     0.049 A 
ATOM     49  H   UNL A   1      43.988  28.569  30.705  1.00  0.00     0.167 HD
ATOM     50  C   UNL A   1      45.699  26.397  30.066  1.00  0.00     0.074 A 
ATOM     51  C   UNL A   1      46.199  25.182  29.458  1.00  0.00     0.031 C 
ATOM     52  C   UNL A   1      46.452  27.245  30.807  1.00  0.00     0.037 A 
BRANCH  39  53
ATOM     53  C   UNL A   1      43.500  32.332  32.646  1.00  0.00     0.064 A 
ATOM     54  C   UNL A   1      43.902  33.500  31.985  1.00  0.00     0.173 A 
ATOM     55  C   UNL A   1      43.098  32.438  33.986  1.00  0.00     0.173 A 
ATOM     56  F   UNL A   1      44.304  33.450  30.706  1.00  0.00    -0.203 F 
ATOM     57  C   UNL A   1      43.909  34.727  32.645  1.00  0.00     0.198 A 
ATOM     58  C   UNL A   1      43.083  33.670  34.635  1.00  0.00     0.198 A 
ATOM     59  F   UNL A   1      42.698  31.349  34.661  1.00  0.00    -0.203 F 
ATOM     60  F   UNL A   1      44.319  35.830  32.001  1.00  0.00    -0.200 F 
ATOM     61  C   UNL A   1      43.491  34.813  33.965  1.00  0.00     0.200 A 
ATOM     62  F   UNL A   1      42.667  33.751  35.907  1.00  0.00    -0.200 F 
ATOM     63  F   UNL A   1      43.481  35.997  34.592  1.00  0.00    -0.200 F 
ENDBRANCH  39  53
BRANCH  40  64
ATOM     64  C   UNL A   1      42.710  23.772  27.557  1.00  0.00     0.064 A 
ATOM     65  C   UNL A   1      42.289  22.570  28.141  1.00  0.00     0.173 A 
ATOM     66  C   UNL A   1      43.080  23.746  26.203  1.00  0.00     0.173 A 
ATOM     67  F   UNL A   1      41.953  22.537  29.439  1.00  0.00    -0.203 F 
ATOM     68  C   UNL A   1      42.261  21.385  27.408  1.00  0.00     0.198 A 
ATOM     69  C   UNL A   1      43.023  22.567  25.464  1.00  0.00     0.198 A 
ATOM     70  F   UNL A   1      43.497  24.868  25.599  1.00  0.00    -0.203 F 
ATOM     71  F   UNL A   1      41.907  20.239  28.004  1.00  0.00    -0.200 F 
ATOM     72  C   UNL A   1      42.623  21.386  26.069  1.00  0.00     0.200 A 
ATOM     73  F   UNL A   1      43.365  22.574  24.169  1.00  0.00    -0.200 F 
ATOM     74  F   UNL A   1      42.600  20.245  25.365  1.00  0.00    -0.200 F 
ENDBRANCH  40  64
BRANCH  52  75
ATOM     75  C   UNL A   1      47.892  26.881  31.018  1.00  0.00     0.064 A 
ATOM     76  C   UNL A   1      48.905  27.411  30.207  1.00  0.00     0.173 A 
ATOM     77  C   UNL A   1      48.267  26.039  32.076  1.00  0.00     0.173 A 
ATOM     78  F   UNL A   1      48.595  28.206  29.171  1.00  0.00    -0.203 F 
ATOM     79  C   UNL A   1      50.242  27.098  30.437  1.00  0.00     0.198 A 
ATOM     80  C   UNL A   1      49.606  25.751  32.321  1.00  0.00     0.198 A 
ATOM     81  F   UNL A   1      47.335  25.513  32.884  1.00  0.00    -0.203 F 
ATOM     82  F   UNL A   1      51.192  27.585  29.627  1.00  0.00    -0.200 F 
ATOM     83  C   UNL A   1      50.592  26.277  31.500  1.00  0.00     0.200 A 
ATOM     84  F   UNL A   1      49.943  24.968  33.355  1.00  0.00    -0.200 F 
ATOM     85  F   UNL A   1      51.880  25.987  31.728  1.00  0.00    -0.200 F 
ENDBRANCH  52  75
ENDBRANCH  26  27
ENDBRANCH  19  21
ENDBRANCH  18  19
ENDBRANCH  17  18
ENDBRANCH   1  17
TORSDOF 14
ENDMDL
MODEL 3
REMARK VINA RESULT:     -10.1      3.496      4.946
REMARK SMILES Cc1c(C[NH2+]CC(=O)OCCOC(=O)c2ccc(-c3c4nc(c(-c5c(F)c(F)c(F)c(F)c5F)c5ccc([nH]5)c(-c5c(F)c(F)c(F)c(F)c5F)c5nc(c(-c6c(F)c(F)c(F)c(F)c6F)c6ccc3[nH]6)C=C5)C=C4)cc2)cnn1C
REMARK SMILES IDX 10 1 9 2 7 3 8 4 6 5 5 6 4 9 3 10 1 11 2 12 80 13 78 14
REMARK SMILES IDX 79 15 81 16 11 17 12 18 13 19 14 20 15 21 16 22 77 23 17 24
REMARK SMILES IDX 76 25 18 26 19 27 20 28 70 29 21 30 75 31 69 32 71 33 22 34
REMARK SMILES IDX 74 35 68 36 67 37 23 39 55 40 35 41 54 42 36 43 39 44 53 45
REMARK SMILES IDX 72 46 37 47 38 48 52 50 73 51 40 52 24 53 25 54 33 55 26 56
REMARK SMILES IDX 27 57 31 58 34 59 28 60 29 61 32 62 30 63 56 64 57 65 65 66
REMARK SMILES IDX 58 67 59 68 63 69 66 70 60 71 61 72 64 73 62 74 41 75 42 76
REMARK SMILES IDX 50 77 43 78 44 79 48 80 51 81 45 82 46 83 49 84 47 85
REMARK H PARENT 5 7 5 8 71 38 39 49
REMARK Flexibility Score: inf
ROOT
ATOM      1  C   UNL A   1      41.290  19.984  26.704  1.00  0.00     0.274 C 
ENDROOT
BRANCH   1   2
ATOM      2  O   UNL A   1      41.715  18.985  25.760  1.00  0.00    -0.458 OA
BRANCH   2   3
ATOM      3  C   UNL A   1      42.934  18.420  25.962  1.00  0.00     0.361 C 
ATOM      4  O   UNL A   1      43.200  17.650  26.879  1.00  0.00    -0.245 OA
BRANCH   3   5
ATOM      5  C   UNL A   1      43.963  18.858  24.921  1.00  0.00     0.385 C 
BRANCH   5   6
ATOM      6  N   UNL A   1      44.072  20.318  24.731  1.00  0.00    -0.333 N 
ATOM      7  H   UNL A   1      44.119  20.516  23.732  1.00  0.00     0.347 HD
ATOM      8  H   UNL A   1      43.254  20.749  25.160  1.00  0.00     0.347 HD
BRANCH   6   9
ATOM      9  C   UNL A   1      45.257  20.871  25.376  1.00  0.00     0.301 C 
BRANCH   9  10
ATOM     10  C   UNL A   1      45.257  22.353  25.224  1.00  0.00     0.047 A 
ATOM     11  C   UNL A   1      43.320  23.110  26.789  1.00  0.00     0.067 C 
ATOM     12  C   UNL A   1      44.404  23.290  25.788  1.00  0.00     0.044 A 
ATOM     13  N   UNL A   1      44.746  24.493  25.225  1.00  0.00    -0.272 N 
ATOM     14  C   UNL A   1      46.117  23.119  24.406  1.00  0.00     0.145 A 
ATOM     15  N   UNL A   1      45.805  24.415  24.397  1.00  0.00    -0.181 NA
ATOM     16  C   UNL A   1      44.068  25.759  25.376  1.00  0.00     0.174 C 
ENDBRANCH   9  10
ENDBRANCH   6   9
ENDBRANCH   5   6
ENDBRANCH   3   5
ENDBRANCH   2   3
ENDBRANCH   1   2
BRANCH   1  17
ATOM     17  C   UNL A   1      40.165  20.840  26.113  1.00  0.00     0.275 C 
BRANCH  17  18
ATOM     18  O   UNL A   1      39.816  21.935  26.982  1.00  0.00    -0.458 OA
BRANCH  18  19
ATOM     19  C   UNL A   1      39.050  22.904  26.428  1.00  0.00     0.338 C 
ATOM     20  O   UNL A   1      38.074  22.757  25.714  1.00  0.00    -0.246 OA
BRANCH  19  21
ATOM     21  C   UNL A   1      39.471  24.211  26.957  1.00  0.00     0.060 A 
ATOM     22  C   UNL A   1      39.168  24.513  28.289  1.00  0.00     0.016 A 
ATOM     23  C   UNL A   1      40.139  25.135  26.152  1.00  0.00     0.016 A 
ATOM     24  C   UNL A   1      39.557  25.736  28.831  1.00  0.00     0.010 A 
ATOM     25  C   UNL A   1      40.525  26.363  26.697  1.00  0.00     0.010 A 
ATOM     26  C   UNL A   1      40.243  26.666  28.042  1.00  0.00    -0.014 A 
BRANCH  26  27
ATOM     27  C   UNL A   1      40.686  27.956  28.620  1.00  0.00     0.031 A 
ATOM     28  C   UNL A   1      42.115  28.144  29.034  1.00  0.00     0.074 A 
ATOM     29  C   UNL A   1      39.790  28.945  28.794  1.00  0.00     0.049 A 
ATOM     30  N   UNL A   1      42.668  29.149  29.665  1.00  0.00    -0.248 NA
ATOM     31  C   UNL A   1      43.047  27.056  28.699  1.00  0.00     0.031 C 
ATOM     32  C   UNL A   1      38.384  28.887  28.394  1.00  0.00     0.029 A 
ATOM     33  N   UNL A   1      39.925  30.185  29.366  1.00  0.00    -0.354 N 
ATOM     34  C   UNL A   1      44.004  28.807  29.821  1.00  0.00     0.074 A 
ATOM     35  C   UNL A   1      44.180  27.499  29.227  1.00  0.00     0.031 C 
ATOM     36  C   UNL A   1      37.782  30.035  28.743  1.00  0.00     0.029 A 
ATOM     37  C   UNL A   1      38.746  30.886  29.436  1.00  0.00     0.049 A 
ATOM     38  H   UNL A   1      40.782  30.538  29.695  1.00  0.00     0.167 HD
ATOM     39  C   UNL A   1      44.988  29.526  30.411  1.00  0.00     0.037 A 
ATOM     40  C   UNL A   1      38.468  32.063  30.029  1.00  0.00     0.037 A 
ATOM     41  C   UNL A   1      44.807  30.838  30.976  1.00  0.00     0.049 A 
ATOM     42  C   UNL A   1      39.567  32.800  30.746  1.00  0.00     0.074 A 
ATOM     43  C   UNL A   1      45.759  31.675  31.532  1.00  0.00     0.029 A 
ATOM     44  N   UNL A   1      43.590  31.498  31.067  1.00  0.00    -0.354 N 
ATOM     45  N   UNL A   1      40.836  32.492  30.855  1.00  0.00    -0.248 NA
ATOM     46  C   UNL A   1      39.192  34.041  31.438  1.00  0.00     0.031 C 
ATOM     47  C   UNL A   1      45.109  32.817  32.011  1.00  0.00     0.029 A 
ATOM     48  C   UNL A   1      43.760  32.712  31.712  1.00  0.00     0.049 A 
ATOM     49  H   UNL A   1      42.734  31.154  30.724  1.00  0.00     0.167 HD
ATOM     50  C   UNL A   1      41.413  33.505  31.606  1.00  0.00     0.074 A 
ATOM     51  C   UNL A   1      40.359  34.449  31.915  1.00  0.00     0.031 C 
ATOM     52  C   UNL A   1      42.699  33.641  32.008  1.00  0.00     0.037 A 
BRANCH  39  53
ATOM     53  C   UNL A   1      46.350  28.908  30.507  1.00  0.00     0.064 A 
ATOM     54  C   UNL A   1      46.690  28.025  31.541  1.00  0.00     0.173 A 
ATOM     55  C   UNL A   1      47.302  29.145  29.503  1.00  0.00     0.173 A 
ATOM     56  F   UNL A   1      45.818  27.772  32.528  1.00  0.00    -0.203 F 
ATOM     57  C   UNL A   1      47.939  27.408  31.571  1.00  0.00     0.198 A 
ATOM     58  C   UNL A   1      48.540  28.509  29.525  1.00  0.00     0.198 A 
ATOM     59  F   UNL A   1      47.022  29.978  28.489  1.00  0.00    -0.203 F 
ATOM     60  F   UNL A   1      48.253  26.585  32.581  1.00  0.00    -0.200 F 
ATOM     61  C   UNL A   1      48.859  27.643  30.560  1.00  0.00     0.200 A 
ATOM     62  F   UNL A   1      49.422  28.729  28.539  1.00  0.00    -0.200 F 
ATOM     63  F   UNL A   1      50.053  27.036  30.582  1.00  0.00    -0.200 F 
ENDBRANCH  39  53
BRANCH  40  64
ATOM     64  C   UNL A   1      37.082  32.602  30.011  1.00  0.00     0.064 A 
ATOM     65  C   UNL A   1      36.650  33.452  28.985  1.00  0.00     0.173 A 
ATOM     66  C   UNL A   1      36.172  32.305  31.039  1.00  0.00     0.173 A 
ATOM     67  F   UNL A   1      37.492  33.788  27.996  1.00  0.00    -0.203 F 
ATOM     68  C   UNL A   1      35.370  34.002  28.995  1.00  0.00     0.198 A 
ATOM     69  C   UNL A   1      34.882  32.831  31.033  1.00  0.00     0.198 A 
ATOM     70  F   UNL A   1      36.536  31.502  32.049  1.00  0.00    -0.203 F 
ATOM     71  F   UNL A   1      35.002  34.855  28.031  1.00  0.00    -0.200 F 
ATOM     72  C   UNL A   1      34.485  33.687  30.017  1.00  0.00     0.200 A 
ATOM     73  F   UNL A   1      34.028  32.518  32.016  1.00  0.00    -0.200 F 
ATOM     74  F   UNL A   1      33.255  34.219  30.028  1.00  0.00    -0.200 F 
ENDBRANCH  40  64
BRANCH  52  75
ATOM     75  C   UNL A   1      43.046  34.860  32.809  1.00  0.00     0.064 A 
ATOM     76  C   UNL A   1      43.056  34.835  34.211  1.00  0.00     0.173 A 
ATOM     77  C   UNL A   1      43.425  36.050  32.168  1.00  0.00     0.173 A 
ATOM     78  F   UNL A   1      42.683  33.726  34.868  1.00  0.00    -0.203 F 
ATOM     79  C   UNL A   1      43.418  35.962  34.943  1.00  0.00     0.198 A 
ATOM     80  C   UNL A   1      43.813  37.166  32.904  1.00  0.00     0.198 A 
ATOM     81  F   UNL A   1      43.437  36.122  30.829  1.00  0.00    -0.203 F 
ATOM     82  F   UNL A   1      43.384  35.928  36.282  1.00  0.00    -0.200 F 
ATOM     83  C   UNL A   1      43.806  37.123  34.290  1.00  0.00     0.200 A 
ATOM     84  F   UNL A   1      44.199  38.283  32.270  1.00  0.00    -0.200 F 
ATOM     85  F   UNL A   1      44.166  38.203  34.997  1.00  0.00    -0.200 F 
ENDBRANCH  52  75
ENDBRANCH  26  27
ENDBRANCH  19  21
ENDBRANCH  18  19
ENDBRANCH  17  18
ENDBRANCH   1  17
TORSDOF 14
ENDMDL
