MODEL 1
REMARK VINA RESULT:     -12.9      0.000      0.000
REMARK SMILES Cc1cc(Br)cc2c1O[C@H](C(F)(F)F)C(C(=O)OCCOC(=O)c1ccc(-c3c4nc(c(-c5c(F)c(F)c(F)c(F)c5F)c5ccc([nH]5)c(-c5c(F)c(F)c(F)c(F)c5F)c5nc(c(-c6c(F)c(F)c(F)c(F)c6F)c6ccc3[nH]6)C=C5)C=C4)cc1)=C2
REMARK SMILES IDX 20 1 19 2 18 3 16 4 17 5 15 6 1 7 2 8 3 9 8 10 4 11 7 12
REMARK SMILES IDX 9 13 5 14 6 15 87 16 10 17 11 18 12 19 13 20 14 21 21 22
REMARK SMILES IDX 22 23 23 24 24 25 25 26 86 27 26 28 85 29 27 30 28 31 29 32
REMARK SMILES IDX 79 33 30 34 84 35 78 36 80 37 31 38 83 39 77 40 76 41 32 43
REMARK SMILES IDX 64 44 44 45 63 46 45 47 48 48 62 49 81 50 46 51 47 52 61 54
REMARK SMILES IDX 82 55 49 56 33 57 34 58 42 59 35 60 36 61 40 62 43 63 37 64
REMARK SMILES IDX 38 65 41 66 39 67 65 68 66 69 74 70 67 71 68 72 72 73 75 74
REMARK SMILES IDX 69 75 70 76 73 77 71 78 50 79 51 80 59 81 52 82 53 83 57 84
REMARK SMILES IDX 60 85 54 86 55 87 58 88 56 89
REMARK H PARENT 80 42 48 53
REMARK Flexibility Score: inf
ROOT
ATOM      1  C   UNL A   1      31.714  30.117  25.469  1.00  0.00     0.275 C 
ENDROOT
BRANCH   1   2
ATOM      2  C   UNL A   1      31.604  28.725  24.845  1.00  0.00     0.275 C 
BRANCH   2   3
ATOM      3  O   UNL A   1      32.368  27.751  25.590  1.00  0.00    -0.459 OA
BRANCH   3   4
ATOM      4  C   UNL A   1      31.639  26.826  26.253  1.00  0.00     0.338 C 
ATOM      5  O   UNL A   1      30.704  27.040  27.010  1.00  0.00    -0.246 OA
BRANCH   4   6
ATOM      6  C   UNL A   1      32.102  25.464  25.929  1.00  0.00     0.087 C 
ATOM      7  C   UNL A   1      32.688  20.766  23.888  1.00  0.00     0.048 C 
ATOM      8  C   UNL A   1      33.568  21.800  24.530  1.00  0.00    -0.007 A 
ATOM      9  C   UNL A   1      34.948  21.543  24.633  1.00  0.00     0.023 A 
ATOM     10  C   UNL A   1      33.051  22.995  25.054  1.00  0.00     0.130 A 
ATOM     11  C   UNL A   1      35.795  22.467  25.239  1.00  0.00     0.019 A 
ATOM     12  C   UNL A   1      33.916  23.921  25.643  1.00  0.00     0.019 A 
ATOM     13  O   UNL A   1      31.699  23.192  24.984  1.00  0.00    -0.475 OA
ATOM     14  Br  UNL A   1      37.648  22.115  25.361  1.00  0.00    -0.051 Br
ATOM     15  C   UNL A   1      35.286  23.656  25.745  1.00  0.00     0.027 A 
ATOM     16  C   UNL A   1      33.396  25.189  26.115  1.00  0.00     0.027 C 
ATOM     17  C   UNL A   1      31.152  24.513  25.264  1.00  0.00     0.316 C 
BRANCH  17  18
ATOM     18  C   UNL A   1      30.590  25.107  23.963  1.00  0.00     0.430 C 
ATOM     19  F   UNL A   1      31.536  25.799  23.285  1.00  0.00    -0.167 F 
ATOM     20  F   UNL A   1      30.147  24.138  23.126  1.00  0.00    -0.167 F 
ATOM     21  F   UNL A   1      29.555  25.948  24.191  1.00  0.00    -0.167 F 
ENDBRANCH  17  18
ENDBRANCH   4   6
ENDBRANCH   3   4
ENDBRANCH   2   3
ENDBRANCH   1   2
BRANCH   1  22
ATOM     22  O   UNL A   1      32.392  30.050  26.738  1.00  0.00    -0.458 OA
BRANCH  22  23
ATOM     23  C   UNL A   1      32.985  31.199  27.131  1.00  0.00     0.338 C 
ATOM     24  O   UNL A   1      32.474  32.300  27.244  1.00  0.00    -0.246 OA
BRANCH  23  25
ATOM     25  C   UNL A   1      34.381  30.948  27.520  1.00  0.00     0.060 A 
ATOM     26  C   UNL A   1      34.789  29.633  27.701  1.00  0.00     0.016 A 
ATOM     27  C   UNL A   1      35.203  31.994  27.931  1.00  0.00     0.016 A 
ATOM     28  C   UNL A   1      35.921  29.354  28.458  1.00  0.00     0.010 A 
ATOM     29  C   UNL A   1      36.429  31.706  28.546  1.00  0.00     0.010 A 
ATOM     30  C   UNL A   1      36.778  30.383  28.874  1.00  0.00    -0.014 A 
BRANCH  30  31
ATOM     31  C   UNL A   1      38.004  30.071  29.669  1.00  0.00     0.031 A 
ATOM     32  C   UNL A   1      39.098  29.212  29.081  1.00  0.00     0.074 A 
ATOM     33  C   UNL A   1      38.163  30.577  30.911  1.00  0.00     0.049 A 
ATOM     34  N   UNL A   1      40.131  28.664  29.673  1.00  0.00    -0.248 NA
ATOM     35  C   UNL A   1      39.015  28.914  27.641  1.00  0.00     0.031 C 
ATOM     36  C   UNL A   1      37.224  31.473  31.590  1.00  0.00     0.029 A 
ATOM     37  N   UNL A   1      39.180  30.423  31.823  1.00  0.00    -0.354 N 
ATOM     38  C   UNL A   1      40.781  27.916  28.697  1.00  0.00     0.074 A 
ATOM     39  C   UNL A   1      40.024  28.070  27.474  1.00  0.00     0.031 C 
ATOM     40  C   UNL A   1      37.734  31.838  32.774  1.00  0.00     0.029 A 
ATOM     41  C   UNL A   1      38.972  31.106  33.000  1.00  0.00     0.049 A 
ATOM     42  H   UNL A   1      39.981  29.878  31.651  1.00  0.00     0.167 HD
ATOM     43  C   UNL A   1      41.908  27.174  28.815  1.00  0.00     0.037 A 
ATOM     44  C   UNL A   1      39.662  31.103  34.156  1.00  0.00     0.037 A 
ATOM     45  C   UNL A   1      42.694  27.080  30.017  1.00  0.00     0.049 A 
ATOM     46  C   UNL A   1      40.872  30.223  34.279  1.00  0.00     0.074 A 
ATOM     47  C   UNL A   1      43.856  26.359  30.233  1.00  0.00     0.029 A 
ATOM     48  N   UNL A   1      42.412  27.746  31.201  1.00  0.00    -0.354 N 
ATOM     49  N   UNL A   1      41.433  29.460  33.374  1.00  0.00    -0.248 NA
ATOM     50  C   UNL A   1      41.530  30.181  35.591  1.00  0.00     0.031 C 
ATOM     51  C   UNL A   1      44.253  26.554  31.559  1.00  0.00     0.029 A 
ATOM     52  C   UNL A   1      43.369  27.438  32.155  1.00  0.00     0.049 A 
ATOM     53  H   UNL A   1      41.646  28.348  31.341  1.00  0.00     0.167 HD
ATOM     54  C   UNL A   1      42.514  28.857  34.000  1.00  0.00     0.074 A 
ATOM     55  C   UNL A   1      42.546  29.363  35.357  1.00  0.00     0.031 C 
ATOM     56  C   UNL A   1      43.393  27.957  33.499  1.00  0.00     0.037 A 
BRANCH  43  57
ATOM     57  C   UNL A   1      42.366  26.381  27.623  1.00  0.00     0.064 A 
ATOM     58  C   UNL A   1      43.374  26.844  26.766  1.00  0.00     0.173 A 
ATOM     59  C   UNL A   1      41.852  25.094  27.393  1.00  0.00     0.173 A 
ATOM     60  F   UNL A   1      43.892  28.070  26.934  1.00  0.00    -0.203 F 
ATOM     61  C   UNL A   1      43.843  26.054  25.718  1.00  0.00     0.198 A 
ATOM     62  C   UNL A   1      42.343  24.295  26.364  1.00  0.00     0.198 A 
ATOM     63  F   UNL A   1      40.891  24.597  28.188  1.00  0.00    -0.203 F 
ATOM     64  F   UNL A   1      44.788  26.528  24.894  1.00  0.00    -0.200 F 
ATOM     65  C   UNL A   1      43.337  24.776  25.525  1.00  0.00     0.200 A 
ATOM     66  F   UNL A   1      41.864  23.056  26.191  1.00  0.00    -0.200 F 
ATOM     67  F   UNL A   1      43.807  24.009  24.532  1.00  0.00    -0.200 F 
ENDBRANCH  43  57
BRANCH  44  68
ATOM     68  C   UNL A   1      39.189  31.924  35.304  1.00  0.00     0.064 A 
ATOM     69  C   UNL A   1      39.518  33.283  35.401  1.00  0.00     0.173 A 
ATOM     70  C   UNL A   1      38.385  31.376  36.317  1.00  0.00     0.173 A 
ATOM     71  F   UNL A   1      40.306  33.849  34.475  1.00  0.00    -0.203 F 
ATOM     72  C   UNL A   1      39.066  34.058  36.468  1.00  0.00     0.198 A 
ATOM     73  C   UNL A   1      37.904  32.160  37.362  1.00  0.00     0.198 A 
ATOM     74  F   UNL A   1      38.042  30.079  36.275  1.00  0.00    -0.203 F 
ATOM     75  F   UNL A   1      39.430  35.345  36.558  1.00  0.00    -0.200 F 
ATOM     76  C   UNL A   1      38.251  33.500  37.441  1.00  0.00     0.200 A 
ATOM     77  F   UNL A   1      37.100  31.619  38.288  1.00  0.00    -0.200 F 
ATOM     78  F   UNL A   1      37.803  34.251  38.457  1.00  0.00    -0.200 F 
ENDBRANCH  44  68
BRANCH  56  79
ATOM     79  C   UNL A   1      44.482  27.475  34.409  1.00  0.00     0.064 A 
ATOM     80  C   UNL A   1      44.338  26.304  35.166  1.00  0.00     0.173 A 
ATOM     81  C   UNL A   1      45.708  28.157  34.475  1.00  0.00     0.173 A 
ATOM     82  F   UNL A   1      43.180  25.626  35.148  1.00  0.00    -0.203 F 
ATOM     83  C   UNL A   1      45.376  25.840  35.969  1.00  0.00     0.198 A 
ATOM     84  C   UNL A   1      46.753  27.673  35.256  1.00  0.00     0.198 A 
ATOM     85  F   UNL A   1      45.896  29.278  33.763  1.00  0.00    -0.203 F 
ATOM     86  F   UNL A   1      45.203  24.740  36.714  1.00  0.00    -0.200 F 
ATOM     87  C   UNL A   1      46.585  26.519  36.005  1.00  0.00     0.200 A 
ATOM     88  F   UNL A   1      47.926  28.321  35.277  1.00  0.00    -0.200 F 
ATOM     89  F   UNL A   1      47.588  26.062  36.766  1.00  0.00    -0.200 F 
ENDBRANCH  56  79
ENDBRANCH  30  31
ENDBRANCH  23  25
ENDBRANCH  22  23
ENDBRANCH   1  22
TORSDOF 12
ENDMDL
MODEL 2
REMARK VINA RESULT:     -12.9      0.155      1.668
REMARK SMILES Cc1cc(Br)cc2c1O[C@H](C(F)(F)F)C(C(=O)OCCOC(=O)c1ccc(-c3c4nc(c(-c5c(F)c(F)c(F)c(F)c5F)c5ccc([nH]5)c(-c5c(F)c(F)c(F)c(F)c5F)c5nc(c(-c6c(F)c(F)c(F)c(F)c6F)c6ccc3[nH]6)C=C5)C=C4)cc1)=C2
REMARK SMILES IDX 20 1 19 2 18 3 16 4 17 5 15 6 1 7 2 8 3 9 8 10 4 11 7 12
REMARK SMILES IDX 9 13 5 14 6 15 87 16 10 17 11 18 12 19 13 20 14 21 21 22
REMARK SMILES IDX 22 23 23 24 24 25 25 26 86 27 26 28 85 29 27 30 28 31 29 32
REMARK SMILES IDX 79 33 30 34 84 35 78 36 80 37 31 38 83 39 77 40 76 41 32 43
REMARK SMILES IDX 64 44 44 45 63 46 45 47 48 48 62 49 81 50 46 51 47 52 61 54
REMARK SMILES IDX 82 55 49 56 33 57 34 58 42 59 35 60 36 61 40 62 43 63 37 64
REMARK SMILES IDX 38 65 41 66 39 67 65 68 66 69 74 70 67 71 68 72 72 73 75 74
REMARK SMILES IDX 69 75 70 76 73 77 71 78 50 79 51 80 59 81 52 82 53 83 57 84
REMARK SMILES IDX 60 85 54 86 55 87 58 88 56 89
REMARK H PARENT 80 42 48 53
REMARK Flexibility Score: inf
ROOT
ATOM      1  C   UNL A   1      31.737  30.080  25.456  1.00  0.00     0.275 C 
ENDROOT
BRANCH   1   2
ATOM      2  C   UNL A   1      31.675  28.684  24.834  1.00  0.00     0.275 C 
BRANCH   2   3
ATOM      3  O   UNL A   1      32.387  27.717  25.637  1.00  0.00    -0.459 OA
BRANCH   3   4
ATOM      4  C   UNL A   1      31.616  26.794  26.254  1.00  0.00     0.338 C 
ATOM      5  O   UNL A   1      30.653  27.012  26.975  1.00  0.00    -0.246 OA
BRANCH   4   6
ATOM      6  C   UNL A   1      32.069  25.430  25.926  1.00  0.00     0.087 C 
ATOM      7  C   UNL A   1      32.627  20.737  23.867  1.00  0.00     0.048 C 
ATOM      8  C   UNL A   1      33.512  21.760  24.519  1.00  0.00    -0.007 A 
ATOM      9  C   UNL A   1      34.889  21.490  24.628  1.00  0.00     0.023 A 
ATOM     10  C   UNL A   1      33.002  22.957  25.046  1.00  0.00     0.130 A 
ATOM     11  C   UNL A   1      35.741  22.405  25.243  1.00  0.00     0.019 A 
ATOM     12  C   UNL A   1      33.871  23.873  25.643  1.00  0.00     0.019 A 
ATOM     13  O   UNL A   1      31.652  23.166  24.968  1.00  0.00    -0.475 OA
ATOM     14  Br  UNL A   1      37.590  22.036  25.375  1.00  0.00    -0.051 Br
ATOM     15  C   UNL A   1      35.238  23.596  25.752  1.00  0.00     0.027 A 
ATOM     16  C   UNL A   1      33.360  25.143  26.118  1.00  0.00     0.027 C 
ATOM     17  C   UNL A   1      31.115  24.490  25.251  1.00  0.00     0.316 C 
BRANCH  17  18
ATOM     18  C   UNL A   1      30.566  25.095  23.950  1.00  0.00     0.430 C 
ATOM     19  F   UNL A   1      30.077  24.137  23.126  1.00  0.00    -0.167 F 
ATOM     20  F   UNL A   1      29.545  25.952  24.194  1.00  0.00    -0.167 F 
ATOM     21  F   UNL A   1      31.512  25.777  23.265  1.00  0.00    -0.167 F 
ENDBRANCH  17  18
ENDBRANCH   4   6
ENDBRANCH   3   4
ENDBRANCH   2   3
ENDBRANCH   1   2
BRANCH   1  22
ATOM     22  O   UNL A   1      32.373  30.031  26.747  1.00  0.00    -0.458 OA
BRANCH  22  23
ATOM     23  C   UNL A   1      32.953  31.186  27.144  1.00  0.00     0.338 C 
ATOM     24  O   UNL A   1      32.431  32.283  27.251  1.00  0.00    -0.246 OA
BRANCH  23  25
ATOM     25  C   UNL A   1      34.348  30.948  27.544  1.00  0.00     0.060 A 
ATOM     26  C   UNL A   1      34.768  29.637  27.722  1.00  0.00     0.016 A 
ATOM     27  C   UNL A   1      35.154  32.000  27.970  1.00  0.00     0.016 A 
ATOM     28  C   UNL A   1      35.895  29.365  28.489  1.00  0.00     0.010 A 
ATOM     29  C   UNL A   1      36.377  31.722  28.594  1.00  0.00     0.010 A 
ATOM     30  C   UNL A   1      36.737  30.401  28.919  1.00  0.00    -0.014 A 
BRANCH  30  31
ATOM     31  C   UNL A   1      37.959  30.098  29.723  1.00  0.00     0.031 A 
ATOM     32  C   UNL A   1      39.065  29.248  29.143  1.00  0.00     0.074 A 
ATOM     33  C   UNL A   1      38.103  30.603  30.967  1.00  0.00     0.049 A 
ATOM     34  N   UNL A   1      40.097  28.708  29.743  1.00  0.00    -0.248 NA
ATOM     35  C   UNL A   1      38.996  28.953  27.702  1.00  0.00     0.031 C 
ATOM     36  C   UNL A   1      37.152  31.490  31.639  1.00  0.00     0.029 A 
ATOM     37  N   UNL A   1      39.114  30.456  31.888  1.00  0.00    -0.354 N 
ATOM     38  C   UNL A   1      40.761  27.967  28.772  1.00  0.00     0.074 A 
ATOM     39  C   UNL A   1      40.014  28.117  27.542  1.00  0.00     0.031 C 
ATOM     40  C   UNL A   1      37.648  31.857  32.829  1.00  0.00     0.029 A 
ATOM     41  C   UNL A   1      38.890  31.135  33.063  1.00  0.00     0.049 A 
ATOM     42  H   UNL A   1      39.921  29.918  31.722  1.00  0.00     0.167 HD
ATOM     43  C   UNL A   1      41.893  27.234  28.897  1.00  0.00     0.037 A 
ATOM     44  C   UNL A   1      39.571  31.136  34.226  1.00  0.00     0.037 A 
ATOM     45  C   UNL A   1      42.670  27.144  30.106  1.00  0.00     0.049 A 
ATOM     46  C   UNL A   1      40.787  30.266  34.358  1.00  0.00     0.074 A 
ATOM     47  C   UNL A   1      43.836  26.433  30.331  1.00  0.00     0.029 A 
ATOM     48  N   UNL A   1      42.373  27.806  31.288  1.00  0.00    -0.354 N 
ATOM     49  N   UNL A   1      41.361  29.509  33.456  1.00  0.00    -0.248 NA
ATOM     50  C   UNL A   1      41.434  30.227  35.675  1.00  0.00     0.031 C 
ATOM     51  C   UNL A   1      44.220  26.629  31.661  1.00  0.00     0.029 A 
ATOM     52  C   UNL A   1      43.324  27.505  32.250  1.00  0.00     0.049 A 
ATOM     53  H   UNL A   1      41.600  28.402  31.424  1.00  0.00     0.167 HD
ATOM     54  C   UNL A   1      42.442  28.913  34.090  1.00  0.00     0.074 A 
ATOM     55  C   UNL A   1      42.458  29.417  35.448  1.00  0.00     0.031 C 
ATOM     56  C   UNL A   1      43.332  28.021  33.595  1.00  0.00     0.037 A 
BRANCH  43  57
ATOM     57  C   UNL A   1      42.368  26.446  27.709  1.00  0.00     0.064 A 
ATOM     58  C   UNL A   1      43.364  26.929  26.848  1.00  0.00     0.173 A 
ATOM     59  C   UNL A   1      41.883  25.147  27.485  1.00  0.00     0.173 A 
ATOM     60  F   UNL A   1      43.854  28.167  27.010  1.00  0.00    -0.203 F 
ATOM     61  C   UNL A   1      43.849  26.145  25.802  1.00  0.00     0.198 A 
ATOM     62  C   UNL A   1      42.392  24.356  26.458  1.00  0.00     0.198 A 
ATOM     63  F   UNL A   1      40.936  24.632  28.284  1.00  0.00    -0.203 F 
ATOM     64  F   UNL A   1      44.783  26.638  24.976  1.00  0.00    -0.200 F 
ATOM     65  C   UNL A   1      43.373  24.856  25.616  1.00  0.00     0.200 A 
ATOM     66  F   UNL A   1      41.941  23.105  26.292  1.00  0.00    -0.200 F 
ATOM     67  F   UNL A   1      43.859  24.096  24.626  1.00  0.00    -0.200 F 
ENDBRANCH  43  57
BRANCH  44  68
ATOM     68  C   UNL A   1      39.081  31.951  35.371  1.00  0.00     0.064 A 
ATOM     69  C   UNL A   1      38.309  31.372  36.388  1.00  0.00     0.173 A 
ATOM     70  C   UNL A   1      39.386  33.317  35.484  1.00  0.00     0.173 A 
ATOM     71  F   UNL A   1      37.966  30.078  36.314  1.00  0.00    -0.203 F 
ATOM     72  C   UNL A   1      37.859  32.129  37.469  1.00  0.00     0.198 A 
ATOM     73  C   UNL A   1      38.967  34.063  36.583  1.00  0.00     0.198 A 
ATOM     74  F   UNL A   1      40.119  33.922  34.537  1.00  0.00    -0.203 F 
ATOM     75  F   UNL A   1      37.088  31.561  38.406  1.00  0.00    -0.200 F 
ATOM     76  C   UNL A   1      38.197  33.471  37.571  1.00  0.00     0.200 A 
ATOM     77  F   UNL A   1      39.315  35.353  36.685  1.00  0.00    -0.200 F 
ATOM     78  F   UNL A   1      37.778  34.193  38.619  1.00  0.00    -0.200 F 
ENDBRANCH  44  68
BRANCH  56  79
ATOM     79  C   UNL A   1      44.418  27.547  34.513  1.00  0.00     0.064 A 
ATOM     80  C   UNL A   1      45.616  28.260  34.660  1.00  0.00     0.173 A 
ATOM     81  C   UNL A   1      44.231  26.401  35.303  1.00  0.00     0.173 A 
ATOM     82  F   UNL A   1      45.847  29.352  33.915  1.00  0.00    -0.203 F 
ATOM     83  C   UNL A   1      46.595  27.836  35.553  1.00  0.00     0.198 A 
ATOM     84  C   UNL A   1      45.200  25.998  36.218  1.00  0.00     0.198 A 
ATOM     85  F   UNL A   1      43.099  25.690  35.205  1.00  0.00    -0.203 F 
ATOM     86  F   UNL A   1      47.749  28.511  35.649  1.00  0.00    -0.200 F 
ATOM     87  C   UNL A   1      46.382  26.711  36.338  1.00  0.00     0.200 A 
ATOM     88  F   UNL A   1      44.986  24.921  36.986  1.00  0.00    -0.200 F 
ATOM     89  F   UNL A   1      47.319  26.315  37.209  1.00  0.00    -0.200 F 
ENDBRANCH  56  79
ENDBRANCH  30  31
ENDBRANCH  23  25
ENDBRANCH  22  23
ENDBRANCH   1  22
TORSDOF 12
ENDMDL
MODEL 3
REMARK VINA RESULT:     -12.9      0.105      1.144
REMARK SMILES Cc1cc(Br)cc2c1O[C@H](C(F)(F)F)C(C(=O)OCCOC(=O)c1ccc(-c3c4nc(c(-c5c(F)c(F)c(F)c(F)c5F)c5ccc([nH]5)c(-c5c(F)c(F)c(F)c(F)c5F)c5nc(c(-c6c(F)c(F)c(F)c(F)c6F)c6ccc3[nH]6)C=C5)C=C4)cc1)=C2
REMARK SMILES IDX 20 1 19 2 18 3 16 4 17 5 15 6 1 7 2 8 3 9 8 10 4 11 7 12
REMARK SMILES IDX 9 13 5 14 6 15 87 16 10 17 11 18 12 19 13 20 14 21 21 22
REMARK SMILES IDX 22 23 23 24 24 25 25 26 86 27 26 28 85 29 27 30 28 31 29 32
REMARK SMILES IDX 79 33 30 34 84 35 78 36 80 37 31 38 83 39 77 40 76 41 32 43
REMARK SMILES IDX 64 44 44 45 63 46 45 47 48 48 62 49 81 50 46 51 47 52 61 54
REMARK SMILES IDX 82 55 49 56 33 57 34 58 42 59 35 60 36 61 40 62 43 63 37 64
REMARK SMILES IDX 38 65 41 66 39 67 65 68 66 69 74 70 67 71 68 72 72 73 75 74
REMARK SMILES IDX 69 75 70 76 73 77 71 78 50 79 51 80 59 81 52 82 53 83 57 84
REMARK SMILES IDX 60 85 54 86 55 87 58 88 56 89
REMARK H PARENT 80 42 48 53
REMARK Flexibility Score: inf
ROOT
ATOM      1  C   UNL A   1      31.776  30.075  25.486  1.00  0.00     0.275 C 
ENDROOT
BRANCH   1   2
ATOM      2  C   UNL A   1      31.804  28.682  24.856  1.00  0.00     0.275 C 
BRANCH   2   3
ATOM      3  O   UNL A   1      32.465  27.727  25.716  1.00  0.00    -0.459 OA
BRANCH   3   4
ATOM      4  C   UNL A   1      31.663  26.786  26.263  1.00  0.00     0.338 C 
ATOM      5  O   UNL A   1      30.656  26.982  26.926  1.00  0.00    -0.246 OA
BRANCH   4   6
ATOM      6  C   UNL A   1      32.147  25.432  25.935  1.00  0.00     0.087 C 
ATOM      7  C   UNL A   1      32.807  20.751  23.879  1.00  0.00     0.048 C 
ATOM      8  C   UNL A   1      33.670  21.795  24.528  1.00  0.00    -0.007 A 
ATOM      9  C   UNL A   1      35.053  21.557  24.635  1.00  0.00     0.023 A 
ATOM     10  C   UNL A   1      33.134  22.980  25.055  1.00  0.00     0.130 A 
ATOM     11  C   UNL A   1      35.885  22.491  25.247  1.00  0.00     0.019 A 
ATOM     12  C   UNL A   1      33.983  23.917  25.650  1.00  0.00     0.019 A 
ATOM     13  O   UNL A   1      31.779  23.159  24.980  1.00  0.00    -0.475 OA
ATOM     14  Br  UNL A   1      37.742  22.165  25.375  1.00  0.00    -0.051 Br
ATOM     15  C   UNL A   1      35.357  23.670  25.756  1.00  0.00     0.027 A 
ATOM     16  C   UNL A   1      33.444  25.175  26.125  1.00  0.00     0.027 C 
ATOM     17  C   UNL A   1      31.213  24.470  25.263  1.00  0.00     0.316 C 
BRANCH  17  18
ATOM     18  C   UNL A   1      30.648  25.061  23.962  1.00  0.00     0.430 C 
ATOM     19  F   UNL A   1      31.591  25.752  23.280  1.00  0.00    -0.167 F 
ATOM     20  F   UNL A   1      30.202  24.090  23.129  1.00  0.00    -0.167 F 
ATOM     21  F   UNL A   1      29.613  25.903  24.191  1.00  0.00    -0.167 F 
ENDBRANCH  17  18
ENDBRANCH   4   6
ENDBRANCH   3   4
ENDBRANCH   2   3
ENDBRANCH   1   2
BRANCH   1  22
ATOM     22  O   UNL A   1      32.388  30.053  26.790  1.00  0.00    -0.458 OA
BRANCH  22  23
ATOM     23  C   UNL A   1      32.987  31.206  27.159  1.00  0.00     0.338 C 
ATOM     24  O   UNL A   1      32.482  32.312  27.252  1.00  0.00    -0.246 OA
BRANCH  23  25
ATOM     25  C   UNL A   1      34.383  30.956  27.549  1.00  0.00     0.060 A 
ATOM     26  C   UNL A   1      34.790  29.641  27.732  1.00  0.00     0.016 A 
ATOM     27  C   UNL A   1      35.205  32.001  27.960  1.00  0.00     0.016 A 
ATOM     28  C   UNL A   1      35.922  29.362  28.491  1.00  0.00     0.010 A 
ATOM     29  C   UNL A   1      36.431  31.714  28.576  1.00  0.00     0.010 A 
ATOM     30  C   UNL A   1      36.778  30.391  28.906  1.00  0.00    -0.014 A 
BRANCH  30  31
ATOM     31  C   UNL A   1      38.005  30.080  29.702  1.00  0.00     0.031 A 
ATOM     32  C   UNL A   1      39.102  29.227  29.112  1.00  0.00     0.074 A 
ATOM     33  C   UNL A   1      38.159  30.582  30.946  1.00  0.00     0.049 A 
ATOM     34  N   UNL A   1      40.136  28.680  29.704  1.00  0.00    -0.248 NA
ATOM     35  C   UNL A   1      39.023  28.935  27.671  1.00  0.00     0.031 C 
ATOM     36  C   UNL A   1      37.216  31.471  31.627  1.00  0.00     0.029 A 
ATOM     37  N   UNL A   1      39.175  30.427  31.860  1.00  0.00    -0.354 N 
ATOM     38  C   UNL A   1      40.790  27.938  28.727  1.00  0.00     0.074 A 
ATOM     39  C   UNL A   1      40.035  28.095  27.502  1.00  0.00     0.031 C 
ATOM     40  C   UNL A   1      37.722  31.833  32.814  1.00  0.00     0.029 A 
ATOM     41  C   UNL A   1      38.962  31.104  33.039  1.00  0.00     0.049 A 
ATOM     42  H   UNL A   1      39.978  29.885  31.687  1.00  0.00     0.167 HD
ATOM     43  C   UNL A   1      41.919  27.199  28.843  1.00  0.00     0.037 A 
ATOM     44  C   UNL A   1      39.650  31.099  34.197  1.00  0.00     0.037 A 
ATOM     45  C   UNL A   1      42.703  27.103  30.047  1.00  0.00     0.049 A 
ATOM     46  C   UNL A   1      40.863  30.222  34.319  1.00  0.00     0.074 A 
ATOM     47  C   UNL A   1      43.867  26.385  30.263  1.00  0.00     0.029 A 
ATOM     48  N   UNL A   1      42.417  27.763  31.232  1.00  0.00    -0.354 N 
ATOM     49  N   UNL A   1      41.427  29.464  33.411  1.00  0.00    -0.248 NA
ATOM     50  C   UNL A   1      41.518  30.177  35.632  1.00  0.00     0.031 C 
ATOM     51  C   UNL A   1      44.260  26.576  31.590  1.00  0.00     0.029 A 
ATOM     52  C   UNL A   1      43.373  27.455  32.188  1.00  0.00     0.049 A 
ATOM     53  H   UNL A   1      41.648  28.362  31.374  1.00  0.00     0.167 HD
ATOM     54  C   UNL A   1      42.509  28.862  34.037  1.00  0.00     0.074 A 
ATOM     55  C   UNL A   1      42.537  29.363  35.396  1.00  0.00     0.031 C 
ATOM     56  C   UNL A   1      43.392  27.967  33.533  1.00  0.00     0.037 A 
BRANCH  43  57
ATOM     57  C   UNL A   1      42.382  26.413  27.649  1.00  0.00     0.064 A 
ATOM     58  C   UNL A   1      43.407  26.872  26.809  1.00  0.00     0.173 A 
ATOM     59  C   UNL A   1      41.855  25.135  27.400  1.00  0.00     0.173 A 
ATOM     60  F   UNL A   1      43.939  28.089  26.997  1.00  0.00    -0.203 F 
ATOM     61  C   UNL A   1      43.879  26.086  25.759  1.00  0.00     0.198 A 
ATOM     62  C   UNL A   1      42.349  24.341  26.368  1.00  0.00     0.198 A 
ATOM     63  F   UNL A   1      40.878  24.643  28.178  1.00  0.00    -0.203 F 
ATOM     64  F   UNL A   1      44.841  26.557  24.953  1.00  0.00    -0.200 F 
ATOM     65  C   UNL A   1      43.360  24.817  25.547  1.00  0.00     0.200 A 
ATOM     66  F   UNL A   1      41.857  23.109  26.177  1.00  0.00    -0.200 F 
ATOM     67  F   UNL A   1      43.832  24.055  24.552  1.00  0.00    -0.200 F 
ENDBRANCH  43  57
BRANCH  44  68
ATOM     68  C   UNL A   1      39.171  31.913  35.347  1.00  0.00     0.064 A 
ATOM     69  C   UNL A   1      39.522  33.265  35.467  1.00  0.00     0.173 A 
ATOM     70  C   UNL A   1      38.342  31.366  36.339  1.00  0.00     0.173 A 
ATOM     71  F   UNL A   1      40.334  33.829  34.561  1.00  0.00    -0.203 F 
ATOM     72  C   UNL A   1      39.066  34.035  36.535  1.00  0.00     0.198 A 
ATOM     73  C   UNL A   1      37.857  32.146  37.387  1.00  0.00     0.198 A 
ATOM     74  F   UNL A   1      37.978  30.076  36.276  1.00  0.00    -0.203 F 
ATOM     75  F   UNL A   1      39.449  35.314  36.648  1.00  0.00    -0.200 F 
ATOM     76  C   UNL A   1      38.225  33.478  37.488  1.00  0.00     0.200 A 
ATOM     77  F   UNL A   1      37.029  31.607  38.292  1.00  0.00    -0.200 F 
ATOM     78  F   UNL A   1      37.774  34.224  38.506  1.00  0.00    -0.200 F 
ENDBRANCH  44  68
BRANCH  56  79
ATOM     79  C   UNL A   1      44.481  27.485  34.444  1.00  0.00     0.064 A 
ATOM     80  C   UNL A   1      45.671  28.208  34.607  1.00  0.00     0.173 A 
ATOM     81  C   UNL A   1      44.306  26.321  35.209  1.00  0.00     0.173 A 
ATOM     82  F   UNL A   1      45.892  29.318  33.887  1.00  0.00    -0.203 F 
ATOM     83  C   UNL A   1      46.654  27.775  35.493  1.00  0.00     0.198 A 
ATOM     84  C   UNL A   1      45.277  25.908  36.116  1.00  0.00     0.198 A 
ATOM     85  F   UNL A   1      43.181  25.599  35.093  1.00  0.00    -0.203 F 
ATOM     86  F   UNL A   1      47.800  28.460  35.606  1.00  0.00    -0.200 F 
ATOM     87  C   UNL A   1      46.451  26.632  36.254  1.00  0.00     0.200 A 
ATOM     88  F   UNL A   1      45.073  24.814  36.861  1.00  0.00    -0.200 F 
ATOM     89  F   UNL A   1      47.391  26.227  37.118  1.00  0.00    -0.200 F 
ENDBRANCH  56  79
ENDBRANCH  30  31
ENDBRANCH  23  25
ENDBRANCH  22  23
ENDBRANCH   1  22
TORSDOF 12
ENDMDL
