MODEL 1
REMARK VINA RESULT:     -11.8      0.000      0.000
REMARK SMILES COc1cc(C[N@@H+]2CCO[C@@H](CC(=O)OCCOC(=O)c3ccc(-c4c5nc(c(-c6c(F)c(F)c(F)c(F)c6F)c6ccc([nH]6)c(-c6c(F)c(F)c(F)c(F)c6F)c6nc(c(-c7c(F)c(F)c(F)c(F)c7F)c7ccc4[nH]7)C=C6)C=C5)cc3)C2)ccc1O
REMARK SMILES IDX 16 1 15 2 13 3 14 4 12 5 11 6 7 7 8 8 84 9 9 11 10 12 6 13
REMARK SMILES IDX 5 14 3 15 4 16 87 17 86 18 85 19 2 20 1 21 88 22 17 24 18 25
REMARK SMILES IDX 19 26 20 27 21 28 22 29 83 30 23 31 82 32 24 33 25 34 26 35
REMARK SMILES IDX 76 36 27 37 81 38 75 39 77 40 28 41 80 42 74 43 73 44 29 46
REMARK SMILES IDX 61 47 41 48 60 49 42 50 45 51 59 52 78 53 43 54 44 55 58 57
REMARK SMILES IDX 79 58 46 59 30 60 31 61 39 62 32 63 33 64 37 65 40 66 34 67
REMARK SMILES IDX 35 68 38 69 36 70 62 71 63 72 71 73 64 74 65 75 69 76 72 77
REMARK SMILES IDX 66 78 67 79 70 80 68 81 47 82 48 83 56 84 49 85 50 86 54 87
REMARK SMILES IDX 57 88 51 89 52 90 55 91 53 92
REMARK H PARENT 7 10 88 23 77 45 45 56
REMARK Flexibility Score: inf
ROOT
ATOM      1  C   UNL A   1      36.563  23.043  23.738  1.00  0.00     0.274 C 
ENDROOT
BRANCH   1   2
ATOM      2  O   UNL A   1      35.534  22.863  22.741  1.00  0.00    -0.462 OA
BRANCH   2   3
ATOM      3  C   UNL A   1      34.423  23.637  22.872  1.00  0.00     0.308 C 
ATOM      4  O   UNL A   1      34.348  24.813  22.534  1.00  0.00    -0.252 OA
BRANCH   3   5
ATOM      5  C   UNL A   1      33.304  22.910  23.565  1.00  0.00     0.160 C 
BRANCH   5   6
ATOM      6  C   UNL A   1      32.571  23.635  24.698  1.00  0.00     0.184 C 
ATOM      7  N   UNL A   1      30.278  24.540  25.406  1.00  0.00    -0.327 N 
ATOM      8  C   UNL A   1      30.333  23.573  26.500  1.00  0.00     0.291 C 
ATOM      9  C   UNL A   1      31.173  24.174  24.295  1.00  0.00     0.295 C 
ATOM     10  H   UNL A   1      29.341  24.452  25.011  1.00  0.00     0.348 HD
ATOM     11  C   UNL A   1      31.748  23.118  26.870  1.00  0.00     0.222 C 
ATOM     12  O   UNL A   1      32.447  22.623  25.728  1.00  0.00    -0.366 OA
BRANCH   7  13
ATOM     13  C   UNL A   1      30.197  25.953  25.777  1.00  0.00     0.299 C 
BRANCH  13  14
ATOM     14  C   UNL A   1      30.423  26.997  24.705  1.00  0.00     0.010 A 
ATOM     15  C   UNL A   1      31.814  28.642  23.583  1.00  0.00     0.160 A 
ATOM     16  C   UNL A   1      31.611  27.737  24.628  1.00  0.00     0.060 A 
ATOM     17  C   UNL A   1      30.800  28.882  22.657  1.00  0.00     0.157 A 
ATOM     18  C   UNL A   1      29.596  28.203  22.748  1.00  0.00     0.051 A 
ATOM     19  C   UNL A   1      29.408  27.278  23.779  1.00  0.00     0.013 A 
BRANCH  15  20
ATOM     20  O   UNL A   1      33.001  29.321  23.537  1.00  0.00    -0.493 OA
ATOM     21  C   UNL A   1      34.016  28.576  22.858  1.00  0.00     0.278 C 
ENDBRANCH  15  20
BRANCH  17  22
ATOM     22  O   UNL A   1      30.941  29.810  21.665  1.00  0.00    -0.504 OA
ATOM     23  H   UNL A   1      30.450  30.608  21.697  1.00  0.00     0.293 HD
ENDBRANCH  17  22
ENDBRANCH  13  14
ENDBRANCH   7  13
ENDBRANCH   5   6
ENDBRANCH   3   5
ENDBRANCH   2   3
ENDBRANCH   1   2
BRANCH   1  24
ATOM     24  C   UNL A   1      37.000  21.722  24.389  1.00  0.00     0.275 C 
BRANCH  24  25
ATOM     25  O   UNL A   1      37.337  21.870  25.783  1.00  0.00    -0.458 OA
BRANCH  25  26
ATOM     26  C   UNL A   1      38.636  21.635  26.061  1.00  0.00     0.338 C 
ATOM     27  O   UNL A   1      39.233  20.590  25.847  1.00  0.00    -0.246 OA
BRANCH  26  28
ATOM     28  C   UNL A   1      39.323  22.818  26.589  1.00  0.00     0.060 A 
ATOM     29  C   UNL A   1      38.928  24.075  26.113  1.00  0.00     0.016 A 
ATOM     30  C   UNL A   1      40.413  22.693  27.450  1.00  0.00     0.016 A 
ATOM     31  C   UNL A   1      39.620  25.218  26.502  1.00  0.00     0.010 A 
ATOM     32  C   UNL A   1      41.108  23.840  27.838  1.00  0.00     0.010 A 
ATOM     33  C   UNL A   1      40.718  25.105  27.364  1.00  0.00    -0.014 A 
BRANCH  33  34
ATOM     34  C   UNL A   1      41.475  26.306  27.783  1.00  0.00     0.031 A 
ATOM     35  C   UNL A   1      40.788  27.396  28.547  1.00  0.00     0.074 A 
ATOM     36  C   UNL A   1      42.766  26.428  27.430  1.00  0.00     0.049 A 
ATOM     37  N   UNL A   1      41.225  28.588  28.862  1.00  0.00    -0.248 NA
ATOM     38  C   UNL A   1      39.427  27.106  29.020  1.00  0.00     0.031 C 
ATOM     39  C   UNL A   1      43.546  25.410  26.726  1.00  0.00     0.029 A 
ATOM     40  N   UNL A   1      43.641  27.473  27.590  1.00  0.00    -0.354 N 
ATOM     41  C   UNL A   1      40.190  29.197  29.557  1.00  0.00     0.074 A 
ATOM     42  C   UNL A   1      39.097  28.248  29.609  1.00  0.00     0.031 C 
ATOM     43  C   UNL A   1      44.777  25.891  26.491  1.00  0.00     0.029 A 
ATOM     44  C   UNL A   1      44.854  27.264  26.984  1.00  0.00     0.049 A 
ATOM     45  H   UNL A   1      43.419  28.292  28.090  1.00  0.00     0.167 HD
ATOM     46  C   UNL A   1      40.161  30.437  30.099  1.00  0.00     0.037 A 
ATOM     47  C   UNL A   1      45.892  28.104  26.805  1.00  0.00     0.037 A 
ATOM     48  C   UNL A   1      41.252  31.374  30.037  1.00  0.00     0.049 A 
ATOM     49  C   UNL A   1      45.802  29.506  27.343  1.00  0.00     0.074 A 
ATOM     50  C   UNL A   1      41.323  32.654  30.558  1.00  0.00     0.029 A 
ATOM     51  N   UNL A   1      42.464  31.131  29.406  1.00  0.00    -0.354 N 
ATOM     52  N   UNL A   1      44.824  30.076  28.004  1.00  0.00    -0.248 NA
ATOM     53  C   UNL A   1      46.958  30.383  27.107  1.00  0.00     0.031 C 
ATOM     54  C   UNL A   1      42.561  33.202  30.206  1.00  0.00     0.029 A 
ATOM     55  C   UNL A   1      43.280  32.245  29.506  1.00  0.00     0.049 A 
ATOM     56  H   UNL A   1      42.708  30.291  28.954  1.00  0.00     0.167 HD
ATOM     57  C   UNL A   1      45.256  31.363  28.290  1.00  0.00     0.074 A 
ATOM     58  C   UNL A   1      46.585  31.493  27.729  1.00  0.00     0.031 C 
ATOM     59  C   UNL A   1      44.610  32.347  28.962  1.00  0.00     0.037 A 
BRANCH  46  60
ATOM     60  C   UNL A   1      38.897  30.866  30.781  1.00  0.00     0.064 A 
ATOM     61  C   UNL A   1      37.818  31.403  30.063  1.00  0.00     0.173 A 
ATOM     62  C   UNL A   1      38.745  30.695  32.165  1.00  0.00     0.173 A 
ATOM     63  F   UNL A   1      37.918  31.596  28.739  1.00  0.00    -0.203 F 
ATOM     64  C   UNL A   1      36.640  31.771  30.710  1.00  0.00     0.198 A 
ATOM     65  C   UNL A   1      37.559  31.042  32.805  1.00  0.00     0.198 A 
ATOM     66  F   UNL A   1      39.746  30.180  32.897  1.00  0.00    -0.203 F 
ATOM     67  F   UNL A   1      35.636  32.313  30.009  1.00  0.00    -0.200 F 
ATOM     68  C   UNL A   1      36.510  31.584  32.078  1.00  0.00     0.200 A 
ATOM     69  F   UNL A   1      37.429  30.851  34.125  1.00  0.00    -0.200 F 
ATOM     70  F   UNL A   1      35.372  31.931  32.697  1.00  0.00    -0.200 F 
ENDBRANCH  46  60
BRANCH  47  71
ATOM     71  C   UNL A   1      47.091  27.643  26.063  1.00  0.00     0.064 A 
ATOM     72  C   UNL A   1      48.201  27.121  26.740  1.00  0.00     0.173 A 
ATOM     73  C   UNL A   1      47.148  27.706  24.663  1.00  0.00     0.173 A 
ATOM     74  F   UNL A   1      48.202  27.062  28.079  1.00  0.00    -0.203 F 
ATOM     75  C   UNL A   1      49.328  26.688  26.044  1.00  0.00     0.198 A 
ATOM     76  C   UNL A   1      48.265  27.251  23.967  1.00  0.00     0.198 A 
ATOM     77  F   UNL A   1      46.111  28.200  23.970  1.00  0.00    -0.203 F 
ATOM     78  F   UNL A   1      50.392  26.227  26.716  1.00  0.00    -0.200 F 
ATOM     79  C   UNL A   1      49.357  26.747  24.658  1.00  0.00     0.200 A 
ATOM     80  F   UNL A   1      48.283  27.300  22.628  1.00  0.00    -0.200 F 
ATOM     81  F   UNL A   1      50.438  26.327  23.989  1.00  0.00    -0.200 F 
ENDBRANCH  47  71
BRANCH  59  82
ATOM     82  C   UNL A   1      45.347  33.633  29.182  1.00  0.00     0.064 A 
ATOM     83  C   UNL A   1      45.252  34.701  28.278  1.00  0.00     0.173 A 
ATOM     84  C   UNL A   1      46.103  33.822  30.349  1.00  0.00     0.173 A 
ATOM     85  F   UNL A   1      44.554  34.562  27.141  1.00  0.00    -0.203 F 
ATOM     86  C   UNL A   1      45.895  35.910  28.532  1.00  0.00     0.198 A 
ATOM     87  C   UNL A   1      46.724  35.038  30.611  1.00  0.00     0.198 A 
ATOM     88  F   UNL A   1      46.218  32.830  31.245  1.00  0.00    -0.203 F 
ATOM     89  F   UNL A   1      45.815  36.909  27.643  1.00  0.00    -0.200 F 
ATOM     90  C   UNL A   1      46.622  36.081  29.702  1.00  0.00     0.200 A 
ATOM     91  F   UNL A   1      47.416  35.205  31.746  1.00  0.00    -0.200 F 
ATOM     92  F   UNL A   1      47.227  37.250  29.951  1.00  0.00    -0.200 F 
ENDBRANCH  59  82
ENDBRANCH  33  34
ENDBRANCH  26  28
ENDBRANCH  25  26
ENDBRANCH  24  25
ENDBRANCH   1  24
TORSDOF 16
ENDMDL
MODEL 2
REMARK VINA RESULT:     -11.7      4.554      8.861
REMARK SMILES COc1cc(C[N@@H+]2CCO[C@@H](CC(=O)OCCOC(=O)c3ccc(-c4c5nc(c(-c6c(F)c(F)c(F)c(F)c6F)c6ccc([nH]6)c(-c6c(F)c(F)c(F)c(F)c6F)c6nc(c(-c7c(F)c(F)c(F)c(F)c7F)c7ccc4[nH]7)C=C6)C=C5)cc3)C2)ccc1O
REMARK SMILES IDX 16 1 15 2 13 3 14 4 12 5 11 6 7 7 8 8 84 9 9 11 10 12 6 13
REMARK SMILES IDX 5 14 3 15 4 16 87 17 86 18 85 19 2 20 1 21 88 22 17 24 18 25
REMARK SMILES IDX 19 26 20 27 21 28 22 29 83 30 23 31 82 32 24 33 25 34 26 35
REMARK SMILES IDX 76 36 27 37 81 38 75 39 77 40 28 41 80 42 74 43 73 44 29 46
REMARK SMILES IDX 61 47 41 48 60 49 42 50 45 51 59 52 78 53 43 54 44 55 58 57
REMARK SMILES IDX 79 58 46 59 30 60 31 61 39 62 32 63 33 64 37 65 40 66 34 67
REMARK SMILES IDX 35 68 38 69 36 70 62 71 63 72 71 73 64 74 65 75 69 76 72 77
REMARK SMILES IDX 66 78 67 79 70 80 68 81 47 82 48 83 56 84 49 85 50 86 54 87
REMARK SMILES IDX 57 88 51 89 52 90 55 91 53 92
REMARK H PARENT 7 10 88 23 77 45 45 56
REMARK Flexibility Score: inf
ROOT
ATOM      1  C   UNL A   1      42.564  20.483  26.312  1.00  0.00     0.274 C 
ENDROOT
BRANCH   1   2
ATOM      2  O   UNL A   1      41.697  19.631  25.532  1.00  0.00    -0.462 OA
BRANCH   2   3
ATOM      3  C   UNL A   1      40.372  19.678  25.834  1.00  0.00     0.308 C 
ATOM      4  O   UNL A   1      39.553  18.825  25.513  1.00  0.00    -0.252 OA
BRANCH   3   5
ATOM      5  C   UNL A   1      39.996  20.951  26.540  1.00  0.00     0.160 C 
BRANCH   5   6
ATOM      6  C   UNL A   1      39.027  21.904  25.834  1.00  0.00     0.184 C 
ATOM      7  N   UNL A   1      36.538  22.340  25.394  1.00  0.00    -0.327 N 
ATOM      8  C   UNL A   1      36.719  23.591  26.128  1.00  0.00     0.291 C 
ATOM      9  C   UNL A   1      37.581  21.352  25.716  1.00  0.00     0.295 C 
ATOM     10  H   UNL A   1      35.681  21.929  25.765  1.00  0.00     0.348 HD
ATOM     11  C   UNL A   1      38.165  24.096  26.169  1.00  0.00     0.222 C 
ATOM     12  O   UNL A   1      39.049  23.092  26.664  1.00  0.00    -0.366 OA
BRANCH   7  13
ATOM     13  C   UNL A   1      36.110  22.450  23.999  1.00  0.00     0.299 C 
BRANCH  13  14
ATOM     14  C   UNL A   1      34.664  22.790  23.712  1.00  0.00     0.010 A 
ATOM     15  C   UNL A   1      32.949  24.277  22.846  1.00  0.00     0.160 A 
ATOM     16  C   UNL A   1      34.286  24.024  23.164  1.00  0.00     0.060 A 
ATOM     17  C   UNL A   1      31.966  23.338  23.152  1.00  0.00     0.157 A 
ATOM     18  C   UNL A   1      32.311  22.135  23.746  1.00  0.00     0.051 A 
ATOM     19  C   UNL A   1      33.653  21.874  24.037  1.00  0.00     0.013 A 
BRANCH  15  20
ATOM     20  O   UNL A   1      32.635  25.487  22.289  1.00  0.00    -0.493 OA
ATOM     21  C   UNL A   1      32.818  26.563  23.215  1.00  0.00     0.278 C 
ENDBRANCH  15  20
BRANCH  17  22
ATOM     22  O   UNL A   1      30.644  23.582  22.917  1.00  0.00    -0.504 OA
ATOM     23  H   UNL A   1      30.213  24.289  23.358  1.00  0.00     0.293 HD
ENDBRANCH  17  22
ENDBRANCH  13  14
ENDBRANCH   7  13
ENDBRANCH   5   6
ENDBRANCH   3   5
ENDBRANCH   2   3
ENDBRANCH   1   2
BRANCH   1  24
ATOM     24  C   UNL A   1      43.412  21.425  25.444  1.00  0.00     0.275 C 
BRANCH  24  25
ATOM     25  O   UNL A   1      42.692  22.603  25.029  1.00  0.00    -0.458 OA
BRANCH  25  26
ATOM     26  C   UNL A   1      43.432  23.732  25.044  1.00  0.00     0.338 C 
ATOM     27  O   UNL A   1      44.346  23.996  24.276  1.00  0.00    -0.246 OA
BRANCH  26  28
ATOM     28  C   UNL A   1      42.973  24.693  26.052  1.00  0.00     0.060 A 
ATOM     29  C   UNL A   1      43.520  25.983  26.028  1.00  0.00     0.016 A 
ATOM     30  C   UNL A   1      42.107  24.305  27.074  1.00  0.00     0.016 A 
ATOM     31  C   UNL A   1      43.197  26.896  27.027  1.00  0.00     0.010 A 
ATOM     32  C   UNL A   1      41.786  25.222  28.077  1.00  0.00     0.010 A 
ATOM     33  C   UNL A   1      42.331  26.518  28.061  1.00  0.00    -0.014 A 
BRANCH  33  34
ATOM     34  C   UNL A   1      41.983  27.471  29.138  1.00  0.00     0.031 A 
ATOM     35  C   UNL A   1      42.760  27.471  30.419  1.00  0.00     0.074 A 
ATOM     36  C   UNL A   1      40.936  28.299  28.973  1.00  0.00     0.049 A 
ATOM     37  N   UNL A   1      42.514  28.107  31.536  1.00  0.00    -0.248 NA
ATOM     38  C   UNL A   1      43.975  26.646  30.447  1.00  0.00     0.031 C 
ATOM     39  C   UNL A   1      40.139  28.415  27.753  1.00  0.00     0.029 A 
ATOM     40  N   UNL A   1      40.347  29.178  29.846  1.00  0.00    -0.354 N 
ATOM     41  C   UNL A   1      43.535  27.749  32.404  1.00  0.00     0.074 A 
ATOM     42  C   UNL A   1      44.398  26.831  31.690  1.00  0.00     0.031 C 
ATOM     43  C   UNL A   1      39.147  29.294  27.963  1.00  0.00     0.029 A 
ATOM     44  C   UNL A   1      39.212  29.764  29.345  1.00  0.00     0.049 A 
ATOM     45  H   UNL A   1      40.703  29.369  30.744  1.00  0.00     0.167 HD
ATOM     46  C   UNL A   1      43.728  28.153  33.682  1.00  0.00     0.037 A 
ATOM     47  C   UNL A   1      38.303  30.554  29.947  1.00  0.00     0.037 A 
ATOM     48  C   UNL A   1      42.860  29.063  34.383  1.00  0.00     0.049 A 
ATOM     49  C   UNL A   1      38.494  30.921  31.393  1.00  0.00     0.074 A 
ATOM     50  C   UNL A   1      42.970  29.538  35.679  1.00  0.00     0.029 A 
ATOM     51  N   UNL A   1      41.713  29.630  33.845  1.00  0.00    -0.354 N 
ATOM     52  N   UNL A   1      39.463  30.584  32.210  1.00  0.00    -0.248 NA
ATOM     53  C   UNL A   1      37.463  31.772  32.004  1.00  0.00     0.031 C 
ATOM     54  C   UNL A   1      41.868  30.358  35.939  1.00  0.00     0.029 A 
ATOM     55  C   UNL A   1      41.096  30.433  34.790  1.00  0.00     0.049 A 
ATOM     56  H   UNL A   1      41.387  29.484  32.928  1.00  0.00     0.167 HD
ATOM     57  C   UNL A   1      39.178  31.206  33.417  1.00  0.00     0.074 A 
ATOM     58  C   UNL A   1      37.944  31.940  33.229  1.00  0.00     0.031 C 
ATOM     59  C   UNL A   1      39.880  31.175  34.576  1.00  0.00     0.037 A 
BRANCH  46  60
ATOM     60  C   UNL A   1      44.906  27.590  34.417  1.00  0.00     0.064 A 
ATOM     61  C   UNL A   1      44.817  26.395  35.146  1.00  0.00     0.173 A 
ATOM     62  C   UNL A   1      46.153  28.230  34.354  1.00  0.00     0.173 A 
ATOM     63  F   UNL A   1      43.644  25.750  35.246  1.00  0.00    -0.203 F 
ATOM     64  C   UNL A   1      45.930  25.871  35.800  1.00  0.00     0.198 A 
ATOM     65  C   UNL A   1      47.268  27.692  34.989  1.00  0.00     0.198 A 
ATOM     66  F   UNL A   1      46.292  29.373  33.664  1.00  0.00    -0.203 F 
ATOM     67  F   UNL A   1      45.814  24.747  36.519  1.00  0.00    -0.200 F 
ATOM     68  C   UNL A   1      47.155  26.516  35.716  1.00  0.00     0.200 A 
ATOM     69  F   UNL A   1      48.454  28.310  34.898  1.00  0.00    -0.200 F 
ATOM     70  F   UNL A   1      48.227  26.006  36.339  1.00  0.00    -0.200 F 
ENDBRANCH  46  60
BRANCH  47  71
ATOM     71  C   UNL A   1      37.120  31.026  29.186  1.00  0.00     0.064 A 
ATOM     72  C   UNL A   1      36.044  30.169  28.921  1.00  0.00     0.173 A 
ATOM     73  C   UNL A   1      37.037  32.346  28.718  1.00  0.00     0.173 A 
ATOM     74  F   UNL A   1      36.090  28.892  29.328  1.00  0.00    -0.203 F 
ATOM     75  C   UNL A   1      34.933  30.612  28.206  1.00  0.00     0.198 A 
ATOM     76  C   UNL A   1      35.915  32.794  28.026  1.00  0.00     0.198 A 
ATOM     77  F   UNL A   1      38.042  33.205  28.946  1.00  0.00    -0.203 F 
ATOM     78  F   UNL A   1      33.933  29.762  27.933  1.00  0.00    -0.200 F 
ATOM     79  C   UNL A   1      34.866  31.925  27.765  1.00  0.00     0.200 A 
ATOM     80  F   UNL A   1      35.850  34.067  27.611  1.00  0.00    -0.200 F 
ATOM     81  F   UNL A   1      33.795  32.351  27.082  1.00  0.00    -0.200 F 
ENDBRANCH  47  71
BRANCH  59  82
ATOM     82  C   UNL A   1      39.368  32.000  35.717  1.00  0.00     0.064 A 
ATOM     83  C   UNL A   1      39.724  33.347  35.870  1.00  0.00     0.173 A 
ATOM     84  C   UNL A   1      38.452  31.453  36.629  1.00  0.00     0.173 A 
ATOM     85  F   UNL A   1      40.609  33.911  35.033  1.00  0.00    -0.203 F 
ATOM     86  C   UNL A   1      39.188  34.115  36.901  1.00  0.00     0.198 A 
ATOM     87  C   UNL A   1      37.900  32.228  37.643  1.00  0.00     0.198 A 
ATOM     88  F   UNL A   1      38.077  30.169  36.519  1.00  0.00    -0.203 F 
ATOM     89  F   UNL A   1      39.562  35.393  37.047  1.00  0.00    -0.200 F 
ATOM     90  C   UNL A   1      38.270  33.558  37.780  1.00  0.00     0.200 A 
ATOM     91  F   UNL A   1      37.005  31.692  38.484  1.00  0.00    -0.200 F 
ATOM     92  F   UNL A   1      37.744  34.302  38.762  1.00  0.00    -0.200 F 
ENDBRANCH  59  82
ENDBRANCH  33  34
ENDBRANCH  26  28
ENDBRANCH  25  26
ENDBRANCH  24  25
ENDBRANCH   1  24
TORSDOF 16
ENDMDL
MODEL 3
REMARK VINA RESULT:     -11.6      4.976     10.208
REMARK SMILES COc1cc(C[N@@H+]2CCO[C@@H](CC(=O)OCCOC(=O)c3ccc(-c4c5nc(c(-c6c(F)c(F)c(F)c(F)c6F)c6ccc([nH]6)c(-c6c(F)c(F)c(F)c(F)c6F)c6nc(c(-c7c(F)c(F)c(F)c(F)c7F)c7ccc4[nH]7)C=C6)C=C5)cc3)C2)ccc1O
REMARK SMILES IDX 16 1 15 2 13 3 14 4 12 5 11 6 7 7 8 8 84 9 9 11 10 12 6 13
REMARK SMILES IDX 5 14 3 15 4 16 87 17 86 18 85 19 2 20 1 21 88 22 17 24 18 25
REMARK SMILES IDX 19 26 20 27 21 28 22 29 83 30 23 31 82 32 24 33 25 34 26 35
REMARK SMILES IDX 76 36 27 37 81 38 75 39 77 40 28 41 80 42 74 43 73 44 29 46
REMARK SMILES IDX 61 47 41 48 60 49 42 50 45 51 59 52 78 53 43 54 44 55 58 57
REMARK SMILES IDX 79 58 46 59 30 60 31 61 39 62 32 63 33 64 37 65 40 66 34 67
REMARK SMILES IDX 35 68 38 69 36 70 62 71 63 72 71 73 64 74 65 75 69 76 72 77
REMARK SMILES IDX 66 78 67 79 70 80 68 81 47 82 48 83 56 84 49 85 50 86 54 87
REMARK SMILES IDX 57 88 51 89 52 90 55 91 53 92
REMARK H PARENT 7 10 88 23 77 45 45 56
REMARK Flexibility Score: inf
ROOT
ATOM      1  C   UNL A   1      33.569  31.783  27.598  1.00  0.00     0.274 C 
ENDROOT
BRANCH   1   2
ATOM      2  O   UNL A   1      33.032  30.594  26.980  1.00  0.00    -0.462 OA
BRANCH   2   3
ATOM      3  C   UNL A   1      33.862  29.518  26.914  1.00  0.00     0.308 C 
ATOM      4  O   UNL A   1      34.660  29.199  27.787  1.00  0.00    -0.252 OA
BRANCH   3   5
ATOM      5  C   UNL A   1      33.756  28.800  25.597  1.00  0.00     0.160 C 
BRANCH   5   6
ATOM      6  C   UNL A   1      32.367  28.348  25.137  1.00  0.00     0.184 C 
ATOM      7  N   UNL A   1      30.709  28.487  23.184  1.00  0.00    -0.327 N 
ATOM      8  C   UNL A   1      30.861  27.039  23.067  1.00  0.00     0.291 C 
ATOM      9  C   UNL A   1      31.842  29.110  23.890  1.00  0.00     0.295 C 
ATOM     10  H   UNL A   1      30.782  28.846  22.231  1.00  0.00     0.348 HD
ATOM     11  C   UNL A   1      31.344  26.349  24.348  1.00  0.00     0.222 C 
ATOM     12  O   UNL A   1      32.548  26.942  24.832  1.00  0.00    -0.366 OA
BRANCH   7  13
ATOM     13  C   UNL A   1      29.366  28.989  23.475  1.00  0.00     0.299 C 
BRANCH  13  14
ATOM     14  C   UNL A   1      28.866  30.199  22.717  1.00  0.00     0.010 A 
ATOM     15  C   UNL A   1      28.473  32.588  22.523  1.00  0.00     0.160 A 
ATOM     16  C   UNL A   1      28.877  31.484  23.277  1.00  0.00     0.060 A 
ATOM     17  C   UNL A   1      27.971  32.411  21.235  1.00  0.00     0.157 A 
ATOM     18  C   UNL A   1      27.898  31.143  20.683  1.00  0.00     0.051 A 
ATOM     19  C   UNL A   1      28.329  30.044  21.430  1.00  0.00     0.013 A 
BRANCH  15  20
ATOM     20  O   UNL A   1      28.527  33.825  23.107  1.00  0.00    -0.493 OA
ATOM     21  C   UNL A   1      29.850  34.150  23.545  1.00  0.00     0.278 C 
ENDBRANCH  15  20
BRANCH  17  22
ATOM     22  O   UNL A   1      27.505  33.462  20.498  1.00  0.00    -0.504 OA
ATOM     23  H   UNL A   1      27.957  34.283  20.514  1.00  0.00     0.293 HD
ENDBRANCH  17  22
ENDBRANCH  13  14
ENDBRANCH   7  13
ENDBRANCH   5   6
ENDBRANCH   3   5
ENDBRANCH   2   3
ENDBRANCH   1   2
BRANCH   1  24
ATOM     24  C   UNL A   1      32.566  32.946  27.625  1.00  0.00     0.275 C 
BRANCH  24  25
ATOM     25  O   UNL A   1      33.207  34.237  27.674  1.00  0.00    -0.458 OA
BRANCH  25  26
ATOM     26  C   UNL A   1      33.303  34.753  28.917  1.00  0.00     0.338 C 
ATOM     27  O   UNL A   1      32.485  35.489  29.450  1.00  0.00    -0.246 OA
BRANCH  26  28
ATOM     28  C   UNL A   1      34.486  34.270  29.637  1.00  0.00     0.060 A 
ATOM     29  C   UNL A   1      35.740  34.459  29.044  1.00  0.00     0.016 A 
ATOM     30  C   UNL A   1      34.360  33.543  30.821  1.00  0.00     0.016 A 
ATOM     31  C   UNL A   1      36.880  33.923  29.636  1.00  0.00     0.010 A 
ATOM     32  C   UNL A   1      35.504  33.004  31.412  1.00  0.00     0.010 A 
ATOM     33  C   UNL A   1      36.767  33.188  30.822  1.00  0.00    -0.014 A 
BRANCH  33  34
ATOM     34  C   UNL A   1      37.965  32.602  31.464  1.00  0.00     0.031 A 
ATOM     35  C   UNL A   1      38.646  31.422  30.842  1.00  0.00     0.074 A 
ATOM     36  C   UNL A   1      38.404  33.109  32.629  1.00  0.00     0.049 A 
ATOM     37  N   UNL A   1      39.601  30.669  31.325  1.00  0.00    -0.248 NA
ATOM     38  C   UNL A   1      38.193  31.038  29.498  1.00  0.00     0.031 C 
ATOM     39  C   UNL A   1      37.845  34.283  33.300  1.00  0.00     0.029 A 
ATOM     40  N   UNL A   1      39.402  32.684  33.469  1.00  0.00    -0.354 N 
ATOM     41  C   UNL A   1      39.854  29.713  30.351  1.00  0.00     0.074 A 
ATOM     42  C   UNL A   1      38.945  29.973  29.254  1.00  0.00     0.031 C 
ATOM     43  C   UNL A   1      38.491  34.469  34.462  1.00  0.00     0.029 A 
ATOM     44  C   UNL A   1      39.472  33.400  34.637  1.00  0.00     0.049 A 
ATOM     45  H   UNL A   1      40.007  31.937  33.254  1.00  0.00     0.167 HD
ATOM     46  C   UNL A   1      40.763  28.710  30.379  1.00  0.00     0.037 A 
ATOM     47  C   UNL A   1      40.212  33.190  35.742  1.00  0.00     0.037 A 
ATOM     48  C   UNL A   1      41.659  28.458  31.478  1.00  0.00     0.049 A 
ATOM     49  C   UNL A   1      41.155  32.018  35.781  1.00  0.00     0.074 A 
ATOM     50  C   UNL A   1      42.619  27.470  31.601  1.00  0.00     0.029 A 
ATOM     51  N   UNL A   1      41.695  29.201  32.650  1.00  0.00    -0.354 N 
ATOM     52  N   UNL A   1      41.394  31.120  34.858  1.00  0.00    -0.248 NA
ATOM     53  C   UNL A   1      41.926  31.828  37.018  1.00  0.00     0.031 C 
ATOM     54  C   UNL A   1      43.208  27.587  32.864  1.00  0.00     0.029 A 
ATOM     55  C   UNL A   1      42.647  28.678  33.509  1.00  0.00     0.049 A 
ATOM     56  H   UNL A   1      41.129  29.983  32.842  1.00  0.00     0.167 HD
ATOM     57  C   UNL A   1      42.364  30.279  35.386  1.00  0.00     0.074 A 
ATOM     58  C   UNL A   1      42.668  30.771  36.713  1.00  0.00     0.031 C 
ATOM     59  C   UNL A   1      42.952  29.198  34.818  1.00  0.00     0.037 A 
BRANCH  46  60
ATOM     60  C   UNL A   1      40.815  27.789  29.197  1.00  0.00     0.064 A 
ATOM     61  C   UNL A   1      39.916  26.723  29.053  1.00  0.00     0.173 A 
ATOM     62  C   UNL A   1      41.749  28.005  28.172  1.00  0.00     0.173 A 
ATOM     63  F   UNL A   1      39.011  26.469  30.012  1.00  0.00    -0.203 F 
ATOM     64  C   UNL A   1      39.961  25.894  27.935  1.00  0.00     0.198 A 
ATOM     65  C   UNL A   1      41.777  27.189  27.045  1.00  0.00     0.198 A 
ATOM     66  F   UNL A   1      42.628  29.015  28.258  1.00  0.00    -0.203 F 
ATOM     67  F   UNL A   1      39.115  24.861  27.835  1.00  0.00    -0.200 F 
ATOM     68  C   UNL A   1      40.887  26.132  26.929  1.00  0.00     0.200 A 
ATOM     69  F   UNL A   1      42.663  27.426  26.068  1.00  0.00    -0.200 F 
ATOM     70  F   UNL A   1      40.923  25.338  25.849  1.00  0.00    -0.200 F 
ENDBRANCH  46  60
BRANCH  47  71
ATOM     71  C   UNL A   1      40.067  34.097  36.907  1.00  0.00     0.064 A 
ATOM     72  C   UNL A   1      40.840  35.261  37.015  1.00  0.00     0.173 A 
ATOM     73  C   UNL A   1      39.149  33.824  37.931  1.00  0.00     0.173 A 
ATOM     74  F   UNL A   1      41.748  35.551  36.072  1.00  0.00    -0.203 F 
ATOM     75  C   UNL A   1      40.706  36.113  38.108  1.00  0.00     0.198 A 
ATOM     76  C   UNL A   1      38.998  34.690  39.012  1.00  0.00     0.198 A 
ATOM     77  F   UNL A   1      38.387  32.721  37.875  1.00  0.00    -0.203 F 
ATOM     78  F   UNL A   1      41.483  37.201  38.207  1.00  0.00    -0.200 F 
ATOM     79  C   UNL A   1      39.781  35.831  39.103  1.00  0.00     0.200 A 
ATOM     80  F   UNL A   1      38.095  34.418  39.964  1.00  0.00    -0.200 F 
ATOM     81  F   UNL A   1      39.649  36.653  40.152  1.00  0.00    -0.200 F 
ENDBRANCH  47  71
BRANCH  59  82
ATOM     82  C   UNL A   1      44.026  28.505  35.600  1.00  0.00     0.064 A 
ATOM     83  C   UNL A   1      43.731  27.469  36.498  1.00  0.00     0.173 A 
ATOM     84  C   UNL A   1      45.374  28.837  35.396  1.00  0.00     0.173 A 
ATOM     85  F   UNL A   1      42.456  27.126  36.739  1.00  0.00    -0.203 F 
ATOM     86  C   UNL A   1      44.748  26.795  37.169  1.00  0.00     0.198 A 
ATOM     87  C   UNL A   1      46.389  28.146  36.049  1.00  0.00     0.198 A 
ATOM     88  F   UNL A   1      45.704  29.818  34.542  1.00  0.00    -0.203 F 
ATOM     89  F   UNL A   1      44.446  25.826  38.043  1.00  0.00    -0.200 F 
ATOM     90  C   UNL A   1      46.076  27.127  36.937  1.00  0.00     0.200 A 
ATOM     91  F   UNL A   1      47.670  28.461  35.816  1.00  0.00    -0.200 F 
ATOM     92  F   UNL A   1      47.054  26.468  37.572  1.00  0.00    -0.200 F 
ENDBRANCH  59  82
ENDBRANCH  33  34
ENDBRANCH  26  28
ENDBRANCH  25  26
ENDBRANCH  24  25
ENDBRANCH   1  24
TORSDOF 16
ENDMDL
