MODEL 1
REMARK VINA RESULT:     -11.9      0.000      0.000
REMARK SMILES O=C(/C=C/c1ccc(O)c(O)c1)OCCOC(=O)c1ccc(-c2c3nc(c(-c4c(F)c(F)c(F)c(F)c4F)c4ccc([nH]4)c(-c4c(F)c(F)c(F)c(F)c4F)c4nc(c(-c5c(F)c(F)c(F)c(F)c5F)c5ccc2[nH]5)C=C4)C=C3)cc1
REMARK SMILES IDX 14 1 13 2 2 3 1 4 3 5 4 6 5 7 6 8 12 9 7 10 10 11 8 12 11 13
REMARK SMILES IDX 9 15 15 17 16 18 17 19 18 20 19 21 20 22 81 23 21 24 80 25
REMARK SMILES IDX 22 26 23 27 24 28 74 29 25 30 79 31 73 32 75 33 26 34 78 35
REMARK SMILES IDX 72 36 71 37 27 39 59 40 39 41 58 42 40 43 43 44 57 45 76 46
REMARK SMILES IDX 41 47 42 48 56 50 77 51 44 52 28 53 29 54 37 55 30 56 31 57
REMARK SMILES IDX 35 58 38 59 32 60 33 61 36 62 34 63 60 64 61 65 69 66 62 67
REMARK SMILES IDX 63 68 67 69 70 70 64 71 65 72 68 73 66 74 45 75 46 76 54 77
REMARK SMILES IDX 47 78 48 79 52 80 55 81 49 82 50 83 53 84 51 85
REMARK H PARENT 11 14 9 16 75 38 43 49
REMARK Flexibility Score: inf
ROOT
ATOM      1  C   UNL A   1      31.817  28.846  27.066  1.00  0.00     0.275 C 
ENDROOT
BRANCH   1   2
ATOM      2  O   UNL A   1      31.421  28.092  25.901  1.00  0.00    -0.459 OA
BRANCH   2   3
ATOM      3  C   UNL A   1      31.777  28.277  24.610  1.00  0.00     0.330 C 
ATOM      4  O   UNL A   1      32.883  27.916  24.211  1.00  0.00    -0.247 OA
BRANCH   3   5
ATOM      5  C   UNL A   1      30.954  29.088  23.696  1.00  0.00     0.094 C 
ATOM      6  C   UNL A   1      29.675  29.466  23.807  1.00  0.00     0.016 C 
BRANCH   6   7
ATOM      7  C   UNL A   1      29.079  30.463  22.910  1.00  0.00    -0.021 A 
ATOM      8  C   UNL A   1      28.611  30.144  21.626  1.00  0.00     0.012 A 
ATOM      9  C   UNL A   1      28.995  31.787  23.363  1.00  0.00     0.058 A 
ATOM     10  C   UNL A   1      28.064  31.135  20.802  1.00  0.00     0.051 A 
ATOM     11  C   UNL A   1      28.459  32.763  22.536  1.00  0.00     0.157 A 
ATOM     12  C   UNL A   1      27.991  32.443  21.267  1.00  0.00     0.157 A 
BRANCH  11  13
ATOM     13  O   UNL A   1      28.403  34.053  22.983  1.00  0.00    -0.504 OA
ATOM     14  H   UNL A   1      28.150  34.231  23.867  1.00  0.00     0.293 HD
ENDBRANCH  11  13
BRANCH  12  15
ATOM     15  O   UNL A   1      27.461  33.453  20.514  1.00  0.00    -0.504 OA
ATOM     16  H   UNL A   1      26.673  33.879  20.790  1.00  0.00     0.293 HD
ENDBRANCH  12  15
ENDBRANCH   6   7
ENDBRANCH   3   5
ENDBRANCH   2   3
ENDBRANCH   1   2
BRANCH   1  17
ATOM     17  C   UNL A   1      31.902  30.364  26.877  1.00  0.00     0.275 C 
BRANCH  17  18
ATOM     18  O   UNL A   1      33.225  30.827  26.570  1.00  0.00    -0.458 OA
BRANCH  18  19
ATOM     19  C   UNL A   1      33.741  31.697  27.474  1.00  0.00     0.338 C 
ATOM     20  O   UNL A   1      33.161  32.644  27.979  1.00  0.00    -0.246 OA
BRANCH  19  21
ATOM     21  C   UNL A   1      35.097  31.276  27.894  1.00  0.00     0.060 A 
ATOM     22  C   UNL A   1      35.296  29.914  28.149  1.00  0.00     0.016 A 
ATOM     23  C   UNL A   1      36.148  32.181  28.072  1.00  0.00     0.016 A 
ATOM     24  C   UNL A   1      36.520  29.464  28.645  1.00  0.00     0.010 A 
ATOM     25  C   UNL A   1      37.382  31.725  28.560  1.00  0.00     0.010 A 
ATOM     26  C   UNL A   1      37.559  30.371  28.897  1.00  0.00    -0.014 A 
BRANCH  26  27
ATOM     27  C   UNL A   1      38.747  29.913  29.669  1.00  0.00     0.031 A 
ATOM     28  C   UNL A   1      38.938  30.410  31.079  1.00  0.00     0.074 A 
ATOM     29  C   UNL A   1      39.606  29.010  29.163  1.00  0.00     0.049 A 
ATOM     30  N   UNL A   1      39.841  30.072  31.966  1.00  0.00    -0.248 NA
ATOM     31  C   UNL A   1      37.987  31.427  31.551  1.00  0.00     0.031 C 
ATOM     32  C   UNL A   1      39.532  28.429  27.825  1.00  0.00     0.029 A 
ATOM     33  N   UNL A   1      40.706  28.412  29.729  1.00  0.00    -0.354 N 
ATOM     34  C   UNL A   1      39.562  30.828  33.098  1.00  0.00     0.074 A 
ATOM     35  C   UNL A   1      38.440  31.680  32.768  1.00  0.00     0.031 C 
ATOM     36  C   UNL A   1      40.535  27.545  27.678  1.00  0.00     0.029 A 
ATOM     37  C   UNL A   1      41.333  27.511  28.904  1.00  0.00     0.049 A 
ATOM     38  H   UNL A   1      41.017  28.612  30.643  1.00  0.00     0.167 HD
ATOM     39  C   UNL A   1      40.167  30.804  34.310  1.00  0.00     0.037 A 
ATOM     40  C   UNL A   1      42.420  26.742  29.116  1.00  0.00     0.037 A 
ATOM     41  C   UNL A   1      41.282  29.958  34.650  1.00  0.00     0.049 A 
ATOM     42  C   UNL A   1      43.110  26.773  30.458  1.00  0.00     0.074 A 
ATOM     43  C   UNL A   1      41.942  29.846  35.861  1.00  0.00     0.029 A 
ATOM     44  N   UNL A   1      41.908  29.086  33.773  1.00  0.00    -0.354 N 
ATOM     45  N   UNL A   1      42.801  27.448  31.539  1.00  0.00    -0.248 NA
ATOM     46  C   UNL A   1      44.297  25.918  30.610  1.00  0.00     0.031 C 
ATOM     47  C   UNL A   1      43.006  28.953  35.702  1.00  0.00     0.029 A 
ATOM     48  C   UNL A   1      42.966  28.454  34.410  1.00  0.00     0.049 A 
ATOM     49  H   UNL A   1      41.642  28.937  32.837  1.00  0.00     0.167 HD
ATOM     50  C   UNL A   1      43.720  27.062  32.508  1.00  0.00     0.074 A 
ATOM     51  C   UNL A   1      44.596  26.090  31.890  1.00  0.00     0.031 C 
ATOM     52  C   UNL A   1      43.825  27.472  33.797  1.00  0.00     0.037 A 
BRANCH  39  53
ATOM     53  C   UNL A   1      39.647  31.743  35.361  1.00  0.00     0.064 A 
ATOM     54  C   UNL A   1      40.114  33.062  35.471  1.00  0.00     0.173 A 
ATOM     55  C   UNL A   1      38.643  31.327  36.249  1.00  0.00     0.173 A 
ATOM     56  F   UNL A   1      41.081  33.506  34.654  1.00  0.00    -0.203 F 
ATOM     57  C   UNL A   1      39.621  33.916  36.453  1.00  0.00     0.198 A 
ATOM     58  C   UNL A   1      38.128  32.195  37.207  1.00  0.00     0.198 A 
ATOM     59  F   UNL A   1      38.155  30.079  36.183  1.00  0.00    -0.203 F 
ATOM     60  F   UNL A   1      40.122  35.154  36.576  1.00  0.00    -0.200 F 
ATOM     61  C   UNL A   1      38.623  33.485  37.316  1.00  0.00     0.200 A 
ATOM     62  F   UNL A   1      37.154  31.781  38.029  1.00  0.00    -0.200 F 
ATOM     63  F   UNL A   1      38.145  34.312  38.256  1.00  0.00    -0.200 F 
ENDBRANCH  39  53
BRANCH  40  64
ATOM     64  C   UNL A   1      42.926  25.850  28.038  1.00  0.00     0.064 A 
ATOM     65  C   UNL A   1      42.460  24.533  27.907  1.00  0.00     0.173 A 
ATOM     66  C   UNL A   1      43.922  26.279  27.148  1.00  0.00     0.173 A 
ATOM     67  F   UNL A   1      41.529  24.067  28.750  1.00  0.00    -0.203 F 
ATOM     68  C   UNL A   1      42.992  23.673  26.947  1.00  0.00     0.198 A 
ATOM     69  C   UNL A   1      44.431  25.428  26.170  1.00  0.00     0.198 A 
ATOM     70  F   UNL A   1      44.404  27.529  27.231  1.00  0.00    -0.203 F 
ATOM     71  F   UNL A   1      42.572  22.402  26.886  1.00  0.00    -0.200 F 
ATOM     72  C   UNL A   1      43.973  24.122  26.078  1.00  0.00     0.200 A 
ATOM     73  F   UNL A   1      45.371  25.869  25.324  1.00  0.00    -0.200 F 
ATOM     74  F   UNL A   1      44.489  23.293  25.160  1.00  0.00    -0.200 F 
ENDBRANCH  40  64
BRANCH  52  75
ATOM     75  C   UNL A   1      44.881  26.827  34.653  1.00  0.00     0.064 A 
ATOM     76  C   UNL A   1      46.163  27.375  34.799  1.00  0.00     0.173 A 
ATOM     77  C   UNL A   1      44.591  25.649  35.363  1.00  0.00     0.173 A 
ATOM     78  F   UNL A   1      46.498  28.493  34.138  1.00  0.00    -0.203 F 
ATOM     79  C   UNL A   1      47.126  26.751  35.589  1.00  0.00     0.198 A 
ATOM     80  C   UNL A   1      45.545  25.047  36.180  1.00  0.00     0.198 A 
ATOM     81  F   UNL A   1      43.378  25.085  35.270  1.00  0.00    -0.203 F 
ATOM     82  F   UNL A   1      48.363  27.261  35.663  1.00  0.00    -0.200 F 
ATOM     83  C   UNL A   1      46.814  25.592  36.284  1.00  0.00     0.200 A 
ATOM     84  F   UNL A   1      45.234  23.938  36.865  1.00  0.00    -0.200 F 
ATOM     85  F   UNL A   1      47.741  24.994  37.045  1.00  0.00    -0.200 F 
ENDBRANCH  52  75
ENDBRANCH  26  27
ENDBRANCH  19  21
ENDBRANCH  18  19
ENDBRANCH  17  18
ENDBRANCH   1  17
TORSDOF 14
ENDMDL
MODEL 2
REMARK VINA RESULT:     -11.8      0.404      1.716
REMARK SMILES O=C(/C=C/c1ccc(O)c(O)c1)OCCOC(=O)c1ccc(-c2c3nc(c(-c4c(F)c(F)c(F)c(F)c4F)c4ccc([nH]4)c(-c4c(F)c(F)c(F)c(F)c4F)c4nc(c(-c5c(F)c(F)c(F)c(F)c5F)c5ccc2[nH]5)C=C4)C=C3)cc1
REMARK SMILES IDX 14 1 13 2 2 3 1 4 3 5 4 6 5 7 6 8 12 9 7 10 10 11 8 12 11 13
REMARK SMILES IDX 9 15 15 17 16 18 17 19 18 20 19 21 20 22 81 23 21 24 80 25
REMARK SMILES IDX 22 26 23 27 24 28 74 29 25 30 79 31 73 32 75 33 26 34 78 35
REMARK SMILES IDX 72 36 71 37 27 39 59 40 39 41 58 42 40 43 43 44 57 45 76 46
REMARK SMILES IDX 41 47 42 48 56 50 77 51 44 52 28 53 29 54 37 55 30 56 31 57
REMARK SMILES IDX 35 58 38 59 32 60 33 61 36 62 34 63 60 64 61 65 69 66 62 67
REMARK SMILES IDX 63 68 67 69 70 70 64 71 65 72 68 73 66 74 45 75 46 76 54 77
REMARK SMILES IDX 47 78 48 79 52 80 55 81 49 82 50 83 53 84 51 85
REMARK H PARENT 11 14 9 16 75 38 43 49
REMARK Flexibility Score: inf
ROOT
ATOM      1  C   UNL A   1      31.778  29.191  26.902  1.00  0.00     0.275 C 
ENDROOT
BRANCH   1   2
ATOM      2  O   UNL A   1      32.229  28.528  25.702  1.00  0.00    -0.459 OA
BRANCH   2   3
ATOM      3  C   UNL A   1      31.498  28.046  24.673  1.00  0.00     0.330 C 
ATOM      4  O   UNL A   1      31.541  26.851  24.384  1.00  0.00    -0.247 OA
BRANCH   3   5
ATOM      5  C   UNL A   1      30.793  28.946  23.744  1.00  0.00     0.094 C 
ATOM      6  C   UNL A   1      29.480  29.164  23.598  1.00  0.00     0.016 C 
BRANCH   6   7
ATOM      7  C   UNL A   1      28.963  30.264  22.775  1.00  0.00    -0.021 A 
ATOM      8  C   UNL A   1      28.498  30.078  21.464  1.00  0.00     0.012 A 
ATOM      9  C   UNL A   1      28.953  31.551  23.332  1.00  0.00     0.058 A 
ATOM     10  C   UNL A   1      28.028  31.164  20.715  1.00  0.00     0.051 A 
ATOM     11  C   UNL A   1      28.493  32.622  22.579  1.00  0.00     0.157 A 
ATOM     12  C   UNL A   1      28.028  32.432  21.282  1.00  0.00     0.157 A 
BRANCH  11  13
ATOM     13  O   UNL A   1      28.510  33.873  23.126  1.00  0.00    -0.504 OA
ATOM     14  H   UNL A   1      27.950  34.074  23.850  1.00  0.00     0.293 HD
ENDBRANCH  11  13
BRANCH  12  15
ATOM     15  O   UNL A   1      27.575  33.530  20.606  1.00  0.00    -0.504 OA
ATOM     16  H   UNL A   1      28.136  33.968  19.995  1.00  0.00     0.293 HD
ENDBRANCH  12  15
ENDBRANCH   6   7
ENDBRANCH   3   5
ENDBRANCH   2   3
ENDBRANCH   1   2
BRANCH   1  17
ATOM     17  C   UNL A   1      31.832  30.722  26.876  1.00  0.00     0.275 C 
BRANCH  17  18
ATOM     18  O   UNL A   1      33.129  31.241  26.544  1.00  0.00    -0.458 OA
BRANCH  18  19
ATOM     19  C   UNL A   1      33.651  32.083  27.470  1.00  0.00     0.338 C 
ATOM     20  O   UNL A   1      33.078  33.021  28.001  1.00  0.00    -0.246 OA
BRANCH  19  21
ATOM     21  C   UNL A   1      35.005  31.644  27.876  1.00  0.00     0.060 A 
ATOM     22  C   UNL A   1      35.218  30.268  28.017  1.00  0.00     0.016 A 
ATOM     23  C   UNL A   1      36.041  32.542  28.150  1.00  0.00     0.016 A 
ATOM     24  C   UNL A   1      36.439  29.791  28.494  1.00  0.00     0.010 A 
ATOM     25  C   UNL A   1      37.273  32.061  28.618  1.00  0.00     0.010 A 
ATOM     26  C   UNL A   1      37.462  30.684  28.841  1.00  0.00    -0.014 A 
BRANCH  26  27
ATOM     27  C   UNL A   1      38.643  30.176  29.591  1.00  0.00     0.031 A 
ATOM     28  C   UNL A   1      38.848  30.617  31.018  1.00  0.00     0.074 A 
ATOM     29  C   UNL A   1      39.483  29.275  29.049  1.00  0.00     0.049 A 
ATOM     30  N   UNL A   1      39.747  30.229  31.889  1.00  0.00    -0.248 NA
ATOM     31  C   UNL A   1      37.918  31.634  31.530  1.00  0.00     0.031 C 
ATOM     32  C   UNL A   1      39.393  28.745  27.691  1.00  0.00     0.029 A 
ATOM     33  N   UNL A   1      40.573  28.635  29.590  1.00  0.00    -0.354 N 
ATOM     34  C   UNL A   1      39.486  30.949  33.048  1.00  0.00     0.074 A 
ATOM     35  C   UNL A   1      38.380  31.834  32.754  1.00  0.00     0.031 C 
ATOM     36  C   UNL A   1      40.379  27.847  27.509  1.00  0.00     0.029 A 
ATOM     37  C   UNL A   1      41.179  27.752  28.730  1.00  0.00     0.049 A 
ATOM     38  H   UNL A   1      40.890  28.795  30.509  1.00  0.00     0.167 HD
ATOM     39  C   UNL A   1      40.094  30.868  34.257  1.00  0.00     0.037 A 
ATOM     40  C   UNL A   1      42.251  26.955  28.910  1.00  0.00     0.037 A 
ATOM     41  C   UNL A   1      41.193  29.989  34.562  1.00  0.00     0.049 A 
ATOM     42  C   UNL A   1      42.946  26.924  30.250  1.00  0.00     0.074 A 
ATOM     43  C   UNL A   1      41.854  29.820  35.766  1.00  0.00     0.029 A 
ATOM     44  N   UNL A   1      41.799  29.138  33.651  1.00  0.00    -0.354 N 
ATOM     45  N   UNL A   1      42.653  27.565  31.356  1.00  0.00    -0.248 NA
ATOM     46  C   UNL A   1      44.116  26.041  30.367  1.00  0.00     0.031 C 
ATOM     47  C   UNL A   1      42.900  28.913  35.570  1.00  0.00     0.029 A 
ATOM     48  C   UNL A   1      42.846  28.462  34.261  1.00  0.00     0.049 A 
ATOM     49  H   UNL A   1      41.528  29.028  32.711  1.00  0.00     0.167 HD
ATOM     50  C   UNL A   1      43.567  27.126  32.307  1.00  0.00     0.074 A 
ATOM     51  C   UNL A   1      44.421  26.160  31.651  1.00  0.00     0.031 C 
ATOM     52  C   UNL A   1      43.683  27.487  33.610  1.00  0.00     0.037 A 
BRANCH  39  53
ATOM     53  C   UNL A   1      39.595  31.779  35.343  1.00  0.00     0.064 A 
ATOM     54  C   UNL A   1      40.049  33.102  35.466  1.00  0.00     0.173 A 
ATOM     55  C   UNL A   1      38.626  31.331  36.253  1.00  0.00     0.173 A 
ATOM     56  F   UNL A   1      40.983  33.575  34.627  1.00  0.00    -0.203 F 
ATOM     57  C   UNL A   1      39.576  33.929  36.480  1.00  0.00     0.198 A 
ATOM     58  C   UNL A   1      38.131  32.172  37.246  1.00  0.00     0.198 A 
ATOM     59  F   UNL A   1      38.153  30.078  36.177  1.00  0.00    -0.203 F 
ATOM     60  F   UNL A   1      40.064  35.171  36.613  1.00  0.00    -0.200 F 
ATOM     61  C   UNL A   1      38.612  33.467  37.365  1.00  0.00     0.200 A 
ATOM     62  F   UNL A   1      37.189  31.728  38.089  1.00  0.00    -0.200 F 
ATOM     63  F   UNL A   1      38.153  34.268  38.337  1.00  0.00    -0.200 F 
ENDBRANCH  39  53
BRANCH  40  64
ATOM     64  C   UNL A   1      42.736  26.093  27.799  1.00  0.00     0.064 A 
ATOM     65  C   UNL A   1      43.733  26.538  26.917  1.00  0.00     0.173 A 
ATOM     66  C   UNL A   1      42.178  24.828  27.564  1.00  0.00     0.173 A 
ATOM     67  F   UNL A   1      44.278  27.752  27.082  1.00  0.00    -0.203 F 
ATOM     68  C   UNL A   1      44.131  25.763  25.829  1.00  0.00     0.198 A 
ATOM     69  C   UNL A   1      42.599  24.041  26.494  1.00  0.00     0.198 A 
ATOM     70  F   UNL A   1      41.220  24.355  28.376  1.00  0.00    -0.203 F 
ATOM     71  F   UNL A   1      45.040  26.240  24.968  1.00  0.00    -0.200 F 
ATOM     72  C   UNL A   1      43.567  24.514  25.621  1.00  0.00     0.200 A 
ATOM     73  F   UNL A   1      42.059  22.830  26.303  1.00  0.00    -0.200 F 
ATOM     74  F   UNL A   1      43.945  23.772  24.571  1.00  0.00    -0.200 F 
ENDBRANCH  40  64
BRANCH  52  75
ATOM     75  C   UNL A   1      44.729  26.790  34.438  1.00  0.00     0.064 A 
ATOM     76  C   UNL A   1      44.470  25.586  35.110  1.00  0.00     0.173 A 
ATOM     77  C   UNL A   1      46.024  27.326  34.538  1.00  0.00     0.173 A 
ATOM     78  F   UNL A   1      43.248  25.033  35.058  1.00  0.00    -0.203 F 
ATOM     79  C   UNL A   1      45.453  24.967  35.880  1.00  0.00     0.198 A 
ATOM     80  C   UNL A   1      47.014  26.686  35.278  1.00  0.00     0.198 A 
ATOM     81  F   UNL A   1      46.332  28.469  33.908  1.00  0.00    -0.203 F 
ATOM     82  F   UNL A   1      45.162  23.850  36.562  1.00  0.00    -0.200 F 
ATOM     83  C   UNL A   1      46.725  25.513  35.958  1.00  0.00     0.200 A 
ATOM     84  F   UNL A   1      48.248  27.207  35.336  1.00  0.00    -0.200 F 
ATOM     85  F   UNL A   1      47.669  24.915  36.696  1.00  0.00    -0.200 F 
ENDBRANCH  52  75
ENDBRANCH  26  27
ENDBRANCH  19  21
ENDBRANCH  18  19
ENDBRANCH  17  18
ENDBRANCH   1  17
TORSDOF 14
ENDMDL
MODEL 3
REMARK VINA RESULT:     -11.7      6.444     11.964
REMARK SMILES O=C(/C=C/c1ccc(O)c(O)c1)OCCOC(=O)c1ccc(-c2c3nc(c(-c4c(F)c(F)c(F)c(F)c4F)c4ccc([nH]4)c(-c4c(F)c(F)c(F)c(F)c4F)c4nc(c(-c5c(F)c(F)c(F)c(F)c5F)c5ccc2[nH]5)C=C4)C=C3)cc1
REMARK SMILES IDX 14 1 13 2 2 3 1 4 3 5 4 6 5 7 6 8 12 9 7 10 10 11 8 12 11 13
REMARK SMILES IDX 9 15 15 17 16 18 17 19 18 20 19 21 20 22 81 23 21 24 80 25
REMARK SMILES IDX 22 26 23 27 24 28 74 29 25 30 79 31 73 32 75 33 26 34 78 35
REMARK SMILES IDX 72 36 71 37 27 39 59 40 39 41 58 42 40 43 43 44 57 45 76 46
REMARK SMILES IDX 41 47 42 48 56 50 77 51 44 52 28 53 29 54 37 55 30 56 31 57
REMARK SMILES IDX 35 58 38 59 32 60 33 61 36 62 34 63 60 64 61 65 69 66 62 67
REMARK SMILES IDX 63 68 67 69 70 70 64 71 65 72 68 73 66 74 45 75 46 76 54 77
REMARK SMILES IDX 47 78 48 79 52 80 55 81 49 82 50 83 53 84 51 85
REMARK H PARENT 11 14 9 16 75 38 43 49
REMARK Flexibility Score: inf
ROOT
ATOM      1  C   UNL A   1      44.697  18.824  25.319  1.00  0.00     0.275 C 
ENDROOT
BRANCH   1   2
ATOM      2  O   UNL A   1      45.143  20.197  25.337  1.00  0.00    -0.459 OA
BRANCH   2   3
ATOM      3  C   UNL A   1      46.189  20.757  24.690  1.00  0.00     0.330 C 
ATOM      4  O   UNL A   1      47.177  20.085  24.402  1.00  0.00    -0.247 OA
BRANCH   3   5
ATOM      5  C   UNL A   1      46.275  22.214  24.489  1.00  0.00     0.094 C 
ATOM      6  C   UNL A   1      46.068  23.209  25.361  1.00  0.00     0.016 C 
BRANCH   6   7
ATOM      7  C   UNL A   1      46.418  24.600  25.047  1.00  0.00    -0.021 A 
ATOM      8  C   UNL A   1      47.719  24.994  24.697  1.00  0.00     0.012 A 
ATOM      9  C   UNL A   1      45.403  25.565  25.119  1.00  0.00     0.058 A 
ATOM     10  C   UNL A   1      48.005  26.337  24.421  1.00  0.00     0.051 A 
ATOM     11  C   UNL A   1      45.698  26.893  24.852  1.00  0.00     0.157 A 
ATOM     12  C   UNL A   1      46.987  27.279  24.499  1.00  0.00     0.157 A 
BRANCH  11  13
ATOM     13  O   UNL A   1      44.705  27.826  24.946  1.00  0.00    -0.504 OA
ATOM     14  H   UNL A   1      44.703  28.567  24.373  1.00  0.00     0.293 HD
ENDBRANCH  11  13
BRANCH  12  15
ATOM     15  O   UNL A   1      47.201  28.603  24.234  1.00  0.00    -0.504 OA
ATOM     16  H   UNL A   1      47.473  28.871  23.378  1.00  0.00     0.293 HD
ENDBRANCH  12  15
ENDBRANCH   6   7
ENDBRANCH   3   5
ENDBRANCH   2   3
ENDBRANCH   1   2
BRANCH   1  17
ATOM     17  C   UNL A   1      43.300  18.573  25.897  1.00  0.00     0.275 C 
BRANCH  17  18
ATOM     18  O   UNL A   1      42.263  19.296  25.217  1.00  0.00    -0.458 OA
BRANCH  18  19
ATOM     19  C   UNL A   1      41.381  19.919  26.038  1.00  0.00     0.338 C 
ATOM     20  O   UNL A   1      40.305  19.480  26.411  1.00  0.00    -0.246 OA
BRANCH  19  21
ATOM     21  C   UNL A   1      41.947  21.185  26.554  1.00  0.00     0.060 A 
ATOM     22  C   UNL A   1      42.047  21.324  27.944  1.00  0.00     0.016 A 
ATOM     23  C   UNL A   1      42.344  22.233  25.718  1.00  0.00     0.016 A 
ATOM     24  C   UNL A   1      42.476  22.528  28.501  1.00  0.00     0.010 A 
ATOM     25  C   UNL A   1      42.787  23.440  26.279  1.00  0.00     0.010 A 
ATOM     26  C   UNL A   1      42.808  23.612  27.675  1.00  0.00    -0.014 A 
BRANCH  26  27
ATOM     27  C   UNL A   1      43.002  24.955  28.288  1.00  0.00     0.031 A 
ATOM     28  C   UNL A   1      44.397  25.399  28.650  1.00  0.00     0.074 A 
ATOM     29  C   UNL A   1      41.973  25.805  28.455  1.00  0.00     0.049 A 
ATOM     30  N   UNL A   1      44.811  26.557  29.103  1.00  0.00    -0.248 NA
ATOM     31  C   UNL A   1      45.466  24.404  28.482  1.00  0.00     0.031 C 
ATOM     32  C   UNL A   1      40.578  25.517  28.130  1.00  0.00     0.029 A 
ATOM     33  N   UNL A   1      41.950  27.095  28.927  1.00  0.00    -0.354 N 
ATOM     34  C   UNL A   1      46.185  26.429  29.267  1.00  0.00     0.074 A 
ATOM     35  C   UNL A   1      46.526  25.068  28.917  1.00  0.00     0.031 C 
ATOM     36  C   UNL A   1      39.835  26.606  28.399  1.00  0.00     0.029 A 
ATOM     37  C   UNL A   1      40.698  27.661  28.931  1.00  0.00     0.049 A 
ATOM     38  H   UNL A   1      42.756  27.570  29.235  1.00  0.00     0.167 HD
ATOM     39  C   UNL A   1      47.088  27.364  29.653  1.00  0.00     0.037 A 
ATOM     40  C   UNL A   1      40.298  28.890  29.312  1.00  0.00     0.037 A 
ATOM     41  C   UNL A   1      46.760  28.722  30.002  1.00  0.00     0.049 A 
ATOM     42  C   UNL A   1      41.316  29.897  29.791  1.00  0.00     0.074 A 
ATOM     43  C   UNL A   1      47.612  29.745  30.378  1.00  0.00     0.029 A 
ATOM     44  N   UNL A   1      45.476  29.243  30.026  1.00  0.00    -0.354 N 
ATOM     45  N   UNL A   1      42.619  29.783  29.885  1.00  0.00    -0.248 NA
ATOM     46  C   UNL A   1      40.802  31.212  30.203  1.00  0.00     0.031 C 
ATOM     47  C   UNL A   1      46.839  30.868  30.690  1.00  0.00     0.029 A 
ATOM     48  C   UNL A   1      45.511  30.567  30.440  1.00  0.00     0.049 A 
ATOM     49  H   UNL A   1      44.659  28.748  29.786  1.00  0.00     0.167 HD
ATOM     50  C   UNL A   1      43.081  31.022  30.317  1.00  0.00     0.074 A 
ATOM     51  C   UNL A   1      41.921  31.874  30.461  1.00  0.00     0.031 C 
ATOM     52  C   UNL A   1      44.355  31.418  30.564  1.00  0.00     0.037 A 
BRANCH  39  53
ATOM     53  C   UNL A   1      48.526  26.939  29.742  1.00  0.00     0.064 A 
ATOM     54  C   UNL A   1      49.050  26.340  30.899  1.00  0.00     0.173 A 
ATOM     55  C   UNL A   1      49.383  27.103  28.643  1.00  0.00     0.173 A 
ATOM     56  F   UNL A   1      48.276  26.171  31.981  1.00  0.00    -0.203 F 
ATOM     57  C   UNL A   1      50.387  25.955  30.962  1.00  0.00     0.198 A 
ATOM     58  C   UNL A   1      50.709  26.686  28.699  1.00  0.00     0.198 A 
ATOM     59  F   UNL A   1      48.931  27.663  27.511  1.00  0.00    -0.203 F 
ATOM     60  F   UNL A   1      50.880  25.437  32.096  1.00  0.00    -0.200 F 
ATOM     61  C   UNL A   1      51.214  26.122  29.861  1.00  0.00     0.200 A 
ATOM     62  F   UNL A   1      51.502  26.833  27.628  1.00  0.00    -0.200 F 
ATOM     63  F   UNL A   1      52.498  25.744  29.922  1.00  0.00    -0.200 F 
ENDBRANCH  39  53
BRANCH  40  64
ATOM     64  C   UNL A   1      38.858  29.262  29.242  1.00  0.00     0.064 A 
ATOM     65  C   UNL A   1      38.249  29.580  28.019  1.00  0.00     0.173 A 
ATOM     66  C   UNL A   1      38.076  29.356  30.402  1.00  0.00     0.173 A 
ATOM     67  F   UNL A   1      38.963  29.533  26.885  1.00  0.00    -0.203 F 
ATOM     68  C   UNL A   1      36.923  30.005  27.963  1.00  0.00     0.198 A 
ATOM     69  C   UNL A   1      36.741  29.752  30.342  1.00  0.00     0.198 A 
ATOM     70  F   UNL A   1      38.609  29.065  31.599  1.00  0.00    -0.203 F 
ATOM     71  F   UNL A   1      36.386  30.362  26.789  1.00  0.00    -0.200 F 
ATOM     72  C   UNL A   1      36.169  30.087  29.124  1.00  0.00     0.200 A 
ATOM     73  F   UNL A   1      36.013  29.818  31.465  1.00  0.00    -0.200 F 
ATOM     74  F   UNL A   1      34.896  30.501  29.071  1.00  0.00    -0.200 F 
ENDBRANCH  40  64
BRANCH  52  75
ATOM     75  C   UNL A   1      44.577  32.855  30.954  1.00  0.00     0.064 A 
ATOM     76  C   UNL A   1      44.605  33.270  32.293  1.00  0.00     0.173 A 
ATOM     77  C   UNL A   1      44.793  33.829  29.965  1.00  0.00     0.173 A 
ATOM     78  F   UNL A   1      44.395  32.385  33.279  1.00  0.00    -0.203 F 
ATOM     79  C   UNL A   1      44.801  34.609  32.626  1.00  0.00     0.198 A 
ATOM     80  C   UNL A   1      45.025  35.160  30.303  1.00  0.00     0.198 A 
ATOM     81  F   UNL A   1      44.788  33.488  28.667  1.00  0.00    -0.203 F 
ATOM     82  F   UNL A   1      44.761  34.991  33.911  1.00  0.00    -0.200 F 
ATOM     83  C   UNL A   1      45.017  35.551  31.632  1.00  0.00     0.200 A 
ATOM     84  F   UNL A   1      45.252  36.064  29.340  1.00  0.00    -0.200 F 
ATOM     85  F   UNL A   1      45.208  36.837  31.954  1.00  0.00    -0.200 F 
ENDBRANCH  52  75
ENDBRANCH  26  27
ENDBRANCH  19  21
ENDBRANCH  18  19
ENDBRANCH  17  18
ENDBRANCH   1  17
TORSDOF 14
ENDMDL
