MODEL 1
REMARK VINA RESULT:     -12.7      0.000      0.000
REMARK SMILES O=C(OCCOC(=O)c1ccc2c(c1)[C@@H](C1CCOCC1)C(=O)N2)c1ccc(-c2c3nc(c(-c4c(F)c(F)c(F)c(F)c4F)c4ccc([nH]4)c(-c4c(F)c(F)c(F)c(F)c4F)c4nc(c(-c5c(F)c(F)c(F)c(F)c5F)c5ccc2[nH]5)C=C4)C=C3)cc1
REMARK SMILES IDX 4 1 3 2 2 3 1 4 25 5 26 6 87 7 27 8 86 9 28 10 29 11 30 12
REMARK SMILES IDX 80 13 31 14 85 15 79 16 81 17 32 18 84 19 78 20 77 21 33 23
REMARK SMILES IDX 65 24 45 25 64 26 46 27 49 28 63 29 82 30 47 31 48 32 62 34
REMARK SMILES IDX 83 35 50 36 34 37 35 38 43 39 36 40 37 41 41 42 44 43 38 44
REMARK SMILES IDX 39 45 42 46 40 47 66 48 67 49 75 50 68 51 69 52 73 53 76 54
REMARK SMILES IDX 70 55 71 56 74 57 72 58 51 59 52 60 60 61 53 62 54 63 58 64
REMARK SMILES IDX 61 65 55 66 56 67 59 68 57 69 5 70 6 71 7 72 8 73 9 74 10 75
REMARK SMILES IDX 14 76 11 77 13 78 12 79 15 80 24 81 22 82 23 84 16 85 17 86
REMARK SMILES IDX 21 87 18 88 20 89 19 90
REMARK H PARENT 81 22 49 33 24 83
REMARK Flexibility Score: inf
ROOT
ATOM      1  C   UNL A   1      31.478  32.309  26.802  1.00  0.00     0.275 C 
ENDROOT
BRANCH   1   2
ATOM      2  O   UNL A   1      32.526  33.288  26.880  1.00  0.00    -0.458 OA
BRANCH   2   3
ATOM      3  C   UNL A   1      33.223  33.744  27.945  1.00  0.00     0.338 C 
ATOM      4  O   UNL A   1      32.833  34.771  28.501  1.00  0.00    -0.246 OA
BRANCH   3   5
ATOM      5  C   UNL A   1      34.500  33.137  28.448  1.00  0.00     0.060 A 
ATOM      6  C   UNL A   1      35.801  33.495  28.082  1.00  0.00     0.016 A 
ATOM      7  C   UNL A   1      34.361  32.125  29.412  1.00  0.00     0.016 A 
ATOM      8  C   UNL A   1      36.918  32.946  28.713  1.00  0.00     0.010 A 
ATOM      9  C   UNL A   1      35.478  31.568  30.038  1.00  0.00     0.010 A 
ATOM     10  C   UNL A   1      36.765  31.998  29.717  1.00  0.00    -0.014 A 
BRANCH  10  11
ATOM     11  C   UNL A   1      37.963  31.392  30.337  1.00  0.00     0.031 A 
ATOM     12  C   UNL A   1      38.342  31.813  31.723  1.00  0.00     0.074 A 
ATOM     13  C   UNL A   1      38.648  30.430  29.688  1.00  0.00     0.049 A 
ATOM     14  N   UNL A   1      39.292  31.353  32.491  1.00  0.00    -0.248 NA
ATOM     15  C   UNL A   1      37.531  32.878  32.336  1.00  0.00     0.031 C 
ATOM     16  C   UNL A   1      38.324  29.923  28.357  1.00  0.00     0.029 A 
ATOM     17  N   UNL A   1      39.746  29.695  30.055  1.00  0.00    -0.354 N 
ATOM     18  C   UNL A   1      39.163  32.040  33.688  1.00  0.00     0.074 A 
ATOM     19  C   UNL A   1      38.113  33.016  33.516  1.00  0.00     0.031 C 
ATOM     20  C   UNL A   1      39.212  28.981  28.003  1.00  0.00     0.029 A 
ATOM     21  C   UNL A   1      40.169  28.811  29.088  1.00  0.00     0.049 A 
ATOM     22  H   UNL A   1      40.191  29.790  30.928  1.00  0.00     0.167 HD
ATOM     23  C   UNL A   1      39.824  31.830  34.847  1.00  0.00     0.037 A 
ATOM     24  C   UNL A   1      41.208  27.955  29.090  1.00  0.00     0.037 A 
ATOM     25  C   UNL A   1      40.876  30.864  34.995  1.00  0.00     0.049 A 
ATOM     26  C   UNL A   1      42.006  27.826  30.360  1.00  0.00     0.074 A 
ATOM     27  C   UNL A   1      41.643  30.584  36.109  1.00  0.00     0.029 A 
ATOM     28  N   UNL A   1      41.315  30.022  33.981  1.00  0.00    -0.354 N 
ATOM     29  N   UNL A   1      41.842  28.448  31.504  1.00  0.00    -0.248 NA
ATOM     30  C   UNL A   1      43.105  26.853  30.358  1.00  0.00     0.031 C 
ATOM     31  C   UNL A   1      42.579  29.607  35.755  1.00  0.00     0.029 A 
ATOM     32  C   UNL A   1      42.357  29.235  34.438  1.00  0.00     0.049 A 
ATOM     33  H   UNL A   1      40.939  29.990  33.071  1.00  0.00     0.167 HD
ATOM     34  C   UNL A   1      42.788  27.917  32.367  1.00  0.00     0.074 A 
ATOM     35  C   UNL A   1      43.506  26.904  31.620  1.00  0.00     0.031 C 
ATOM     36  C   UNL A   1      43.046  28.234  33.661  1.00  0.00     0.037 A 
BRANCH  23  37
ATOM     37  C   UNL A   1      39.413  32.664  36.022  1.00  0.00     0.064 A 
ATOM     38  C   UNL A   1      40.042  33.888  36.305  1.00  0.00     0.173 A 
ATOM     39  C   UNL A   1      38.403  32.229  36.890  1.00  0.00     0.173 A 
ATOM     40  F   UNL A   1      41.036  34.334  35.521  1.00  0.00    -0.203 F 
ATOM     41  C   UNL A   1      39.696  34.629  37.431  1.00  0.00     0.198 A 
ATOM     42  C   UNL A   1      38.038  32.988  38.000  1.00  0.00     0.198 A 
ATOM     43  F   UNL A   1      37.778  31.064  36.670  1.00  0.00    -0.203 F 
ATOM     44  F   UNL A   1      40.353  35.762  37.715  1.00  0.00    -0.200 F 
ATOM     45  C   UNL A   1      38.690  34.182  38.275  1.00  0.00     0.200 A 
ATOM     46  F   UNL A   1      37.063  32.557  38.812  1.00  0.00    -0.200 F 
ATOM     47  F   UNL A   1      38.358  34.894  39.360  1.00  0.00    -0.200 F 
ENDBRANCH  23  37
BRANCH  24  48
ATOM     48  C   UNL A   1      41.543  27.152  27.880  1.00  0.00     0.064 A 
ATOM     49  C   UNL A   1      41.095  25.833  27.720  1.00  0.00     0.173 A 
ATOM     50  C   UNL A   1      42.368  27.679  26.873  1.00  0.00     0.173 A 
ATOM     51  F   UNL A   1      40.309  25.275  28.653  1.00  0.00    -0.203 F 
ATOM     52  C   UNL A   1      41.497  25.058  26.632  1.00  0.00     0.198 A 
ATOM     53  C   UNL A   1      42.744  26.914  25.769  1.00  0.00     0.198 A 
ATOM     54  F   UNL A   1      42.811  28.942  26.958  1.00  0.00    -0.203 F 
ATOM     55  F   UNL A   1      41.106  23.779  26.542  1.00  0.00    -0.200 F 
ATOM     56  C   UNL A   1      42.321  25.599  25.658  1.00  0.00     0.200 A 
ATOM     57  F   UNL A   1      43.523  27.450  24.820  1.00  0.00    -0.200 F 
ATOM     58  F   UNL A   1      42.715  24.851  24.618  1.00  0.00    -0.200 F 
ENDBRANCH  24  48
BRANCH  36  59
ATOM     59  C   UNL A   1      44.128  27.451  34.345  1.00  0.00     0.064 A 
ATOM     60  C   UNL A   1      45.460  27.889  34.354  1.00  0.00     0.173 A 
ATOM     61  C   UNL A   1      43.821  26.257  35.015  1.00  0.00     0.173 A 
ATOM     62  F   UNL A   1      45.805  29.016  33.712  1.00  0.00    -0.203 F 
ATOM     63  C   UNL A   1      46.453  27.140  34.976  1.00  0.00     0.198 A 
ATOM     64  C   UNL A   1      44.809  25.532  35.671  1.00  0.00     0.198 A 
ATOM     65  F   UNL A   1      42.559  25.800  35.041  1.00  0.00    -0.203 F 
ATOM     66  F   UNL A   1      47.729  27.541  34.912  1.00  0.00    -0.200 F 
ATOM     67  C   UNL A   1      46.125  25.966  35.640  1.00  0.00     0.200 A 
ATOM     68  F   UNL A   1      44.489  24.408  36.327  1.00  0.00    -0.200 F 
ATOM     69  F   UNL A   1      47.084  25.248  36.241  1.00  0.00    -0.200 F 
ENDBRANCH  36  59
ENDBRANCH  10  11
ENDBRANCH   3   5
ENDBRANCH   2   3
ENDBRANCH   1   2
BRANCH   1  70
ATOM     70  C   UNL A   1      31.950  30.849  26.876  1.00  0.00     0.275 C 
BRANCH  70  71
ATOM     71  O   UNL A   1      33.180  30.578  26.176  1.00  0.00    -0.458 OA
BRANCH  71  72
ATOM     72  C   UNL A   1      33.828  29.437  26.535  1.00  0.00     0.338 C 
ATOM     73  O   UNL A   1      34.438  29.248  27.574  1.00  0.00    -0.246 OA
BRANCH  72  74
ATOM     74  C   UNL A   1      33.633  28.394  25.497  1.00  0.00     0.060 A 
ATOM     75  C   UNL A   1      33.116  28.761  24.239  1.00  0.00     0.018 A 
ATOM     76  C   UNL A   1      34.026  27.060  25.756  1.00  0.00     0.022 A 
ATOM     77  C   UNL A   1      33.003  27.815  23.218  1.00  0.00     0.027 A 
ATOM     78  C   UNL A   1      33.884  26.119  24.741  1.00  0.00    -0.011 A 
ATOM     79  C   UNL A   1      33.407  26.525  23.495  1.00  0.00     0.045 A 
ATOM     80  C   UNL A   1      34.299  24.656  24.657  1.00  0.00     0.114 C 
ATOM     81  N   UNL A   1      33.499  25.488  22.586  1.00  0.00    -0.325 N 
ATOM     82  C   UNL A   1      34.095  24.371  23.149  1.00  0.00     0.232 C 
ATOM     83  H   UNL A   1      33.180  25.536  21.656  1.00  0.00     0.169 HD
ATOM     84  O   UNL A   1      34.381  23.351  22.544  1.00  0.00    -0.274 OA
BRANCH  80  85
ATOM     85  C   UNL A   1      33.499  23.652  25.528  1.00  0.00     0.010 C 
ATOM     86  C   UNL A   1      32.132  24.221  25.961  1.00  0.00     0.033 C 
ATOM     87  C   UNL A   1      34.230  23.215  26.809  1.00  0.00     0.033 C 
ATOM     88  C   UNL A   1      31.372  23.256  26.873  1.00  0.00     0.160 C 
ATOM     89  C   UNL A   1      33.380  22.215  27.583  1.00  0.00     0.160 C 
ATOM     90  O   UNL A   1      32.161  22.832  27.983  1.00  0.00    -0.381 OA
ENDBRANCH  80  85
ENDBRANCH  72  74
ENDBRANCH  71  72
ENDBRANCH  70  71
ENDBRANCH   1  70
TORSDOF 12
ENDMDL
MODEL 2
REMARK VINA RESULT:     -12.5      1.091      1.742
REMARK SMILES O=C(OCCOC(=O)c1ccc2c(c1)[C@@H](C1CCOCC1)C(=O)N2)c1ccc(-c2c3nc(c(-c4c(F)c(F)c(F)c(F)c4F)c4ccc([nH]4)c(-c4c(F)c(F)c(F)c(F)c4F)c4nc(c(-c5c(F)c(F)c(F)c(F)c5F)c5ccc2[nH]5)C=C4)C=C3)cc1
REMARK SMILES IDX 4 1 3 2 2 3 1 4 25 5 26 6 87 7 27 8 86 9 28 10 29 11 30 12
REMARK SMILES IDX 80 13 31 14 85 15 79 16 81 17 32 18 84 19 78 20 77 21 33 23
REMARK SMILES IDX 65 24 45 25 64 26 46 27 49 28 63 29 82 30 47 31 48 32 62 34
REMARK SMILES IDX 83 35 50 36 34 37 35 38 43 39 36 40 37 41 41 42 44 43 38 44
REMARK SMILES IDX 39 45 42 46 40 47 66 48 67 49 75 50 68 51 69 52 73 53 76 54
REMARK SMILES IDX 70 55 71 56 74 57 72 58 51 59 52 60 60 61 53 62 54 63 58 64
REMARK SMILES IDX 61 65 55 66 56 67 59 68 57 69 5 70 6 71 7 72 8 73 9 74 10 75
REMARK SMILES IDX 14 76 11 77 13 78 12 79 15 80 24 81 22 82 23 84 16 85 17 86
REMARK SMILES IDX 21 87 18 88 20 89 19 90
REMARK H PARENT 81 22 49 33 24 83
REMARK Flexibility Score: inf
ROOT
ATOM      1  C   UNL A   1      31.674  32.460  27.128  1.00  0.00     0.275 C 
ENDROOT
BRANCH   1   2
ATOM      2  O   UNL A   1      32.482  33.641  27.248  1.00  0.00    -0.458 OA
BRANCH   2   3
ATOM      3  C   UNL A   1      33.213  34.103  28.288  1.00  0.00     0.338 C 
ATOM      4  O   UNL A   1      32.842  35.135  28.849  1.00  0.00    -0.246 OA
BRANCH   3   5
ATOM      5  C   UNL A   1      34.503  33.496  28.757  1.00  0.00     0.060 A 
ATOM      6  C   UNL A   1      35.794  33.945  28.468  1.00  0.00     0.016 A 
ATOM      7  C   UNL A   1      34.385  32.378  29.599  1.00  0.00     0.016 A 
ATOM      8  C   UNL A   1      36.919  33.375  29.065  1.00  0.00     0.010 A 
ATOM      9  C   UNL A   1      35.511  31.801  30.190  1.00  0.00     0.010 A 
ATOM     10  C   UNL A   1      36.786  32.316  29.954  1.00  0.00    -0.014 A 
BRANCH  10  11
ATOM     11  C   UNL A   1      37.994  31.695  30.536  1.00  0.00     0.031 A 
ATOM     12  C   UNL A   1      38.417  32.102  31.912  1.00  0.00     0.074 A 
ATOM     13  C   UNL A   1      38.651  30.729  29.862  1.00  0.00     0.049 A 
ATOM     14  N   UNL A   1      39.384  31.628  32.651  1.00  0.00    -0.248 NA
ATOM     15  C   UNL A   1      37.635  33.172  32.555  1.00  0.00     0.031 C 
ATOM     16  C   UNL A   1      38.283  30.234  28.537  1.00  0.00     0.029 A 
ATOM     17  N   UNL A   1      39.751  29.981  30.193  1.00  0.00    -0.354 N 
ATOM     18  C   UNL A   1      39.296  32.309  33.855  1.00  0.00     0.074 A 
ATOM     19  C   UNL A   1      38.252  33.297  33.719  1.00  0.00     0.031 C 
ATOM     20  C   UNL A   1      39.152  29.285  28.153  1.00  0.00     0.029 A 
ATOM     21  C   UNL A   1      40.137  29.099  29.210  1.00  0.00     0.049 A 
ATOM     22  H   UNL A   1      40.221  30.066  31.054  1.00  0.00     0.167 HD
ATOM     23  C   UNL A   1      39.988  32.086  34.994  1.00  0.00     0.037 A 
ATOM     24  C   UNL A   1      41.166  28.232  29.177  1.00  0.00     0.037 A 
ATOM     25  C   UNL A   1      41.033  31.108  35.105  1.00  0.00     0.049 A 
ATOM     26  C   UNL A   1      41.999  28.087  30.423  1.00  0.00     0.074 A 
ATOM     27  C   UNL A   1      41.829  30.813  36.196  1.00  0.00     0.029 A 
ATOM     28  N   UNL A   1      41.434  30.268  34.074  1.00  0.00    -0.354 N 
ATOM     29  N   UNL A   1      41.874  28.704  31.575  1.00  0.00    -0.248 NA
ATOM     30  C   UNL A   1      43.088  27.103  30.384  1.00  0.00     0.031 C 
ATOM     31  C   UNL A   1      42.744  29.829  35.809  1.00  0.00     0.029 A 
ATOM     32  C   UNL A   1      42.481  29.467  34.497  1.00  0.00     0.049 A 
ATOM     33  H   UNL A   1      41.033  30.245  33.175  1.00  0.00     0.167 HD
ATOM     34  C   UNL A   1      42.839  28.158  32.407  1.00  0.00     0.074 A 
ATOM     35  C   UNL A   1      43.525  27.142  31.634  1.00  0.00     0.031 C 
ATOM     36  C   UNL A   1      43.137  28.464  33.695  1.00  0.00     0.037 A 
BRANCH  23  37
ATOM     37  C   UNL A   1      39.618  32.916  36.185  1.00  0.00     0.064 A 
ATOM     38  C   UNL A   1      40.304  34.106  36.486  1.00  0.00     0.173 A 
ATOM     39  C   UNL A   1      38.594  32.513  37.050  1.00  0.00     0.173 A 
ATOM     40  F   UNL A   1      41.314  34.520  35.705  1.00  0.00    -0.203 F 
ATOM     41  C   UNL A   1      39.995  34.842  37.627  1.00  0.00     0.198 A 
ATOM     42  C   UNL A   1      38.267  33.268  38.174  1.00  0.00     0.198 A 
ATOM     43  F   UNL A   1      37.916  31.381  36.811  1.00  0.00    -0.203 F 
ATOM     44  F   UNL A   1      40.704  35.939  37.927  1.00  0.00    -0.200 F 
ATOM     45  C   UNL A   1      38.973  34.426  38.466  1.00  0.00     0.200 A 
ATOM     46  F   UNL A   1      37.277  32.866  38.983  1.00  0.00    -0.200 F 
ATOM     47  F   UNL A   1      38.678  35.133  39.565  1.00  0.00    -0.200 F 
ENDBRANCH  23  37
BRANCH  24  48
ATOM     48  C   UNL A   1      41.459  27.433  27.953  1.00  0.00     0.064 A 
ATOM     49  C   UNL A   1      40.938  26.144  27.769  1.00  0.00     0.173 A 
ATOM     50  C   UNL A   1      42.314  27.931  26.957  1.00  0.00     0.173 A 
ATOM     51  F   UNL A   1      40.119  25.615  28.691  1.00  0.00    -0.203 F 
ATOM     52  C   UNL A   1      41.298  25.367  26.668  1.00  0.00     0.198 A 
ATOM     53  C   UNL A   1      42.649  27.165  25.839  1.00  0.00     0.198 A 
ATOM     54  F   UNL A   1      42.828  29.165  27.065  1.00  0.00    -0.203 F 
ATOM     55  F   UNL A   1      40.836  24.114  26.555  1.00  0.00    -0.200 F 
ATOM     56  C   UNL A   1      42.153  25.878  25.704  1.00  0.00     0.200 A 
ATOM     57  F   UNL A   1      43.459  27.673  24.901  1.00  0.00    -0.200 F 
ATOM     58  F   UNL A   1      42.507  25.128  24.652  1.00  0.00    -0.200 F 
ENDBRANCH  24  48
BRANCH  36  59
ATOM     59  C   UNL A   1      44.229  27.666  34.343  1.00  0.00     0.064 A 
ATOM     60  C   UNL A   1      43.969  26.442  34.977  1.00  0.00     0.173 A 
ATOM     61  C   UNL A   1      45.555  28.123  34.311  1.00  0.00     0.173 A 
ATOM     62  F   UNL A   1      42.714  25.972  35.049  1.00  0.00    -0.203 F 
ATOM     63  C   UNL A   1      44.991  25.725  35.590  1.00  0.00     0.198 A 
ATOM     64  C   UNL A   1      46.581  27.383  34.889  1.00  0.00     0.198 A 
ATOM     65  F   UNL A   1      45.857  29.284  33.709  1.00  0.00    -0.203 F 
ATOM     66  F   UNL A   1      44.708  24.594  36.251  1.00  0.00    -0.200 F 
ATOM     67  C   UNL A   1      46.296  26.192  35.539  1.00  0.00     0.200 A 
ATOM     68  F   UNL A   1      47.843  27.827  34.824  1.00  0.00    -0.200 F 
ATOM     69  F   UNL A   1      47.279  25.497  36.128  1.00  0.00    -0.200 F 
ENDBRANCH  36  59
ENDBRANCH  10  11
ENDBRANCH   3   5
ENDBRANCH   2   3
ENDBRANCH   1   2
BRANCH   1  70
ATOM     70  C   UNL A   1      32.447  31.182  26.769  1.00  0.00     0.275 C 
BRANCH  70  71
ATOM     71  O   UNL A   1      31.813  30.357  25.772  1.00  0.00    -0.458 OA
BRANCH  71  72
ATOM     72  C   UNL A   1      31.773  29.025  26.042  1.00  0.00     0.338 C 
ATOM     73  O   UNL A   1      31.795  28.510  27.148  1.00  0.00    -0.246 OA
BRANCH  72  74
ATOM     74  C   UNL A   1      31.624  28.253  24.782  1.00  0.00     0.060 A 
ATOM     75  C   UNL A   1      30.459  28.418  24.008  1.00  0.00     0.018 A 
ATOM     76  C   UNL A   1      32.673  27.415  24.341  1.00  0.00     0.022 A 
ATOM     77  C   UNL A   1      30.331  27.770  22.777  1.00  0.00     0.027 A 
ATOM     78  C   UNL A   1      32.525  26.752  23.126  1.00  0.00    -0.011 A 
ATOM     79  C   UNL A   1      31.376  26.970  22.365  1.00  0.00     0.045 A 
ATOM     80  C   UNL A   1      33.486  25.879  22.330  1.00  0.00     0.114 C 
ATOM     81  N   UNL A   1      31.497  26.358  21.132  1.00  0.00    -0.325 N 
ATOM     82  C   UNL A   1      32.740  25.765  20.978  1.00  0.00     0.232 C 
ATOM     83  H   UNL A   1      30.788  26.345  20.449  1.00  0.00     0.169 HD
ATOM     84  O   UNL A   1      33.142  25.239  19.954  1.00  0.00    -0.274 OA
BRANCH  80  85
ATOM     85  C   UNL A   1      33.802  24.477  22.913  1.00  0.00     0.010 C 
ATOM     86  C   UNL A   1      32.523  23.643  23.143  1.00  0.00     0.033 C 
ATOM     87  C   UNL A   1      34.563  24.512  24.250  1.00  0.00     0.033 C 
ATOM     88  C   UNL A   1      32.831  22.286  23.778  1.00  0.00     0.160 C 
ATOM     89  C   UNL A   1      34.847  23.094  24.729  1.00  0.00     0.160 C 
ATOM     90  O   UNL A   1      33.619  22.412  24.960  1.00  0.00    -0.381 OA
ENDBRANCH  80  85
ENDBRANCH  72  74
ENDBRANCH  71  72
ENDBRANCH  70  71
ENDBRANCH   1  70
TORSDOF 12
ENDMDL
MODEL 3
REMARK VINA RESULT:     -12.5      1.090      1.695
REMARK SMILES O=C(OCCOC(=O)c1ccc2c(c1)[C@@H](C1CCOCC1)C(=O)N2)c1ccc(-c2c3nc(c(-c4c(F)c(F)c(F)c(F)c4F)c4ccc([nH]4)c(-c4c(F)c(F)c(F)c(F)c4F)c4nc(c(-c5c(F)c(F)c(F)c(F)c5F)c5ccc2[nH]5)C=C4)C=C3)cc1
REMARK SMILES IDX 4 1 3 2 2 3 1 4 25 5 26 6 87 7 27 8 86 9 28 10 29 11 30 12
REMARK SMILES IDX 80 13 31 14 85 15 79 16 81 17 32 18 84 19 78 20 77 21 33 23
REMARK SMILES IDX 65 24 45 25 64 26 46 27 49 28 63 29 82 30 47 31 48 32 62 34
REMARK SMILES IDX 83 35 50 36 34 37 35 38 43 39 36 40 37 41 41 42 44 43 38 44
REMARK SMILES IDX 39 45 42 46 40 47 66 48 67 49 75 50 68 51 69 52 73 53 76 54
REMARK SMILES IDX 70 55 71 56 74 57 72 58 51 59 52 60 60 61 53 62 54 63 58 64
REMARK SMILES IDX 61 65 55 66 56 67 59 68 57 69 5 70 6 71 7 72 8 73 9 74 10 75
REMARK SMILES IDX 14 76 11 77 13 78 12 79 15 80 24 81 22 82 23 84 16 85 17 86
REMARK SMILES IDX 21 87 18 88 20 89 19 90
REMARK H PARENT 81 22 49 33 24 83
REMARK Flexibility Score: inf
ROOT
ATOM      1  C   UNL A   1      31.617  32.339  27.083  1.00  0.00     0.275 C 
ENDROOT
BRANCH   1   2
ATOM      2  O   UNL A   1      32.376  33.556  27.173  1.00  0.00    -0.458 OA
BRANCH   2   3
ATOM      3  C   UNL A   1      33.123  34.050  28.186  1.00  0.00     0.338 C 
ATOM      4  O   UNL A   1      32.756  35.095  28.725  1.00  0.00    -0.246 OA
BRANCH   3   5
ATOM      5  C   UNL A   1      34.426  33.464  28.647  1.00  0.00     0.060 A 
ATOM      6  C   UNL A   1      35.709  33.892  28.295  1.00  0.00     0.016 A 
ATOM      7  C   UNL A   1      34.332  32.393  29.551  1.00  0.00     0.016 A 
ATOM      8  C   UNL A   1      36.850  33.351  28.887  1.00  0.00     0.010 A 
ATOM      9  C   UNL A   1      35.474  31.844  30.137  1.00  0.00     0.010 A 
ATOM     10  C   UNL A   1      36.741  32.341  29.835  1.00  0.00    -0.014 A 
BRANCH  10  11
ATOM     11  C   UNL A   1      37.966  31.747  30.412  1.00  0.00     0.031 A 
ATOM     12  C   UNL A   1      38.416  32.206  31.764  1.00  0.00     0.074 A 
ATOM     13  C   UNL A   1      38.613  30.761  29.759  1.00  0.00     0.049 A 
ATOM     14  N   UNL A   1      39.401  31.763  32.497  1.00  0.00    -0.248 NA
ATOM     15  C   UNL A   1      37.642  33.294  32.385  1.00  0.00     0.031 C 
ATOM     16  C   UNL A   1      38.220  30.217  28.461  1.00  0.00     0.029 A 
ATOM     17  N   UNL A   1      39.725  30.030  30.092  1.00  0.00    -0.354 N 
ATOM     18  C   UNL A   1      39.335  32.486  33.678  1.00  0.00     0.074 A 
ATOM     19  C   UNL A   1      38.283  33.464  33.529  1.00  0.00     0.031 C 
ATOM     20  C   UNL A   1      39.085  29.259  28.092  1.00  0.00     0.029 A 
ATOM     21  C   UNL A   1      40.094  29.116  29.133  1.00  0.00     0.049 A 
ATOM     22  H   UNL A   1      40.213  30.149  30.939  1.00  0.00     0.167 HD
ATOM     23  C   UNL A   1      40.053  32.307  34.808  1.00  0.00     0.037 A 
ATOM     24  C   UNL A   1      41.128  28.253  29.109  1.00  0.00     0.037 A 
ATOM     25  C   UNL A   1      41.107  31.340  34.932  1.00  0.00     0.049 A 
ATOM     26  C   UNL A   1      41.988  28.157  30.341  1.00  0.00     0.074 A 
ATOM     27  C   UNL A   1      41.928  31.088  36.015  1.00  0.00     0.029 A 
ATOM     28  N   UNL A   1      41.490  30.465  33.923  1.00  0.00    -0.354 N 
ATOM     29  N   UNL A   1      41.885  28.815  31.472  1.00  0.00    -0.248 NA
ATOM     30  C   UNL A   1      43.081  27.178  30.313  1.00  0.00     0.031 C 
ATOM     31  C   UNL A   1      42.840  30.095  35.644  1.00  0.00     0.029 A 
ATOM     32  C   UNL A   1      42.550  29.685  34.351  1.00  0.00     0.049 A 
ATOM     33  H   UNL A   1      41.069  30.408  33.035  1.00  0.00     0.167 HD
ATOM     34  C   UNL A   1      42.871  28.304  32.302  1.00  0.00     0.074 A 
ATOM     35  C   UNL A   1      43.545  27.264  31.551  1.00  0.00     0.031 C 
ATOM     36  C   UNL A   1      43.194  28.658  33.571  1.00  0.00     0.037 A 
BRANCH  23  37
ATOM     37  C   UNL A   1      39.705  33.178  35.977  1.00  0.00     0.064 A 
ATOM     38  C   UNL A   1      38.718  32.798  36.902  1.00  0.00     0.173 A 
ATOM     39  C   UNL A   1      40.337  34.414  36.162  1.00  0.00     0.173 A 
ATOM     40  F   UNL A   1      38.061  31.638  36.751  1.00  0.00    -0.203 F 
ATOM     41  C   UNL A   1      38.357  33.639  37.951  1.00  0.00     0.198 A 
ATOM     42  C   UNL A   1      39.995  35.239  37.231  1.00  0.00     0.198 A 
ATOM     43  F   UNL A   1      41.279  34.827  35.302  1.00  0.00    -0.203 F 
ATOM     44  F   UNL A   1      37.370  33.283  38.785  1.00  0.00    -0.200 F 
ATOM     45  C   UNL A   1      39.000  34.856  38.119  1.00  0.00     0.200 A 
ATOM     46  F   UNL A   1      40.620  36.414  37.394  1.00  0.00    -0.200 F 
ATOM     47  F   UNL A   1      38.652  35.665  39.128  1.00  0.00    -0.200 F 
ENDBRANCH  23  37
BRANCH  24  48
ATOM     48  C   UNL A   1      41.398  27.413  27.908  1.00  0.00     0.064 A 
ATOM     49  C   UNL A   1      40.947  26.088  27.816  1.00  0.00     0.173 A 
ATOM     50  C   UNL A   1      42.163  27.909  26.840  1.00  0.00     0.173 A 
ATOM     51  F   UNL A   1      40.216  25.559  28.809  1.00  0.00    -0.203 F 
ATOM     52  C   UNL A   1      41.291  25.279  26.732  1.00  0.00     0.198 A 
ATOM     53  C   UNL A   1      42.480  27.109  25.742  1.00  0.00     0.198 A 
ATOM     54  F   UNL A   1      42.606  29.175  26.860  1.00  0.00    -0.203 F 
ATOM     55  F   UNL A   1      40.900  23.998  26.706  1.00  0.00    -0.200 F 
ATOM     56  C   UNL A   1      42.057  25.790  25.696  1.00  0.00     0.200 A 
ATOM     57  F   UNL A   1      43.203  27.616  24.734  1.00  0.00    -0.200 F 
ATOM     58  F   UNL A   1      42.395  25.011  24.660  1.00  0.00    -0.200 F 
ENDBRANCH  24  48
BRANCH  36  59
ATOM     59  C   UNL A   1      44.305  27.888  34.223  1.00  0.00     0.064 A 
ATOM     60  C   UNL A   1      45.635  28.332  34.174  1.00  0.00     0.173 A 
ATOM     61  C   UNL A   1      44.030  26.703  34.922  1.00  0.00     0.173 A 
ATOM     62  F   UNL A   1      45.950  29.450  33.503  1.00  0.00    -0.203 F 
ATOM     63  C   UNL A   1      46.655  27.595  34.768  1.00  0.00     0.198 A 
ATOM     64  C   UNL A   1      45.047  25.991  35.549  1.00  0.00     0.198 A 
ATOM     65  F   UNL A   1      42.773  26.242  35.004  1.00  0.00    -0.203 F 
ATOM     66  F   UNL A   1      47.926  28.000  34.649  1.00  0.00    -0.200 F 
ATOM     67  C   UNL A   1      46.359  26.430  35.461  1.00  0.00     0.200 A 
ATOM     68  F   UNL A   1      44.757  24.876  36.233  1.00  0.00    -0.200 F 
ATOM     69  F   UNL A   1      47.343  25.724  36.035  1.00  0.00    -0.200 F 
ENDBRANCH  36  59
ENDBRANCH  10  11
ENDBRANCH   3   5
ENDBRANCH   2   3
ENDBRANCH   1   2
BRANCH   1  70
ATOM     70  C   UNL A   1      32.441  31.086  26.754  1.00  0.00     0.275 C 
BRANCH  70  71
ATOM     71  O   UNL A   1      31.667  29.879  26.605  1.00  0.00    -0.458 OA
BRANCH  71  72
ATOM     72  C   UNL A   1      32.380  28.730  26.463  1.00  0.00     0.338 C 
ATOM     73  O   UNL A   1      33.110  28.224  27.300  1.00  0.00    -0.246 OA
BRANCH  72  74
ATOM     74  C   UNL A   1      32.095  28.113  25.144  1.00  0.00     0.060 A 
ATOM     75  C   UNL A   1      30.972  28.544  24.410  1.00  0.00     0.018 A 
ATOM     76  C   UNL A   1      32.983  27.152  24.609  1.00  0.00     0.022 A 
ATOM     77  C   UNL A   1      30.729  28.041  23.130  1.00  0.00     0.027 A 
ATOM     78  C   UNL A   1      32.718  26.637  23.343  1.00  0.00    -0.011 A 
ATOM     79  C   UNL A   1      31.620  27.115  22.628  1.00  0.00     0.045 A 
ATOM     80  C   UNL A   1      33.511  25.689  22.454  1.00  0.00     0.114 C 
ATOM     81  N   UNL A   1      31.628  26.607  21.343  1.00  0.00    -0.325 N 
ATOM     82  C   UNL A   1      32.749  25.827  21.112  1.00  0.00     0.232 C 
ATOM     83  H   UNL A   1      30.924  26.776  20.676  1.00  0.00     0.169 HD
ATOM     84  O   UNL A   1      33.051  25.335  20.037  1.00  0.00    -0.274 OA
BRANCH  80  85
ATOM     85  C   UNL A   1      33.585  24.207  22.903  1.00  0.00     0.010 C 
ATOM     86  C   UNL A   1      32.311  23.765  23.654  1.00  0.00     0.033 C 
ATOM     87  C   UNL A   1      34.780  23.889  23.819  1.00  0.00     0.033 C 
ATOM     88  C   UNL A   1      32.411  22.322  24.154  1.00  0.00     0.160 C 
ATOM     89  C   UNL A   1      34.781  22.411  24.187  1.00  0.00     0.160 C 
ATOM     90  O   UNL A   1      33.598  22.098  24.914  1.00  0.00    -0.381 OA
ENDBRANCH  80  85
ENDBRANCH  72  74
ENDBRANCH  71  72
ENDBRANCH  70  71
ENDBRANCH   1  70
TORSDOF 12
ENDMDL
