MODEL 1
REMARK VINA RESULT:     -11.1      0.000      0.000
REMARK SMILES O=C(OCCOC(=O)c1sccc1S(=O)(=O)N[C@@H]1CONC1=O)c1ccc(-c2c3nc(c(-c4c(F)c(F)c(F)c(F)c4F)c4ccc([nH]4)c(-c4c(F)c(F)c(F)c(F)c4F)c4nc(c(-c5c(F)c(F)c(F)c(F)c5F)c5ccc2[nH]5)C=C4)C=C3)cc1
REMARK SMILES IDX 5 1 4 2 3 3 2 4 1 5 24 6 25 7 86 8 26 9 85 10 27 11 28 12
REMARK SMILES IDX 29 13 79 14 30 15 84 16 78 17 80 18 31 19 83 20 77 21 76 22
REMARK SMILES IDX 32 24 64 25 44 26 63 27 45 28 48 29 62 30 81 31 46 32 47 33
REMARK SMILES IDX 61 35 82 36 49 37 33 38 34 39 42 40 35 41 36 42 40 43 43 44
REMARK SMILES IDX 37 45 38 46 41 47 39 48 65 49 66 50 74 51 67 52 68 53 72 54
REMARK SMILES IDX 75 55 69 56 70 57 73 58 71 59 50 60 51 61 59 62 52 63 53 64
REMARK SMILES IDX 57 65 60 66 54 67 55 68 58 69 56 70 6 71 7 72 8 73 9 74
REMARK SMILES IDX 10 75 13 76 11 77 12 78 14 79 15 80 16 81 17 82 18 84 19 85
REMARK SMILES IDX 22 86 20 87 21 88 23 89
REMARK H PARENT 80 23 48 34 17 83 21 90
REMARK Flexibility Score: inf
ROOT
ATOM      1  C   UNL A   1      35.162  34.006  28.239  1.00  0.00     0.275 C 
ENDROOT
BRANCH   1   2
ATOM      2  C   UNL A   1      33.853  33.224  28.340  1.00  0.00     0.275 C 
BRANCH   2   3
ATOM      3  O   UNL A   1      34.025  31.830  28.646  1.00  0.00    -0.458 OA
BRANCH   3   4
ATOM      4  C   UNL A   1      34.580  30.857  27.885  1.00  0.00     0.338 C 
ATOM      5  O   UNL A   1      33.937  30.387  26.949  1.00  0.00    -0.246 OA
BRANCH   4   6
ATOM      6  C   UNL A   1      35.876  30.196  28.234  1.00  0.00     0.060 A 
ATOM      7  C   UNL A   1      36.204  29.647  29.475  1.00  0.00     0.016 A 
ATOM      8  C   UNL A   1      36.848  30.158  27.216  1.00  0.00     0.016 A 
ATOM      9  C   UNL A   1      37.438  29.033  29.689  1.00  0.00     0.010 A 
ATOM     10  C   UNL A   1      38.098  29.566  27.428  1.00  0.00     0.010 A 
ATOM     11  C   UNL A   1      38.401  29.018  28.678  1.00  0.00    -0.014 A 
BRANCH  11  12
ATOM     12  C   UNL A   1      39.795  28.684  29.037  1.00  0.00     0.031 A 
ATOM     13  C   UNL A   1      40.532  29.668  29.881  1.00  0.00     0.074 A 
ATOM     14  C   UNL A   1      40.361  27.518  28.686  1.00  0.00     0.049 A 
ATOM     15  N   UNL A   1      41.745  29.607  30.353  1.00  0.00    -0.248 NA
ATOM     16  C   UNL A   1      39.790  30.883  30.260  1.00  0.00     0.031 C 
ATOM     17  C   UNL A   1      39.672  26.479  27.947  1.00  0.00     0.029 A 
ATOM     18  N   UNL A   1      41.609  26.998  28.892  1.00  0.00    -0.354 N 
ATOM     19  C   UNL A   1      41.909  30.766  31.090  1.00  0.00     0.074 A 
ATOM     20  C   UNL A   1      40.689  31.533  30.975  1.00  0.00     0.031 C 
ATOM     21  C   UNL A   1      40.495  25.445  27.728  1.00  0.00     0.029 A 
ATOM     22  C   UNL A   1      41.796  25.771  28.297  1.00  0.00     0.049 A 
ATOM     23  H   UNL A   1      42.306  27.457  29.415  1.00  0.00     0.167 HD
ATOM     24  C   UNL A   1      42.992  31.148  31.802  1.00  0.00     0.037 A 
ATOM     25  C   UNL A   1      42.903  25.012  28.207  1.00  0.00     0.037 A 
ATOM     26  C   UNL A   1      44.207  30.384  31.847  1.00  0.00     0.049 A 
ATOM     27  C   UNL A   1      44.133  25.503  28.915  1.00  0.00     0.074 A 
ATOM     28  C   UNL A   1      45.393  30.681  32.487  1.00  0.00     0.029 A 
ATOM     29  N   UNL A   1      44.389  29.167  31.195  1.00  0.00    -0.354 N 
ATOM     30  N   UNL A   1      44.286  26.601  29.620  1.00  0.00    -0.248 NA
ATOM     31  C   UNL A   1      45.334  24.666  28.835  1.00  0.00     0.031 C 
ATOM     32  C   UNL A   1      46.313  29.673  32.172  1.00  0.00     0.029 A 
ATOM     33  C   UNL A   1      45.683  28.715  31.388  1.00  0.00     0.049 A 
ATOM     34  H   UNL A   1      43.700  28.699  30.672  1.00  0.00     0.167 HD
ATOM     35  C   UNL A   1      45.587  26.578  30.090  1.00  0.00     0.074 A 
ATOM     36  C   UNL A   1      46.183  25.352  29.592  1.00  0.00     0.031 C 
ATOM     37  C   UNL A   1      46.231  27.485  30.868  1.00  0.00     0.037 A 
BRANCH  24  38
ATOM     38  C   UNL A   1      42.895  32.478  32.483  1.00  0.00     0.064 A 
ATOM     39  C   UNL A   1      42.360  32.610  33.776  1.00  0.00     0.173 A 
ATOM     40  C   UNL A   1      43.223  33.649  31.786  1.00  0.00     0.173 A 
ATOM     41  F   UNL A   1      41.992  31.522  34.468  1.00  0.00    -0.203 F 
ATOM     42  C   UNL A   1      42.106  33.867  34.320  1.00  0.00     0.198 A 
ATOM     43  C   UNL A   1      42.998  34.904  32.346  1.00  0.00     0.198 A 
ATOM     44  F   UNL A   1      43.723  33.579  30.543  1.00  0.00    -0.203 F 
ATOM     45  F   UNL A   1      41.506  33.969  35.515  1.00  0.00    -0.200 F 
ATOM     46  C   UNL A   1      42.424  35.011  33.604  1.00  0.00     0.200 A 
ATOM     47  F   UNL A   1      43.302  36.008  31.653  1.00  0.00    -0.200 F 
ATOM     48  F   UNL A   1      42.151  36.219  34.115  1.00  0.00    -0.200 F 
ENDBRANCH  24  38
BRANCH  25  49
ATOM     49  C   UNL A   1      42.882  23.753  27.413  1.00  0.00     0.064 A 
ATOM     50  C   UNL A   1      43.346  23.704  26.092  1.00  0.00     0.173 A 
ATOM     51  C   UNL A   1      42.425  22.551  27.982  1.00  0.00     0.173 A 
ATOM     52  F   UNL A   1      43.779  24.823  25.493  1.00  0.00    -0.203 F 
ATOM     53  C   UNL A   1      43.348  22.509  25.371  1.00  0.00     0.198 A 
ATOM     54  C   UNL A   1      42.451  21.354  27.268  1.00  0.00     0.198 A 
ATOM     55  F   UNL A   1      41.972  22.535  29.245  1.00  0.00    -0.203 F 
ATOM     56  F   UNL A   1      43.770  22.498  24.098  1.00  0.00    -0.200 F 
ATOM     57  C   UNL A   1      42.908  21.335  25.961  1.00  0.00     0.200 A 
ATOM     58  F   UNL A   1      42.035  20.220  27.851  1.00  0.00    -0.200 F 
ATOM     59  F   UNL A   1      42.919  20.186  25.269  1.00  0.00    -0.200 F 
ENDBRANCH  25  49
BRANCH  37  60
ATOM     60  C   UNL A   1      47.645  27.167  31.244  1.00  0.00     0.064 A 
ATOM     61  C   UNL A   1      47.943  26.319  32.318  1.00  0.00     0.173 A 
ATOM     62  C   UNL A   1      48.704  27.651  30.463  1.00  0.00     0.173 A 
ATOM     63  F   UNL A   1      46.962  25.846  33.101  1.00  0.00    -0.203 F 
ATOM     64  C   UNL A   1      49.261  25.972  32.603  1.00  0.00     0.198 A 
ATOM     65  C   UNL A   1      50.016  27.279  30.733  1.00  0.00     0.198 A 
ATOM     66  F   UNL A   1      48.462  28.462  29.422  1.00  0.00    -0.203 F 
ATOM     67  F   UNL A   1      49.531  25.184  33.653  1.00  0.00    -0.200 F 
ATOM     68  C   UNL A   1      50.293  26.441  31.803  1.00  0.00     0.200 A 
ATOM     69  F   UNL A   1      51.010  27.720  29.951  1.00  0.00    -0.200 F 
ATOM     70  F   UNL A   1      51.558  26.088  32.067  1.00  0.00    -0.200 F 
ENDBRANCH  37  60
ENDBRANCH  11  12
ENDBRANCH   4   6
ENDBRANCH   3   4
ENDBRANCH   2   3
ENDBRANCH   1   2
BRANCH   1  71
ATOM     71  O   UNL A   1      35.722  34.366  29.510  1.00  0.00    -0.458 OA
BRANCH  71  72
ATOM     72  C   UNL A   1      36.850  33.690  29.870  1.00  0.00     0.349 C 
ATOM     73  O   UNL A   1      37.478  32.955  29.126  1.00  0.00    -0.245 OA
BRANCH  72  74
ATOM     74  C   UNL A   1      37.179  33.955  31.251  1.00  0.00     0.132 A 
ATOM     75  S   UNL A   1      38.797  34.419  31.610  1.00  0.00    -0.136 S 
ATOM     76  C   UNL A   1      36.422  33.866  32.403  1.00  0.00     0.107 A 
ATOM     77  C   UNL A   1      38.438  34.677  33.258  1.00  0.00     0.067 A 
ATOM     78  C   UNL A   1      37.159  34.274  33.565  1.00  0.00     0.034 A 
BRANCH  76  79
ATOM     79  S   UNL A   1      34.770  33.347  32.484  1.00  0.00     0.243 S 
ATOM     80  O   UNL A   1      34.719  32.185  31.629  1.00  0.00    -0.207 OA
ATOM     81  O   UNL A   1      34.480  33.269  33.896  1.00  0.00    -0.207 OA
BRANCH  79  82
ATOM     82  N   UNL A   1      33.732  34.498  31.863  1.00  0.00    -0.196 NA
ATOM     83  H   UNL A   1      32.881  34.474  32.425  1.00  0.00     0.142 HD
BRANCH  82  84
ATOM     84  C   UNL A   1      34.194  35.900  31.825  1.00  0.00     0.189 C 
ATOM     85  C   UNL A   1      33.943  36.619  33.140  1.00  0.00     0.224 C 
ATOM     86  C   UNL A   1      33.270  36.683  30.935  1.00  0.00     0.264 C 
ATOM     87  O   UNL A   1      33.631  37.977  32.803  1.00  0.00    -0.271 OA
ATOM     88  N   UNL A   1      33.045  37.898  31.521  1.00  0.00    -0.233 N 
ATOM     89  O   UNL A   1      32.778  36.275  29.894  1.00  0.00    -0.271 OA
ATOM     90  H   UNL A   1      32.537  38.629  31.101  1.00  0.00     0.199 HD
ENDBRANCH  82  84
ENDBRANCH  79  82
ENDBRANCH  76  79
ENDBRANCH  72  74
ENDBRANCH  71  72
ENDBRANCH   1  71
TORSDOF 14
ENDMDL
MODEL 2
REMARK VINA RESULT:     -11.0      5.852     10.970
REMARK SMILES O=C(OCCOC(=O)c1sccc1S(=O)(=O)N[C@@H]1CONC1=O)c1ccc(-c2c3nc(c(-c4c(F)c(F)c(F)c(F)c4F)c4ccc([nH]4)c(-c4c(F)c(F)c(F)c(F)c4F)c4nc(c(-c5c(F)c(F)c(F)c(F)c5F)c5ccc2[nH]5)C=C4)C=C3)cc1
REMARK SMILES IDX 5 1 4 2 3 3 2 4 1 5 24 6 25 7 86 8 26 9 85 10 27 11 28 12
REMARK SMILES IDX 29 13 79 14 30 15 84 16 78 17 80 18 31 19 83 20 77 21 76 22
REMARK SMILES IDX 32 24 64 25 44 26 63 27 45 28 48 29 62 30 81 31 46 32 47 33
REMARK SMILES IDX 61 35 82 36 49 37 33 38 34 39 42 40 35 41 36 42 40 43 43 44
REMARK SMILES IDX 37 45 38 46 41 47 39 48 65 49 66 50 74 51 67 52 68 53 72 54
REMARK SMILES IDX 75 55 69 56 70 57 73 58 71 59 50 60 51 61 59 62 52 63 53 64
REMARK SMILES IDX 57 65 60 66 54 67 55 68 58 69 56 70 6 71 7 72 8 73 9 74
REMARK SMILES IDX 10 75 13 76 11 77 12 78 14 79 15 80 16 81 17 82 18 84 19 85
REMARK SMILES IDX 22 86 20 87 21 88 23 89
REMARK H PARENT 80 23 48 34 17 83 21 90
REMARK Flexibility Score: inf
ROOT
ATOM      1  C   UNL A   1      38.103  20.783  25.218  1.00  0.00     0.275 C 
ENDROOT
BRANCH   1   2
ATOM      2  C   UNL A   1      39.033  19.600  25.481  1.00  0.00     0.275 C 
BRANCH   2   3
ATOM      3  O   UNL A   1      40.372  19.976  25.846  1.00  0.00    -0.458 OA
BRANCH   3   4
ATOM      4  C   UNL A   1      40.827  20.442  27.033  1.00  0.00     0.338 C 
ATOM      5  O   UNL A   1      40.977  19.658  27.967  1.00  0.00    -0.246 OA
BRANCH   4   6
ATOM      6  C   UNL A   1      40.993  21.900  27.321  1.00  0.00     0.060 A 
ATOM      7  C   UNL A   1      40.405  22.946  26.606  1.00  0.00     0.016 A 
ATOM      8  C   UNL A   1      41.843  22.229  28.395  1.00  0.00     0.016 A 
ATOM      9  C   UNL A   1      40.610  24.276  26.974  1.00  0.00     0.010 A 
ATOM     10  C   UNL A   1      42.075  23.560  28.755  1.00  0.00     0.010 A 
ATOM     11  C   UNL A   1      41.469  24.590  28.028  1.00  0.00    -0.014 A 
BRANCH  11  12
ATOM     12  C   UNL A   1      41.936  25.986  28.166  1.00  0.00     0.031 A 
ATOM     13  C   UNL A   1      43.262  26.319  27.571  1.00  0.00     0.074 A 
ATOM     14  C   UNL A   1      41.177  26.937  28.734  1.00  0.00     0.049 A 
ATOM     15  N   UNL A   1      43.885  27.462  27.531  1.00  0.00    -0.248 NA
ATOM     16  C   UNL A   1      43.977  25.210  26.916  1.00  0.00     0.031 C 
ATOM     17  C   UNL A   1      39.843  26.702  29.247  1.00  0.00     0.029 A 
ATOM     18  N   UNL A   1      41.390  28.266  28.975  1.00  0.00    -0.354 N 
ATOM     19  C   UNL A   1      45.058  27.215  26.840  1.00  0.00     0.074 A 
ATOM     20  C   UNL A   1      45.083  25.808  26.512  1.00  0.00     0.031 C 
ATOM     21  C   UNL A   1      39.344  27.830  29.771  1.00  0.00     0.029 A 
ATOM     22  C   UNL A   1      40.355  28.872  29.651  1.00  0.00     0.049 A 
ATOM     23  H   UNL A   1      42.204  28.743  28.694  1.00  0.00     0.167 HD
ATOM     24  C   UNL A   1      46.027  28.097  26.512  1.00  0.00     0.037 A 
ATOM     25  C   UNL A   1      40.252  30.123  30.136  1.00  0.00     0.037 A 
ATOM     26  C   UNL A   1      45.993  29.478  26.904  1.00  0.00     0.049 A 
ATOM     27  C   UNL A   1      41.388  31.065  29.854  1.00  0.00     0.074 A 
ATOM     28  C   UNL A   1      46.931  30.465  26.681  1.00  0.00     0.029 A 
ATOM     29  N   UNL A   1      44.957  30.058  27.632  1.00  0.00    -0.354 N 
ATOM     30  N   UNL A   1      42.498  30.831  29.193  1.00  0.00    -0.248 NA
ATOM     31  C   UNL A   1      41.267  32.434  30.363  1.00  0.00     0.031 C 
ATOM     32  C   UNL A   1      46.491  31.628  27.326  1.00  0.00     0.029 A 
ATOM     33  C   UNL A   1      45.248  31.385  27.897  1.00  0.00     0.049 A 
ATOM     34  H   UNL A   1      44.138  29.592  27.916  1.00  0.00     0.167 HD
ATOM     35  C   UNL A   1      43.199  32.024  29.181  1.00  0.00     0.074 A 
ATOM     36  C   UNL A   1      42.383  32.986  29.901  1.00  0.00     0.031 C 
ATOM     37  C   UNL A   1      44.403  32.303  28.623  1.00  0.00     0.037 A 
BRANCH  24  38
ATOM     38  C   UNL A   1      47.207  27.536  25.780  1.00  0.00     0.064 A 
ATOM     39  C   UNL A   1      48.318  27.010  26.461  1.00  0.00     0.173 A 
ATOM     40  C   UNL A   1      47.282  27.640  24.384  1.00  0.00     0.173 A 
ATOM     41  F   UNL A   1      48.311  26.927  27.801  1.00  0.00    -0.203 F 
ATOM     42  C   UNL A   1      49.480  26.664  25.775  1.00  0.00     0.198 A 
ATOM     43  C   UNL A   1      48.434  27.263  23.699  1.00  0.00     0.198 A 
ATOM     44  F   UNL A   1      46.255  28.149  23.688  1.00  0.00    -0.203 F 
ATOM     45  F   UNL A   1      50.561  26.256  26.456  1.00  0.00    -0.200 F 
ATOM     46  C   UNL A   1      49.536  26.792  24.396  1.00  0.00     0.200 A 
ATOM     47  F   UNL A   1      48.489  27.390  22.367  1.00  0.00    -0.200 F 
ATOM     48  F   UNL A   1      50.664  26.488  23.740  1.00  0.00    -0.200 F 
ENDBRANCH  24  38
BRANCH  25  49
ATOM     49  C   UNL A   1      39.058  30.519  30.931  1.00  0.00     0.064 A 
ATOM     50  C   UNL A   1      39.001  30.337  32.319  1.00  0.00     0.173 A 
ATOM     51  C   UNL A   1      37.952  31.129  30.313  1.00  0.00     0.173 A 
ATOM     52  F   UNL A   1      40.020  29.747  32.959  1.00  0.00    -0.203 F 
ATOM     53  C   UNL A   1      37.887  30.742  33.055  1.00  0.00     0.198 A 
ATOM     54  C   UNL A   1      36.850  31.555  31.054  1.00  0.00     0.198 A 
ATOM     55  F   UNL A   1      37.951  31.333  28.987  1.00  0.00    -0.203 F 
ATOM     56  F   UNL A   1      37.846  30.528  34.378  1.00  0.00    -0.200 F 
ATOM     57  C   UNL A   1      36.816  31.357  32.425  1.00  0.00     0.200 A 
ATOM     58  F   UNL A   1      35.825  32.160  30.438  1.00  0.00    -0.200 F 
ATOM     59  F   UNL A   1      35.750  31.753  33.135  1.00  0.00    -0.200 F 
ENDBRANCH  25  49
BRANCH  37  60
ATOM     60  C   UNL A   1      44.895  33.712  28.750  1.00  0.00     0.064 A 
ATOM     61  C   UNL A   1      45.728  34.104  29.805  1.00  0.00     0.173 A 
ATOM     62  C   UNL A   1      44.593  34.652  27.753  1.00  0.00     0.173 A 
ATOM     63  F   UNL A   1      46.028  33.243  30.787  1.00  0.00    -0.203 F 
ATOM     64  C   UNL A   1      46.238  35.398  29.862  1.00  0.00     0.198 A 
ATOM     65  C   UNL A   1      45.128  35.934  27.798  1.00  0.00     0.198 A 
ATOM     66  F   UNL A   1      43.803  34.316  26.722  1.00  0.00    -0.203 F 
ATOM     67  F   UNL A   1      47.010  35.766  30.895  1.00  0.00    -0.200 F 
ATOM     68  C   UNL A   1      45.949  36.306  28.853  1.00  0.00     0.200 A 
ATOM     69  F   UNL A   1      44.861  36.805  26.816  1.00  0.00    -0.200 F 
ATOM     70  F   UNL A   1      46.460  37.544  28.900  1.00  0.00    -0.200 F 
ENDBRANCH  37  60
ENDBRANCH  11  12
ENDBRANCH   4   6
ENDBRANCH   3   4
ENDBRANCH   2   3
ENDBRANCH   1   2
BRANCH   1  71
ATOM     71  O   UNL A   1      36.779  20.402  24.819  1.00  0.00    -0.458 OA
BRANCH  71  72
ATOM     72  C   UNL A   1      35.762  21.092  25.411  1.00  0.00     0.349 C 
ATOM     73  O   UNL A   1      35.901  21.828  26.374  1.00  0.00    -0.245 OA
BRANCH  72  74
ATOM     74  C   UNL A   1      34.508  20.811  24.752  1.00  0.00     0.132 A 
ATOM     75  S   UNL A   1      33.969  19.177  24.728  1.00  0.00    -0.136 S 
ATOM     76  C   UNL A   1      33.632  21.632  24.069  1.00  0.00     0.107 A 
ATOM     77  C   UNL A   1      32.495  19.594  23.977  1.00  0.00     0.067 A 
ATOM     78  C   UNL A   1      32.473  20.920  23.611  1.00  0.00     0.034 A 
BRANCH  76  79
ATOM     79  S   UNL A   1      33.854  23.328  23.788  1.00  0.00     0.243 S 
ATOM     80  O   UNL A   1      33.840  23.913  25.107  1.00  0.00    -0.207 OA
ATOM     81  O   UNL A   1      35.011  23.408  22.929  1.00  0.00    -0.207 OA
BRANCH  79  82
ATOM     82  N   UNL A   1      32.587  23.978  22.916  1.00  0.00    -0.196 NA
ATOM     83  H   UNL A   1      31.731  23.527  23.241  1.00  0.00     0.142 HD
BRANCH  82  84
ATOM     84  C   UNL A   1      32.371  25.437  22.991  1.00  0.00     0.189 C 
ATOM     85  C   UNL A   1      30.925  25.784  23.301  1.00  0.00     0.224 C 
ATOM     86  C   UNL A   1      32.469  26.006  21.602  1.00  0.00     0.264 C 
ATOM     87  O   UNL A   1      30.638  26.993  22.586  1.00  0.00    -0.271 OA
ATOM     88  N   UNL A   1      31.489  26.949  21.460  1.00  0.00    -0.233 N 
ATOM     89  O   UNL A   1      33.262  25.646  20.746  1.00  0.00    -0.271 OA
ATOM     90  H   UNL A   1      31.388  27.527  20.670  1.00  0.00     0.199 HD
ENDBRANCH  82  84
ENDBRANCH  79  82
ENDBRANCH  76  79
ENDBRANCH  72  74
ENDBRANCH  71  72
ENDBRANCH   1  71
TORSDOF 14
ENDMDL
MODEL 3
REMARK VINA RESULT:     -11.0      1.437      2.073
REMARK SMILES O=C(OCCOC(=O)c1sccc1S(=O)(=O)N[C@@H]1CONC1=O)c1ccc(-c2c3nc(c(-c4c(F)c(F)c(F)c(F)c4F)c4ccc([nH]4)c(-c4c(F)c(F)c(F)c(F)c4F)c4nc(c(-c5c(F)c(F)c(F)c(F)c5F)c5ccc2[nH]5)C=C4)C=C3)cc1
REMARK SMILES IDX 5 1 4 2 3 3 2 4 1 5 24 6 25 7 86 8 26 9 85 10 27 11 28 12
REMARK SMILES IDX 29 13 79 14 30 15 84 16 78 17 80 18 31 19 83 20 77 21 76 22
REMARK SMILES IDX 32 24 64 25 44 26 63 27 45 28 48 29 62 30 81 31 46 32 47 33
REMARK SMILES IDX 61 35 82 36 49 37 33 38 34 39 42 40 35 41 36 42 40 43 43 44
REMARK SMILES IDX 37 45 38 46 41 47 39 48 65 49 66 50 74 51 67 52 68 53 72 54
REMARK SMILES IDX 75 55 69 56 70 57 73 58 71 59 50 60 51 61 59 62 52 63 53 64
REMARK SMILES IDX 57 65 60 66 54 67 55 68 58 69 56 70 6 71 7 72 8 73 9 74
REMARK SMILES IDX 10 75 13 76 11 77 12 78 14 79 15 80 16 81 17 82 18 84 19 85
REMARK SMILES IDX 22 86 20 87 21 88 23 89
REMARK H PARENT 80 23 48 34 17 83 21 90
REMARK Flexibility Score: inf
ROOT
ATOM      1  C   UNL A   1      35.221  33.931  28.046  1.00  0.00     0.275 C 
ENDROOT
BRANCH   1   2
ATOM      2  C   UNL A   1      33.828  33.305  28.023  1.00  0.00     0.275 C 
BRANCH   2   3
ATOM      3  O   UNL A   1      33.817  31.890  28.276  1.00  0.00    -0.458 OA
BRANCH   3   4
ATOM      4  C   UNL A   1      34.468  30.904  27.614  1.00  0.00     0.338 C 
ATOM      5  O   UNL A   1      33.980  30.453  26.580  1.00  0.00    -0.246 OA
BRANCH   4   6
ATOM      6  C   UNL A   1      35.669  30.210  28.172  1.00  0.00     0.060 A 
ATOM      7  C   UNL A   1      35.772  29.656  29.450  1.00  0.00     0.016 A 
ATOM      8  C   UNL A   1      36.796  30.142  27.329  1.00  0.00     0.016 A 
ATOM      9  C   UNL A   1      36.937  29.010  29.864  1.00  0.00     0.010 A 
ATOM     10  C   UNL A   1      37.976  29.518  27.745  1.00  0.00     0.010 A 
ATOM     11  C   UNL A   1      38.053  28.966  29.027  1.00  0.00    -0.014 A 
BRANCH  11  12
ATOM     12  C   UNL A   1      39.359  28.596  29.611  1.00  0.00     0.031 A 
ATOM     13  C   UNL A   1      39.807  29.362  30.810  1.00  0.00     0.074 A 
ATOM     14  C   UNL A   1      40.086  27.570  29.138  1.00  0.00     0.049 A 
ATOM     15  N   UNL A   1      40.889  29.222  31.522  1.00  0.00    -0.248 NA
ATOM     16  C   UNL A   1      38.898  30.421  31.279  1.00  0.00     0.031 C 
ATOM     17  C   UNL A   1      39.667  26.727  28.037  1.00  0.00     0.029 A 
ATOM     18  N   UNL A   1      41.299  27.054  29.501  1.00  0.00    -0.354 N 
ATOM     19  C   UNL A   1      40.788  30.167  32.528  1.00  0.00     0.074 A 
ATOM     20  C   UNL A   1      39.561  30.901  32.315  1.00  0.00     0.031 C 
ATOM     21  C   UNL A   1      40.603  25.804  27.779  1.00  0.00     0.029 A 
ATOM     22  C   UNL A   1      41.716  26.018  28.695  1.00  0.00     0.049 A 
ATOM     23  H   UNL A   1      41.824  27.389  30.263  1.00  0.00     0.167 HD
ATOM     24  C   UNL A   1      41.653  30.393  33.541  1.00  0.00     0.037 A 
ATOM     25  C   UNL A   1      42.877  25.338  28.689  1.00  0.00     0.037 A 
ATOM     26  C   UNL A   1      42.890  29.679  33.686  1.00  0.00     0.049 A 
ATOM     27  C   UNL A   1      43.876  25.676  29.759  1.00  0.00     0.074 A 
ATOM     28  C   UNL A   1      43.879  29.844  34.635  1.00  0.00     0.029 A 
ATOM     29  N   UNL A   1      43.314  28.668  32.828  1.00  0.00    -0.354 N 
ATOM     30  N   UNL A   1      43.777  26.569  30.716  1.00  0.00    -0.248 NA
ATOM     31  C   UNL A   1      45.133  24.922  29.766  1.00  0.00     0.031 C 
ATOM     32  C   UNL A   1      44.928  28.974  34.316  1.00  0.00     0.029 A 
ATOM     33  C   UNL A   1      44.569  28.221  33.205  1.00  0.00     0.049 A 
ATOM     34  H   UNL A   1      42.798  28.322  32.065  1.00  0.00     0.167 HD
ATOM     35  C   UNL A   1      44.942  26.470  31.457  1.00  0.00     0.074 A 
ATOM     36  C   UNL A   1      45.735  25.424  30.838  1.00  0.00     0.031 C 
ATOM     37  C   UNL A   1      45.320  27.175  32.553  1.00  0.00     0.037 A 
BRANCH  24  38
ATOM     38  C   UNL A   1      41.296  31.510  34.473  1.00  0.00     0.064 A 
ATOM     39  C   UNL A   1      40.455  31.309  35.580  1.00  0.00     0.173 A 
ATOM     40  C   UNL A   1      41.697  32.821  34.183  1.00  0.00     0.173 A 
ATOM     41  F   UNL A   1      40.010  30.078  35.876  1.00  0.00    -0.203 F 
ATOM     42  C   UNL A   1      39.984  32.387  36.326  1.00  0.00     0.198 A 
ATOM     43  C   UNL A   1      41.251  33.893  34.951  1.00  0.00     0.198 A 
ATOM     44  F   UNL A   1      42.488  33.070  33.128  1.00  0.00    -0.203 F 
ATOM     45  F   UNL A   1      39.106  32.180  37.318  1.00  0.00    -0.200 F 
ATOM     46  C   UNL A   1      40.382  33.676  36.010  1.00  0.00     0.200 A 
ATOM     47  F   UNL A   1      41.632  35.139  34.642  1.00  0.00    -0.200 F 
ATOM     48  F   UNL A   1      39.905  34.716  36.709  1.00  0.00    -0.200 F 
ENDBRANCH  24  38
BRANCH  25  49
ATOM     49  C   UNL A   1      43.138  24.316  27.640  1.00  0.00     0.064 A 
ATOM     50  C   UNL A   1      42.757  22.977  27.801  1.00  0.00     0.173 A 
ATOM     51  C   UNL A   1      43.747  24.671  26.424  1.00  0.00     0.173 A 
ATOM     52  F   UNL A   1      42.186  22.578  28.947  1.00  0.00    -0.203 F 
ATOM     53  C   UNL A   1      42.981  22.036  26.796  1.00  0.00     0.198 A 
ATOM     54  C   UNL A   1      43.947  23.735  25.411  1.00  0.00     0.198 A 
ATOM     55  F   UNL A   1      44.130  25.939  26.210  1.00  0.00    -0.203 F 
ATOM     56  F   UNL A   1      42.634  20.755  26.990  1.00  0.00    -0.200 F 
ATOM     57  C   UNL A   1      43.568  22.416  25.599  1.00  0.00     0.200 A 
ATOM     58  F   UNL A   1      44.505  24.114  24.252  1.00  0.00    -0.200 F 
ATOM     59  F   UNL A   1      43.775  21.512  24.631  1.00  0.00    -0.200 F 
ENDBRANCH  25  49
BRANCH  37  60
ATOM     60  C   UNL A   1      46.640  26.816  33.162  1.00  0.00     0.064 A 
ATOM     61  C   UNL A   1      46.753  25.798  34.118  1.00  0.00     0.173 A 
ATOM     62  C   UNL A   1      47.812  27.445  32.716  1.00  0.00     0.173 A 
ATOM     63  F   UNL A   1      45.657  25.182  34.583  1.00  0.00    -0.203 F 
ATOM     64  C   UNL A   1      47.999  25.426  34.613  1.00  0.00     0.198 A 
ATOM     65  C   UNL A   1      49.057  27.050  33.192  1.00  0.00     0.198 A 
ATOM     66  F   UNL A   1      47.750  28.421  31.798  1.00  0.00    -0.203 F 
ATOM     67  F   UNL A   1      48.087  24.470  35.549  1.00  0.00    -0.200 F 
ATOM     68  C   UNL A   1      49.150  26.042  34.141  1.00  0.00     0.200 A 
ATOM     69  F   UNL A   1      50.168  27.635  32.724  1.00  0.00    -0.200 F 
ATOM     70  F   UNL A   1      50.349  25.666  34.604  1.00  0.00    -0.200 F 
ENDBRANCH  37  60
ENDBRANCH  11  12
ENDBRANCH   4   6
ENDBRANCH   3   4
ENDBRANCH   2   3
ENDBRANCH   1   2
BRANCH   1  71
ATOM     71  O   UNL A   1      35.673  34.290  29.360  1.00  0.00    -0.458 OA
BRANCH  71  72
ATOM     72  C   UNL A   1      36.755  33.600  29.820  1.00  0.00     0.349 C 
ATOM     73  O   UNL A   1      37.430  32.846  29.139  1.00  0.00    -0.245 OA
BRANCH  72  74
ATOM     74  C   UNL A   1      36.971  33.875  31.222  1.00  0.00     0.132 A 
ATOM     75  S   UNL A   1      38.570  34.275  31.717  1.00  0.00    -0.136 S 
ATOM     76  C   UNL A   1      36.112  33.840  32.302  1.00  0.00     0.107 A 
ATOM     77  C   UNL A   1      38.078  34.578  33.322  1.00  0.00     0.067 A 
ATOM     78  C   UNL A   1      36.761  34.237  33.519  1.00  0.00     0.034 A 
BRANCH  76  79
ATOM     79  S   UNL A   1      34.438  33.394  32.243  1.00  0.00     0.243 S 
ATOM     80  O   UNL A   1      34.403  32.254  31.358  1.00  0.00    -0.207 OA
ATOM     81  O   UNL A   1      34.035  33.300  33.626  1.00  0.00    -0.207 OA
BRANCH  79  82
ATOM     82  N   UNL A   1      33.503  34.604  31.572  1.00  0.00    -0.196 NA
ATOM     83  H   UNL A   1      32.610  34.607  32.066  1.00  0.00     0.142 HD
BRANCH  82  84
ATOM     84  C   UNL A   1      34.027  35.984  31.604  1.00  0.00     0.189 C 
ATOM     85  C   UNL A   1      33.626  36.717  32.873  1.00  0.00     0.224 C 
ATOM     86  C   UNL A   1      33.272  36.805  30.596  1.00  0.00     0.264 C 
ATOM     87  O   UNL A   1      33.425  38.086  32.501  1.00  0.00    -0.271 OA
ATOM     88  N   UNL A   1      33.021  38.030  31.149  1.00  0.00    -0.233 N 
ATOM     89  O   UNL A   1      32.912  36.416  29.495  1.00  0.00    -0.271 OA
ATOM     90  H   UNL A   1      32.609  38.782  30.665  1.00  0.00     0.199 HD
ENDBRANCH  82  84
ENDBRANCH  79  82
ENDBRANCH  76  79
ENDBRANCH  72  74
ENDBRANCH  71  72
ENDBRANCH   1  71
TORSDOF 14
ENDMDL
