MODEL 1
REMARK VINA RESULT:     -12.8      0.000      0.000
REMARK SMILES Cc1cc(OC(F)(F)F)cc2c1O[C@H](C(F)(F)F)C(C(=O)OCCOC(=O)c1ccc(-c3c4nc(c(-c5c(F)c(F)c(F)c(F)c5F)c5ccc([nH]5)c(-c5c(F)c(F)c(F)c(F)c5F)c5nc(c(-c6c(F)c(F)c(F)c(F)c6F)c6ccc3[nH]6)C=C5)C=C4)cc1)=C2
REMARK SMILES IDX 23 1 22 2 20 3 21 4 19 5 1 6 2 7 3 8 12 9 4 10 11 11 13 12
REMARK SMILES IDX 10 13 91 14 14 15 5 16 6 17 7 18 8 19 9 20 15 21 16 22 17 23
REMARK SMILES IDX 18 24 24 25 25 26 26 27 27 28 28 29 29 30 90 31 30 32 89 33
REMARK SMILES IDX 31 34 32 35 33 36 83 37 34 38 88 39 82 40 84 41 35 42 87 43
REMARK SMILES IDX 81 44 80 45 36 47 68 48 48 49 67 50 49 51 52 52 66 53 85 54
REMARK SMILES IDX 50 55 51 56 65 58 86 59 53 60 37 61 38 62 46 63 39 64 40 65
REMARK SMILES IDX 44 66 47 67 41 68 42 69 45 70 43 71 69 72 70 73 78 74 71 75
REMARK SMILES IDX 72 76 76 77 79 78 73 79 74 80 77 81 75 82 54 83 55 84 63 85
REMARK SMILES IDX 56 86 57 87 61 88 64 89 58 90 59 91 62 92 60 93
REMARK H PARENT 84 46 52 57
REMARK Flexibility Score: inf
ROOT
ATOM      1  C   UNL A   1      31.338  29.366  25.056  1.00  0.00     0.275 C 
ENDROOT
BRANCH   1   2
ATOM      2  O   UNL A   1      32.145  28.329  25.652  1.00  0.00    -0.459 OA
BRANCH   2   3
ATOM      3  C   UNL A   1      33.180  27.893  24.896  1.00  0.00     0.338 C 
ATOM      4  O   UNL A   1      34.068  28.572  24.416  1.00  0.00    -0.246 OA
BRANCH   3   5
ATOM      5  C   UNL A   1      33.116  26.428  24.736  1.00  0.00     0.087 C 
ATOM      6  C   UNL A   1      32.243  21.671  23.000  1.00  0.00     0.048 C 
ATOM      7  C   UNL A   1      33.257  22.338  23.889  1.00  0.00    -0.005 A 
ATOM      8  C   UNL A   1      34.306  21.565  24.428  1.00  0.00     0.054 A 
ATOM      9  C   UNL A   1      33.158  23.696  24.220  1.00  0.00     0.131 A 
ATOM     10  C   UNL A   1      35.258  22.142  25.270  1.00  0.00     0.130 A 
ATOM     11  C   UNL A   1      34.118  24.277  25.046  1.00  0.00     0.021 A 
ATOM     12  O   UNL A   1      32.091  24.395  23.722  1.00  0.00    -0.475 OA
ATOM     13  C   UNL A   1      35.155  23.499  25.575  1.00  0.00     0.058 A 
ATOM     14  C   UNL A   1      34.068  25.699  25.326  1.00  0.00     0.027 C 
ATOM     15  C   UNL A   1      32.084  25.845  23.817  1.00  0.00     0.316 C 
BRANCH  10  16
ATOM     16  O   UNL A   1      36.323  21.516  25.851  1.00  0.00    -0.406 OA
BRANCH  16  17
ATOM     17  C   UNL A   1      37.472  21.280  25.055  1.00  0.00     0.573 C 
ATOM     18  F   UNL A   1      37.383  21.926  23.873  1.00  0.00    -0.132 F 
ATOM     19  F   UNL A   1      38.596  21.664  25.696  1.00  0.00    -0.132 F 
ATOM     20  F   UNL A   1      37.561  19.956  24.806  1.00  0.00    -0.132 F 
ENDBRANCH  16  17
ENDBRANCH  10  16
BRANCH  15  21
ATOM     21  C   UNL A   1      32.192  26.436  22.402  1.00  0.00     0.430 C 
ATOM     22  F   UNL A   1      31.646  25.610  21.478  1.00  0.00    -0.167 F 
ATOM     23  F   UNL A   1      31.531  27.615  22.303  1.00  0.00    -0.167 F 
ATOM     24  F   UNL A   1      33.476  26.660  22.040  1.00  0.00    -0.167 F 
ENDBRANCH  15  21
ENDBRANCH   3   5
ENDBRANCH   2   3
ENDBRANCH   1   2
BRANCH   1  25
ATOM     25  C   UNL A   1      31.547  30.704  25.762  1.00  0.00     0.275 C 
BRANCH  25  26
ATOM     26  O   UNL A   1      32.416  30.543  26.899  1.00  0.00    -0.458 OA
BRANCH  26  27
ATOM     27  C   UNL A   1      33.115  31.644  27.249  1.00  0.00     0.338 C 
ATOM     28  O   UNL A   1      32.719  32.798  27.282  1.00  0.00    -0.246 OA
BRANCH  27  29
ATOM     29  C   UNL A   1      34.480  31.277  27.655  1.00  0.00     0.060 A 
ATOM     30  C   UNL A   1      34.788  29.939  27.885  1.00  0.00     0.016 A 
ATOM     31  C   UNL A   1      35.389  32.276  27.997  1.00  0.00     0.016 A 
ATOM     32  C   UNL A   1      35.937  29.605  28.598  1.00  0.00     0.010 A 
ATOM     33  C   UNL A   1      36.603  31.925  28.596  1.00  0.00     0.010 A 
ATOM     34  C   UNL A   1      36.864  30.592  28.957  1.00  0.00    -0.014 A 
BRANCH  34  35
ATOM     35  C   UNL A   1      38.077  30.239  29.746  1.00  0.00     0.031 A 
ATOM     36  C   UNL A   1      39.143  29.359  29.144  1.00  0.00     0.074 A 
ATOM     37  C   UNL A   1      38.240  30.725  30.994  1.00  0.00     0.049 A 
ATOM     38  N   UNL A   1      40.185  28.808  29.716  1.00  0.00    -0.248 NA
ATOM     39  C   UNL A   1      39.017  29.047  27.711  1.00  0.00     0.031 C 
ATOM     40  C   UNL A   1      37.317  31.634  31.676  1.00  0.00     0.029 A 
ATOM     41  N   UNL A   1      39.245  30.529  31.910  1.00  0.00    -0.354 N 
ATOM     42  C   UNL A   1      40.811  28.059  28.727  1.00  0.00     0.074 A 
ATOM     43  C   UNL A   1      40.025  28.206  27.522  1.00  0.00     0.031 C 
ATOM     44  C   UNL A   1      37.816  31.950  32.879  1.00  0.00     0.029 A 
ATOM     45  C   UNL A   1      39.043  31.194  33.096  1.00  0.00     0.049 A 
ATOM     46  H   UNL A   1      40.033  29.966  31.734  1.00  0.00     0.167 HD
ATOM     47  C   UNL A   1      41.945  27.324  28.817  1.00  0.00     0.037 A 
ATOM     48  C   UNL A   1      39.743  31.167  34.246  1.00  0.00     0.037 A 
ATOM     49  C   UNL A   1      42.751  27.221  30.006  1.00  0.00     0.049 A 
ATOM     50  C   UNL A   1      40.954  30.281  34.342  1.00  0.00     0.074 A 
ATOM     51  C   UNL A   1      43.922  26.508  30.194  1.00  0.00     0.029 A 
ATOM     52  N   UNL A   1      42.476  27.865  31.204  1.00  0.00    -0.354 N 
ATOM     53  N   UNL A   1      41.509  29.538  33.416  1.00  0.00    -0.248 NA
ATOM     54  C   UNL A   1      41.623  30.213  35.649  1.00  0.00     0.031 C 
ATOM     55  C   UNL A   1      44.333  26.687  31.518  1.00  0.00     0.029 A 
ATOM     56  C   UNL A   1      43.445  27.548  32.142  1.00  0.00     0.049 A 
ATOM     57  H   UNL A   1      41.707  28.458  31.363  1.00  0.00     0.167 HD
ATOM     58  C   UNL A   1      42.595  28.923  34.023  1.00  0.00     0.074 A 
ATOM     59  C   UNL A   1      42.637  29.400  35.389  1.00  0.00     0.031 C 
ATOM     60  C   UNL A   1      43.473  28.035  33.496  1.00  0.00     0.037 A 
BRANCH  47  61
ATOM     61  C   UNL A   1      42.391  26.556  27.605  1.00  0.00     0.064 A 
ATOM     62  C   UNL A   1      43.380  27.051  26.743  1.00  0.00     0.173 A 
ATOM     63  C   UNL A   1      41.885  25.272  27.354  1.00  0.00     0.173 A 
ATOM     64  F   UNL A   1      43.887  28.278  26.932  1.00  0.00    -0.203 F 
ATOM     65  C   UNL A   1      43.839  26.291  25.669  1.00  0.00     0.198 A 
ATOM     66  C   UNL A   1      42.366  24.503  26.296  1.00  0.00     0.198 A 
ATOM     67  F   UNL A   1      40.943  24.748  28.153  1.00  0.00    -0.203 F 
ATOM     68  F   UNL A   1      44.766  26.795  24.842  1.00  0.00    -0.200 F 
ATOM     69  C   UNL A   1      43.340  25.015  25.454  1.00  0.00     0.200 A 
ATOM     70  F   UNL A   1      41.893  23.266  26.100  1.00  0.00    -0.200 F 
ATOM     71  F   UNL A   1      43.798  24.278  24.433  1.00  0.00    -0.200 F 
ENDBRANCH  47  61
BRANCH  48  72
ATOM     72  C   UNL A   1      39.292  31.977  35.409  1.00  0.00     0.064 A 
ATOM     73  C   UNL A   1      39.684  33.314  35.548  1.00  0.00     0.173 A 
ATOM     74  C   UNL A   1      38.455  31.438  36.398  1.00  0.00     0.173 A 
ATOM     75  F   UNL A   1      40.505  33.868  34.644  1.00  0.00    -0.203 F 
ATOM     76  C   UNL A   1      39.264  34.079  36.635  1.00  0.00     0.198 A 
ATOM     77  C   UNL A   1      38.007  32.212  37.466  1.00  0.00     0.198 A 
ATOM     78  F   UNL A   1      38.051  30.161  36.315  1.00  0.00    -0.203 F 
ATOM     79  F   UNL A   1      39.687  35.345  36.764  1.00  0.00    -0.200 F 
ATOM     80  C   UNL A   1      38.418  33.531  37.587  1.00  0.00     0.200 A 
ATOM     81  F   UNL A   1      37.177  31.682  38.375  1.00  0.00    -0.200 F 
ATOM     82  F   UNL A   1      38.004  34.271  38.625  1.00  0.00    -0.200 F 
ENDBRANCH  48  72
BRANCH  60  83
ATOM     83  C   UNL A   1      44.561  27.525  34.393  1.00  0.00     0.064 A 
ATOM     84  C   UNL A   1      44.410  26.334  35.116  1.00  0.00     0.173 A 
ATOM     85  C   UNL A   1      45.792  28.194  34.472  1.00  0.00     0.173 A 
ATOM     86  F   UNL A   1      43.246  25.667  35.084  1.00  0.00    -0.203 F 
ATOM     87  C   UNL A   1      45.449  25.836  35.898  1.00  0.00     0.198 A 
ATOM     88  C   UNL A   1      46.838  27.678  35.230  1.00  0.00     0.198 A 
ATOM     89  F   UNL A   1      45.987  29.333  33.792  1.00  0.00    -0.203 F 
ATOM     90  F   UNL A   1      45.272  24.714  36.607  1.00  0.00    -0.200 F 
ATOM     91  C   UNL A   1      46.665  26.502  35.946  1.00  0.00     0.200 A 
ATOM     92  F   UNL A   1      48.017  28.313  35.264  1.00  0.00    -0.200 F 
ATOM     93  F   UNL A   1      47.670  26.011  36.684  1.00  0.00    -0.200 F 
ENDBRANCH  60  83
ENDBRANCH  34  35
ENDBRANCH  27  29
ENDBRANCH  26  27
ENDBRANCH  25  26
ENDBRANCH   1  25
TORSDOF 14
ENDMDL
MODEL 2
REMARK VINA RESULT:     -12.7      0.885      1.611
REMARK SMILES Cc1cc(OC(F)(F)F)cc2c1O[C@H](C(F)(F)F)C(C(=O)OCCOC(=O)c1ccc(-c3c4nc(c(-c5c(F)c(F)c(F)c(F)c5F)c5ccc([nH]5)c(-c5c(F)c(F)c(F)c(F)c5F)c5nc(c(-c6c(F)c(F)c(F)c(F)c6F)c6ccc3[nH]6)C=C5)C=C4)cc1)=C2
REMARK SMILES IDX 23 1 22 2 20 3 21 4 19 5 1 6 2 7 3 8 12 9 4 10 11 11 13 12
REMARK SMILES IDX 10 13 91 14 14 15 5 16 6 17 7 18 8 19 9 20 15 21 16 22 17 23
REMARK SMILES IDX 18 24 24 25 25 26 26 27 27 28 28 29 29 30 90 31 30 32 89 33
REMARK SMILES IDX 31 34 32 35 33 36 83 37 34 38 88 39 82 40 84 41 35 42 87 43
REMARK SMILES IDX 81 44 80 45 36 47 68 48 48 49 67 50 49 51 52 52 66 53 85 54
REMARK SMILES IDX 50 55 51 56 65 58 86 59 53 60 37 61 38 62 46 63 39 64 40 65
REMARK SMILES IDX 44 66 47 67 41 68 42 69 45 70 43 71 69 72 70 73 78 74 71 75
REMARK SMILES IDX 72 76 76 77 79 78 73 79 74 80 77 81 75 82 54 83 55 84 63 85
REMARK SMILES IDX 56 86 57 87 61 88 64 89 58 90 59 91 62 92 60 93
REMARK H PARENT 84 46 52 57
REMARK Flexibility Score: inf
ROOT
ATOM      1  C   UNL A   1      31.815  28.534  25.051  1.00  0.00     0.275 C 
ENDROOT
BRANCH   1   2
ATOM      2  O   UNL A   1      32.432  27.320  25.530  1.00  0.00    -0.459 OA
BRANCH   2   3
ATOM      3  C   UNL A   1      31.611  26.481  26.206  1.00  0.00     0.338 C 
ATOM      4  O   UNL A   1      30.670  26.793  26.911  1.00  0.00    -0.246 OA
BRANCH   3   5
ATOM      5  C   UNL A   1      31.993  25.079  25.954  1.00  0.00     0.087 C 
ATOM      6  C   UNL A   1      32.343  20.301  24.098  1.00  0.00     0.048 C 
ATOM      7  C   UNL A   1      33.260  21.269  24.792  1.00  0.00    -0.005 A 
ATOM      8  C   UNL A   1      34.598  20.893  25.031  1.00  0.00     0.054 A 
ATOM      9  C   UNL A   1      32.803  22.517  25.238  1.00  0.00     0.131 A 
ATOM     10  C   UNL A   1      35.477  21.756  25.687  1.00  0.00     0.130 A 
ATOM     11  C   UNL A   1      33.685  23.387  25.877  1.00  0.00     0.021 A 
ATOM     12  O   UNL A   1      31.483  22.818  25.037  1.00  0.00    -0.475 OA
ATOM     13  C   UNL A   1      35.011  23.002  26.109  1.00  0.00     0.058 A 
ATOM     14  C   UNL A   1      33.239  24.711  26.267  1.00  0.00     0.027 C 
ATOM     15  C   UNL A   1      31.025  24.183  25.240  1.00  0.00     0.316 C 
BRANCH  10  16
ATOM     16  O   UNL A   1      36.791  21.524  25.975  1.00  0.00    -0.406 OA
BRANCH  16  17
ATOM     17  C   UNL A   1      37.686  21.335  24.891  1.00  0.00     0.573 C 
ATOM     18  F   UNL A   1      37.760  20.033  24.545  1.00  0.00    -0.132 F 
ATOM     19  F   UNL A   1      37.314  22.067  23.820  1.00  0.00    -0.132 F 
ATOM     20  F   UNL A   1      38.917  21.741  25.271  1.00  0.00    -0.132 F 
ENDBRANCH  16  17
ENDBRANCH  10  16
BRANCH  15  21
ATOM     21  C   UNL A   1      30.607  24.773  23.884  1.00  0.00     0.430 C 
ATOM     22  F   UNL A   1      29.655  25.725  24.031  1.00  0.00    -0.167 F 
ATOM     23  F   UNL A   1      31.651  25.367  23.257  1.00  0.00    -0.167 F 
ATOM     24  F   UNL A   1      30.116  23.831  23.048  1.00  0.00    -0.167 F 
ENDBRANCH  15  21
ENDBRANCH   3   5
ENDBRANCH   2   3
ENDBRANCH   1   2
BRANCH   1  25
ATOM     25  C   UNL A   1      32.658  29.758  25.402  1.00  0.00     0.275 C 
BRANCH  25  26
ATOM     26  O   UNL A   1      32.426  30.155  26.767  1.00  0.00    -0.458 OA
BRANCH  26  27
ATOM     27  C   UNL A   1      33.066  31.279  27.156  1.00  0.00     0.338 C 
ATOM     28  O   UNL A   1      32.612  32.410  27.221  1.00  0.00    -0.246 OA
BRANCH  27  29
ATOM     29  C   UNL A   1      34.444  30.968  27.562  1.00  0.00     0.060 A 
ATOM     30  C   UNL A   1      34.802  29.647  27.814  1.00  0.00     0.016 A 
ATOM     31  C   UNL A   1      35.318  32.006  27.884  1.00  0.00     0.016 A 
ATOM     32  C   UNL A   1      35.965  29.367  28.527  1.00  0.00     0.010 A 
ATOM     33  C   UNL A   1      36.546  31.710  28.484  1.00  0.00     0.010 A 
ATOM     34  C   UNL A   1      36.857  30.393  28.866  1.00  0.00    -0.014 A 
BRANCH  34  35
ATOM     35  C   UNL A   1      38.085  30.098  29.656  1.00  0.00     0.031 A 
ATOM     36  C   UNL A   1      39.171  29.231  29.071  1.00  0.00     0.074 A 
ATOM     37  C   UNL A   1      38.242  30.625  30.888  1.00  0.00     0.049 A 
ATOM     38  N   UNL A   1      40.232  28.727  29.651  1.00  0.00    -0.248 NA
ATOM     39  C   UNL A   1      39.045  28.874  27.649  1.00  0.00     0.031 C 
ATOM     40  C   UNL A   1      37.298  31.526  31.550  1.00  0.00     0.029 A 
ATOM     41  N   UNL A   1      39.258  30.484  31.801  1.00  0.00    -0.354 N 
ATOM     42  C   UNL A   1      40.873  27.967  28.680  1.00  0.00     0.074 A 
ATOM     43  C   UNL A   1      40.075  28.057  27.476  1.00  0.00     0.031 C 
ATOM     44  C   UNL A   1      37.796  31.891  32.739  1.00  0.00     0.029 A 
ATOM     45  C   UNL A   1      39.046  31.176  32.969  1.00  0.00     0.049 A 
ATOM     46  H   UNL A   1      40.061  29.939  31.636  1.00  0.00     0.167 HD
ATOM     47  C   UNL A   1      42.028  27.267  28.783  1.00  0.00     0.037 A 
ATOM     48  C   UNL A   1      39.753  31.203  34.115  1.00  0.00     0.037 A 
ATOM     49  C   UNL A   1      42.844  27.222  29.968  1.00  0.00     0.049 A 
ATOM     50  C   UNL A   1      40.990  30.355  34.227  1.00  0.00     0.074 A 
ATOM     51  C   UNL A   1      44.036  26.549  30.168  1.00  0.00     0.029 A 
ATOM     52  N   UNL A   1      42.559  27.893  31.148  1.00  0.00    -0.354 N 
ATOM     53  N   UNL A   1      41.559  29.601  33.319  1.00  0.00    -0.248 NA
ATOM     54  C   UNL A   1      41.669  30.344  35.530  1.00  0.00     0.031 C 
ATOM     55  C   UNL A   1      44.451  26.778  31.483  1.00  0.00     0.029 A 
ATOM     56  C   UNL A   1      43.543  27.630  32.088  1.00  0.00     0.049 A 
ATOM     57  H   UNL A   1      41.774  28.468  31.297  1.00  0.00     0.167 HD
ATOM     58  C   UNL A   1      42.667  29.036  33.935  1.00  0.00     0.074 A 
ATOM     59  C   UNL A   1      42.704  29.553  35.286  1.00  0.00     0.031 C 
ATOM     60  C   UNL A   1      43.566  28.158  33.427  1.00  0.00     0.037 A 
BRANCH  47  61
ATOM     61  C   UNL A   1      42.488  26.478  27.590  1.00  0.00     0.064 A 
ATOM     62  C   UNL A   1      43.454  26.977  26.705  1.00  0.00     0.173 A 
ATOM     63  C   UNL A   1      42.019  25.172  27.381  1.00  0.00     0.173 A 
ATOM     64  F   UNL A   1      43.926  28.224  26.853  1.00  0.00    -0.203 F 
ATOM     65  C   UNL A   1      43.928  26.199  25.649  1.00  0.00     0.198 A 
ATOM     66  C   UNL A   1      42.515  24.388  26.342  1.00  0.00     0.198 A 
ATOM     67  F   UNL A   1      41.099  24.644  28.203  1.00  0.00    -0.203 F 
ATOM     68  F   UNL A   1      44.833  26.706  24.800  1.00  0.00    -0.200 F 
ATOM     69  C   UNL A   1      43.466  24.903  25.477  1.00  0.00     0.200 A 
ATOM     70  F   UNL A   1      42.078  23.131  26.186  1.00  0.00    -0.200 F 
ATOM     71  F   UNL A   1      43.939  24.150  24.474  1.00  0.00    -0.200 F 
ENDBRANCH  47  61
BRANCH  48  72
ATOM     72  C   UNL A   1      39.287  32.033  35.257  1.00  0.00     0.064 A 
ATOM     73  C   UNL A   1      39.624  33.390  35.343  1.00  0.00     0.173 A 
ATOM     74  C   UNL A   1      38.490  31.494  36.278  1.00  0.00     0.173 A 
ATOM     75  F   UNL A   1      40.405  33.946  34.406  1.00  0.00    -0.203 F 
ATOM     76  C   UNL A   1      39.189  34.174  36.410  1.00  0.00     0.198 A 
ATOM     77  C   UNL A   1      38.027  32.286  37.327  1.00  0.00     0.198 A 
ATOM     78  F   UNL A   1      38.140  30.199  36.247  1.00  0.00    -0.203 F 
ATOM     79  F   UNL A   1      39.559  35.460  36.489  1.00  0.00    -0.200 F 
ATOM     80  C   UNL A   1      38.383  33.624  37.395  1.00  0.00     0.200 A 
ATOM     81  F   UNL A   1      37.236  31.753  38.268  1.00  0.00    -0.200 F 
ATOM     82  F   UNL A   1      37.955  34.381  38.415  1.00  0.00    -0.200 F 
ENDBRANCH  48  72
BRANCH  60  83
ATOM     83  C   UNL A   1      44.674  27.704  34.330  1.00  0.00     0.064 A 
ATOM     84  C   UNL A   1      45.860  28.442  34.454  1.00  0.00     0.173 A 
ATOM     85  C   UNL A   1      44.520  26.563  35.131  1.00  0.00     0.173 A 
ATOM     86  F   UNL A   1      46.061  29.531  33.697  1.00  0.00    -0.203 F 
ATOM     87  C   UNL A   1      46.857  28.046  35.341  1.00  0.00     0.198 A 
ATOM     88  C   UNL A   1      45.505  26.187  36.039  1.00  0.00     0.198 A 
ATOM     89  F   UNL A   1      43.399  25.829  35.053  1.00  0.00    -0.203 F 
ATOM     90  F   UNL A   1      47.997  28.746  35.421  1.00  0.00    -0.200 F 
ATOM     91  C   UNL A   1      46.675  26.926  36.140  1.00  0.00     0.200 A 
ATOM     92  F   UNL A   1      45.322  25.115  36.820  1.00  0.00    -0.200 F 
ATOM     93  F   UNL A   1      47.628  26.558  37.007  1.00  0.00    -0.200 F 
ENDBRANCH  60  83
ENDBRANCH  34  35
ENDBRANCH  27  29
ENDBRANCH  26  27
ENDBRANCH  25  26
ENDBRANCH   1  25
TORSDOF 14
ENDMDL
MODEL 3
REMARK VINA RESULT:     -12.6      4.087      9.747
REMARK SMILES Cc1cc(OC(F)(F)F)cc2c1O[C@H](C(F)(F)F)C(C(=O)OCCOC(=O)c1ccc(-c3c4nc(c(-c5c(F)c(F)c(F)c(F)c5F)c5ccc([nH]5)c(-c5c(F)c(F)c(F)c(F)c5F)c5nc(c(-c6c(F)c(F)c(F)c(F)c6F)c6ccc3[nH]6)C=C5)C=C4)cc1)=C2
REMARK SMILES IDX 23 1 22 2 20 3 21 4 19 5 1 6 2 7 3 8 12 9 4 10 11 11 13 12
REMARK SMILES IDX 10 13 91 14 14 15 5 16 6 17 7 18 8 19 9 20 15 21 16 22 17 23
REMARK SMILES IDX 18 24 24 25 25 26 26 27 27 28 28 29 29 30 90 31 30 32 89 33
REMARK SMILES IDX 31 34 32 35 33 36 83 37 34 38 88 39 82 40 84 41 35 42 87 43
REMARK SMILES IDX 81 44 80 45 36 47 68 48 48 49 67 50 49 51 52 52 66 53 85 54
REMARK SMILES IDX 50 55 51 56 65 58 86 59 53 60 37 61 38 62 46 63 39 64 40 65
REMARK SMILES IDX 44 66 47 67 41 68 42 69 45 70 43 71 69 72 70 73 78 74 71 75
REMARK SMILES IDX 72 76 76 77 79 78 73 79 74 80 77 81 75 82 54 83 55 84 63 85
REMARK SMILES IDX 56 86 57 87 61 88 64 89 58 90 59 91 62 92 60 93
REMARK H PARENT 84 46 52 57
REMARK Flexibility Score: inf
ROOT
ATOM      1  C   UNL A   1      35.263  20.745  25.048  1.00  0.00     0.275 C 
ENDROOT
BRANCH   1   2
ATOM      2  O   UNL A   1      35.122  22.154  24.771  1.00  0.00    -0.459 OA
BRANCH   2   3
ATOM      3  C   UNL A   1      34.697  22.910  25.811  1.00  0.00     0.338 C 
ATOM      4  O   UNL A   1      35.021  22.791  26.978  1.00  0.00    -0.246 OA
BRANCH   3   5
ATOM      5  C   UNL A   1      33.773  23.958  25.339  1.00  0.00     0.087 C 
ATOM      6  C   UNL A   1      29.612  26.609  23.904  1.00  0.00     0.048 C 
ATOM      7  C   UNL A   1      30.966  26.931  24.475  1.00  0.00    -0.005 A 
ATOM      8  C   UNL A   1      31.286  28.275  24.759  1.00  0.00     0.054 A 
ATOM      9  C   UNL A   1      31.922  25.931  24.696  1.00  0.00     0.131 A 
ATOM     10  C   UNL A   1      32.537  28.618  25.274  1.00  0.00     0.130 A 
ATOM     11  C   UNL A   1      33.165  26.270  25.227  1.00  0.00     0.021 A 
ATOM     12  O   UNL A   1      31.591  24.648  24.352  1.00  0.00    -0.475 OA
ATOM     13  C   UNL A   1      33.472  27.608  25.504  1.00  0.00     0.058 A 
ATOM     14  C   UNL A   1      34.130  25.231  25.534  1.00  0.00     0.027 C 
ATOM     15  C   UNL A   1      32.434  23.551  24.797  1.00  0.00     0.316 C 
BRANCH  10  16
ATOM     16  O   UNL A   1      32.974  29.870  25.598  1.00  0.00    -0.406 OA
BRANCH  16  17
ATOM     17  C   UNL A   1      32.387  30.510  26.719  1.00  0.00     0.573 C 
ATOM     18  F   UNL A   1      31.837  29.608  27.559  1.00  0.00    -0.132 F 
ATOM     19  F   UNL A   1      33.296  31.252  27.386  1.00  0.00    -0.132 F 
ATOM     20  F   UNL A   1      31.408  31.333  26.285  1.00  0.00    -0.132 F 
ENDBRANCH  16  17
ENDBRANCH  10  16
BRANCH  15  21
ATOM     21  C   UNL A   1      31.652  22.702  25.811  1.00  0.00     0.430 C 
ATOM     22  F   UNL A   1      32.001  21.395  25.736  1.00  0.00    -0.167 F 
ATOM     23  F   UNL A   1      31.899  23.094  27.085  1.00  0.00    -0.167 F 
ATOM     24  F   UNL A   1      30.316  22.778  25.617  1.00  0.00    -0.167 F 
ENDBRANCH  15  21
ENDBRANCH   3   5
ENDBRANCH   2   3
ENDBRANCH   1   2
BRANCH   1  25
ATOM     25  C   UNL A   1      36.731  20.323  25.030  1.00  0.00     0.275 C 
BRANCH  25  26
ATOM     26  O   UNL A   1      37.587  21.465  25.224  1.00  0.00    -0.458 OA
BRANCH  26  27
ATOM     27  C   UNL A   1      38.764  21.205  25.834  1.00  0.00     0.338 C 
ATOM     28  O   UNL A   1      39.390  20.158  25.826  1.00  0.00    -0.246 OA
BRANCH  27  29
ATOM     29  C   UNL A   1      39.263  22.408  26.515  1.00  0.00     0.060 A 
ATOM     30  C   UNL A   1      38.717  23.649  26.201  1.00  0.00     0.016 A 
ATOM     31  C   UNL A   1      40.404  22.325  27.311  1.00  0.00     0.016 A 
ATOM     32  C   UNL A   1      39.394  24.814  26.552  1.00  0.00     0.010 A 
ATOM     33  C   UNL A   1      41.009  23.498  27.772  1.00  0.00     0.010 A 
ATOM     34  C   UNL A   1      40.546  24.756  27.348  1.00  0.00    -0.014 A 
BRANCH  34  35
ATOM     35  C   UNL A   1      41.287  25.999  27.698  1.00  0.00     0.031 A 
ATOM     36  C   UNL A   1      40.628  27.064  28.537  1.00  0.00     0.074 A 
ATOM     37  C   UNL A   1      42.561  26.168  27.285  1.00  0.00     0.049 A 
ATOM     38  N   UNL A   1      41.040  28.277  28.812  1.00  0.00    -0.248 NA
ATOM     39  C   UNL A   1      39.329  26.726  29.140  1.00  0.00     0.031 C 
ATOM     40  C   UNL A   1      43.338  25.194  26.519  1.00  0.00     0.029 A 
ATOM     41  N   UNL A   1      43.430  27.218  27.461  1.00  0.00    -0.354 N 
ATOM     42  C   UNL A   1      40.038  28.854  29.582  1.00  0.00     0.074 A 
ATOM     43  C   UNL A   1      38.987  27.870  29.718  1.00  0.00     0.031 C 
ATOM     44  C   UNL A   1      44.577  25.669  26.327  1.00  0.00     0.029 A 
ATOM     45  C   UNL A   1      44.655  27.020  26.870  1.00  0.00     0.049 A 
ATOM     46  H   UNL A   1      43.197  28.033  27.961  1.00  0.00     0.167 HD
ATOM     47  C   UNL A   1      40.005  30.091  30.133  1.00  0.00     0.037 A 
ATOM     48  C   UNL A   1      45.710  27.847  26.741  1.00  0.00     0.037 A 
ATOM     49  C   UNL A   1      41.076  31.049  30.037  1.00  0.00     0.049 A 
ATOM     50  C   UNL A   1      45.616  29.241  27.296  1.00  0.00     0.074 A 
ATOM     51  C   UNL A   1      41.141  32.325  30.569  1.00  0.00     0.029 A 
ATOM     52  N   UNL A   1      42.276  30.827  29.378  1.00  0.00    -0.354 N 
ATOM     53  N   UNL A   1      44.644  29.793  27.980  1.00  0.00    -0.248 NA
ATOM     54  C   UNL A   1      46.755  30.133  27.042  1.00  0.00     0.031 C 
ATOM     55  C   UNL A   1      42.363  32.891  30.197  1.00  0.00     0.029 A 
ATOM     56  C   UNL A   1      43.079  31.952  29.472  1.00  0.00     0.049 A 
ATOM     57  H   UNL A   1      42.520  29.995  28.912  1.00  0.00     0.167 HD
ATOM     58  C   UNL A   1      45.057  31.091  28.246  1.00  0.00     0.074 A 
ATOM     59  C   UNL A   1      46.378  31.237  27.674  1.00  0.00     0.031 C 
ATOM     60  C   UNL A   1      44.394  32.077  28.899  1.00  0.00     0.037 A 
BRANCH  47  61
ATOM     61  C   UNL A   1      38.771  30.499  30.888  1.00  0.00     0.064 A 
ATOM     62  C   UNL A   1      38.707  30.430  32.287  1.00  0.00     0.173 A 
ATOM     63  C   UNL A   1      37.674  31.048  30.207  1.00  0.00     0.173 A 
ATOM     64  F   UNL A   1      39.724  29.902  32.984  1.00  0.00    -0.203 F 
ATOM     65  C   UNL A   1      37.585  30.887  32.975  1.00  0.00     0.198 A 
ATOM     66  C   UNL A   1      36.566  31.530  30.900  1.00  0.00     0.198 A 
ATOM     67  F   UNL A   1      37.687  31.145  28.869  1.00  0.00    -0.203 F 
ATOM     68  F   UNL A   1      37.534  30.786  34.311  1.00  0.00    -0.200 F 
ATOM     69  C   UNL A   1      36.522  31.447  32.282  1.00  0.00     0.200 A 
ATOM     70  F   UNL A   1      35.547  32.084  30.229  1.00  0.00    -0.200 F 
ATOM     71  F   UNL A   1      35.453  31.905  32.948  1.00  0.00    -0.200 F 
ENDBRANCH  47  61
BRANCH  48  72
ATOM     72  C   UNL A   1      46.930  27.388  26.025  1.00  0.00     0.064 A 
ATOM     73  C   UNL A   1      47.968  26.747  26.714  1.00  0.00     0.173 A 
ATOM     74  C   UNL A   1      47.081  27.569  24.642  1.00  0.00     0.173 A 
ATOM     75  F   UNL A   1      47.884  26.574  28.041  1.00  0.00    -0.203 F 
ATOM     76  C   UNL A   1      49.114  26.314  26.049  1.00  0.00     0.198 A 
ATOM     77  C   UNL A   1      48.211  27.105  23.972  1.00  0.00     0.198 A 
ATOM     78  F   UNL A   1      46.118  28.179  23.935  1.00  0.00    -0.203 F 
ATOM     79  F   UNL A   1      50.110  25.740  26.739  1.00  0.00    -0.200 F 
ATOM     80  C   UNL A   1      49.230  26.484  24.678  1.00  0.00     0.200 A 
ATOM     81  F   UNL A   1      48.311  27.258  22.645  1.00  0.00    -0.200 F 
ATOM     82  F   UNL A   1      50.326  26.056  24.037  1.00  0.00    -0.200 F 
ENDBRANCH  48  72
BRANCH  60  83
ATOM     83  C   UNL A   1      45.087  33.399  29.040  1.00  0.00     0.064 A 
ATOM     84  C   UNL A   1      44.889  34.428  28.109  1.00  0.00     0.173 A 
ATOM     85  C   UNL A   1      45.899  33.664  30.153  1.00  0.00     0.173 A 
ATOM     86  F   UNL A   1      44.134  34.218  27.020  1.00  0.00    -0.203 F 
ATOM     87  C   UNL A   1      45.489  35.673  28.282  1.00  0.00     0.198 A 
ATOM     88  C   UNL A   1      46.473  34.918  30.339  1.00  0.00     0.198 A 
ATOM     89  F   UNL A   1      46.113  32.713  31.076  1.00  0.00    -0.203 F 
ATOM     90  F   UNL A   1      45.313  36.632  27.364  1.00  0.00    -0.200 F 
ATOM     91  C   UNL A   1      46.271  35.920  29.401  1.00  0.00     0.200 A 
ATOM     92  F   UNL A   1      47.215  35.160  31.427  1.00  0.00    -0.200 F 
ATOM     93  F   UNL A   1      46.831  37.125  29.575  1.00  0.00    -0.200 F 
ENDBRANCH  60  83
ENDBRANCH  34  35
ENDBRANCH  27  29
ENDBRANCH  26  27
ENDBRANCH  25  26
ENDBRANCH   1  25
TORSDOF 14
ENDMDL
