MODEL 1
REMARK VINA RESULT:     -12.8      0.000      0.000
REMARK SMILES CC(C)CCc1cc2c(cc1Cl)C=C(C(=O)OCCOC(=O)c1ccc(-c3c4nc(c(-c5c(F)c(F)c(F)c(F)c5F)c5ccc([nH]5)c(-c5c(F)c(F)c(F)c(F)c5F)c5nc(c(-c6c(F)c(F)c(F)c(F)c6F)c6ccc3[nH]6)C=C5)C=C4)cc1)[C@@H](C(F)(F)F)O2
REMARK SMILES IDX 18 1 17 2 15 3 16 4 14 5 6 6 7 7 11 8 8 9 10 10 12 11 9 12
REMARK SMILES IDX 91 13 13 14 86 15 5 16 4 17 2 18 1 19 3 20 87 21 88 22 89 23
REMARK SMILES IDX 90 24 19 25 20 26 21 27 22 28 23 29 24 30 85 31 25 32 84 33
REMARK SMILES IDX 26 34 27 35 28 36 78 37 29 38 83 39 77 40 79 41 30 42 82 43
REMARK SMILES IDX 76 44 75 45 31 47 63 48 43 49 62 50 44 51 47 52 61 53 80 54
REMARK SMILES IDX 45 55 46 56 60 58 81 59 48 60 32 61 33 62 41 63 34 64 35 65
REMARK SMILES IDX 39 66 42 67 36 68 37 69 40 70 38 71 64 72 65 73 73 74 66 75
REMARK SMILES IDX 67 76 71 77 74 78 68 79 69 80 72 81 70 82 49 83 50 84 58 85
REMARK SMILES IDX 51 86 52 87 56 88 59 89 53 90 54 91 57 92 55 93
REMARK H PARENT 79 46 47 57
REMARK Flexibility Score: inf
ROOT
ATOM      1  C   UNL A   1      31.854  28.786  25.078  1.00  0.00     0.275 C 
ENDROOT
BRANCH   1   2
ATOM      2  O   UNL A   1      32.501  27.561  25.492  1.00  0.00    -0.459 OA
BRANCH   2   3
ATOM      3  C   UNL A   1      31.778  26.781  26.327  1.00  0.00     0.338 C 
ATOM      4  O   UNL A   1      31.027  27.170  27.208  1.00  0.00    -0.246 OA
BRANCH   3   5
ATOM      5  C   UNL A   1      31.932  25.349  25.989  1.00  0.00     0.087 C 
ATOM      6  C   UNL A   1      33.905  20.786  25.113  1.00  0.00    -0.026 A 
ATOM      7  C   UNL A   1      32.609  21.341  24.988  1.00  0.00     0.052 A 
ATOM      8  C   UNL A   1      34.924  21.594  25.640  1.00  0.00     0.045 A 
ATOM      9  C   UNL A   1      32.350  22.669  25.346  1.00  0.00     0.128 A 
ATOM     10  C   UNL A   1      34.659  22.908  26.019  1.00  0.00     0.032 A 
ATOM     11  Cl  UNL A   1      36.563  21.073  25.792  1.00  0.00    -0.084 Cl
ATOM     12  C   UNL A   1      33.386  23.452  25.839  1.00  0.00     0.019 A 
ATOM     13  O   UNL A   1      31.072  23.130  25.197  1.00  0.00    -0.475 OA
ATOM     14  C   UNL A   1      33.161  24.844  26.144  1.00  0.00     0.027 C 
ATOM     15  C   UNL A   1      30.803  24.557  25.389  1.00  0.00     0.316 C 
BRANCH   6  16
ATOM     16  C   UNL A   1      34.148  19.375  24.618  1.00  0.00     0.037 C 
BRANCH  16  17
ATOM     17  C   UNL A   1      32.949  18.414  24.651  1.00  0.00     0.008 C 
BRANCH  17  18
ATOM     18  C   UNL A   1      32.849  17.437  23.468  1.00  0.00    -0.017 C 
ATOM     19  C   UNL A   1      32.300  18.122  22.217  1.00  0.00     0.007 C 
ATOM     20  C   UNL A   1      34.228  16.839  23.176  1.00  0.00     0.007 C 
ENDBRANCH  17  18
ENDBRANCH  16  17
ENDBRANCH   6  16
BRANCH  15  21
ATOM     21  C   UNL A   1      30.395  25.165  24.034  1.00  0.00     0.430 C 
ATOM     22  F   UNL A   1      31.444  25.755  23.415  1.00  0.00    -0.167 F 
ATOM     23  F   UNL A   1      29.923  24.219  23.187  1.00  0.00    -0.167 F 
ATOM     24  F   UNL A   1      29.426  26.099  24.171  1.00  0.00    -0.167 F 
ENDBRANCH  15  21
ENDBRANCH   3   5
ENDBRANCH   2   3
ENDBRANCH   1   2
BRANCH   1  25
ATOM     25  C   UNL A   1      32.687  30.025  25.420  1.00  0.00     0.275 C 
BRANCH  25  26
ATOM     26  O   UNL A   1      32.642  30.311  26.832  1.00  0.00    -0.458 OA
BRANCH  26  27
ATOM     27  C   UNL A   1      33.221  31.474  27.209  1.00  0.00     0.338 C 
ATOM     28  O   UNL A   1      32.715  32.583  27.241  1.00  0.00    -0.246 OA
BRANCH  27  29
ATOM     29  C   UNL A   1      34.566  31.206  27.738  1.00  0.00     0.060 A 
ATOM     30  C   UNL A   1      35.493  32.212  27.978  1.00  0.00     0.016 A 
ATOM     31  C   UNL A   1      34.838  29.902  28.137  1.00  0.00     0.016 A 
ATOM     32  C   UNL A   1      36.712  31.882  28.590  1.00  0.00     0.010 A 
ATOM     33  C   UNL A   1      36.014  29.584  28.812  1.00  0.00     0.010 A 
ATOM     34  C   UNL A   1      36.984  30.565  29.028  1.00  0.00    -0.014 A 
BRANCH  34  35
ATOM     35  C   UNL A   1      38.258  30.237  29.733  1.00  0.00     0.031 A 
ATOM     36  C   UNL A   1      38.526  30.699  31.145  1.00  0.00     0.074 A 
ATOM     37  C   UNL A   1      39.208  29.530  29.086  1.00  0.00     0.049 A 
ATOM     38  N   UNL A   1      39.524  30.392  31.938  1.00  0.00    -0.248 NA
ATOM     39  C   UNL A   1      37.582  31.661  31.733  1.00  0.00     0.031 C 
ATOM     40  C   UNL A   1      39.153  29.138  27.676  1.00  0.00     0.029 A 
ATOM     41  N   UNL A   1      40.390  28.989  29.533  1.00  0.00    -0.354 N 
ATOM     42  C   UNL A   1      39.329  31.125  33.102  1.00  0.00     0.074 A 
ATOM     43  C   UNL A   1      38.166  31.955  32.886  1.00  0.00     0.031 C 
ATOM     44  C   UNL A   1      40.199  28.346  27.399  1.00  0.00     0.029 A 
ATOM     45  C   UNL A   1      41.009  28.188  28.603  1.00  0.00     0.049 A 
ATOM     46  H   UNL A   1      40.757  29.160  30.430  1.00  0.00     0.167 HD
ATOM     47  C   UNL A   1      40.020  31.074  34.266  1.00  0.00     0.037 A 
ATOM     48  C   UNL A   1      42.083  27.382  28.719  1.00  0.00     0.037 A 
ATOM     49  C   UNL A   1      41.138  30.202  34.506  1.00  0.00     0.049 A 
ATOM     50  C   UNL A   1      42.793  27.279  30.040  1.00  0.00     0.074 A 
ATOM     51  C   UNL A   1      41.825  29.983  35.688  1.00  0.00     0.029 A 
ATOM     52  N   UNL A   1      41.729  29.398  33.543  1.00  0.00    -0.354 N 
ATOM     53  N   UNL A   1      42.513  27.871  31.175  1.00  0.00    -0.248 NA
ATOM     54  C   UNL A   1      43.967  26.395  30.098  1.00  0.00     0.031 C 
ATOM     55  C   UNL A   1      42.852  29.070  35.432  1.00  0.00     0.029 A 
ATOM     56  C   UNL A   1      42.786  28.698  34.098  1.00  0.00     0.049 A 
ATOM     57  H   UNL A   1      41.439  29.335  32.604  1.00  0.00     0.167 HD
ATOM     58  C   UNL A   1      43.469  27.431  32.081  1.00  0.00     0.074 A 
ATOM     59  C   UNL A   1      44.321  26.499  31.372  1.00  0.00     0.031 C 
ATOM     60  C   UNL A   1      43.630  27.780  33.379  1.00  0.00     0.037 A 
BRANCH  47  61
ATOM     61  C   UNL A   1      39.552  31.943  35.400  1.00  0.00     0.064 A 
ATOM     62  C   UNL A   1      40.015  33.260  35.544  1.00  0.00     0.173 A 
ATOM     63  C   UNL A   1      38.589  31.483  36.311  1.00  0.00     0.173 A 
ATOM     64  F   UNL A   1      40.936  33.747  34.699  1.00  0.00    -0.203 F 
ATOM     65  C   UNL A   1      39.555  34.074  36.575  1.00  0.00     0.198 A 
ATOM     66  C   UNL A   1      38.109  32.311  37.325  1.00  0.00     0.198 A 
ATOM     67  F   UNL A   1      38.101  30.238  36.210  1.00  0.00    -0.203 F 
ATOM     68  F   UNL A   1      40.044  35.314  36.715  1.00  0.00    -0.200 F 
ATOM     69  C   UNL A   1      38.598  33.602  37.460  1.00  0.00     0.200 A 
ATOM     70  F   UNL A   1      37.172  31.861  38.169  1.00  0.00    -0.200 F 
ATOM     71  F   UNL A   1      38.147  34.392  38.444  1.00  0.00    -0.200 F 
ENDBRANCH  47  61
BRANCH  48  72
ATOM     72  C   UNL A   1      42.490  26.536  27.567  1.00  0.00     0.064 A 
ATOM     73  C   UNL A   1      43.503  26.962  26.696  1.00  0.00     0.173 A 
ATOM     74  C   UNL A   1      41.910  25.282  27.333  1.00  0.00     0.173 A 
ATOM     75  F   UNL A   1      44.074  28.162  26.870  1.00  0.00    -0.203 F 
ATOM     76  C   UNL A   1      43.917  26.165  25.630  1.00  0.00     0.198 A 
ATOM     77  C   UNL A   1      42.342  24.477  26.280  1.00  0.00     0.198 A 
ATOM     78  F   UNL A   1      40.942  24.829  28.142  1.00  0.00    -0.203 F 
ATOM     79  F   UNL A   1      44.871  26.607  24.798  1.00  0.00    -0.200 F 
ATOM     80  C   UNL A   1      43.342  24.921  25.428  1.00  0.00     0.200 A 
ATOM     81  F   UNL A   1      41.794  23.268  26.095  1.00  0.00    -0.200 F 
ATOM     82  F   UNL A   1      43.751  24.148  24.411  1.00  0.00    -0.200 F 
ENDBRANCH  48  72
BRANCH  60  83
ATOM     83  C   UNL A   1      44.782  27.178  34.125  1.00  0.00     0.064 A 
ATOM     84  C   UNL A   1      46.009  27.851  34.218  1.00  0.00     0.173 A 
ATOM     85  C   UNL A   1      44.631  25.977  34.832  1.00  0.00     0.173 A 
ATOM     86  F   UNL A   1      46.204  28.997  33.549  1.00  0.00    -0.203 F 
ATOM     87  C   UNL A   1      47.046  27.338  34.993  1.00  0.00     0.198 A 
ATOM     88  C   UNL A   1      45.663  25.480  35.624  1.00  0.00     0.198 A 
ATOM     89  F   UNL A   1      43.473  25.302  34.779  1.00  0.00    -0.203 F 
ATOM     90  F   UNL A   1      48.217  27.988  35.055  1.00  0.00    -0.200 F 
ATOM     91  C   UNL A   1      46.868  26.161  35.703  1.00  0.00     0.200 A 
ATOM     92  F   UNL A   1      45.486  24.349  36.321  1.00  0.00    -0.200 F 
ATOM     93  F   UNL A   1      47.859  25.682  36.467  1.00  0.00    -0.200 F 
ENDBRANCH  60  83
ENDBRANCH  34  35
ENDBRANCH  27  29
ENDBRANCH  26  27
ENDBRANCH  25  26
ENDBRANCH   1  25
TORSDOF 15
ENDMDL
MODEL 2
REMARK VINA RESULT:     -12.8      0.287      1.649
REMARK SMILES CC(C)CCc1cc2c(cc1Cl)C=C(C(=O)OCCOC(=O)c1ccc(-c3c4nc(c(-c5c(F)c(F)c(F)c(F)c5F)c5ccc([nH]5)c(-c5c(F)c(F)c(F)c(F)c5F)c5nc(c(-c6c(F)c(F)c(F)c(F)c6F)c6ccc3[nH]6)C=C5)C=C4)cc1)[C@@H](C(F)(F)F)O2
REMARK SMILES IDX 18 1 17 2 15 3 16 4 14 5 6 6 7 7 11 8 8 9 10 10 12 11 9 12
REMARK SMILES IDX 91 13 13 14 86 15 5 16 4 17 2 18 1 19 3 20 87 21 88 22 89 23
REMARK SMILES IDX 90 24 19 25 20 26 21 27 22 28 23 29 24 30 85 31 25 32 84 33
REMARK SMILES IDX 26 34 27 35 28 36 78 37 29 38 83 39 77 40 79 41 30 42 82 43
REMARK SMILES IDX 76 44 75 45 31 47 63 48 43 49 62 50 44 51 47 52 61 53 80 54
REMARK SMILES IDX 45 55 46 56 60 58 81 59 48 60 32 61 33 62 41 63 34 64 35 65
REMARK SMILES IDX 39 66 42 67 36 68 37 69 40 70 38 71 64 72 65 73 73 74 66 75
REMARK SMILES IDX 67 76 71 77 74 78 68 79 69 80 72 81 70 82 49 83 50 84 58 85
REMARK SMILES IDX 51 86 52 87 56 88 59 89 53 90 54 91 57 92 55 93
REMARK H PARENT 79 46 47 57
REMARK Flexibility Score: inf
ROOT
ATOM      1  C   UNL A   1      31.436  29.022  24.971  1.00  0.00     0.275 C 
ENDROOT
BRANCH   1   2
ATOM      2  O   UNL A   1      32.248  27.910  25.413  1.00  0.00    -0.459 OA
BRANCH   2   3
ATOM      3  C   UNL A   1      31.677  27.113  26.344  1.00  0.00     0.338 C 
ATOM      4  O   UNL A   1      31.039  27.484  27.318  1.00  0.00    -0.246 OA
BRANCH   3   5
ATOM      5  C   UNL A   1      31.837  25.684  25.996  1.00  0.00     0.087 C 
ATOM      6  C   UNL A   1      33.833  21.144  25.055  1.00  0.00    -0.026 A 
ATOM      7  C   UNL A   1      32.530  21.687  24.963  1.00  0.00     0.052 A 
ATOM      8  C   UNL A   1      34.856  21.960  25.563  1.00  0.00     0.045 A 
ATOM      9  C   UNL A   1      32.266  23.011  25.332  1.00  0.00     0.128 A 
ATOM     10  C   UNL A   1      34.587  23.270  25.953  1.00  0.00     0.032 A 
ATOM     11  Cl  UNL A   1      36.503  21.455  25.675  1.00  0.00    -0.084 Cl
ATOM     12  C   UNL A   1      33.305  23.802  25.804  1.00  0.00     0.019 A 
ATOM     13  O   UNL A   1      30.980  23.460  25.214  1.00  0.00    -0.475 OA
ATOM     14  C   UNL A   1      33.073  25.191  26.121  1.00  0.00     0.027 C 
ATOM     15  C   UNL A   1      30.702  24.883  25.419  1.00  0.00     0.316 C 
BRANCH   6  16
ATOM     16  C   UNL A   1      34.078  19.738  24.549  1.00  0.00     0.037 C 
BRANCH  16  17
ATOM     17  C   UNL A   1      32.924  18.735  24.706  1.00  0.00     0.008 C 
BRANCH  17  18
ATOM     18  C   UNL A   1      32.872  17.614  23.654  1.00  0.00    -0.017 C 
ATOM     19  C   UNL A   1      32.355  18.125  22.311  1.00  0.00     0.007 C 
ATOM     20  C   UNL A   1      34.267  17.005  23.483  1.00  0.00     0.007 C 
ENDBRANCH  17  18
ENDBRANCH  16  17
ENDBRANCH   6  16
BRANCH  15  21
ATOM     21  C   UNL A   1      30.257  25.493  24.077  1.00  0.00     0.430 C 
ATOM     22  F   UNL A   1      29.726  24.558  23.254  1.00  0.00    -0.167 F 
ATOM     23  F   UNL A   1      29.308  26.443  24.251  1.00  0.00    -0.167 F 
ATOM     24  F   UNL A   1      31.288  26.073  23.419  1.00  0.00    -0.167 F 
ENDBRANCH  15  21
ENDBRANCH   3   5
ENDBRANCH   2   3
ENDBRANCH   1   2
BRANCH   1  25
ATOM     25  C   UNL A   1      31.758  30.312  25.731  1.00  0.00     0.275 C 
BRANCH  25  26
ATOM     26  O   UNL A   1      33.118  30.312  26.207  1.00  0.00    -0.458 OA
BRANCH  26  27
ATOM     27  C   UNL A   1      33.445  31.326  27.040  1.00  0.00     0.338 C 
ATOM     28  O   UNL A   1      32.741  32.257  27.392  1.00  0.00    -0.246 OA
BRANCH  27  29
ATOM     29  C   UNL A   1      34.777  31.083  27.613  1.00  0.00     0.060 A 
ATOM     30  C   UNL A   1      35.653  32.110  27.940  1.00  0.00     0.016 A 
ATOM     31  C   UNL A   1      35.084  29.773  27.961  1.00  0.00     0.016 A 
ATOM     32  C   UNL A   1      36.857  31.797  28.587  1.00  0.00     0.010 A 
ATOM     33  C   UNL A   1      36.243  29.467  28.670  1.00  0.00     0.010 A 
ATOM     34  C   UNL A   1      37.163  30.473  28.974  1.00  0.00    -0.014 A 
BRANCH  34  35
ATOM     35  C   UNL A   1      38.420  30.158  29.716  1.00  0.00     0.031 A 
ATOM     36  C   UNL A   1      38.648  30.640  31.129  1.00  0.00     0.074 A 
ATOM     37  C   UNL A   1      39.389  29.447  29.103  1.00  0.00     0.049 A 
ATOM     38  N   UNL A   1      39.627  30.347  31.951  1.00  0.00    -0.248 NA
ATOM     39  C   UNL A   1      37.685  31.605  31.679  1.00  0.00     0.031 C 
ATOM     40  C   UNL A   1      39.373  29.038  27.698  1.00  0.00     0.029 A 
ATOM     41  N   UNL A   1      40.561  28.918  29.588  1.00  0.00    -0.354 N 
ATOM     42  C   UNL A   1      39.398  31.093  33.101  1.00  0.00     0.074 A 
ATOM     43  C   UNL A   1      38.237  31.915  32.844  1.00  0.00     0.031 C 
ATOM     44  C   UNL A   1      40.429  28.247  27.459  1.00  0.00     0.029 A 
ATOM     45  C   UNL A   1      41.208  28.107  28.686  1.00  0.00     0.049 A 
ATOM     46  H   UNL A   1      40.904  29.101  30.493  1.00  0.00     0.167 HD
ATOM     47  C   UNL A   1      40.058  31.061  34.284  1.00  0.00     0.037 A 
ATOM     48  C   UNL A   1      42.282  27.308  28.840  1.00  0.00     0.037 A 
ATOM     49  C   UNL A   1      41.172  30.196  34.564  1.00  0.00     0.049 A 
ATOM     50  C   UNL A   1      42.957  27.225  30.181  1.00  0.00     0.074 A 
ATOM     51  C   UNL A   1      41.829  29.995  35.766  1.00  0.00     0.029 A 
ATOM     52  N   UNL A   1      41.792  29.383  33.627  1.00  0.00    -0.354 N 
ATOM     53  N   UNL A   1      42.645  27.829  31.300  1.00  0.00    -0.248 NA
ATOM     54  C   UNL A   1      44.132  26.347  30.281  1.00  0.00     0.031 C 
ATOM     55  C   UNL A   1      42.866  29.083  35.549  1.00  0.00     0.029 A 
ATOM     56  C   UNL A   1      42.837  28.694  34.219  1.00  0.00     0.049 A 
ATOM     57  H   UNL A   1      41.527  29.307  32.682  1.00  0.00     0.167 HD
ATOM     58  C   UNL A   1      43.578  27.406  32.236  1.00  0.00     0.074 A 
ATOM     59  C   UNL A   1      44.453  26.468  31.563  1.00  0.00     0.031 C 
ATOM     60  C   UNL A   1      43.703  27.771  33.534  1.00  0.00     0.037 A 
BRANCH  47  61
ATOM     61  C   UNL A   1      39.556  31.941  35.394  1.00  0.00     0.064 A 
ATOM     62  C   UNL A   1      38.600  31.479  36.310  1.00  0.00     0.173 A 
ATOM     63  C   UNL A   1      40.078  33.229  35.584  1.00  0.00     0.173 A 
ATOM     64  F   UNL A   1      38.068  30.255  36.172  1.00  0.00    -0.203 F 
ATOM     65  C   UNL A   1      38.160  32.284  37.358  1.00  0.00     0.198 A 
ATOM     66  C   UNL A   1      39.658  34.022  36.651  1.00  0.00     0.198 A 
ATOM     67  F   UNL A   1      41.007  33.715  34.747  1.00  0.00    -0.203 F 
ATOM     68  F   UNL A   1      37.215  31.834  38.194  1.00  0.00    -0.200 F 
ATOM     69  C   UNL A   1      38.695  33.552  37.532  1.00  0.00     0.200 A 
ATOM     70  F   UNL A   1      40.187  35.240  36.830  1.00  0.00    -0.200 F 
ATOM     71  F   UNL A   1      38.281  34.320  38.548  1.00  0.00    -0.200 F 
ENDBRANCH  47  61
BRANCH  48  72
ATOM     72  C   UNL A   1      42.722  26.450  27.710  1.00  0.00     0.064 A 
ATOM     73  C   UNL A   1      42.128  25.198  27.495  1.00  0.00     0.173 A 
ATOM     74  C   UNL A   1      43.708  26.870  26.806  1.00  0.00     0.173 A 
ATOM     75  F   UNL A   1      41.193  24.748  28.343  1.00  0.00    -0.203 F 
ATOM     76  C   UNL A   1      42.507  24.396  26.420  1.00  0.00     0.198 A 
ATOM     77  C   UNL A   1      44.070  26.076  25.719  1.00  0.00     0.198 A 
ATOM     78  F   UNL A   1      44.302  28.061  26.966  1.00  0.00    -0.203 F 
ATOM     79  F   UNL A   1      41.940  23.193  26.252  1.00  0.00    -0.200 F 
ATOM     80  C   UNL A   1      43.472  24.839  25.529  1.00  0.00     0.200 A 
ATOM     81  F   UNL A   1      44.993  26.512  24.851  1.00  0.00    -0.200 F 
ATOM     82  F   UNL A   1      43.827  24.074  24.487  1.00  0.00    -0.200 F 
ENDBRANCH  48  72
BRANCH  60  83
ATOM     83  C   UNL A   1      44.837  27.184  34.318  1.00  0.00     0.064 A 
ATOM     84  C   UNL A   1      46.058  27.864  34.437  1.00  0.00     0.173 A 
ATOM     85  C   UNL A   1      44.674  25.989  35.033  1.00  0.00     0.173 A 
ATOM     86  F   UNL A   1      46.264  29.004  33.762  1.00  0.00    -0.203 F 
ATOM     87  C   UNL A   1      47.076  27.366  35.246  1.00  0.00     0.198 A 
ATOM     88  C   UNL A   1      45.686  25.507  35.858  1.00  0.00     0.198 A 
ATOM     89  F   UNL A   1      43.521  25.307  34.955  1.00  0.00    -0.203 F 
ATOM     90  F   UNL A   1      48.241  28.023  35.333  1.00  0.00    -0.200 F 
ATOM     91  C   UNL A   1      46.884  26.195  35.964  1.00  0.00     0.200 A 
ATOM     92  F   UNL A   1      45.496  24.382  36.562  1.00  0.00    -0.200 F 
ATOM     93  F   UNL A   1      47.857  25.730  36.759  1.00  0.00    -0.200 F 
ENDBRANCH  60  83
ENDBRANCH  34  35
ENDBRANCH  27  29
ENDBRANCH  26  27
ENDBRANCH  25  26
ENDBRANCH   1  25
TORSDOF 15
ENDMDL
MODEL 3
REMARK VINA RESULT:     -12.8      0.635      1.787
REMARK SMILES CC(C)CCc1cc2c(cc1Cl)C=C(C(=O)OCCOC(=O)c1ccc(-c3c4nc(c(-c5c(F)c(F)c(F)c(F)c5F)c5ccc([nH]5)c(-c5c(F)c(F)c(F)c(F)c5F)c5nc(c(-c6c(F)c(F)c(F)c(F)c6F)c6ccc3[nH]6)C=C5)C=C4)cc1)[C@@H](C(F)(F)F)O2
REMARK SMILES IDX 18 1 17 2 15 3 16 4 14 5 6 6 7 7 11 8 8 9 10 10 12 11 9 12
REMARK SMILES IDX 91 13 13 14 86 15 5 16 4 17 2 18 1 19 3 20 87 21 88 22 89 23
REMARK SMILES IDX 90 24 19 25 20 26 21 27 22 28 23 29 24 30 85 31 25 32 84 33
REMARK SMILES IDX 26 34 27 35 28 36 78 37 29 38 83 39 77 40 79 41 30 42 82 43
REMARK SMILES IDX 76 44 75 45 31 47 63 48 43 49 62 50 44 51 47 52 61 53 80 54
REMARK SMILES IDX 45 55 46 56 60 58 81 59 48 60 32 61 33 62 41 63 34 64 35 65
REMARK SMILES IDX 39 66 42 67 36 68 37 69 40 70 38 71 64 72 65 73 73 74 66 75
REMARK SMILES IDX 67 76 71 77 74 78 68 79 69 80 72 81 70 82 49 83 50 84 58 85
REMARK SMILES IDX 51 86 52 87 56 88 59 89 53 90 54 91 57 92 55 93
REMARK H PARENT 79 46 47 57
REMARK Flexibility Score: inf
ROOT
ATOM      1  C   UNL A   1      31.264  29.240  24.814  1.00  0.00     0.275 C 
ENDROOT
BRANCH   1   2
ATOM      2  O   UNL A   1      31.949  28.055  25.279  1.00  0.00    -0.459 OA
BRANCH   2   3
ATOM      3  C   UNL A   1      32.782  27.479  24.382  1.00  0.00     0.338 C 
ATOM      4  O   UNL A   1      33.503  28.065  23.588  1.00  0.00    -0.246 OA
BRANCH   3   5
ATOM      5  C   UNL A   1      32.793  26.008  24.529  1.00  0.00     0.087 C 
ATOM      6  C   UNL A   1      34.290  21.190  24.710  1.00  0.00    -0.026 A 
ATOM      7  C   UNL A   1      33.036  21.839  24.817  1.00  0.00     0.052 A 
ATOM      8  C   UNL A   1      35.438  21.986  24.574  1.00  0.00     0.045 A 
ATOM      9  C   UNL A   1      32.932  23.233  24.755  1.00  0.00     0.128 A 
ATOM     10  C   UNL A   1      35.334  23.374  24.538  1.00  0.00     0.032 A 
ATOM     11  Cl  UNL A   1      37.024  21.334  24.370  1.00  0.00    -0.084 Cl
ATOM     12  C   UNL A   1      34.083  23.991  24.593  1.00  0.00     0.019 A 
ATOM     13  O   UNL A   1      31.685  23.783  24.868  1.00  0.00    -0.475 OA
ATOM     14  C   UNL A   1      33.994  25.425  24.453  1.00  0.00     0.027 C 
ATOM     15  C   UNL A   1      31.516  25.218  24.630  1.00  0.00     0.316 C 
BRANCH   6  16
ATOM     16  C   UNL A   1      34.331  19.676  24.683  1.00  0.00     0.037 C 
BRANCH  16  17
ATOM     17  C   UNL A   1      32.979  18.946  24.724  1.00  0.00     0.008 C 
BRANCH  17  18
ATOM     18  C   UNL A   1      32.833  17.767  23.749  1.00  0.00    -0.017 C 
ATOM     19  C   UNL A   1      32.412  18.235  22.356  1.00  0.00     0.007 C 
ATOM     20  C   UNL A   1      34.156  16.999  23.667  1.00  0.00     0.007 C 
ENDBRANCH  17  18
ENDBRANCH  16  17
ENDBRANCH   6  16
BRANCH  15  21
ATOM     21  C   UNL A   1      30.679  25.406  23.351  1.00  0.00     0.430 C 
ATOM     22  F   UNL A   1      29.832  26.456  23.458  1.00  0.00    -0.167 F 
ATOM     23  F   UNL A   1      31.463  25.645  22.273  1.00  0.00    -0.167 F 
ATOM     24  F   UNL A   1      29.935  24.311  23.069  1.00  0.00    -0.167 F 
ENDBRANCH  15  21
ENDBRANCH   3   5
ENDBRANCH   2   3
ENDBRANCH   1   2
BRANCH   1  25
ATOM     25  C   UNL A   1      31.535  30.453  25.708  1.00  0.00     0.275 C 
BRANCH  25  26
ATOM     26  O   UNL A   1      32.788  30.319  26.407  1.00  0.00    -0.458 OA
BRANCH  26  27
ATOM     27  C   UNL A   1      33.217  31.427  27.052  1.00  0.00     0.338 C 
ATOM     28  O   UNL A   1      32.593  32.451  27.271  1.00  0.00    -0.246 OA
BRANCH  27  29
ATOM     29  C   UNL A   1      34.554  31.184  27.611  1.00  0.00     0.060 A 
ATOM     30  C   UNL A   1      35.438  32.210  27.919  1.00  0.00     0.016 A 
ATOM     31  C   UNL A   1      34.861  29.875  27.967  1.00  0.00     0.016 A 
ATOM     32  C   UNL A   1      36.649  31.897  28.555  1.00  0.00     0.010 A 
ATOM     33  C   UNL A   1      36.026  29.571  28.665  1.00  0.00     0.010 A 
ATOM     34  C   UNL A   1      36.954  30.575  28.949  1.00  0.00    -0.014 A 
BRANCH  34  35
ATOM     35  C   UNL A   1      38.218  30.262  29.680  1.00  0.00     0.031 A 
ATOM     36  C   UNL A   1      38.453  30.729  31.096  1.00  0.00     0.074 A 
ATOM     37  C   UNL A   1      39.189  29.565  29.052  1.00  0.00     0.049 A 
ATOM     38  N   UNL A   1      39.439  30.434  31.909  1.00  0.00    -0.248 NA
ATOM     39  C   UNL A   1      37.486  31.681  31.664  1.00  0.00     0.031 C 
ATOM     40  C   UNL A   1      39.166  29.171  27.643  1.00  0.00     0.029 A 
ATOM     41  N   UNL A   1      40.367  29.038  29.524  1.00  0.00    -0.354 N 
ATOM     42  C   UNL A   1      39.212  31.166  33.068  1.00  0.00     0.074 A 
ATOM     43  C   UNL A   1      38.045  31.982  32.828  1.00  0.00     0.031 C 
ATOM     44  C   UNL A   1      40.226  28.390  27.388  1.00  0.00     0.029 A 
ATOM     45  C   UNL A   1      41.014  28.243  28.608  1.00  0.00     0.049 A 
ATOM     46  H   UNL A   1      40.715  29.214  30.428  1.00  0.00     0.167 HD
ATOM     47  C   UNL A   1      39.881  31.125  34.246  1.00  0.00     0.037 A 
ATOM     48  C   UNL A   1      42.095  27.450  28.746  1.00  0.00     0.037 A 
ATOM     49  C   UNL A   1      41.003  30.266  34.508  1.00  0.00     0.049 A 
ATOM     50  C   UNL A   1      42.780  27.356  30.081  1.00  0.00     0.074 A 
ATOM     51  C   UNL A   1      41.670  30.056  35.704  1.00  0.00     0.029 A 
ATOM     52  N   UNL A   1      41.622  29.468  33.559  1.00  0.00    -0.354 N 
ATOM     53  N   UNL A   1      42.471  27.946  31.209  1.00  0.00    -0.248 NA
ATOM     54  C   UNL A   1      43.962  26.486  30.163  1.00  0.00     0.031 C 
ATOM     55  C   UNL A   1      42.712  29.155  35.470  1.00  0.00     0.029 A 
ATOM     56  C   UNL A   1      42.677  28.780  34.136  1.00  0.00     0.049 A 
ATOM     57  H   UNL A   1      41.352  29.400  32.614  1.00  0.00     0.167 HD
ATOM     58  C   UNL A   1      43.414  27.519  32.134  1.00  0.00     0.074 A 
ATOM     59  C   UNL A   1      44.290  26.595  31.444  1.00  0.00     0.031 C 
ATOM     60  C   UNL A   1      43.545  27.871  33.435  1.00  0.00     0.037 A 
BRANCH  47  61
ATOM     61  C   UNL A   1      39.381  31.990  35.369  1.00  0.00     0.064 A 
ATOM     62  C   UNL A   1      38.507  31.482  36.342  1.00  0.00     0.173 A 
ATOM     63  C   UNL A   1      39.824  33.313  35.513  1.00  0.00     0.173 A 
ATOM     64  F   UNL A   1      38.053  30.223  36.249  1.00  0.00    -0.203 F 
ATOM     65  C   UNL A   1      38.071  32.274  37.400  1.00  0.00     0.198 A 
ATOM     66  C   UNL A   1      39.409  34.095  36.590  1.00  0.00     0.198 A 
ATOM     67  F   UNL A   1      40.673  33.845  34.620  1.00  0.00    -0.203 F 
ATOM     68  F   UNL A   1      37.204  31.777  38.293  1.00  0.00    -0.200 F 
ATOM     69  C   UNL A   1      38.528  33.577  37.528  1.00  0.00     0.200 A 
ATOM     70  F   UNL A   1      39.863  35.348  36.723  1.00  0.00    -0.200 F 
ATOM     71  F   UNL A   1      38.117  34.334  38.554  1.00  0.00    -0.200 F 
ENDBRANCH  47  61
BRANCH  48  72
ATOM     72  C   UNL A   1      42.534  26.607  27.603  1.00  0.00     0.064 A 
ATOM     73  C   UNL A   1      43.544  27.053  26.739  1.00  0.00     0.173 A 
ATOM     74  C   UNL A   1      41.988  25.337  27.372  1.00  0.00     0.173 A 
ATOM     75  F   UNL A   1      44.084  28.267  26.911  1.00  0.00    -0.203 F 
ATOM     76  C   UNL A   1      43.989  26.260  25.683  1.00  0.00     0.198 A 
ATOM     77  C   UNL A   1      42.450  24.536  26.329  1.00  0.00     0.198 A 
ATOM     78  F   UNL A   1      41.024  24.865  28.174  1.00  0.00    -0.203 F 
ATOM     79  F   UNL A   1      44.939  26.720  24.857  1.00  0.00    -0.200 F 
ATOM     80  C   UNL A   1      43.447  25.000  25.483  1.00  0.00     0.200 A 
ATOM     81  F   UNL A   1      41.934  23.313  26.146  1.00  0.00    -0.200 F 
ATOM     82  F   UNL A   1      43.885  24.231  24.476  1.00  0.00    -0.200 F 
ENDBRANCH  48  72
BRANCH  60  83
ATOM     83  C   UNL A   1      44.689  27.283  34.204  1.00  0.00     0.064 A 
ATOM     84  C   UNL A   1      44.570  26.030  34.824  1.00  0.00     0.173 A 
ATOM     85  C   UNL A   1      45.935  27.923  34.240  1.00  0.00     0.173 A 
ATOM     86  F   UNL A   1      43.394  25.386  34.826  1.00  0.00    -0.203 F 
ATOM     87  C   UNL A   1      45.663  25.440  35.453  1.00  0.00     0.198 A 
ATOM     88  C   UNL A   1      47.031  27.320  34.851  1.00  0.00     0.198 A 
ATOM     89  F   UNL A   1      46.098  29.120  33.655  1.00  0.00    -0.203 F 
ATOM     90  F   UNL A   1      45.524  24.250  36.054  1.00  0.00    -0.200 F 
ATOM     91  C   UNL A   1      46.893  26.080  35.457  1.00  0.00     0.200 A 
ATOM     92  F   UNL A   1      48.223  27.932  34.842  1.00  0.00    -0.200 F 
ATOM     93  F   UNL A   1      47.949  25.499  36.044  1.00  0.00    -0.200 F 
ENDBRANCH  60  83
ENDBRANCH  34  35
ENDBRANCH  27  29
ENDBRANCH  26  27
ENDBRANCH  25  26
ENDBRANCH   1  25
TORSDOF 15
ENDMDL
