MODEL 1
REMARK VINA RESULT:     -11.5      0.000      0.000
REMARK SMILES CC[C@@](C)(NC(=O)CCc1ccc(OC)c(Br)c1)C(=O)OCCOC(=O)c1ccc(-c2c3nc(c(-c4c(F)c(F)c(F)c(F)c4F)c4ccc([nH]4)c(-c4c(F)c(F)c(F)c(F)c4F)c4nc(c(-c5c(F)c(F)c(F)c(F)c5F)c5ccc2[nH]5)C=C4)C=C3)cc1
REMARK SMILES IDX 21 1 19 2 20 3 3 4 4 5 2 6 1 7 5 8 6 9 7 11 8 12 9 13 10 14
REMARK SMILES IDX 11 15 18 16 12 17 16 18 13 19 17 20 14 21 15 22 22 23 23 24
REMARK SMILES IDX 24 25 25 26 26 27 27 28 28 29 89 30 29 31 88 32 30 33 31 34
REMARK SMILES IDX 32 35 82 36 33 37 87 38 81 39 83 40 34 41 86 42 80 43 79 44
REMARK SMILES IDX 35 46 67 47 47 48 66 49 48 50 51 51 65 52 84 53 49 54 50 55
REMARK SMILES IDX 64 57 85 58 52 59 36 60 37 61 45 62 38 63 39 64 43 65 46 66
REMARK SMILES IDX 40 67 41 68 44 69 42 70 68 71 69 72 77 73 70 74 71 75 75 76
REMARK SMILES IDX 78 77 72 78 73 79 76 80 74 81 53 82 54 83 62 84 55 85 56 86
REMARK SMILES IDX 60 87 63 88 57 89 58 90 61 91 59 92
REMARK H PARENT 5 10 83 45 51 56
REMARK Flexibility Score: inf
ROOT
ATOM      1  O   UNL A   1      36.921  20.807  25.344  1.00  0.00    -0.460 OA
ENDROOT
BRANCH   1   2
ATOM      2  C   UNL A   1      36.601  22.012  24.744  1.00  0.00     0.331 C 
ATOM      3  O   UNL A   1      36.711  22.173  23.531  1.00  0.00    -0.249 OA
BRANCH   2   4
ATOM      4  C   UNL A   1      35.953  23.217  25.787  1.00  0.00     0.135 C 
ATOM      5  C   UNL A   1      37.182  24.043  26.224  1.00  0.00     0.047 C 
BRANCH   4   6
ATOM      6  C   UNL A   1      34.785  24.354  25.642  1.00  0.00     0.037 C 
ATOM      7  C   UNL A   1      34.400  25.214  24.438  1.00  0.00     0.007 C 
ENDBRANCH   4   6
BRANCH   4   8
ATOM      8  N   UNL A   1      35.401  22.435  26.879  1.00  0.00    -0.340 N 
ATOM      9  C   UNL A   1      34.101  22.030  26.875  1.00  0.00     0.221 C 
ATOM     10  H   UNL A   1      35.979  22.191  27.638  1.00  0.00     0.164 HD
ATOM     11  O   UNL A   1      33.594  21.712  27.951  1.00  0.00    -0.275 OA
BRANCH   9  12
ATOM     12  C   UNL A   1      33.309  21.919  25.559  1.00  0.00     0.105 C 
BRANCH  12  13
ATOM     13  C   UNL A   1      33.409  20.808  24.383  1.00  0.00     0.045 C 
BRANCH  13  14
ATOM     14  C   UNL A   1      33.548  19.282  24.002  1.00  0.00    -0.046 A 
ATOM     15  C   UNL A   1      32.611  18.500  23.315  1.00  0.00     0.007 A 
ATOM     16  C   UNL A   1      34.547  18.498  24.628  1.00  0.00     0.023 A 
ATOM     17  C   UNL A   1      32.519  17.108  23.424  1.00  0.00     0.048 A 
ATOM     18  C   UNL A   1      34.507  17.101  24.723  1.00  0.00     0.060 A 
ATOM     19  C   UNL A   1      33.407  16.432  24.231  1.00  0.00     0.133 A 
ATOM     20  Br  UNL A   1      35.915  16.197  25.609  1.00  0.00    -0.047 Br
BRANCH  19  21
ATOM     21  O   UNL A   1      33.093  15.164  24.625  1.00  0.00    -0.496 OA
ATOM     22  C   UNL A   1      32.279  15.248  25.807  1.00  0.00     0.278 C 
ENDBRANCH  19  21
ENDBRANCH  13  14
ENDBRANCH  12  13
ENDBRANCH   9  12
ENDBRANCH   4   8
ENDBRANCH   2   4
ENDBRANCH   1   2
BRANCH   1  23
ATOM     23  C   UNL A   1      38.090  19.948  24.983  1.00  0.00     0.274 C 
BRANCH  23  24
ATOM     24  C   UNL A   1      39.484  20.288  25.753  1.00  0.00     0.275 C 
BRANCH  24  25
ATOM     25  O   UNL A   1      40.512  19.210  25.853  1.00  0.00    -0.458 OA
BRANCH  25  26
ATOM     26  C   UNL A   1      41.854  19.462  26.093  1.00  0.00     0.338 C 
ATOM     27  O   UNL A   1      42.764  18.670  25.856  1.00  0.00    -0.246 OA
BRANCH  26  28
ATOM     28  C   UNL A   1      42.143  20.936  26.421  1.00  0.00     0.060 A 
ATOM     29  C   UNL A   1      42.474  21.821  25.376  1.00  0.00     0.016 A 
ATOM     30  C   UNL A   1      42.054  21.498  27.694  1.00  0.00     0.016 A 
ATOM     31  C   UNL A   1      42.420  23.218  25.510  1.00  0.00     0.010 A 
ATOM     32  C   UNL A   1      42.187  22.907  27.869  1.00  0.00     0.010 A 
ATOM     33  C   UNL A   1      42.316  23.787  26.775  1.00  0.00    -0.014 A 
BRANCH  33  34
ATOM     34  C   UNL A   1      42.577  25.255  26.936  1.00  0.00     0.031 A 
ATOM     35  C   UNL A   1      43.877  25.807  26.412  1.00  0.00     0.074 A 
ATOM     36  C   UNL A   1      41.683  26.114  27.467  1.00  0.00     0.049 A 
ATOM     37  N   UNL A   1      44.416  26.986  26.585  1.00  0.00    -0.248 NA
ATOM     38  C   UNL A   1      44.665  24.907  25.556  1.00  0.00     0.031 C 
ATOM     39  C   UNL A   1      40.316  25.772  27.836  1.00  0.00     0.029 A 
ATOM     40  N   UNL A   1      41.786  27.449  27.799  1.00  0.00    -0.354 N 
ATOM     41  C   UNL A   1      45.619  26.955  25.890  1.00  0.00     0.074 A 
ATOM     42  C   UNL A   1      45.717  25.655  25.268  1.00  0.00     0.031 C 
ATOM     43  C   UNL A   1      39.729  26.839  28.409  1.00  0.00     0.029 A 
ATOM     44  C   UNL A   1      40.688  27.938  28.475  1.00  0.00     0.049 A 
ATOM     45  H   UNL A   1      42.570  28.000  27.574  1.00  0.00     0.167 HD
ATOM     46  C   UNL A   1      46.570  27.915  25.806  1.00  0.00     0.037 A 
ATOM     47  C   UNL A   1      40.493  29.110  29.114  1.00  0.00     0.037 A 
ATOM     48  C   UNL A   1      46.476  29.195  26.454  1.00  0.00     0.049 A 
ATOM     49  C   UNL A   1      41.615  30.120  29.125  1.00  0.00     0.074 A 
ATOM     50  C   UNL A   1      47.409  30.215  26.499  1.00  0.00     0.029 A 
ATOM     51  N   UNL A   1      45.376  29.626  27.182  1.00  0.00    -0.354 N 
ATOM     52  N   UNL A   1      42.789  30.052  28.543  1.00  0.00    -0.248 NA
ATOM     53  C   UNL A   1      41.399  31.358  29.888  1.00  0.00     0.031 C 
ATOM     54  C   UNL A   1      46.895  31.240  27.299  1.00  0.00     0.029 A 
ATOM     55  C   UNL A   1      45.614  30.889  27.697  1.00  0.00     0.049 A 
ATOM     56  H   UNL A   1      44.547  29.111  27.313  1.00  0.00     0.167 HD
ATOM     57  C   UNL A   1      43.437  31.242  28.844  1.00  0.00     0.074 A 
ATOM     58  C   UNL A   1      42.521  32.023  29.650  1.00  0.00     0.031 C 
ATOM     59  C   UNL A   1      44.680  31.651  28.488  1.00  0.00     0.037 A 
BRANCH  46  60
ATOM     60  C   UNL A   1      47.830  27.564  25.067  1.00  0.00     0.064 A 
ATOM     61  C   UNL A   1      47.954  27.725  23.679  1.00  0.00     0.173 A 
ATOM     62  C   UNL A   1      48.927  27.031  25.764  1.00  0.00     0.173 A 
ATOM     63  F   UNL A   1      46.927  28.204  22.961  1.00  0.00    -0.203 F 
ATOM     64  C   UNL A   1      49.115  27.336  23.013  1.00  0.00     0.198 A 
ATOM     65  C   UNL A   1      50.096  26.671  25.100  1.00  0.00     0.198 A 
ATOM     66  F   UNL A   1      48.860  26.850  27.092  1.00  0.00    -0.203 F 
ATOM     67  F   UNL A   1      49.187  27.440  21.679  1.00  0.00    -0.200 F 
ATOM     68  C   UNL A   1      50.185  26.814  23.725  1.00  0.00     0.200 A 
ATOM     69  F   UNL A   1      51.130  26.174  25.791  1.00  0.00    -0.200 F 
ATOM     70  F   UNL A   1      51.299  26.436  23.082  1.00  0.00    -0.200 F 
ENDBRANCH  46  60
BRANCH  47  71
ATOM     71  C   UNL A   1      39.221  29.381  29.854  1.00  0.00     0.064 A 
ATOM     72  C   UNL A   1      39.044  28.974  31.186  1.00  0.00     0.173 A 
ATOM     73  C   UNL A   1      38.138  30.026  29.234  1.00  0.00     0.173 A 
ATOM     74  F   UNL A   1      40.028  28.320  31.823  1.00  0.00    -0.203 F 
ATOM     75  C   UNL A   1      37.839  29.190  31.858  1.00  0.00     0.198 A 
ATOM     76  C   UNL A   1      36.947  30.271  29.917  1.00  0.00     0.198 A 
ATOM     77  F   UNL A   1      38.237  30.423  27.957  1.00  0.00    -0.203 F 
ATOM     78  F   UNL A   1      37.684  28.744  33.113  1.00  0.00    -0.200 F 
ATOM     79  C   UNL A   1      36.795  29.848  31.227  1.00  0.00     0.200 A 
ATOM     80  F   UNL A   1      35.945  30.916  29.302  1.00  0.00    -0.200 F 
ATOM     81  F   UNL A   1      35.642  30.061  31.875  1.00  0.00    -0.200 F 
ENDBRANCH  47  71
BRANCH  59  82
ATOM     82  C   UNL A   1      45.101  33.025  28.921  1.00  0.00     0.064 A 
ATOM     83  C   UNL A   1      44.816  34.164  28.154  1.00  0.00     0.173 A 
ATOM     84  C   UNL A   1      45.760  33.205  30.147  1.00  0.00     0.173 A 
ATOM     85  F   UNL A   1      44.200  34.043  26.970  1.00  0.00    -0.203 F 
ATOM     86  C   UNL A   1      45.199  35.430  28.589  1.00  0.00     0.198 A 
ATOM     87  C   UNL A   1      46.113  34.474  30.593  1.00  0.00     0.198 A 
ATOM     88  F   UNL A   1      46.051  32.146  30.919  1.00  0.00    -0.203 F 
ATOM     89  F   UNL A   1      44.960  36.501  27.818  1.00  0.00    -0.200 F 
ATOM     90  C   UNL A   1      45.838  35.585  29.810  1.00  0.00     0.200 A 
ATOM     91  F   UNL A   1      46.716  34.622  31.779  1.00  0.00    -0.200 F 
ATOM     92  F   UNL A   1      46.198  36.806  30.229  1.00  0.00    -0.200 F 
ENDBRANCH  59  82
ENDBRANCH  33  34
ENDBRANCH  26  28
ENDBRANCH  25  26
ENDBRANCH  24  25
ENDBRANCH  23  24
ENDBRANCH   1  23
TORSDOF 17
ENDMDL
MODEL 2
REMARK VINA RESULT:     -11.4      5.870      9.705
REMARK SMILES CC[C@@](C)(NC(=O)CCc1ccc(OC)c(Br)c1)C(=O)OCCOC(=O)c1ccc(-c2c3nc(c(-c4c(F)c(F)c(F)c(F)c4F)c4ccc([nH]4)c(-c4c(F)c(F)c(F)c(F)c4F)c4nc(c(-c5c(F)c(F)c(F)c(F)c5F)c5ccc2[nH]5)C=C4)C=C3)cc1
REMARK SMILES IDX 21 1 19 2 20 3 3 4 4 5 2 6 1 7 5 8 6 9 7 11 8 12 9 13 10 14
REMARK SMILES IDX 11 15 18 16 12 17 16 18 13 19 17 20 14 21 15 22 22 23 23 24
REMARK SMILES IDX 24 25 25 26 26 27 27 28 28 29 89 30 29 31 88 32 30 33 31 34
REMARK SMILES IDX 32 35 82 36 33 37 87 38 81 39 83 40 34 41 86 42 80 43 79 44
REMARK SMILES IDX 35 46 67 47 47 48 66 49 48 50 51 51 65 52 84 53 49 54 50 55
REMARK SMILES IDX 64 57 85 58 52 59 36 60 37 61 45 62 38 63 39 64 43 65 46 66
REMARK SMILES IDX 40 67 41 68 44 69 42 70 68 71 69 72 77 73 70 74 71 75 75 76
REMARK SMILES IDX 78 77 72 78 73 79 76 80 74 81 53 82 54 83 62 84 55 85 56 86
REMARK SMILES IDX 60 87 63 88 57 89 58 90 61 91 59 92
REMARK H PARENT 5 10 83 45 51 56
REMARK Flexibility Score: inf
ROOT
ATOM      1  O   UNL A   1      32.240  30.396  26.036  1.00  0.00    -0.460 OA
ENDROOT
BRANCH   1   2
ATOM      2  C   UNL A   1      31.544  29.748  25.031  1.00  0.00     0.331 C 
ATOM      3  O   UNL A   1      30.513  30.222  24.558  1.00  0.00    -0.249 OA
BRANCH   2   4
ATOM      4  C   UNL A   1      32.264  28.307  24.432  1.00  0.00     0.135 C 
ATOM      5  C   UNL A   1      32.601  28.632  22.961  1.00  0.00     0.047 C 
BRANCH   4   6
ATOM      6  C   UNL A   1      33.528  27.376  24.897  1.00  0.00     0.037 C 
ATOM      7  C   UNL A   1      33.658  26.423  26.085  1.00  0.00     0.007 C 
ENDBRANCH   4   6
BRANCH   4   8
ATOM      8  N   UNL A   1      31.189  27.337  24.547  1.00  0.00    -0.340 N 
ATOM      9  C   UNL A   1      30.925  26.451  23.547  1.00  0.00     0.221 C 
ATOM     10  H   UNL A   1      30.641  27.318  25.364  1.00  0.00     0.164 HD
ATOM     11  O   UNL A   1      29.811  25.925  23.523  1.00  0.00    -0.275 OA
BRANCH   9  12
ATOM     12  C   UNL A   1      32.003  26.076  22.513  1.00  0.00     0.105 C 
BRANCH  12  13
ATOM     13  C   UNL A   1      32.869  24.714  22.370  1.00  0.00     0.045 C 
BRANCH  13  14
ATOM     14  C   UNL A   1      33.677  23.567  23.097  1.00  0.00    -0.046 A 
ATOM     15  C   UNL A   1      33.192  22.307  23.471  1.00  0.00     0.007 A 
ATOM     16  C   UNL A   1      34.913  23.874  23.715  1.00  0.00     0.023 A 
ATOM     17  C   UNL A   1      33.728  21.537  24.509  1.00  0.00     0.048 A 
ATOM     18  C   UNL A   1      35.498  23.105  24.730  1.00  0.00     0.060 A 
ATOM     19  C   UNL A   1      34.814  22.008  25.211  1.00  0.00     0.133 A 
ATOM     20  Br  UNL A   1      37.150  23.658  25.468  1.00  0.00    -0.047 Br
BRANCH  19  21
ATOM     21  O   UNL A   1      35.093  21.457  26.427  1.00  0.00    -0.496 OA
ATOM     22  C   UNL A   1      33.886  21.453  27.207  1.00  0.00     0.278 C 
ENDBRANCH  19  21
ENDBRANCH  13  14
ENDBRANCH  12  13
ENDBRANCH   9  12
ENDBRANCH   4   8
ENDBRANCH   2   4
ENDBRANCH   1   2
BRANCH   1  23
ATOM     23  C   UNL A   1      31.714  31.528  26.859  1.00  0.00     0.274 C 
BRANCH  23  24
ATOM     24  C   UNL A   1      32.837  32.517  27.502  1.00  0.00     0.275 C 
BRANCH  24  25
ATOM     25  O   UNL A   1      32.511  33.970  27.615  1.00  0.00    -0.458 OA
BRANCH  25  26
ATOM     26  C   UNL A   1      33.045  34.793  28.594  1.00  0.00     0.338 C 
ATOM     27  O   UNL A   1      32.532  35.842  28.976  1.00  0.00    -0.246 OA
BRANCH  26  28
ATOM     28  C   UNL A   1      34.198  34.138  29.371  1.00  0.00     0.060 A 
ATOM     29  C   UNL A   1      35.502  34.189  28.841  1.00  0.00     0.016 A 
ATOM     30  C   UNL A   1      34.068  33.523  30.616  1.00  0.00     0.016 A 
ATOM     31  C   UNL A   1      36.651  33.934  29.607  1.00  0.00     0.010 A 
ATOM     32  C   UNL A   1      35.224  33.085  31.327  1.00  0.00     0.010 A 
ATOM     33  C   UNL A   1      36.530  33.335  30.856  1.00  0.00    -0.014 A 
BRANCH  33  34
ATOM     34  C   UNL A   1      37.755  32.783  31.520  1.00  0.00     0.031 A 
ATOM     35  C   UNL A   1      38.458  31.624  30.863  1.00  0.00     0.074 A 
ATOM     36  C   UNL A   1      38.295  33.310  32.638  1.00  0.00     0.049 A 
ATOM     37  N   UNL A   1      39.416  30.858  31.318  1.00  0.00    -0.248 NA
ATOM     38  C   UNL A   1      38.033  31.301  29.492  1.00  0.00     0.031 C 
ATOM     39  C   UNL A   1      37.852  34.541  33.278  1.00  0.00     0.029 A 
ATOM     40  N   UNL A   1      39.328  32.878  33.444  1.00  0.00    -0.354 N 
ATOM     41  C   UNL A   1      39.681  29.945  30.306  1.00  0.00     0.074 A 
ATOM     42  C   UNL A   1      38.808  30.269  29.201  1.00  0.00     0.031 C 
ATOM     43  C   UNL A   1      38.550  34.731  34.412  1.00  0.00     0.029 A 
ATOM     44  C   UNL A   1      39.477  33.618  34.598  1.00  0.00     0.049 A 
ATOM     45  H   UNL A   1      39.904  32.113  33.217  1.00  0.00     0.167 HD
ATOM     46  C   UNL A   1      40.553  28.909  30.310  1.00  0.00     0.037 A 
ATOM     47  C   UNL A   1      40.231  33.402  35.697  1.00  0.00     0.037 A 
ATOM     48  C   UNL A   1      41.396  28.576  31.426  1.00  0.00     0.049 A 
ATOM     49  C   UNL A   1      41.099  32.168  35.742  1.00  0.00     0.074 A 
ATOM     50  C   UNL A   1      42.263  27.509  31.570  1.00  0.00     0.029 A 
ATOM     51  N   UNL A   1      41.470  29.313  32.600  1.00  0.00    -0.354 N 
ATOM     52  N   UNL A   1      41.281  31.255  34.818  1.00  0.00    -0.248 NA
ATOM     53  C   UNL A   1      41.856  31.923  36.979  1.00  0.00     0.031 C 
ATOM     54  C   UNL A   1      42.819  27.569  32.852  1.00  0.00     0.029 A 
ATOM     55  C   UNL A   1      42.352  28.712  33.482  1.00  0.00     0.049 A 
ATOM     56  H   UNL A   1      40.969  30.142  32.780  1.00  0.00     0.167 HD
ATOM     57  C   UNL A   1      42.187  30.346  35.348  1.00  0.00     0.074 A 
ATOM     58  C   UNL A   1      42.532  30.825  36.671  1.00  0.00     0.031 C 
ATOM     59  C   UNL A   1      42.688  29.216  34.791  1.00  0.00     0.037 A 
BRANCH  46  60
ATOM     60  C   UNL A   1      40.552  28.011  29.105  1.00  0.00     0.064 A 
ATOM     61  C   UNL A   1      41.331  28.280  27.971  1.00  0.00     0.173 A 
ATOM     62  C   UNL A   1      39.732  26.871  29.080  1.00  0.00     0.173 A 
ATOM     63  F   UNL A   1      42.110  29.371  27.930  1.00  0.00    -0.203 F 
ATOM     64  C   UNL A   1      41.265  27.462  26.844  1.00  0.00     0.198 A 
ATOM     65  C   UNL A   1      39.691  26.038  27.966  1.00  0.00     0.198 A 
ATOM     66  F   UNL A   1      38.963  26.569  30.137  1.00  0.00    -0.203 F 
ATOM     67  F   UNL A   1      41.970  27.773  25.748  1.00  0.00    -0.200 F 
ATOM     68  C   UNL A   1      40.449  26.339  26.846  1.00  0.00     0.200 A 
ATOM     69  F   UNL A   1      38.908  24.951  27.973  1.00  0.00    -0.200 F 
ATOM     70  F   UNL A   1      40.383  25.555  25.761  1.00  0.00    -0.200 F 
ENDBRANCH  46  60
BRANCH  47  71
ATOM     71  C   UNL A   1      40.160  34.324  36.872  1.00  0.00     0.064 A 
ATOM     72  C   UNL A   1      41.038  35.411  37.009  1.00  0.00     0.173 A 
ATOM     73  C   UNL A   1      39.231  34.119  37.906  1.00  0.00     0.173 A 
ATOM     74  F   UNL A   1      41.973  35.638  36.074  1.00  0.00    -0.203 F 
ATOM     75  C   UNL A   1      40.996  36.243  38.130  1.00  0.00     0.198 A 
ATOM     76  C   UNL A   1      39.167  34.971  39.009  1.00  0.00     0.198 A 
ATOM     77  F   UNL A   1      38.376  33.088  37.844  1.00  0.00    -0.203 F 
ATOM     78  F   UNL A   1      41.882  37.242  38.255  1.00  0.00    -0.200 F 
ATOM     79  C   UNL A   1      40.055  36.029  39.124  1.00  0.00     0.200 A 
ATOM     80  F   UNL A   1      38.248  34.763  39.962  1.00  0.00    -0.200 F 
ATOM     81  F   UNL A   1      40.011  36.832  40.196  1.00  0.00    -0.200 F 
ENDBRANCH  47  71
BRANCH  59  82
ATOM     82  C   UNL A   1      43.702  28.448  35.587  1.00  0.00     0.064 A 
ATOM     83  C   UNL A   1      45.077  28.699  35.474  1.00  0.00     0.173 A 
ATOM     84  C   UNL A   1      43.283  27.479  36.511  1.00  0.00     0.173 A 
ATOM     85  F   UNL A   1      45.528  29.606  34.595  1.00  0.00    -0.203 F 
ATOM     86  C   UNL A   1      45.997  27.987  36.240  1.00  0.00     0.198 A 
ATOM     87  C   UNL A   1      44.202  26.793  37.298  1.00  0.00     0.198 A 
ATOM     88  F   UNL A   1      41.977  27.207  36.660  1.00  0.00    -0.203 F 
ATOM     89  F   UNL A   1      47.310  28.207  36.081  1.00  0.00    -0.200 F 
ATOM     90  C   UNL A   1      45.559  27.043  37.156  1.00  0.00     0.200 A 
ATOM     91  F   UNL A   1      43.776  25.892  38.193  1.00  0.00    -0.200 F 
ATOM     92  F   UNL A   1      46.446  26.366  37.899  1.00  0.00    -0.200 F 
ENDBRANCH  59  82
ENDBRANCH  33  34
ENDBRANCH  26  28
ENDBRANCH  25  26
ENDBRANCH  24  25
ENDBRANCH  23  24
ENDBRANCH   1  23
TORSDOF 17
ENDMDL
MODEL 3
REMARK VINA RESULT:     -11.3      2.678      8.285
REMARK SMILES CC[C@@](C)(NC(=O)CCc1ccc(OC)c(Br)c1)C(=O)OCCOC(=O)c1ccc(-c2c3nc(c(-c4c(F)c(F)c(F)c(F)c4F)c4ccc([nH]4)c(-c4c(F)c(F)c(F)c(F)c4F)c4nc(c(-c5c(F)c(F)c(F)c(F)c5F)c5ccc2[nH]5)C=C4)C=C3)cc1
REMARK SMILES IDX 21 1 19 2 20 3 3 4 4 5 2 6 1 7 5 8 6 9 7 11 8 12 9 13 10 14
REMARK SMILES IDX 11 15 18 16 12 17 16 18 13 19 17 20 14 21 15 22 22 23 23 24
REMARK SMILES IDX 24 25 25 26 26 27 27 28 28 29 89 30 29 31 88 32 30 33 31 34
REMARK SMILES IDX 32 35 82 36 33 37 87 38 81 39 83 40 34 41 86 42 80 43 79 44
REMARK SMILES IDX 35 46 67 47 47 48 66 49 48 50 51 51 65 52 84 53 49 54 50 55
REMARK SMILES IDX 64 57 85 58 52 59 36 60 37 61 45 62 38 63 39 64 43 65 46 66
REMARK SMILES IDX 40 67 41 68 44 69 42 70 68 71 69 72 77 73 70 74 71 75 75 76
REMARK SMILES IDX 78 77 72 78 73 79 76 80 74 81 53 82 54 83 62 84 55 85 56 86
REMARK SMILES IDX 60 87 63 88 57 89 58 90 61 91 59 92
REMARK H PARENT 5 10 83 45 51 56
REMARK Flexibility Score: inf
ROOT
ATOM      1  O   UNL A   1      36.778  21.501  24.523  1.00  0.00    -0.460 OA
ENDROOT
BRANCH   1   2
ATOM      2  C   UNL A   1      36.336  22.572  23.766  1.00  0.00     0.331 C 
ATOM      3  O   UNL A   1      36.943  22.941  22.762  1.00  0.00    -0.249 OA
BRANCH   2   4
ATOM      4  C   UNL A   1      34.847  23.274  24.262  1.00  0.00     0.135 C 
ATOM      5  C   UNL A   1      35.235  24.196  25.439  1.00  0.00     0.047 C 
BRANCH   4   6
ATOM      6  C   UNL A   1      33.670  24.125  23.508  1.00  0.00     0.037 C 
ATOM      7  C   UNL A   1      33.623  25.604  23.125  1.00  0.00     0.007 C 
ENDBRANCH   4   6
BRANCH   4   8
ATOM      8  N   UNL A   1      34.077  22.123  24.700  1.00  0.00    -0.340 N 
ATOM      9  C   UNL A   1      33.475  22.096  25.920  1.00  0.00     0.221 C 
ATOM     10  H   UNL A   1      33.988  21.346  24.101  1.00  0.00     0.164 HD
ATOM     11  O   UNL A   1      33.167  20.997  26.386  1.00  0.00    -0.275 OA
BRANCH   9  12
ATOM     12  C   UNL A   1      33.136  23.399  26.667  1.00  0.00     0.105 C 
BRANCH  12  13
ATOM     13  C   UNL A   1      31.828  24.348  26.551  1.00  0.00     0.045 C 
BRANCH  13  14
ATOM     14  C   UNL A   1      31.218  25.722  26.064  1.00  0.00    -0.046 A 
ATOM     15  C   UNL A   1      30.372  25.922  24.966  1.00  0.00     0.007 A 
ATOM     16  C   UNL A   1      31.762  26.934  26.553  1.00  0.00     0.023 A 
ATOM     17  C   UNL A   1      30.257  27.134  24.275  1.00  0.00     0.048 A 
ATOM     18  C   UNL A   1      31.634  28.171  25.908  1.00  0.00     0.060 A 
ATOM     19  C   UNL A   1      30.990  28.222  24.690  1.00  0.00     0.133 A 
ATOM     20  Br  UNL A   1      32.434  29.701  26.683  1.00  0.00    -0.047 Br
BRANCH  19  21
ATOM     21  O   UNL A   1      31.165  29.259  23.821  1.00  0.00    -0.496 OA
ATOM     22  C   UNL A   1      32.218  28.910  22.908  1.00  0.00     0.278 C 
ENDBRANCH  19  21
ENDBRANCH  13  14
ENDBRANCH  12  13
ENDBRANCH   9  12
ENDBRANCH   4   8
ENDBRANCH   2   4
ENDBRANCH   1   2
BRANCH   1  23
ATOM     23  C   UNL A   1      38.112  21.410  25.192  1.00  0.00     0.274 C 
BRANCH  23  24
ATOM     24  C   UNL A   1      38.912  20.007  24.987  1.00  0.00     0.275 C 
BRANCH  24  25
ATOM     25  O   UNL A   1      39.748  19.504  26.118  1.00  0.00    -0.458 OA
BRANCH  25  26
ATOM     26  C   UNL A   1      41.132  19.579  26.130  1.00  0.00     0.338 C 
ATOM     27  O   UNL A   1      41.880  18.702  25.704  1.00  0.00    -0.246 OA
BRANCH  26  28
ATOM     28  C   UNL A   1      41.657  20.985  26.465  1.00  0.00     0.060 A 
ATOM     29  C   UNL A   1      41.766  21.376  27.814  1.00  0.00     0.016 A 
ATOM     30  C   UNL A   1      42.094  21.915  25.522  1.00  0.00     0.016 A 
ATOM     31  C   UNL A   1      42.534  22.474  28.234  1.00  0.00     0.010 A 
ATOM     32  C   UNL A   1      42.710  23.130  25.941  1.00  0.00     0.010 A 
ATOM     33  C   UNL A   1      42.987  23.398  27.299  1.00  0.00    -0.014 A 
BRANCH  33  34
ATOM     34  C   UNL A   1      43.523  24.714  27.777  1.00  0.00     0.031 A 
ATOM     35  C   UNL A   1      42.537  25.772  28.198  1.00  0.00     0.074 A 
ATOM     36  C   UNL A   1      44.840  24.975  27.909  1.00  0.00     0.049 A 
ATOM     37  N   UNL A   1      42.731  27.036  28.472  1.00  0.00    -0.248 NA
ATOM     38  C   UNL A   1      41.141  25.333  28.349  1.00  0.00     0.031 C 
ATOM     39  C   UNL A   1      45.906  23.999  27.733  1.00  0.00     0.029 A 
ATOM     40  N   UNL A   1      45.513  26.140  28.214  1.00  0.00    -0.354 N 
ATOM     41  C   UNL A   1      41.480  27.547  28.794  1.00  0.00     0.074 A 
ATOM     42  C   UNL A   1      40.539  26.454  28.711  1.00  0.00     0.031 C 
ATOM     43  C   UNL A   1      47.097  24.611  27.858  1.00  0.00     0.029 A 
ATOM     44  C   UNL A   1      46.882  26.035  28.096  1.00  0.00     0.049 A 
ATOM     45  H   UNL A   1      45.057  26.968  28.489  1.00  0.00     0.167 HD
ATOM     46  C   UNL A   1      41.142  28.823  29.099  1.00  0.00     0.037 A 
ATOM     47  C   UNL A   1      47.848  26.979  28.127  1.00  0.00     0.037 A 
ATOM     48  C   UNL A   1      42.082  29.910  29.149  1.00  0.00     0.049 A 
ATOM     49  C   UNL A   1      47.442  28.418  28.336  1.00  0.00     0.074 A 
ATOM     50  C   UNL A   1      41.842  31.253  29.376  1.00  0.00     0.029 A 
ATOM     51  N   UNL A   1      43.450  29.773  28.961  1.00  0.00    -0.354 N 
ATOM     52  N   UNL A   1      46.246  28.913  28.550  1.00  0.00    -0.248 NA
ATOM     53  C   UNL A   1      48.508  29.430  28.295  1.00  0.00     0.031 C 
ATOM     54  C   UNL A   1      43.058  31.935  29.269  1.00  0.00     0.029 A 
ATOM     55  C   UNL A   1      44.066  31.010  29.045  1.00  0.00     0.049 A 
ATOM     56  H   UNL A   1      43.915  28.921  28.793  1.00  0.00     0.167 HD
ATOM     57  C   UNL A   1      46.417  30.282  28.695  1.00  0.00     0.074 A 
ATOM     58  C   UNL A   1      47.835  30.542  28.560  1.00  0.00     0.031 C 
ATOM     59  C   UNL A   1      45.484  31.241  28.918  1.00  0.00     0.037 A 
BRANCH  46  60
ATOM     60  C   UNL A   1      39.682  29.113  29.299  1.00  0.00     0.064 A 
ATOM     61  C   UNL A   1      39.075  29.064  30.562  1.00  0.00     0.173 A 
ATOM     62  C   UNL A   1      38.870  29.420  28.195  1.00  0.00     0.173 A 
ATOM     63  F   UNL A   1      39.798  28.748  31.647  1.00  0.00    -0.203 F 
ATOM     64  C   UNL A   1      37.706  29.280  30.709  1.00  0.00     0.198 A 
ATOM     65  C   UNL A   1      37.509  29.666  28.348  1.00  0.00     0.198 A 
ATOM     66  F   UNL A   1      39.398  29.475  26.963  1.00  0.00    -0.203 F 
ATOM     67  F   UNL A   1      37.136  29.167  31.917  1.00  0.00    -0.200 F 
ATOM     68  C   UNL A   1      36.926  29.586  29.602  1.00  0.00     0.200 A 
ATOM     69  F   UNL A   1      36.760  29.967  27.279  1.00  0.00    -0.200 F 
ATOM     70  F   UNL A   1      35.609  29.789  29.744  1.00  0.00    -0.200 F 
ENDBRANCH  46  60
BRANCH  47  71
ATOM     71  C   UNL A   1      49.281  26.621  27.892  1.00  0.00     0.064 A 
ATOM     72  C   UNL A   1      49.793  26.445  26.596  1.00  0.00     0.173 A 
ATOM     73  C   UNL A   1      50.167  26.413  28.962  1.00  0.00     0.173 A 
ATOM     74  F   UNL A   1      48.988  26.592  25.533  1.00  0.00    -0.203 F 
ATOM     75  C   UNL A   1      51.120  26.068  26.384  1.00  0.00     0.198 A 
ATOM     76  C   UNL A   1      51.502  26.070  28.748  1.00  0.00     0.198 A 
ATOM     77  F   UNL A   1      49.735  26.548  30.225  1.00  0.00    -0.203 F 
ATOM     78  F   UNL A   1      51.565  25.859  25.136  1.00  0.00    -0.200 F 
ATOM     79  C   UNL A   1      51.977  25.891  27.459  1.00  0.00     0.200 A 
ATOM     80  F   UNL A   1      52.326  25.909  29.793  1.00  0.00    -0.200 F 
ATOM     81  F   UNL A   1      53.253  25.536  27.254  1.00  0.00    -0.200 F 
ENDBRANCH  47  71
BRANCH  59  82
ATOM     82  C   UNL A   1      45.972  32.650  29.084  1.00  0.00     0.064 A 
ATOM     83  C   UNL A   1      46.067  33.534  28.000  1.00  0.00     0.173 A 
ATOM     84  C   UNL A   1      46.304  33.134  30.359  1.00  0.00     0.173 A 
ATOM     85  F   UNL A   1      45.774  33.115  26.760  1.00  0.00    -0.203 F 
ATOM     86  C   UNL A   1      46.502  34.844  28.183  1.00  0.00     0.198 A 
ATOM     87  C   UNL A   1      46.708  34.452  30.543  1.00  0.00     0.198 A 
ATOM     88  F   UNL A   1      46.223  32.328  31.430  1.00  0.00    -0.203 F 
ATOM     89  F   UNL A   1      46.633  35.658  27.127  1.00  0.00    -0.200 F 
ATOM     90  C   UNL A   1      46.813  35.304  29.454  1.00  0.00     0.200 A 
ATOM     91  F   UNL A   1      46.992  34.898  31.774  1.00  0.00    -0.200 F 
ATOM     92  F   UNL A   1      47.223  36.568  29.629  1.00  0.00    -0.200 F 
ENDBRANCH  59  82
ENDBRANCH  33  34
ENDBRANCH  26  28
ENDBRANCH  25  26
ENDBRANCH  24  25
ENDBRANCH  23  24
ENDBRANCH   1  23
TORSDOF 17
ENDMDL
