MODEL 1
REMARK VINA RESULT:     -11.8      0.000      0.000
REMARK SMILES CN(C)C(=O)Nc1cccc(/C=C/C(=O)OCCOC(=O)c2ccc(-c3c4nc(c(-c5c(F)c(F)c(F)c(F)c5F)c5ccc([nH]5)c(-c5c(F)c(F)c(F)c(F)c5F)c5nc(c(-c6c(F)c(F)c(F)c(F)c6F)c6ccc3[nH]6)C=C5)C=C4)cc2)n1
REMARK SMILES IDX 17 1 16 2 14 3 15 4 13 5 12 6 11 7 7 8 8 9 85 10 9 11 10 12
REMARK SMILES IDX 6 13 1 14 2 15 3 16 4 17 5 18 18 20 19 21 20 22 21 23 22 24
REMARK SMILES IDX 23 25 84 26 24 27 83 28 25 29 26 30 27 31 77 32 28 33 82 34
REMARK SMILES IDX 76 35 78 36 29 37 81 38 75 39 74 40 30 42 62 43 42 44 61 45
REMARK SMILES IDX 43 46 46 47 60 48 79 49 44 50 45 51 59 53 80 54 47 55 31 56
REMARK SMILES IDX 32 57 40 58 33 59 34 60 38 61 41 62 35 63 36 64 39 65 37 66
REMARK SMILES IDX 63 67 64 68 72 69 65 70 66 71 70 72 73 73 67 74 68 75 71 76
REMARK SMILES IDX 69 77 48 78 49 79 57 80 50 81 51 82 55 83 58 84 52 85 53 86
REMARK SMILES IDX 56 87 54 88
REMARK H PARENT 6 19 78 41 46 52
REMARK Flexibility Score: inf
ROOT
ATOM      1  C   UNL A   1      42.818  21.110  26.016  1.00  0.00     0.275 C 
ENDROOT
BRANCH   1   2
ATOM      2  O   UNL A   1      41.459  21.400  25.645  1.00  0.00    -0.459 OA
BRANCH   2   3
ATOM      3  C   UNL A   1      40.562  21.400  26.657  1.00  0.00     0.330 C 
ATOM      4  O   UNL A   1      40.808  21.231  27.843  1.00  0.00    -0.247 OA
BRANCH   3   5
ATOM      5  C   UNL A   1      39.200  21.714  26.197  1.00  0.00     0.095 C 
ATOM      6  C   UNL A   1      38.430  20.930  25.424  1.00  0.00     0.036 C 
BRANCH   6   7
ATOM      7  C   UNL A   1      37.114  21.372  24.952  1.00  0.00     0.066 A 
ATOM      8  C   UNL A   1      34.826  21.010  24.970  1.00  0.00     0.134 A 
ATOM      9  C   UNL A   1      34.613  22.023  24.046  1.00  0.00     0.047 A 
ATOM     10  N   UNL A   1      36.045  20.712  25.456  1.00  0.00    -0.231 NA
ATOM     11  C   UNL A   1      35.715  22.731  23.572  1.00  0.00     0.006 A 
ATOM     12  C   UNL A   1      36.989  22.395  24.022  1.00  0.00     0.028 A 
BRANCH   8  13
ATOM     13  N   UNL A   1      33.800  20.229  25.485  1.00  0.00    -0.292 N 
ATOM     14  C   UNL A   1      33.156  17.074  23.716  1.00  0.00     0.148 C 
ATOM     15  N   UNL A   1      33.889  18.195  24.278  1.00  0.00    -0.331 N 
ATOM     16  C   UNL A   1      35.338  18.033  24.319  1.00  0.00     0.148 C 
ATOM     17  C   UNL A   1      33.174  19.131  24.998  1.00  0.00     0.322 C 
ATOM     18  O   UNL A   1      31.994  18.950  25.307  1.00  0.00    -0.248 OA
ATOM     19  H   UNL A   1      33.469  20.525  26.363  1.00  0.00     0.173 HD
ENDBRANCH   8  13
ENDBRANCH   6   7
ENDBRANCH   3   5
ENDBRANCH   2   3
ENDBRANCH   1   2
BRANCH   1  20
ATOM     20  C   UNL A   1      43.797  22.038  25.290  1.00  0.00     0.275 C 
BRANCH  20  21
ATOM     21  O   UNL A   1      43.171  23.273  24.893  1.00  0.00    -0.458 OA
BRANCH  21  22
ATOM     22  C   UNL A   1      43.919  24.388  25.081  1.00  0.00     0.338 C 
ATOM     23  O   UNL A   1      44.890  24.740  24.434  1.00  0.00    -0.246 OA
BRANCH  22  24
ATOM     24  C   UNL A   1      43.321  25.214  26.148  1.00  0.00     0.060 A 
ATOM     25  C   UNL A   1      43.806  26.513  26.326  1.00  0.00     0.016 A 
ATOM     26  C   UNL A   1      42.340  24.703  27.002  1.00  0.00     0.016 A 
ATOM     27  C   UNL A   1      43.309  27.308  27.358  1.00  0.00     0.010 A 
ATOM     28  C   UNL A   1      41.849  25.499  28.044  1.00  0.00     0.010 A 
ATOM     29  C   UNL A   1      42.337  26.802  28.233  1.00  0.00    -0.014 A 
BRANCH  29  30
ATOM     30  C   UNL A   1      41.871  27.629  29.371  1.00  0.00     0.031 A 
ATOM     31  C   UNL A   1      42.619  27.602  30.673  1.00  0.00     0.074 A 
ATOM     32  C   UNL A   1      40.793  28.421  29.229  1.00  0.00     0.049 A 
ATOM     33  N   UNL A   1      42.368  28.242  31.788  1.00  0.00    -0.248 NA
ATOM     34  C   UNL A   1      43.806  26.738  30.728  1.00  0.00     0.031 C 
ATOM     35  C   UNL A   1      40.002  28.553  28.008  1.00  0.00     0.029 A 
ATOM     36  N   UNL A   1      40.181  29.265  30.123  1.00  0.00    -0.354 N 
ATOM     37  C   UNL A   1      43.365  27.860  32.674  1.00  0.00     0.074 A 
ATOM     38  C   UNL A   1      44.208  26.910  31.980  1.00  0.00     0.031 C 
ATOM     39  C   UNL A   1      39.010  29.432  28.225  1.00  0.00     0.029 A 
ATOM     40  C   UNL A   1      39.079  29.902  29.608  1.00  0.00     0.049 A 
ATOM     41  H   UNL A   1      40.502  29.400  31.043  1.00  0.00     0.167 HD
ATOM     42  C   UNL A   1      43.562  28.273  33.950  1.00  0.00     0.037 A 
ATOM     43  C   UNL A   1      38.219  30.757  30.191  1.00  0.00     0.037 A 
ATOM     44  C   UNL A   1      42.726  29.220  34.641  1.00  0.00     0.049 A 
ATOM     45  C   UNL A   1      38.428  31.155  31.627  1.00  0.00     0.074 A 
ATOM     46  C   UNL A   1      42.857  29.711  35.928  1.00  0.00     0.029 A 
ATOM     47  N   UNL A   1      41.597  29.816  34.098  1.00  0.00    -0.354 N 
ATOM     48  N   UNL A   1      39.383  30.803  32.453  1.00  0.00    -0.248 NA
ATOM     49  C   UNL A   1      37.436  32.069  32.212  1.00  0.00     0.031 C 
ATOM     50  C   UNL A   1      41.783  30.574  36.180  1.00  0.00     0.029 A 
ATOM     51  C   UNL A   1      41.007  30.653  35.035  1.00  0.00     0.049 A 
ATOM     52  H   UNL A   1      41.263  29.668  33.185  1.00  0.00     0.167 HD
ATOM     53  C   UNL A   1      39.123  31.467  33.644  1.00  0.00     0.074 A 
ATOM     54  C   UNL A   1      37.925  32.253  33.431  1.00  0.00     0.031 C 
ATOM     55  C   UNL A   1      39.816  31.429  34.809  1.00  0.00     0.037 A 
BRANCH  42  56
ATOM     56  C   UNL A   1      44.725  27.683  34.691  1.00  0.00     0.064 A 
ATOM     57  C   UNL A   1      44.601  26.494  35.425  1.00  0.00     0.173 A 
ATOM     58  C   UNL A   1      45.985  28.299  34.642  1.00  0.00     0.173 A 
ATOM     59  F   UNL A   1      43.415  25.874  35.512  1.00  0.00    -0.203 F 
ATOM     60  C   UNL A   1      45.693  25.956  36.104  1.00  0.00     0.198 A 
ATOM     61  C   UNL A   1      47.078  27.745  35.302  1.00  0.00     0.198 A 
ATOM     62  F   UNL A   1      46.156  29.435  33.950  1.00  0.00    -0.203 F 
ATOM     63  F   UNL A   1      45.543  24.841  36.833  1.00  0.00    -0.200 F 
ATOM     64  C   UNL A   1      46.930  26.578  36.037  1.00  0.00     0.200 A 
ATOM     65  F   UNL A   1      48.275  28.343  35.230  1.00  0.00    -0.200 F 
ATOM     66  F   UNL A   1      47.979  26.058  36.689  1.00  0.00    -0.200 F 
ENDBRANCH  42  56
BRANCH  43  67
ATOM     67  C   UNL A   1      37.076  31.297  29.412  1.00  0.00     0.064 A 
ATOM     68  C   UNL A   1      37.059  32.632  28.988  1.00  0.00     0.173 A 
ATOM     69  C   UNL A   1      35.979  30.490  29.079  1.00  0.00     0.173 A 
ATOM     70  F   UNL A   1      38.073  33.449  29.308  1.00  0.00    -0.203 F 
ATOM     71  C   UNL A   1      35.982  33.142  28.266  1.00  0.00     0.198 A 
ATOM     72  C   UNL A   1      34.914  30.994  28.338  1.00  0.00     0.198 A 
ATOM     73  F   UNL A   1      35.946  29.206  29.468  1.00  0.00    -0.203 F 
ATOM     74  F   UNL A   1      35.971  34.433  27.905  1.00  0.00    -0.200 F 
ATOM     75  C   UNL A   1      34.914  32.322  27.935  1.00  0.00     0.200 A 
ATOM     76  F   UNL A   1      33.887  30.197  28.014  1.00  0.00    -0.200 F 
ATOM     77  F   UNL A   1      33.880  32.813  27.240  1.00  0.00    -0.200 F 
ENDBRANCH  43  67
BRANCH  55  78
ATOM     78  C   UNL A   1      39.308  32.278  35.936  1.00  0.00     0.064 A 
ATOM     79  C   UNL A   1      38.398  31.776  36.880  1.00  0.00     0.173 A 
ATOM     80  C   UNL A   1      39.764  33.595  36.097  1.00  0.00     0.173 A 
ATOM     81  F   UNL A   1      37.921  30.529  36.759  1.00  0.00    -0.203 F 
ATOM     82  C   UNL A   1      37.948  32.570  37.931  1.00  0.00     0.198 A 
ATOM     83  C   UNL A   1      39.330  34.378  37.163  1.00  0.00     0.198 A 
ATOM     84  F   UNL A   1      40.639  34.118  35.225  1.00  0.00    -0.203 F 
ATOM     85  F   UNL A   1      37.048  32.086  38.797  1.00  0.00    -0.200 F 
ATOM     86  C   UNL A   1      38.419  33.867  38.075  1.00  0.00     0.200 A 
ATOM     87  F   UNL A   1      39.793  35.627  37.307  1.00  0.00    -0.200 F 
ATOM     88  F   UNL A   1      37.987  34.628  39.090  1.00  0.00    -0.200 F 
ENDBRANCH  55  78
ENDBRANCH  29  30
ENDBRANCH  22  24
ENDBRANCH  21  22
ENDBRANCH  20  21
ENDBRANCH   1  20
TORSDOF 13
ENDMDL
MODEL 2
REMARK VINA RESULT:     -11.8      5.151     10.649
REMARK SMILES CN(C)C(=O)Nc1cccc(/C=C/C(=O)OCCOC(=O)c2ccc(-c3c4nc(c(-c5c(F)c(F)c(F)c(F)c5F)c5ccc([nH]5)c(-c5c(F)c(F)c(F)c(F)c5F)c5nc(c(-c6c(F)c(F)c(F)c(F)c6F)c6ccc3[nH]6)C=C5)C=C4)cc2)n1
REMARK SMILES IDX 17 1 16 2 14 3 15 4 13 5 12 6 11 7 7 8 8 9 85 10 9 11 10 12
REMARK SMILES IDX 6 13 1 14 2 15 3 16 4 17 5 18 18 20 19 21 20 22 21 23 22 24
REMARK SMILES IDX 23 25 84 26 24 27 83 28 25 29 26 30 27 31 77 32 28 33 82 34
REMARK SMILES IDX 76 35 78 36 29 37 81 38 75 39 74 40 30 42 62 43 42 44 61 45
REMARK SMILES IDX 43 46 46 47 60 48 79 49 44 50 45 51 59 53 80 54 47 55 31 56
REMARK SMILES IDX 32 57 40 58 33 59 34 60 38 61 41 62 35 63 36 64 39 65 37 66
REMARK SMILES IDX 63 67 64 68 72 69 65 70 66 71 70 72 73 73 67 74 68 75 71 76
REMARK SMILES IDX 69 77 48 78 49 79 57 80 50 81 51 82 55 83 58 84 52 85 53 86
REMARK SMILES IDX 56 87 54 88
REMARK H PARENT 6 19 78 41 46 52
REMARK Flexibility Score: inf
ROOT
ATOM      1  C   UNL A   1      44.504  18.992  24.612  1.00  0.00     0.275 C 
ENDROOT
BRANCH   1   2
ATOM      2  O   UNL A   1      44.675  20.397  24.357  1.00  0.00    -0.459 OA
BRANCH   2   3
ATOM      3  C   UNL A   1      45.888  20.907  24.672  1.00  0.00     0.330 C 
ATOM      4  O   UNL A   1      46.925  20.274  24.810  1.00  0.00    -0.247 OA
BRANCH   3   5
ATOM      5  C   UNL A   1      45.870  22.375  24.766  1.00  0.00     0.095 C 
ATOM      6  C   UNL A   1      46.777  23.208  24.230  1.00  0.00     0.036 C 
BRANCH   6   7
ATOM      7  C   UNL A   1      46.713  24.657  24.451  1.00  0.00     0.066 A 
ATOM      8  C   UNL A   1      47.855  26.673  24.440  1.00  0.00     0.134 A 
ATOM      9  C   UNL A   1      46.754  27.350  24.945  1.00  0.00     0.047 A 
ATOM     10  N   UNL A   1      47.831  25.358  24.151  1.00  0.00    -0.231 NA
ATOM     11  C   UNL A   1      45.592  26.629  25.203  1.00  0.00     0.006 A 
ATOM     12  C   UNL A   1      45.571  25.258  24.963  1.00  0.00     0.028 A 
BRANCH   8  13
ATOM     13  N   UNL A   1      49.068  27.293  24.172  1.00  0.00    -0.292 N 
ATOM     14  C   UNL A   1      49.872  27.755  20.617  1.00  0.00     0.148 C 
ATOM     15  N   UNL A   1      49.085  27.663  21.834  1.00  0.00    -0.331 N 
ATOM     16  C   UNL A   1      47.712  28.144  21.726  1.00  0.00     0.148 C 
ATOM     17  C   UNL A   1      49.761  27.452  23.019  1.00  0.00     0.322 C 
ATOM     18  O   UNL A   1      50.991  27.510  23.084  1.00  0.00    -0.248 OA
ATOM     19  H   UNL A   1      49.503  27.688  24.962  1.00  0.00     0.173 HD
ENDBRANCH   8  13
ENDBRANCH   6   7
ENDBRANCH   3   5
ENDBRANCH   2   3
ENDBRANCH   1   2
BRANCH   1  20
ATOM     20  C   UNL A   1      43.358  18.747  25.598  1.00  0.00     0.275 C 
BRANCH  20  21
ATOM     21  O   UNL A   1      42.140  19.391  25.176  1.00  0.00    -0.458 OA
BRANCH  21  22
ATOM     22  C   UNL A   1      41.360  19.868  26.178  1.00  0.00     0.338 C 
ATOM     23  O   UNL A   1      40.423  19.303  26.714  1.00  0.00    -0.246 OA
BRANCH  22  24
ATOM     24  C   UNL A   1      41.878  21.174  26.630  1.00  0.00     0.060 A 
ATOM     25  C   UNL A   1      41.994  21.396  28.007  1.00  0.00     0.016 A 
ATOM     26  C   UNL A   1      42.188  22.190  25.723  1.00  0.00     0.016 A 
ATOM     27  C   UNL A   1      42.424  22.635  28.480  1.00  0.00     0.010 A 
ATOM     28  C   UNL A   1      42.612  23.436  26.199  1.00  0.00     0.010 A 
ATOM     29  C   UNL A   1      42.723  23.668  27.581  1.00  0.00    -0.014 A 
BRANCH  29  30
ATOM     30  C   UNL A   1      43.108  25.003  28.096  1.00  0.00     0.031 A 
ATOM     31  C   UNL A   1      42.053  26.044  28.343  1.00  0.00     0.074 A 
ATOM     32  C   UNL A   1      44.397  25.274  28.366  1.00  0.00     0.049 A 
ATOM     33  N   UNL A   1      42.185  27.271  28.781  1.00  0.00    -0.248 NA
ATOM     34  C   UNL A   1      40.666  25.651  28.057  1.00  0.00     0.031 C 
ATOM     35  C   UNL A   1      45.506  24.338  28.194  1.00  0.00     0.029 A 
ATOM     36  N   UNL A   1      44.989  26.416  28.845  1.00  0.00    -0.354 N 
ATOM     37  C   UNL A   1      40.901  27.795  28.825  1.00  0.00     0.074 A 
ATOM     38  C   UNL A   1      40.006  26.765  28.341  1.00  0.00     0.031 C 
ATOM     39  C   UNL A   1      46.647  24.941  28.566  1.00  0.00     0.029 A 
ATOM     40  C   UNL A   1      46.352  26.313  28.976  1.00  0.00     0.049 A 
ATOM     41  H   UNL A   1      44.485  27.230  29.072  1.00  0.00     0.167 HD
ATOM     42  C   UNL A   1      40.505  29.023  29.241  1.00  0.00     0.037 A 
ATOM     43  C   UNL A   1      47.258  27.227  29.370  1.00  0.00     0.037 A 
ATOM     44  C   UNL A   1      41.394  30.047  29.725  1.00  0.00     0.049 A 
ATOM     45  C   UNL A   1      46.798  28.603  29.771  1.00  0.00     0.074 A 
ATOM     46  C   UNL A   1      41.083  31.316  30.183  1.00  0.00     0.029 A 
ATOM     47  N   UNL A   1      42.772  29.919  29.808  1.00  0.00    -0.354 N 
ATOM     48  N   UNL A   1      45.580  29.085  29.827  1.00  0.00    -0.248 NA
ATOM     49  C   UNL A   1      47.841  29.562  30.164  1.00  0.00     0.031 C 
ATOM     50  C   UNL A   1      42.277  31.971  30.505  1.00  0.00     0.029 A 
ATOM     51  C   UNL A   1      43.329  31.096  30.288  1.00  0.00     0.049 A 
ATOM     52  H   UNL A   1      43.281  29.113  29.563  1.00  0.00     0.167 HD
ATOM     53  C   UNL A   1      45.706  30.391  30.280  1.00  0.00     0.074 A 
ATOM     54  C   UNL A   1      47.119  30.624  30.496  1.00  0.00     0.031 C 
ATOM     55  C   UNL A   1      44.736  31.313  30.499  1.00  0.00     0.037 A 
BRANCH  42  56
ATOM     56  C   UNL A   1      39.040  29.332  29.170  1.00  0.00     0.064 A 
ATOM     57  C   UNL A   1      38.399  29.585  27.947  1.00  0.00     0.173 A 
ATOM     58  C   UNL A   1      38.259  29.348  30.337  1.00  0.00     0.173 A 
ATOM     59  F   UNL A   1      39.104  29.593  26.806  1.00  0.00    -0.203 F 
ATOM     60  C   UNL A   1      37.036  29.866  27.898  1.00  0.00     0.198 A 
ATOM     61  C   UNL A   1      36.893  29.606  30.281  1.00  0.00     0.198 A 
ATOM     62  F   UNL A   1      38.823  29.109  31.530  1.00  0.00    -0.203 F 
ATOM     63  F   UNL A   1      36.453  30.145  26.724  1.00  0.00    -0.200 F 
ATOM     64  C   UNL A   1      36.283  29.871  29.063  1.00  0.00     0.200 A 
ATOM     65  F   UNL A   1      36.165  29.602  31.405  1.00  0.00    -0.200 F 
ATOM     66  F   UNL A   1      34.971  30.139  29.013  1.00  0.00    -0.200 F 
ENDBRANCH  42  56
BRANCH  43  67
ATOM     67  C   UNL A   1      48.698  26.868  29.405  1.00  0.00     0.064 A 
ATOM     68  C   UNL A   1      49.236  26.145  30.478  1.00  0.00     0.173 A 
ATOM     69  C   UNL A   1      49.565  27.244  28.368  1.00  0.00     0.173 A 
ATOM     70  F   UNL A   1      48.451  25.790  31.506  1.00  0.00    -0.203 F 
ATOM     71  C   UNL A   1      50.589  25.817  30.516  1.00  0.00     0.198 A 
ATOM     72  C   UNL A   1      50.913  26.895  28.396  1.00  0.00     0.198 A 
ATOM     73  F   UNL A   1      49.099  27.942  27.322  1.00  0.00    -0.203 F 
ATOM     74  F   UNL A   1      51.088  25.158  31.572  1.00  0.00    -0.200 F 
ATOM     75  C   UNL A   1      51.426  26.186  29.473  1.00  0.00     0.200 A 
ATOM     76  F   UNL A   1      51.716  27.247  27.383  1.00  0.00    -0.200 F 
ATOM     77  F   UNL A   1      52.726  25.868  29.510  1.00  0.00    -0.200 F 
ENDBRANCH  43  67
BRANCH  55  78
ATOM     78  C   UNL A   1      45.169  32.652  31.017  1.00  0.00     0.064 A 
ATOM     79  C   UNL A   1      45.281  32.904  32.393  1.00  0.00     0.173 A 
ATOM     80  C   UNL A   1      45.510  33.683  30.129  1.00  0.00     0.173 A 
ATOM     81  F   UNL A   1      44.950  31.956  33.282  1.00  0.00    -0.203 F 
ATOM     82  C   UNL A   1      45.699  34.147  32.860  1.00  0.00     0.198 A 
ATOM     83  C   UNL A   1      45.951  34.916  30.599  1.00  0.00     0.198 A 
ATOM     84  F   UNL A   1      45.425  33.489  28.805  1.00  0.00    -0.203 F 
ATOM     85  F   UNL A   1      45.760  34.381  34.179  1.00  0.00    -0.200 F 
ATOM     86  C   UNL A   1      46.040  35.149  31.964  1.00  0.00     0.200 A 
ATOM     87  F   UNL A   1      46.290  35.881  29.733  1.00  0.00    -0.200 F 
ATOM     88  F   UNL A   1      46.446  36.344  32.415  1.00  0.00    -0.200 F 
ENDBRANCH  55  78
ENDBRANCH  29  30
ENDBRANCH  22  24
ENDBRANCH  21  22
ENDBRANCH  20  21
ENDBRANCH   1  20
TORSDOF 13
ENDMDL
MODEL 3
REMARK VINA RESULT:     -11.8      4.406      9.471
REMARK SMILES CN(C)C(=O)Nc1cccc(/C=C/C(=O)OCCOC(=O)c2ccc(-c3c4nc(c(-c5c(F)c(F)c(F)c(F)c5F)c5ccc([nH]5)c(-c5c(F)c(F)c(F)c(F)c5F)c5nc(c(-c6c(F)c(F)c(F)c(F)c6F)c6ccc3[nH]6)C=C5)C=C4)cc2)n1
REMARK SMILES IDX 17 1 16 2 14 3 15 4 13 5 12 6 11 7 7 8 8 9 85 10 9 11 10 12
REMARK SMILES IDX 6 13 1 14 2 15 3 16 4 17 5 18 18 20 19 21 20 22 21 23 22 24
REMARK SMILES IDX 23 25 84 26 24 27 83 28 25 29 26 30 27 31 77 32 28 33 82 34
REMARK SMILES IDX 76 35 78 36 29 37 81 38 75 39 74 40 30 42 62 43 42 44 61 45
REMARK SMILES IDX 43 46 46 47 60 48 79 49 44 50 45 51 59 53 80 54 47 55 31 56
REMARK SMILES IDX 32 57 40 58 33 59 34 60 38 61 41 62 35 63 36 64 39 65 37 66
REMARK SMILES IDX 63 67 64 68 72 69 65 70 66 71 70 72 73 73 67 74 68 75 71 76
REMARK SMILES IDX 69 77 48 78 49 79 57 80 50 81 51 82 55 83 58 84 52 85 53 86
REMARK SMILES IDX 56 87 54 88
REMARK H PARENT 6 19 78 41 46 52
REMARK Flexibility Score: inf
ROOT
ATOM      1  C   UNL A   1      32.828  31.959  27.541  1.00  0.00     0.275 C 
ENDROOT
BRANCH   1   2
ATOM      2  O   UNL A   1      34.160  31.426  27.644  1.00  0.00    -0.459 OA
BRANCH   2   3
ATOM      3  C   UNL A   1      34.303  30.131  27.279  1.00  0.00     0.330 C 
ATOM      4  O   UNL A   1      35.166  29.359  27.673  1.00  0.00    -0.247 OA
BRANCH   3   5
ATOM      5  C   UNL A   1      33.232  29.683  26.375  1.00  0.00     0.095 C 
ATOM      6  C   UNL A   1      33.406  29.115  25.170  1.00  0.00     0.036 C 
BRANCH   6   7
ATOM      7  C   UNL A   1      32.268  28.777  24.309  1.00  0.00     0.066 A 
ATOM      8  C   UNL A   1      31.523  27.632  22.438  1.00  0.00     0.134 A 
ATOM      9  C   UNL A   1      30.251  28.170  22.560  1.00  0.00     0.047 A 
ATOM     10  N   UNL A   1      32.510  27.888  23.318  1.00  0.00    -0.231 NA
ATOM     11  C   UNL A   1      29.998  29.045  23.613  1.00  0.00     0.006 A 
ATOM     12  C   UNL A   1      31.024  29.364  24.498  1.00  0.00     0.028 A 
BRANCH   8  13
ATOM     13  N   UNL A   1      31.887  26.770  21.412  1.00  0.00    -0.292 N 
ATOM     14  C   UNL A   1      32.938  23.406  22.451  1.00  0.00     0.148 C 
ATOM     15  N   UNL A   1      32.211  24.664  22.442  1.00  0.00    -0.331 N 
ATOM     16  C   UNL A   1      31.027  24.704  23.292  1.00  0.00     0.148 C 
ATOM     17  C   UNL A   1      32.490  25.557  21.427  1.00  0.00     0.322 C 
ATOM     18  O   UNL A   1      33.197  25.248  20.465  1.00  0.00    -0.248 OA
ATOM     19  H   UNL A   1      31.666  27.100  20.511  1.00  0.00     0.173 HD
ENDBRANCH   8  13
ENDBRANCH   6   7
ENDBRANCH   3   5
ENDBRANCH   2   3
ENDBRANCH   1   2
BRANCH   1  20
ATOM     20  C   UNL A   1      32.858  33.462  27.248  1.00  0.00     0.275 C 
BRANCH  20  21
ATOM     21  O   UNL A   1      32.331  34.233  28.344  1.00  0.00    -0.458 OA
BRANCH  21  22
ATOM     22  C   UNL A   1      33.142  35.218  28.802  1.00  0.00     0.338 C 
ATOM     23  O   UNL A   1      32.975  36.420  28.692  1.00  0.00    -0.246 OA
BRANCH  22  24
ATOM     24  C   UNL A   1      34.250  34.628  29.579  1.00  0.00     0.060 A 
ATOM     25  C   UNL A   1      35.528  34.632  29.011  1.00  0.00     0.016 A 
ATOM     26  C   UNL A   1      34.031  34.025  30.820  1.00  0.00     0.016 A 
ATOM     27  C   UNL A   1      36.593  34.035  29.684  1.00  0.00     0.010 A 
ATOM     28  C   UNL A   1      35.099  33.418  31.491  1.00  0.00     0.010 A 
ATOM     29  C   UNL A   1      36.383  33.412  30.922  1.00  0.00    -0.014 A 
BRANCH  29  30
ATOM     30  C   UNL A   1      37.506  32.715  31.595  1.00  0.00     0.031 A 
ATOM     31  C   UNL A   1      38.182  31.557  30.919  1.00  0.00     0.074 A 
ATOM     32  C   UNL A   1      37.935  33.137  32.798  1.00  0.00     0.049 A 
ATOM     33  N   UNL A   1      39.172  30.812  31.342  1.00  0.00    -0.248 NA
ATOM     34  C   UNL A   1      37.674  31.188  29.590  1.00  0.00     0.031 C 
ATOM     35  C   UNL A   1      37.377  34.266  33.540  1.00  0.00     0.029 A 
ATOM     36  N   UNL A   1      38.940  32.664  33.604  1.00  0.00    -0.354 N 
ATOM     37  C   UNL A   1      39.407  29.888  30.334  1.00  0.00     0.074 A 
ATOM     38  C   UNL A   1      38.437  30.146  29.289  1.00  0.00     0.031 C 
ATOM     39  C   UNL A   1      38.052  34.403  34.694  1.00  0.00     0.029 A 
ATOM     40  C   UNL A   1      39.068  33.356  34.782  1.00  0.00     0.049 A 
ATOM     41  H   UNL A   1      39.514  31.903  33.360  1.00  0.00     0.167 HD
ATOM     42  C   UNL A   1      40.352  28.919  30.281  1.00  0.00     0.037 A 
ATOM     43  C   UNL A   1      39.903  33.158  35.820  1.00  0.00     0.037 A 
ATOM     44  C   UNL A   1      41.319  28.664  31.318  1.00  0.00     0.049 A 
ATOM     45  C   UNL A   1      40.906  32.037  35.761  1.00  0.00     0.074 A 
ATOM     46  C   UNL A   1      42.325  27.714  31.346  1.00  0.00     0.029 A 
ATOM     47  N   UNL A   1      41.394  29.362  32.514  1.00  0.00    -0.354 N 
ATOM     48  N   UNL A   1      41.133  31.180  34.796  1.00  0.00    -0.248 NA
ATOM     49  C   UNL A   1      41.768  31.858  36.938  1.00  0.00     0.031 C 
ATOM     50  C   UNL A   1      42.984  27.810  32.578  1.00  0.00     0.029 A 
ATOM     51  C   UNL A   1      42.416  28.848  33.299  1.00  0.00     0.049 A 
ATOM     52  H   UNL A   1      40.809  30.111  32.769  1.00  0.00     0.167 HD
ATOM     53  C   UNL A   1      42.175  30.375  35.237  1.00  0.00     0.074 A 
ATOM     54  C   UNL A   1      42.545  30.854  36.553  1.00  0.00     0.031 C 
ATOM     55  C   UNL A   1      42.772  29.334  34.606  1.00  0.00     0.037 A 
BRANCH  42  56
ATOM     56  C   UNL A   1      40.374  28.045  29.063  1.00  0.00     0.064 A 
ATOM     57  C   UNL A   1      41.145  28.372  27.937  1.00  0.00     0.173 A 
ATOM     58  C   UNL A   1      39.637  26.851  29.031  1.00  0.00     0.173 A 
ATOM     59  F   UNL A   1      41.857  29.508  27.913  1.00  0.00    -0.203 F 
ATOM     60  C   UNL A   1      41.158  27.547  26.815  1.00  0.00     0.198 A 
ATOM     61  C   UNL A   1      39.672  26.017  27.917  1.00  0.00     0.198 A 
ATOM     62  F   UNL A   1      38.888  26.492  30.084  1.00  0.00    -0.203 F 
ATOM     63  F   UNL A   1      41.869  27.899  25.734  1.00  0.00    -0.200 F 
ATOM     64  C   UNL A   1      40.427  26.369  26.808  1.00  0.00     0.200 A 
ATOM     65  F   UNL A   1      38.972  24.875  27.916  1.00  0.00    -0.200 F 
ATOM     66  F   UNL A   1      40.443  25.575  25.728  1.00  0.00    -0.200 F 
ENDBRANCH  42  56
BRANCH  43  67
ATOM     67  C   UNL A   1      39.825  34.046  37.007  1.00  0.00     0.064 A 
ATOM     68  C   UNL A   1      40.590  35.218  37.083  1.00  0.00     0.173 A 
ATOM     69  C   UNL A   1      38.988  33.739  38.089  1.00  0.00     0.173 A 
ATOM     70  F   UNL A   1      41.427  35.537  36.085  1.00  0.00    -0.203 F 
ATOM     71  C   UNL A   1      40.525  36.045  38.202  1.00  0.00     0.198 A 
ATOM     72  C   UNL A   1      38.907  34.579  39.196  1.00  0.00     0.198 A 
ATOM     73  F   UNL A   1      38.241  32.625  38.066  1.00  0.00    -0.203 F 
ATOM     74  F   UNL A   1      41.295  37.141  38.268  1.00  0.00    -0.200 F 
ATOM     75  C   UNL A   1      39.679  35.730  39.254  1.00  0.00     0.200 A 
ATOM     76  F   UNL A   1      38.082  34.275  40.208  1.00  0.00    -0.200 F 
ATOM     77  F   UNL A   1      39.616  36.528  40.329  1.00  0.00    -0.200 F 
ENDBRANCH  43  67
BRANCH  55  78
ATOM     78  C   UNL A   1      43.901  28.656  35.322  1.00  0.00     0.064 A 
ATOM     79  C   UNL A   1      45.236  29.038  35.116  1.00  0.00     0.173 A 
ATOM     80  C   UNL A   1      43.645  27.637  36.252  1.00  0.00     0.173 A 
ATOM     81  F   UNL A   1      45.533  29.996  34.226  1.00  0.00    -0.203 F 
ATOM     82  C   UNL A   1      46.273  28.410  35.801  1.00  0.00     0.198 A 
ATOM     83  C   UNL A   1      44.682  27.028  36.952  1.00  0.00     0.198 A 
ATOM     84  F   UNL A   1      42.386  27.239  36.488  1.00  0.00    -0.203 F 
ATOM     85  F   UNL A   1      47.543  28.762  35.559  1.00  0.00    -0.200 F 
ATOM     86  C   UNL A   1      45.995  27.411  36.721  1.00  0.00     0.200 A 
ATOM     87  F   UNL A   1      44.413  26.069  37.849  1.00  0.00    -0.200 F 
ATOM     88  F   UNL A   1      46.995  26.811  37.382  1.00  0.00    -0.200 F 
ENDBRANCH  55  78
ENDBRANCH  29  30
ENDBRANCH  22  24
ENDBRANCH  21  22
ENDBRANCH  20  21
ENDBRANCH   1  20
TORSDOF 13
ENDMDL
