MODEL 1
REMARK VINA RESULT:     -13.4      0.000      0.000
REMARK SMILES Nn1c(S[C@@H](C(=O)OCCOC(=O)c2ccc(-c3c4nc(c(-c5c(F)c(F)c(F)c(F)c5F)c5ccc([nH]5)c(-c5c(F)c(F)c(F)c(F)c5F)c5nc(c(-c6c(F)c(F)c(F)c(F)c6F)c6ccc3[nH]6)C=C5)C=C4)cc2)c2ccccc2)nc2ccc(Br)cc2c1=O
REMARK SMILES IDX 9 1 8 2 6 3 7 4 5 5 4 6 3 7 2 8 91 9 83 10 90 11 92 12 84 13
REMARK SMILES IDX 89 14 85 15 87 16 86 17 88 18 1 19 77 22 78 23 82 24 79 25
REMARK SMILES IDX 81 26 80 27 10 28 11 29 12 30 13 31 14 32 15 33 76 34 16 35
REMARK SMILES IDX 75 36 17 37 18 38 19 39 69 40 20 41 74 42 68 43 70 44 21 45
REMARK SMILES IDX 73 46 67 47 66 48 22 50 54 51 34 52 53 53 35 54 38 55 52 56
REMARK SMILES IDX 71 57 36 58 37 59 51 61 72 62 39 63 23 64 24 65 32 66 25 67
REMARK SMILES IDX 26 68 30 69 33 70 27 71 28 72 31 73 29 74 55 75 56 76 64 77
REMARK SMILES IDX 57 78 58 79 62 80 65 81 59 82 60 83 63 84 61 85 40 86 41 87
REMARK SMILES IDX 49 88 42 89 43 90 47 91 50 92 44 93 45 94 48 95 46 96
REMARK H PARENT 1 20 1 21 70 49 38 60
REMARK Flexibility Score: inf
ROOT
ATOM      1  C   UNL A   1      31.607  28.906  26.010  1.00  0.00     0.274 C 
ENDROOT
BRANCH   1   2
ATOM      2  O   UNL A   1      32.492  28.797  24.869  1.00  0.00    -0.461 OA
BRANCH   2   3
ATOM      3  C   UNL A   1      31.885  28.810  23.646  1.00  0.00     0.324 C 
ATOM      4  O   UNL A   1      32.533  28.952  22.612  1.00  0.00    -0.251 OA
BRANCH   3   5
ATOM      5  C   UNL A   1      30.344  28.802  23.695  1.00  0.00     0.194 C 
BRANCH   5   6
ATOM      6  S   UNL A   1      29.579  27.164  23.450  1.00  0.00    -0.066 SA
BRANCH   6   7
ATOM      7  C   UNL A   1      30.749  25.862  23.449  1.00  0.00     0.191 A 
ATOM      8  N   UNL A   1      31.676  25.632  22.435  1.00  0.00    -0.202 N 
ATOM      9  C   UNL A   1      32.595  24.577  22.485  1.00  0.00     0.280 A 
ATOM     10  N   UNL A   1      30.613  25.043  24.448  1.00  0.00    -0.222 NA
ATOM     11  C   UNL A   1      32.412  23.620  23.583  1.00  0.00     0.069 A 
ATOM     12  O   UNL A   1      33.456  24.384  21.626  1.00  0.00    -0.267 OA
ATOM     13  C   UNL A   1      31.382  23.873  24.485  1.00  0.00     0.079 A 
ATOM     14  C   UNL A   1      33.160  22.437  23.630  1.00  0.00     0.031 A 
ATOM     15  C   UNL A   1      31.064  22.887  25.422  1.00  0.00     0.030 A 
ATOM     16  C   UNL A   1      32.833  21.472  24.575  1.00  0.00     0.018 A 
ATOM     17  C   UNL A   1      31.778  21.683  25.463  1.00  0.00     0.018 A 
ATOM     18  Br  UNL A   1      33.793  19.845  24.626  1.00  0.00    -0.051 Br
BRANCH   8  19
ATOM     19  N   UNL A   1      31.651  26.335  21.223  1.00  0.00    -0.334 N 
ATOM     20  H   UNL A   1      31.485  27.306  21.220  1.00  0.00     0.178 HD
ATOM     21  H   UNL A   1      31.797  25.859  20.374  1.00  0.00     0.178 HD
ENDBRANCH   8  19
ENDBRANCH   6   7
ENDBRANCH   5   6
BRANCH   5  22
ATOM     22  C   UNL A   1      29.581  30.001  23.080  1.00  0.00    -0.023 A 
ATOM     23  C   UNL A   1      29.203  30.068  21.724  1.00  0.00     0.005 A 
ATOM     24  C   UNL A   1      29.248  31.118  23.876  1.00  0.00     0.005 A 
ATOM     25  C   UNL A   1      28.447  31.134  21.220  1.00  0.00     0.000 A 
ATOM     26  C   UNL A   1      28.485  32.180  23.376  1.00  0.00     0.000 A 
ATOM     27  C   UNL A   1      28.070  32.180  22.051  1.00  0.00     0.000 A 
ENDBRANCH   5  22
ENDBRANCH   3   5
ENDBRANCH   2   3
ENDBRANCH   1   2
BRANCH   1  28
ATOM     28  C   UNL A   1      31.778  30.243  26.727  1.00  0.00     0.275 C 
BRANCH  28  29
ATOM     29  O   UNL A   1      33.053  30.810  26.383  1.00  0.00    -0.458 OA
BRANCH  29  30
ATOM     30  C   UNL A   1      33.548  31.723  27.251  1.00  0.00     0.338 C 
ATOM     31  O   UNL A   1      33.002  32.748  27.622  1.00  0.00    -0.246 OA
BRANCH  30  32
ATOM     32  C   UNL A   1      34.863  31.272  27.766  1.00  0.00     0.060 A 
ATOM     33  C   UNL A   1      35.834  32.220  28.085  1.00  0.00     0.016 A 
ATOM     34  C   UNL A   1      35.094  29.929  28.067  1.00  0.00     0.016 A 
ATOM     35  C   UNL A   1      37.023  31.821  28.707  1.00  0.00     0.010 A 
ATOM     36  C   UNL A   1      36.214  29.559  28.813  1.00  0.00     0.010 A 
ATOM     37  C   UNL A   1      37.216  30.489  29.116  1.00  0.00    -0.014 A 
BRANCH  37  38
ATOM     38  C   UNL A   1      38.458  30.076  29.836  1.00  0.00     0.031 A 
ATOM     39  C   UNL A   1      38.703  30.493  31.269  1.00  0.00     0.074 A 
ATOM     40  C   UNL A   1      39.400  29.343  29.206  1.00  0.00     0.049 A 
ATOM     41  N   UNL A   1      39.692  30.169  32.068  1.00  0.00    -0.248 NA
ATOM     42  C   UNL A   1      37.746  31.433  31.873  1.00  0.00     0.031 C 
ATOM     43  C   UNL A   1      39.383  28.967  27.791  1.00  0.00     0.029 A 
ATOM     44  N   UNL A   1      40.552  28.763  29.685  1.00  0.00    -0.354 N 
ATOM     45  C   UNL A   1      39.486  30.885  33.240  1.00  0.00     0.074 A 
ATOM     46  C   UNL A   1      38.332  31.725  33.024  1.00  0.00     0.031 C 
ATOM     47  C   UNL A   1      40.427  28.163  27.535  1.00  0.00     0.029 A 
ATOM     48  C   UNL A   1      41.198  27.976  28.761  1.00  0.00     0.049 A 
ATOM     49  H   UNL A   1      40.883  28.899  30.603  1.00  0.00     0.167 HD
ATOM     50  C   UNL A   1      40.156  30.814  34.416  1.00  0.00     0.037 A 
ATOM     51  C   UNL A   1      42.266  27.165  28.895  1.00  0.00     0.037 A 
ATOM     52  C   UNL A   1      41.246  29.917  34.677  1.00  0.00     0.049 A 
ATOM     53  C   UNL A   1      42.930  27.013  30.235  1.00  0.00     0.074 A 
ATOM     54  C   UNL A   1      41.905  29.684  35.872  1.00  0.00     0.029 A 
ATOM     55  N   UNL A   1      41.828  29.090  33.730  1.00  0.00    -0.354 N 
ATOM     56  N   UNL A   1      42.647  27.602  31.370  1.00  0.00    -0.248 NA
ATOM     57  C   UNL A   1      44.055  26.066  30.318  1.00  0.00     0.031 C 
ATOM     58  C   UNL A   1      42.898  28.726  35.645  1.00  0.00     0.029 A 
ATOM     59  C   UNL A   1      42.839  28.346  34.314  1.00  0.00     0.049 A 
ATOM     60  H   UNL A   1      41.562  29.039  32.783  1.00  0.00     0.167 HD
ATOM     61  C   UNL A   1      43.532  27.081  32.304  1.00  0.00     0.074 A 
ATOM     62  C   UNL A   1      44.361  26.120  31.608  1.00  0.00     0.031 C 
ATOM     63  C   UNL A   1      43.644  27.375  33.621  1.00  0.00     0.037 A 
BRANCH  50  64
ATOM     64  C   UNL A   1      39.683  31.692  35.537  1.00  0.00     0.064 A 
ATOM     65  C   UNL A   1      40.238  32.964  35.749  1.00  0.00     0.173 A 
ATOM     66  C   UNL A   1      38.641  31.281  36.380  1.00  0.00     0.173 A 
ATOM     67  F   UNL A   1      41.243  33.399  34.974  1.00  0.00    -0.203 F 
ATOM     68  C   UNL A   1      39.790  33.777  36.785  1.00  0.00     0.198 A 
ATOM     69  C   UNL A   1      38.176  32.110  37.398  1.00  0.00     0.198 A 
ATOM     70  F   UNL A   1      38.070  30.078  36.214  1.00  0.00    -0.203 F 
ATOM     71  F   UNL A   1      40.373  34.965  36.999  1.00  0.00    -0.200 F 
ATOM     72  C   UNL A   1      38.756  33.353  37.604  1.00  0.00     0.200 A 
ATOM     73  F   UNL A   1      37.166  31.706  38.182  1.00  0.00    -0.200 F 
ATOM     74  F   UNL A   1      38.322  34.140  38.598  1.00  0.00    -0.200 F 
ENDBRANCH  50  64
BRANCH  51  75
ATOM     75  C   UNL A   1      42.713  26.347  27.740  1.00  0.00     0.064 A 
ATOM     76  C   UNL A   1      42.113  25.107  27.474  1.00  0.00     0.173 A 
ATOM     77  C   UNL A   1      43.734  26.777  26.884  1.00  0.00     0.173 A 
ATOM     78  F   UNL A   1      41.146  24.645  28.281  1.00  0.00    -0.203 F 
ATOM     79  C   UNL A   1      42.526  24.323  26.400  1.00  0.00     0.198 A 
ATOM     80  C   UNL A   1      44.135  26.000  25.800  1.00  0.00     0.198 A 
ATOM     81  F   UNL A   1      44.337  27.956  27.100  1.00  0.00    -0.203 F 
ATOM     82  F   UNL A   1      41.960  23.127  26.189  1.00  0.00    -0.200 F 
ATOM     83  C   UNL A   1      43.535  24.772  25.562  1.00  0.00     0.200 A 
ATOM     84  F   UNL A   1      45.107  26.437  24.987  1.00  0.00    -0.200 F 
ATOM     85  F   UNL A   1      43.934  24.017  24.528  1.00  0.00    -0.200 F 
ENDBRANCH  51  75
BRANCH  63  86
ATOM     86  C   UNL A   1      44.674  26.638  34.420  1.00  0.00     0.064 A 
ATOM     87  C   UNL A   1      45.958  27.163  34.617  1.00  0.00     0.173 A 
ATOM     88  C   UNL A   1      44.343  25.439  35.069  1.00  0.00     0.173 A 
ATOM     89  F   UNL A   1      46.322  28.302  34.009  1.00  0.00    -0.203 F 
ATOM     90  C   UNL A   1      46.878  26.510  35.432  1.00  0.00     0.198 A 
ATOM     91  C   UNL A   1      45.259  24.800  35.900  1.00  0.00     0.198 A 
ATOM     92  F   UNL A   1      43.123  24.902  34.916  1.00  0.00    -0.203 F 
ATOM     93  F   UNL A   1      48.108  27.018  35.593  1.00  0.00    -0.200 F 
ATOM     94  C   UNL A   1      46.525  25.335  36.081  1.00  0.00     0.200 A 
ATOM     95  F   UNL A   1      44.912  23.672  36.535  1.00  0.00    -0.200 F 
ATOM     96  F   UNL A   1      47.407  24.718  36.879  1.00  0.00    -0.200 F 
ENDBRANCH  63  86
ENDBRANCH  37  38
ENDBRANCH  30  32
ENDBRANCH  29  30
ENDBRANCH  28  29
ENDBRANCH   1  28
TORSDOF 15
ENDMDL
MODEL 2
REMARK VINA RESULT:     -13.3      0.237      1.583
REMARK SMILES Nn1c(S[C@@H](C(=O)OCCOC(=O)c2ccc(-c3c4nc(c(-c5c(F)c(F)c(F)c(F)c5F)c5ccc([nH]5)c(-c5c(F)c(F)c(F)c(F)c5F)c5nc(c(-c6c(F)c(F)c(F)c(F)c6F)c6ccc3[nH]6)C=C5)C=C4)cc2)c2ccccc2)nc2ccc(Br)cc2c1=O
REMARK SMILES IDX 9 1 8 2 6 3 7 4 5 5 4 6 3 7 2 8 91 9 83 10 90 11 92 12 84 13
REMARK SMILES IDX 89 14 85 15 87 16 86 17 88 18 1 19 77 22 78 23 82 24 79 25
REMARK SMILES IDX 81 26 80 27 10 28 11 29 12 30 13 31 14 32 15 33 76 34 16 35
REMARK SMILES IDX 75 36 17 37 18 38 19 39 69 40 20 41 74 42 68 43 70 44 21 45
REMARK SMILES IDX 73 46 67 47 66 48 22 50 54 51 34 52 53 53 35 54 38 55 52 56
REMARK SMILES IDX 71 57 36 58 37 59 51 61 72 62 39 63 23 64 24 65 32 66 25 67
REMARK SMILES IDX 26 68 30 69 33 70 27 71 28 72 31 73 29 74 55 75 56 76 64 77
REMARK SMILES IDX 57 78 58 79 62 80 65 81 59 82 60 83 63 84 61 85 40 86 41 87
REMARK SMILES IDX 49 88 42 89 43 90 47 91 50 92 44 93 45 94 48 95 46 96
REMARK H PARENT 1 20 1 21 70 49 38 60
REMARK Flexibility Score: inf
ROOT
ATOM      1  C   UNL A   1      31.768  28.783  26.086  1.00  0.00     0.274 C 
ENDROOT
BRANCH   1   2
ATOM      2  O   UNL A   1      32.651  28.787  24.938  1.00  0.00    -0.461 OA
BRANCH   2   3
ATOM      3  C   UNL A   1      32.039  28.702  23.721  1.00  0.00     0.324 C 
ATOM      4  O   UNL A   1      32.686  28.732  22.676  1.00  0.00    -0.251 OA
BRANCH   3   5
ATOM      5  C   UNL A   1      30.498  28.738  23.774  1.00  0.00     0.194 C 
BRANCH   5   6
ATOM      6  S   UNL A   1      29.687  27.124  23.522  1.00  0.00    -0.066 SA
BRANCH   6   7
ATOM      7  C   UNL A   1      30.821  25.791  23.489  1.00  0.00     0.191 A 
ATOM      8  N   UNL A   1      31.711  25.535  22.448  1.00  0.00    -0.202 N 
ATOM      9  C   UNL A   1      32.603  24.456  22.473  1.00  0.00     0.280 A 
ATOM     10  N   UNL A   1      30.694  24.978  24.494  1.00  0.00    -0.222 NA
ATOM     11  C   UNL A   1      32.428  23.506  23.578  1.00  0.00     0.069 A 
ATOM     12  O   UNL A   1      33.432  24.239  21.589  1.00  0.00    -0.267 OA
ATOM     13  C   UNL A   1      31.433  23.788  24.510  1.00  0.00     0.079 A 
ATOM     14  C   UNL A   1      33.146  22.304  23.606  1.00  0.00     0.031 A 
ATOM     15  C   UNL A   1      31.118  22.813  25.459  1.00  0.00     0.030 A 
ATOM     16  C   UNL A   1      32.823  21.350  24.563  1.00  0.00     0.018 A 
ATOM     17  C   UNL A   1      31.801  21.591  25.482  1.00  0.00     0.018 A 
ATOM     18  Br  UNL A   1      33.741  19.698  24.589  1.00  0.00    -0.051 Br
BRANCH   8  19
ATOM     19  N   UNL A   1      31.667  26.236  21.235  1.00  0.00    -0.334 N 
ATOM     20  H   UNL A   1      31.186  25.858  20.464  1.00  0.00     0.178 HD
ATOM     21  H   UNL A   1      32.119  27.108  21.153  1.00  0.00     0.178 HD
ENDBRANCH   8  19
ENDBRANCH   6   7
ENDBRANCH   5   6
BRANCH   5  22
ATOM     22  C   UNL A   1      29.768  29.961  23.167  1.00  0.00    -0.023 A 
ATOM     23  C   UNL A   1      29.422  30.063  21.805  1.00  0.00     0.005 A 
ATOM     24  C   UNL A   1      29.434  31.067  23.979  1.00  0.00     0.005 A 
ATOM     25  C   UNL A   1      28.694  31.151  21.306  1.00  0.00     0.000 A 
ATOM     26  C   UNL A   1      28.700  32.151  23.484  1.00  0.00     0.000 A 
ATOM     27  C   UNL A   1      28.315  32.185  22.150  1.00  0.00     0.000 A 
ENDBRANCH   5  22
ENDBRANCH   3   5
ENDBRANCH   2   3
ENDBRANCH   1   2
BRANCH   1  28
ATOM     28  C   UNL A   1      31.788  30.125  26.814  1.00  0.00     0.275 C 
BRANCH  28  29
ATOM     29  O   UNL A   1      32.889  30.913  26.333  1.00  0.00    -0.458 OA
BRANCH  29  30
ATOM     30  C   UNL A   1      33.379  31.833  27.197  1.00  0.00     0.338 C 
ATOM     31  O   UNL A   1      32.824  32.854  27.567  1.00  0.00    -0.246 OA
BRANCH  30  32
ATOM     32  C   UNL A   1      34.700  31.396  27.708  1.00  0.00     0.060 A 
ATOM     33  C   UNL A   1      35.665  32.355  28.017  1.00  0.00     0.016 A 
ATOM     34  C   UNL A   1      34.945  30.057  28.015  1.00  0.00     0.016 A 
ATOM     35  C   UNL A   1      36.860  31.969  28.634  1.00  0.00     0.010 A 
ATOM     36  C   UNL A   1      36.071  29.701  28.758  1.00  0.00     0.010 A 
ATOM     37  C   UNL A   1      37.067  30.641  29.050  1.00  0.00    -0.014 A 
BRANCH  37  38
ATOM     38  C   UNL A   1      38.316  30.243  29.767  1.00  0.00     0.031 A 
ATOM     39  C   UNL A   1      38.568  30.677  31.193  1.00  0.00     0.074 A 
ATOM     40  C   UNL A   1      39.257  29.508  29.138  1.00  0.00     0.049 A 
ATOM     41  N   UNL A   1      39.564  30.367  31.989  1.00  0.00    -0.248 NA
ATOM     42  C   UNL A   1      37.610  31.619  31.793  1.00  0.00     0.031 C 
ATOM     43  C   UNL A   1      39.233  29.116  27.728  1.00  0.00     0.029 A 
ATOM     44  N   UNL A   1      40.416  28.940  29.616  1.00  0.00    -0.354 N 
ATOM     45  C   UNL A   1      39.363  31.095  33.154  1.00  0.00     0.074 A 
ATOM     46  C   UNL A   1      38.202  31.926  32.936  1.00  0.00     0.031 C 
ATOM     47  C   UNL A   1      40.280  28.315  27.473  1.00  0.00     0.029 A 
ATOM     48  C   UNL A   1      41.060  28.146  28.696  1.00  0.00     0.049 A 
ATOM     49  H   UNL A   1      40.752  29.088  30.530  1.00  0.00     0.167 HD
ATOM     50  C   UNL A   1      40.040  31.041  34.326  1.00  0.00     0.037 A 
ATOM     51  C   UNL A   1      42.133  27.342  28.831  1.00  0.00     0.037 A 
ATOM     52  C   UNL A   1      41.137  30.152  34.590  1.00  0.00     0.049 A 
ATOM     53  C   UNL A   1      42.807  27.208  30.169  1.00  0.00     0.074 A 
ATOM     54  C   UNL A   1      41.805  29.936  35.783  1.00  0.00     0.029 A 
ATOM     55  N   UNL A   1      41.717  29.318  33.648  1.00  0.00    -0.354 N 
ATOM     56  N   UNL A   1      42.528  27.809  31.299  1.00  0.00    -0.248 NA
ATOM     57  C   UNL A   1      43.937  26.269  30.255  1.00  0.00     0.031 C 
ATOM     58  C   UNL A   1      42.802  28.982  35.559  1.00  0.00     0.029 A 
ATOM     59  C   UNL A   1      42.736  28.586  34.234  1.00  0.00     0.049 A 
ATOM     60  H   UNL A   1      41.445  29.255  32.704  1.00  0.00     0.167 HD
ATOM     61  C   UNL A   1      43.422  27.302  32.232  1.00  0.00     0.074 A 
ATOM     62  C   UNL A   1      44.252  26.339  31.542  1.00  0.00     0.031 C 
ATOM     63  C   UNL A   1      43.542  27.612  33.546  1.00  0.00     0.037 A 
BRANCH  50  64
ATOM     64  C   UNL A   1      39.570  31.928  35.441  1.00  0.00     0.064 A 
ATOM     65  C   UNL A   1      38.611  31.489  36.366  1.00  0.00     0.173 A 
ATOM     66  C   UNL A   1      40.110  33.211  35.613  1.00  0.00     0.173 A 
ATOM     67  F   UNL A   1      38.058  30.273  36.239  1.00  0.00    -0.203 F 
ATOM     68  C   UNL A   1      38.184  32.313  37.403  1.00  0.00     0.198 A 
ATOM     69  C   UNL A   1      39.702  34.022  36.669  1.00  0.00     0.198 A 
ATOM     70  F   UNL A   1      41.037  33.675  34.762  1.00  0.00    -0.203 F 
ATOM     71  F   UNL A   1      37.229  31.889  38.242  1.00  0.00    -0.200 F 
ATOM     72  C   UNL A   1      38.735  33.576  37.558  1.00  0.00     0.200 A 
ATOM     73  F   UNL A   1      40.244  35.238  36.828  1.00  0.00    -0.200 F 
ATOM     74  F   UNL A   1      38.327  34.366  38.560  1.00  0.00    -0.200 F 
ENDBRANCH  50  64
BRANCH  51  75
ATOM     75  C   UNL A   1      42.577  26.514  27.683  1.00  0.00     0.064 A 
ATOM     76  C   UNL A   1      43.557  26.992  26.800  1.00  0.00     0.173 A 
ATOM     77  C   UNL A   1      42.042  25.242  27.443  1.00  0.00     0.173 A 
ATOM     78  F   UNL A   1      44.080  28.214  26.980  1.00  0.00    -0.203 F 
ATOM     79  C   UNL A   1      43.978  26.231  25.713  1.00  0.00     0.198 A 
ATOM     80  C   UNL A   1      42.478  24.474  26.364  1.00  0.00     0.198 A 
ATOM     81  F   UNL A   1      41.103  24.744  28.259  1.00  0.00    -0.203 F 
ATOM     82  F   UNL A   1      44.892  26.725  24.866  1.00  0.00    -0.200 F 
ATOM     83  C   UNL A   1      43.441  24.971  25.498  1.00  0.00     0.200 A 
ATOM     84  F   UNL A   1      41.961  23.255  26.160  1.00  0.00    -0.200 F 
ATOM     85  F   UNL A   1      43.846  24.239  24.451  1.00  0.00    -0.200 F 
ENDBRANCH  51  75
BRANCH  63  86
ATOM     86  C   UNL A   1      44.581  26.889  34.345  1.00  0.00     0.064 A 
ATOM     87  C   UNL A   1      45.863  27.425  34.529  1.00  0.00     0.173 A 
ATOM     88  C   UNL A   1      44.261  25.695  35.010  1.00  0.00     0.173 A 
ATOM     89  F   UNL A   1      46.217  28.559  33.907  1.00  0.00    -0.203 F 
ATOM     90  C   UNL A   1      46.792  26.785  35.346  1.00  0.00     0.198 A 
ATOM     91  C   UNL A   1      45.186  25.070  35.841  1.00  0.00     0.198 A 
ATOM     92  F   UNL A   1      43.044  25.150  34.870  1.00  0.00    -0.203 F 
ATOM     93  F   UNL A   1      48.020  27.302  35.493  1.00  0.00    -0.200 F 
ATOM     94  C   UNL A   1      46.450  25.615  36.008  1.00  0.00     0.200 A 
ATOM     95  F   UNL A   1      44.850  23.947  36.490  1.00  0.00    -0.200 F 
ATOM     96  F   UNL A   1      47.340  25.011  36.807  1.00  0.00    -0.200 F 
ENDBRANCH  63  86
ENDBRANCH  37  38
ENDBRANCH  30  32
ENDBRANCH  29  30
ENDBRANCH  28  29
ENDBRANCH   1  28
TORSDOF 15
ENDMDL
MODEL 3
REMARK VINA RESULT:     -13.3      4.586     10.341
REMARK SMILES Nn1c(S[C@@H](C(=O)OCCOC(=O)c2ccc(-c3c4nc(c(-c5c(F)c(F)c(F)c(F)c5F)c5ccc([nH]5)c(-c5c(F)c(F)c(F)c(F)c5F)c5nc(c(-c6c(F)c(F)c(F)c(F)c6F)c6ccc3[nH]6)C=C5)C=C4)cc2)c2ccccc2)nc2ccc(Br)cc2c1=O
REMARK SMILES IDX 9 1 8 2 6 3 7 4 5 5 4 6 3 7 2 8 91 9 83 10 90 11 92 12 84 13
REMARK SMILES IDX 89 14 85 15 87 16 86 17 88 18 1 19 77 22 78 23 82 24 79 25
REMARK SMILES IDX 81 26 80 27 10 28 11 29 12 30 13 31 14 32 15 33 76 34 16 35
REMARK SMILES IDX 75 36 17 37 18 38 19 39 69 40 20 41 74 42 68 43 70 44 21 45
REMARK SMILES IDX 73 46 67 47 66 48 22 50 54 51 34 52 53 53 35 54 38 55 52 56
REMARK SMILES IDX 71 57 36 58 37 59 51 61 72 62 39 63 23 64 24 65 32 66 25 67
REMARK SMILES IDX 26 68 30 69 33 70 27 71 28 72 31 73 29 74 55 75 56 76 64 77
REMARK SMILES IDX 57 78 58 79 62 80 65 81 59 82 60 83 63 84 61 85 40 86 41 87
REMARK SMILES IDX 49 88 42 89 43 90 47 91 50 92 44 93 45 94 48 95 46 96
REMARK H PARENT 1 20 1 21 70 49 38 60
REMARK Flexibility Score: inf
ROOT
ATOM      1  C   UNL A   1      35.850  21.745  24.323  1.00  0.00     0.274 C 
ENDROOT
BRANCH   1   2
ATOM      2  O   UNL A   1      35.167  22.021  25.571  1.00  0.00    -0.461 OA
BRANCH   2   3
ATOM      3  C   UNL A   1      34.065  21.254  25.823  1.00  0.00     0.324 C 
ATOM      4  O   UNL A   1      33.569  21.200  26.946  1.00  0.00    -0.251 OA
BRANCH   3   5
ATOM      5  C   UNL A   1      33.622  20.361  24.648  1.00  0.00     0.194 C 
BRANCH   5   6
ATOM      6  S   UNL A   1      32.186  20.984  23.712  1.00  0.00    -0.066 SA
BRANCH   6   7
ATOM      7  C   UNL A   1      31.791  22.644  24.100  1.00  0.00     0.191 A 
ATOM      8  N   UNL A   1      31.150  23.053  25.267  1.00  0.00    -0.202 N 
ATOM      9  C   UNL A   1      30.861  24.398  25.531  1.00  0.00     0.280 A 
ATOM     10  N   UNL A   1      32.060  23.478  23.140  1.00  0.00    -0.222 NA
ATOM     11  C   UNL A   1      31.114  25.335  24.431  1.00  0.00     0.069 A 
ATOM     12  O   UNL A   1      30.341  24.788  26.577  1.00  0.00    -0.267 OA
ATOM     13  C   UNL A   1      31.651  24.813  23.258  1.00  0.00     0.079 A 
ATOM     14  C   UNL A   1      30.701  26.670  24.522  1.00  0.00     0.031 A 
ATOM     15  C   UNL A   1      31.725  25.641  22.136  1.00  0.00     0.030 A 
ATOM     16  C   UNL A   1      30.789  27.480  23.396  1.00  0.00     0.018 A 
ATOM     17  C   UNL A   1      31.286  26.969  22.197  1.00  0.00     0.018 A 
ATOM     18  Br  UNL A   1      30.190  29.270  23.478  1.00  0.00    -0.051 Br
BRANCH   8  19
ATOM     19  N   UNL A   1      30.604  22.142  26.181  1.00  0.00    -0.334 N 
ATOM     20  H   UNL A   1      31.191  21.674  26.820  1.00  0.00     0.178 HD
ATOM     21  H   UNL A   1      29.635  21.968  26.186  1.00  0.00     0.178 HD
ENDBRANCH   8  19
ENDBRANCH   6   7
ENDBRANCH   5   6
BRANCH   5  22
ATOM     22  C   UNL A   1      33.699  18.824  24.821  1.00  0.00    -0.023 A 
ATOM     23  C   UNL A   1      34.806  18.050  24.417  1.00  0.00     0.005 A 
ATOM     24  C   UNL A   1      32.617  18.115  25.385  1.00  0.00     0.005 A 
ATOM     25  C   UNL A   1      34.872  16.672  24.659  1.00  0.00     0.000 A 
ATOM     26  C   UNL A   1      32.684  16.740  25.635  1.00  0.00     0.000 A 
ATOM     27  C   UNL A   1      33.820  16.021  25.287  1.00  0.00     0.000 A 
ENDBRANCH   5  22
ENDBRANCH   3   5
ENDBRANCH   2   3
ENDBRANCH   1   2
BRANCH   1  28
ATOM     28  C   UNL A   1      37.233  21.146  24.562  1.00  0.00     0.275 C 
BRANCH  28  29
ATOM     29  O   UNL A   1      37.672  21.471  25.891  1.00  0.00    -0.458 OA
BRANCH  29  30
ATOM     30  C   UNL A   1      39.002  21.363  26.118  1.00  0.00     0.338 C 
ATOM     31  O   UNL A   1      39.712  20.408  25.855  1.00  0.00    -0.246 OA
BRANCH  30  32
ATOM     32  C   UNL A   1      39.523  22.629  26.688  1.00  0.00     0.060 A 
ATOM     33  C   UNL A   1      40.609  22.590  27.562  1.00  0.00     0.016 A 
ATOM     34  C   UNL A   1      39.036  23.865  26.258  1.00  0.00     0.016 A 
ATOM     35  C   UNL A   1      41.202  23.782  27.994  1.00  0.00     0.010 A 
ATOM     36  C   UNL A   1      39.720  25.039  26.578  1.00  0.00     0.010 A 
ATOM     37  C   UNL A   1      40.792  25.025  27.478  1.00  0.00    -0.014 A 
BRANCH  37  38
ATOM     38  C   UNL A   1      41.468  26.291  27.891  1.00  0.00     0.031 A 
ATOM     39  C   UNL A   1      42.861  26.626  27.406  1.00  0.00     0.074 A 
ATOM     40  C   UNL A   1      40.853  27.150  28.731  1.00  0.00     0.049 A 
ATOM     41  N   UNL A   1      43.571  27.710  27.610  1.00  0.00    -0.248 NA
ATOM     42  C   UNL A   1      43.574  25.595  26.635  1.00  0.00     0.031 C 
ATOM     43  C   UNL A   1      39.567  26.921  29.393  1.00  0.00     0.029 A 
ATOM     44  N   UNL A   1      41.223  28.405  29.158  1.00  0.00    -0.354 N 
ATOM     45  C   UNL A   1      44.807  27.473  27.023  1.00  0.00     0.074 A 
ATOM     46  C   UNL A   1      44.786  26.116  26.529  1.00  0.00     0.031 C 
ATOM     47  C   UNL A   1      39.222  28.022  30.080  1.00  0.00     0.029 A 
ATOM     48  C   UNL A   1      40.265  29.032  29.920  1.00  0.00     0.049 A 
ATOM     49  H   UNL A   1      42.091  28.815  28.938  1.00  0.00     0.167 HD
ATOM     50  C   UNL A   1      45.850  28.321  26.851  1.00  0.00     0.037 A 
ATOM     51  C   UNL A   1      40.214  30.289  30.403  1.00  0.00     0.037 A 
ATOM     52  C   UNL A   1      45.851  29.700  27.252  1.00  0.00     0.049 A 
ATOM     53  C   UNL A   1      41.332  31.252  30.109  1.00  0.00     0.074 A 
ATOM     54  C   UNL A   1      46.810  30.668  27.009  1.00  0.00     0.029 A 
ATOM     55  N   UNL A   1      44.833  30.311  27.965  1.00  0.00    -0.354 N 
ATOM     56  N   UNL A   1      42.441  31.052  29.443  1.00  0.00    -0.248 NA
ATOM     57  C   UNL A   1      41.181  32.624  30.621  1.00  0.00     0.031 C 
ATOM     58  C   UNL A   1      46.380  31.864  27.591  1.00  0.00     0.029 A 
ATOM     59  C   UNL A   1      45.142  31.645  28.173  1.00  0.00     0.049 A 
ATOM     60  H   UNL A   1      44.013  29.865  28.277  1.00  0.00     0.167 HD
ATOM     61  C   UNL A   1      43.104  32.271  29.429  1.00  0.00     0.074 A 
ATOM     62  C   UNL A   1      42.272  33.212  30.147  1.00  0.00     0.031 C 
ATOM     63  C   UNL A   1      44.298  32.580  28.868  1.00  0.00     0.037 A 
BRANCH  50  64
ATOM     64  C   UNL A   1      47.061  27.794  26.139  1.00  0.00     0.064 A 
ATOM     65  C   UNL A   1      47.137  27.790  24.738  1.00  0.00     0.173 A 
ATOM     66  C   UNL A   1      48.171  27.329  26.859  1.00  0.00     0.173 A 
ATOM     67  F   UNL A   1      46.098  28.216  24.004  1.00  0.00    -0.203 F 
ATOM     68  C   UNL A   1      48.266  27.307  24.083  1.00  0.00     0.198 A 
ATOM     69  C   UNL A   1      49.311  26.875  26.200  1.00  0.00     0.198 A 
ATOM     70  F   UNL A   1      48.154  27.322  28.200  1.00  0.00    -0.203 F 
ATOM     71  F   UNL A   1      48.293  27.265  22.743  1.00  0.00    -0.200 F 
ATOM     72  C   UNL A   1      49.355  26.857  24.814  1.00  0.00     0.200 A 
ATOM     73  F   UNL A   1      50.369  26.453  26.907  1.00  0.00    -0.200 F 
ATOM     74  F   UNL A   1      50.443  26.399  24.182  1.00  0.00    -0.200 F 
ENDBRANCH  50  64
BRANCH  51  75
ATOM     75  C   UNL A   1      39.005  30.744  31.133  1.00  0.00     0.064 A 
ATOM     76  C   UNL A   1      37.924  31.304  30.436  1.00  0.00     0.173 A 
ATOM     77  C   UNL A   1      38.900  30.632  32.525  1.00  0.00     0.173 A 
ATOM     78  F   UNL A   1      37.992  31.452  29.104  1.00  0.00    -0.203 F 
ATOM     79  C   UNL A   1      36.787  31.745  31.106  1.00  0.00     0.198 A 
ATOM     80  C   UNL A   1      37.753  31.057  33.193  1.00  0.00     0.198 A 
ATOM     81  F   UNL A   1      39.908  30.103  33.233  1.00  0.00    -0.203 F 
ATOM     82  F   UNL A   1      35.783  32.308  30.420  1.00  0.00    -0.200 F 
ATOM     83  C   UNL A   1      36.700  31.617  32.484  1.00  0.00     0.200 A 
ATOM     84  F   UNL A   1      37.669  30.928  34.524  1.00  0.00    -0.200 F 
ATOM     85  F   UNL A   1      35.605  32.042  33.130  1.00  0.00    -0.200 F 
ENDBRANCH  51  75
BRANCH  63  86
ATOM     86  C   UNL A   1      44.777  33.995  28.972  1.00  0.00     0.064 A 
ATOM     87  C   UNL A   1      45.636  34.401  30.003  1.00  0.00     0.173 A 
ATOM     88  C   UNL A   1      44.447  34.930  27.979  1.00  0.00     0.173 A 
ATOM     89  F   UNL A   1      45.971  33.545  30.978  1.00  0.00    -0.203 F 
ATOM     90  C   UNL A   1      46.142  35.697  30.039  1.00  0.00     0.198 A 
ATOM     91  C   UNL A   1      44.972  36.219  28.009  1.00  0.00     0.198 A 
ATOM     92  F   UNL A   1      43.634  34.585  26.969  1.00  0.00    -0.203 F 
ATOM     93  F   UNL A   1      46.947  36.072  31.044  1.00  0.00    -0.200 F 
ATOM     94  C   UNL A   1      45.819  36.601  29.038  1.00  0.00     0.200 A 
ATOM     95  F   UNL A   1      44.668  37.087  27.034  1.00  0.00    -0.200 F 
ATOM     96  F   UNL A   1      46.322  37.843  29.066  1.00  0.00    -0.200 F 
ENDBRANCH  63  86
ENDBRANCH  37  38
ENDBRANCH  30  32
ENDBRANCH  29  30
ENDBRANCH  28  29
ENDBRANCH   1  28
TORSDOF 15
ENDMDL
