MODEL 1
REMARK VINA RESULT:     -11.8      0.000      0.000
REMARK SMILES Cc1cccc(C[N@@H+](C)C[C@]2(C(=O)OCCOC(=O)c3ccc(-c4c5nc(c(-c6c(F)c(F)c(F)c(F)c6F)c6ccc([nH]6)c(-c6c(F)c(F)c(F)c(F)c6F)c6nc(c(-c7c(F)c(F)c(F)c(F)c7F)c7ccc4[nH]7)C=C6)C=C5)cc3)CCOC2)n1
REMARK SMILES IDX 15 1 14 2 12 3 13 4 11 5 83 6 86 7 84 8 85 9 10 10 8 11 9 12
REMARK SMILES IDX 7 14 6 15 1 16 2 17 3 18 87 19 4 20 5 21 16 22 17 23 18 24
REMARK SMILES IDX 19 25 20 26 21 27 82 28 22 29 81 30 23 31 24 32 25 33 75 34
REMARK SMILES IDX 26 35 80 36 74 37 76 38 27 39 79 40 73 41 72 42 28 44 60 45
REMARK SMILES IDX 40 46 59 47 41 48 44 49 58 50 77 51 42 52 43 53 57 55 78 56
REMARK SMILES IDX 45 57 29 58 30 59 38 60 31 61 32 62 36 63 39 64 33 65 34 66
REMARK SMILES IDX 37 67 35 68 61 69 62 70 70 71 63 72 64 73 68 74 71 75 65 76
REMARK SMILES IDX 66 77 69 78 67 79 46 80 47 81 55 82 48 83 49 84 53 85 56 86
REMARK SMILES IDX 50 87 51 88 54 89 52 90
REMARK H PARENT 8 13 76 43 44 54
REMARK Flexibility Score: inf
ROOT
ATOM      1  C   UNL A   1      31.390  28.516  25.068  1.00  0.00     0.274 C 
ENDROOT
BRANCH   1   2
ATOM      2  O   UNL A   1      32.415  27.577  25.496  1.00  0.00    -0.461 OA
BRANCH   2   3
ATOM      3  C   UNL A   1      32.008  26.397  26.075  1.00  0.00     0.320 C 
ATOM      4  O   UNL A   1      31.059  26.303  26.843  1.00  0.00    -0.251 OA
BRANCH   3   5
ATOM      5  C   UNL A   1      32.762  25.200  25.494  1.00  0.00     0.142 C 
ATOM      6  C   UNL A   1      32.492  25.044  23.997  1.00  0.00     0.055 C 
ATOM      7  C   UNL A   1      34.271  25.462  25.422  1.00  0.00     0.185 C 
ATOM      8  C   UNL A   1      33.685  24.252  23.513  1.00  0.00     0.161 C 
ATOM      9  O   UNL A   1      34.783  24.656  24.340  1.00  0.00    -0.380 OA
BRANCH   5  10
ATOM     10  C   UNL A   1      32.597  23.914  26.368  1.00  0.00     0.283 C 
BRANCH  10  11
ATOM     11  N   UNL A   1      31.915  22.728  25.841  1.00  0.00    -0.331 N 
ATOM     12  C   UNL A   1      30.545  22.657  26.344  1.00  0.00     0.333 C 
ATOM     13  H   UNL A   1      31.782  22.795  24.833  1.00  0.00     0.348 HD
BRANCH  11  14
ATOM     14  C   UNL A   1      32.768  21.526  25.969  1.00  0.00     0.319 C 
BRANCH  14  15
ATOM     15  C   UNL A   1      32.489  20.363  25.032  1.00  0.00     0.095 A 
ATOM     16  C   UNL A   1      32.556  16.701  25.279  1.00  0.00     0.067 C 
ATOM     17  C   UNL A   1      32.453  18.071  24.690  1.00  0.00     0.038 A 
ATOM     18  C   UNL A   1      32.385  18.236  23.311  1.00  0.00     0.023 A 
ATOM     19  N   UNL A   1      32.521  19.111  25.553  1.00  0.00    -0.252 NA
ATOM     20  C   UNL A   1      32.354  19.522  22.791  1.00  0.00     0.004 A 
ATOM     21  C   UNL A   1      32.405  20.603  23.660  1.00  0.00     0.030 A 
ENDBRANCH  14  15
ENDBRANCH  11  14
ENDBRANCH  10  11
ENDBRANCH   5  10
ENDBRANCH   3   5
ENDBRANCH   2   3
ENDBRANCH   1   2
BRANCH   1  22
ATOM     22  C   UNL A   1      31.669  29.952  25.598  1.00  0.00     0.275 C 
BRANCH  22  23
ATOM     23  O   UNL A   1      33.077  30.233  25.842  1.00  0.00    -0.458 OA
BRANCH  23  24
ATOM     24  C   UNL A   1      33.338  31.116  26.863  1.00  0.00     0.338 C 
ATOM     25  O   UNL A   1      32.575  32.002  27.225  1.00  0.00    -0.246 OA
BRANCH  24  26
ATOM     26  C   UNL A   1      34.664  30.886  27.539  1.00  0.00     0.060 A 
ATOM     27  C   UNL A   1      35.040  29.615  27.938  1.00  0.00     0.016 A 
ATOM     28  C   UNL A   1      35.533  31.924  27.883  1.00  0.00     0.016 A 
ATOM     29  C   UNL A   1      36.191  29.325  28.652  1.00  0.00     0.010 A 
ATOM     30  C   UNL A   1      36.736  31.654  28.583  1.00  0.00     0.010 A 
ATOM     31  C   UNL A   1      37.070  30.345  28.976  1.00  0.00    -0.014 A 
BRANCH  31  32
ATOM     32  C   UNL A   1      38.232  29.982  29.824  1.00  0.00     0.031 A 
ATOM     33  C   UNL A   1      39.365  29.215  29.215  1.00  0.00     0.074 A 
ATOM     34  C   UNL A   1      38.386  30.524  31.049  1.00  0.00     0.049 A 
ATOM     35  N   UNL A   1      40.415  28.689  29.790  1.00  0.00    -0.248 NA
ATOM     36  C   UNL A   1      39.326  29.042  27.755  1.00  0.00     0.031 C 
ATOM     37  C   UNL A   1      37.468  31.486  31.661  1.00  0.00     0.029 A 
ATOM     38  N   UNL A   1      39.394  30.396  31.974  1.00  0.00    -0.354 N 
ATOM     39  C   UNL A   1      41.120  28.061  28.776  1.00  0.00     0.074 A 
ATOM     40  C   UNL A   1      40.414  28.318  27.539  1.00  0.00     0.031 C 
ATOM     41  C   UNL A   1      37.979  31.891  32.834  1.00  0.00     0.029 A 
ATOM     42  C   UNL A   1      39.201  31.149  33.108  1.00  0.00     0.049 A 
ATOM     43  H   UNL A   1      40.180  29.819  31.838  1.00  0.00     0.167 HD
ATOM     44  C   UNL A   1      42.233  27.299  28.889  1.00  0.00     0.037 A 
ATOM     45  C   UNL A   1      39.901  31.198  34.259  1.00  0.00     0.037 A 
ATOM     46  C   UNL A   1      42.924  27.083  30.133  1.00  0.00     0.049 A 
ATOM     47  C   UNL A   1      41.079  30.274  34.401  1.00  0.00     0.074 A 
ATOM     48  C   UNL A   1      43.968  26.224  30.415  1.00  0.00     0.029 A 
ATOM     49  N   UNL A   1      42.638  27.766  31.309  1.00  0.00    -0.354 N 
ATOM     50  N   UNL A   1      41.626  29.494  33.500  1.00  0.00    -0.248 NA
ATOM     51  C   UNL A   1      41.701  30.190  35.727  1.00  0.00     0.031 C 
ATOM     52  C   UNL A   1      44.290  26.361  31.772  1.00  0.00     0.029 A 
ATOM     53  C   UNL A   1      43.475  27.338  32.323  1.00  0.00     0.049 A 
ATOM     54  H   UNL A   1      41.939  28.455  31.406  1.00  0.00     0.167 HD
ATOM     55  C   UNL A   1      42.642  28.812  34.150  1.00  0.00     0.074 A 
ATOM     56  C   UNL A   1      42.666  29.306  35.514  1.00  0.00     0.031 C 
ATOM     57  C   UNL A   1      43.466  27.847  33.672  1.00  0.00     0.037 A 
BRANCH  44  58
ATOM     58  C   UNL A   1      42.659  26.543  27.666  1.00  0.00     0.064 A 
ATOM     59  C   UNL A   1      42.166  25.269  27.355  1.00  0.00     0.173 A 
ATOM     60  C   UNL A   1      43.633  27.097  26.820  1.00  0.00     0.173 A 
ATOM     61  F   UNL A   1      41.260  24.681  28.151  1.00  0.00    -0.203 F 
ATOM     62  C   UNL A   1      42.658  24.563  26.257  1.00  0.00     0.198 A 
ATOM     63  C   UNL A   1      44.103  26.399  25.712  1.00  0.00     0.198 A 
ATOM     64  F   UNL A   1      44.143  28.309  27.080  1.00  0.00    -0.203 F 
ATOM     65  F   UNL A   1      42.219  23.320  26.010  1.00  0.00    -0.200 F 
ATOM     66  C   UNL A   1      43.623  25.128  25.437  1.00  0.00     0.200 A 
ATOM     67  F   UNL A   1      45.038  26.948  24.924  1.00  0.00    -0.200 F 
ATOM     68  F   UNL A   1      44.105  24.441  24.393  1.00  0.00    -0.200 F 
ENDBRANCH  44  58
BRANCH  45  69
ATOM     69  C   UNL A   1      39.455  32.070  35.384  1.00  0.00     0.064 A 
ATOM     70  C   UNL A   1      38.570  31.601  36.368  1.00  0.00     0.173 A 
ATOM     71  C   UNL A   1      39.905  33.394  35.505  1.00  0.00     0.173 A 
ATOM     72  F   UNL A   1      38.075  30.358  36.287  1.00  0.00    -0.203 F 
ATOM     73  C   UNL A   1      38.162  32.419  37.423  1.00  0.00     0.198 A 
ATOM     74  C   UNL A   1      39.531  34.197  36.581  1.00  0.00     0.198 A 
ATOM     75  F   UNL A   1      40.736  33.910  34.586  1.00  0.00    -0.203 F 
ATOM     76  F   UNL A   1      37.285  31.958  38.326  1.00  0.00    -0.200 F 
ATOM     77  C   UNL A   1      38.654  33.711  37.536  1.00  0.00     0.200 A 
ATOM     78  F   UNL A   1      40.023  35.438  36.692  1.00  0.00    -0.200 F 
ATOM     79  F   UNL A   1      38.278  34.488  38.561  1.00  0.00    -0.200 F 
ENDBRANCH  45  69
BRANCH  57  80
ATOM     80  C   UNL A   1      44.452  27.269  34.639  1.00  0.00     0.064 A 
ATOM     81  C   UNL A   1      45.706  27.864  34.843  1.00  0.00     0.173 A 
ATOM     82  C   UNL A   1      44.130  26.126  35.383  1.00  0.00     0.173 A 
ATOM     83  F   UNL A   1      46.061  28.948  34.137  1.00  0.00    -0.203 F 
ATOM     84  C   UNL A   1      46.614  27.320  35.745  1.00  0.00     0.198 A 
ATOM     85  C   UNL A   1      45.032  25.599  36.302  1.00  0.00     0.198 A 
ATOM     86  F   UNL A   1      42.943  25.525  35.222  1.00  0.00    -0.203 F 
ATOM     87  F   UNL A   1      47.824  27.877  35.894  1.00  0.00    -0.200 F 
ATOM     88  C   UNL A   1      46.275  26.192  36.478  1.00  0.00     0.200 A 
ATOM     89  F   UNL A   1      44.702  24.513  37.015  1.00  0.00    -0.200 F 
ATOM     90  F   UNL A   1      47.150  25.670  37.347  1.00  0.00    -0.200 F 
ENDBRANCH  57  80
ENDBRANCH  31  32
ENDBRANCH  24  26
ENDBRANCH  23  24
ENDBRANCH  22  23
ENDBRANCH   1  22
TORSDOF 15
ENDMDL
MODEL 2
REMARK VINA RESULT:     -11.7      4.190      9.476
REMARK SMILES Cc1cccc(C[N@@H+](C)C[C@]2(C(=O)OCCOC(=O)c3ccc(-c4c5nc(c(-c6c(F)c(F)c(F)c(F)c6F)c6ccc([nH]6)c(-c6c(F)c(F)c(F)c(F)c6F)c6nc(c(-c7c(F)c(F)c(F)c(F)c7F)c7ccc4[nH]7)C=C6)C=C5)cc3)CCOC2)n1
REMARK SMILES IDX 15 1 14 2 12 3 13 4 11 5 83 6 86 7 84 8 85 9 10 10 8 11 9 12
REMARK SMILES IDX 7 14 6 15 1 16 2 17 3 18 87 19 4 20 5 21 16 22 17 23 18 24
REMARK SMILES IDX 19 25 20 26 21 27 82 28 22 29 81 30 23 31 24 32 25 33 75 34
REMARK SMILES IDX 26 35 80 36 74 37 76 38 27 39 79 40 73 41 72 42 28 44 60 45
REMARK SMILES IDX 40 46 59 47 41 48 44 49 58 50 77 51 42 52 43 53 57 55 78 56
REMARK SMILES IDX 45 57 29 58 30 59 38 60 31 61 32 62 36 63 39 64 33 65 34 66
REMARK SMILES IDX 37 67 35 68 61 69 62 70 70 71 63 72 64 73 68 74 71 75 65 76
REMARK SMILES IDX 66 77 69 78 67 79 46 80 47 81 55 82 48 83 49 84 53 85 56 86
REMARK SMILES IDX 50 87 51 88 54 89 52 90
REMARK H PARENT 8 13 76 43 44 54
REMARK Flexibility Score: inf
ROOT
ATOM      1  C   UNL A   1      36.283  22.958  23.774  1.00  0.00     0.274 C 
ENDROOT
BRANCH   1   2
ATOM      2  O   UNL A   1      35.053  23.225  24.502  1.00  0.00    -0.461 OA
BRANCH   2   3
ATOM      3  C   UNL A   1      34.024  23.840  23.828  1.00  0.00     0.320 C 
ATOM      4  O   UNL A   1      34.107  24.248  22.675  1.00  0.00    -0.251 OA
BRANCH   3   5
ATOM      5  C   UNL A   1      32.719  23.780  24.623  1.00  0.00     0.142 C 
ATOM      6  C   UNL A   1      32.962  24.020  26.113  1.00  0.00     0.055 C 
ATOM      7  C   UNL A   1      31.830  24.997  24.343  1.00  0.00     0.185 C 
ATOM      8  C   UNL A   1      31.613  24.485  26.611  1.00  0.00     0.161 C 
ATOM      9  O   UNL A   1      31.021  25.202  25.520  1.00  0.00    -0.380 OA
BRANCH   5  10
ATOM     10  C   UNL A   1      31.855  22.531  24.251  1.00  0.00     0.283 C 
BRANCH  10  11
ATOM     11  N   UNL A   1      32.487  21.254  23.904  1.00  0.00    -0.331 N 
ATOM     12  C   UNL A   1      32.072  20.822  22.571  1.00  0.00     0.333 C 
ATOM     13  H   UNL A   1      33.496  21.356  23.804  1.00  0.00     0.348 HD
BRANCH  11  14
ATOM     14  C   UNL A   1      32.374  20.287  25.017  1.00  0.00     0.319 C 
BRANCH  14  15
ATOM     15  C   UNL A   1      33.032  18.929  24.838  1.00  0.00     0.095 A 
ATOM     16  C   UNL A   1      32.224  15.465  25.749  1.00  0.00     0.067 C 
ATOM     17  C   UNL A   1      32.988  16.648  25.245  1.00  0.00     0.038 A 
ATOM     18  C   UNL A   1      34.328  16.518  24.898  1.00  0.00     0.023 A 
ATOM     19  N   UNL A   1      32.337  17.834  25.236  1.00  0.00    -0.252 NA
ATOM     20  C   UNL A   1      35.027  17.647  24.493  1.00  0.00     0.004 A 
ATOM     21  C   UNL A   1      34.374  18.870  24.460  1.00  0.00     0.030 A 
ENDBRANCH  14  15
ENDBRANCH  11  14
ENDBRANCH  10  11
ENDBRANCH   5  10
ENDBRANCH   3   5
ENDBRANCH   2   3
ENDBRANCH   1   2
BRANCH   1  22
ATOM     22  C   UNL A   1      37.010  21.695  24.318  1.00  0.00     0.275 C 
BRANCH  22  23
ATOM     23  O   UNL A   1      37.356  21.771  25.731  1.00  0.00    -0.458 OA
BRANCH  23  24
ATOM     24  C   UNL A   1      38.679  21.549  26.031  1.00  0.00     0.338 C 
ATOM     25  O   UNL A   1      39.261  20.487  25.859  1.00  0.00    -0.246 OA
BRANCH  24  26
ATOM     26  C   UNL A   1      39.386  22.760  26.582  1.00  0.00     0.060 A 
ATOM     27  C   UNL A   1      39.069  24.029  26.127  1.00  0.00     0.016 A 
ATOM     28  C   UNL A   1      40.442  22.676  27.491  1.00  0.00     0.016 A 
ATOM     29  C   UNL A   1      39.732  25.185  26.503  1.00  0.00     0.010 A 
ATOM     30  C   UNL A   1      41.119  23.846  27.920  1.00  0.00     0.010 A 
ATOM     31  C   UNL A   1      40.765  25.113  27.421  1.00  0.00    -0.014 A 
BRANCH  31  32
ATOM     32  C   UNL A   1      41.496  26.373  27.706  1.00  0.00     0.031 A 
ATOM     33  C   UNL A   1      40.887  27.372  28.639  1.00  0.00     0.074 A 
ATOM     34  C   UNL A   1      42.781  26.524  27.326  1.00  0.00     0.049 A 
ATOM     35  N   UNL A   1      41.285  28.582  28.935  1.00  0.00    -0.248 NA
ATOM     36  C   UNL A   1      39.682  26.939  29.363  1.00  0.00     0.031 C 
ATOM     37  C   UNL A   1      43.570  25.513  26.620  1.00  0.00     0.029 A 
ATOM     38  N   UNL A   1      43.670  27.551  27.531  1.00  0.00    -0.354 N 
ATOM     39  C   UNL A   1      40.339  29.080  29.818  1.00  0.00     0.074 A 
ATOM     40  C   UNL A   1      39.380  28.024  30.060  1.00  0.00     0.031 C 
ATOM     41  C   UNL A   1      44.831  25.955  26.492  1.00  0.00     0.029 A 
ATOM     42  C   UNL A   1      44.920  27.311  27.011  1.00  0.00     0.049 A 
ATOM     43  H   UNL A   1      43.434  28.382  28.004  1.00  0.00     0.167 HD
ATOM     44  C   UNL A   1      40.266  30.328  30.338  1.00  0.00     0.037 A 
ATOM     45  C   UNL A   1      46.000  28.112  26.917  1.00  0.00     0.037 A 
ATOM     46  C   UNL A   1      41.253  31.347  30.094  1.00  0.00     0.049 A 
ATOM     47  C   UNL A   1      45.868  29.525  27.414  1.00  0.00     0.074 A 
ATOM     48  C   UNL A   1      41.228  32.687  30.434  1.00  0.00     0.029 A 
ATOM     49  N   UNL A   1      42.467  31.118  29.457  1.00  0.00    -0.354 N 
ATOM     50  N   UNL A   1      44.872  30.080  28.063  1.00  0.00    -0.248 NA
ATOM     51  C   UNL A   1      46.977  30.440  27.118  1.00  0.00     0.031 C 
ATOM     52  C   UNL A   1      42.412  33.275  29.970  1.00  0.00     0.029 A 
ATOM     53  C   UNL A   1      43.193  32.292  29.380  1.00  0.00     0.049 A 
ATOM     54  H   UNL A   1      42.765  30.245  29.110  1.00  0.00     0.167 HD
ATOM     55  C   UNL A   1      45.222  31.409  28.237  1.00  0.00     0.074 A 
ATOM     56  C   UNL A   1      46.546  31.568  27.666  1.00  0.00     0.031 C 
ATOM     57  C   UNL A   1      44.506  32.416  28.797  1.00  0.00     0.037 A 
BRANCH  44  58
ATOM     58  C   UNL A   1      39.013  30.676  31.081  1.00  0.00     0.064 A 
ATOM     59  C   UNL A   1      37.869  31.176  30.444  1.00  0.00     0.173 A 
ATOM     60  C   UNL A   1      38.987  30.555  32.480  1.00  0.00     0.173 A 
ATOM     61  F   UNL A   1      37.855  31.343  29.113  1.00  0.00    -0.203 F 
ATOM     62  C   UNL A   1      36.756  31.572  31.185  1.00  0.00     0.198 A 
ATOM     63  C   UNL A   1      37.866  30.930  33.213  1.00  0.00     0.198 A 
ATOM     64  F   UNL A   1      40.060  30.091  33.138  1.00  0.00    -0.203 F 
ATOM     65  F   UNL A   1      35.695  32.106  30.564  1.00  0.00    -0.200 F 
ATOM     66  C   UNL A   1      36.755  31.448  32.567  1.00  0.00     0.200 A 
ATOM     67  F   UNL A   1      37.870  30.810  34.549  1.00  0.00    -0.200 F 
ATOM     68  F   UNL A   1      35.690  31.845  33.277  1.00  0.00    -0.200 F 
ENDBRANCH  44  58
BRANCH  45  69
ATOM     69  C   UNL A   1      47.247  27.634  26.251  1.00  0.00     0.064 A 
ATOM     70  C   UNL A   1      47.410  27.712  24.860  1.00  0.00     0.173 A 
ATOM     71  C   UNL A   1      48.307  27.089  26.993  1.00  0.00     0.173 A 
ATOM     72  F   UNL A   1      46.419  28.189  24.094  1.00  0.00    -0.203 F 
ATOM     73  C   UNL A   1      48.582  27.270  24.244  1.00  0.00     0.198 A 
ATOM     74  C   UNL A   1      49.493  26.686  26.382  1.00  0.00     0.198 A 
ATOM     75  F   UNL A   1      48.206  26.967  28.325  1.00  0.00    -0.203 F 
ATOM     76  F   UNL A   1      48.695  27.320  22.909  1.00  0.00    -0.200 F 
ATOM     77  C   UNL A   1      49.627  26.771  25.006  1.00  0.00     0.200 A 
ATOM     78  F   UNL A   1      50.505  26.221  27.127  1.00  0.00    -0.200 F 
ATOM     79  F   UNL A   1      50.760  26.366  24.415  1.00  0.00    -0.200 F 
ENDBRANCH  45  69
BRANCH  57  80
ATOM     80  C   UNL A   1      45.146  33.768  28.808  1.00  0.00     0.064 A 
ATOM     81  C   UNL A   1      45.985  34.168  29.859  1.00  0.00     0.173 A 
ATOM     82  C   UNL A   1      44.939  34.661  27.748  1.00  0.00     0.173 A 
ATOM     83  F   UNL A   1      46.195  33.352  30.902  1.00  0.00    -0.203 F 
ATOM     84  C   UNL A   1      46.577  35.427  29.858  1.00  0.00     0.198 A 
ATOM     85  C   UNL A   1      45.552  35.910  27.740  1.00  0.00     0.198 A 
ATOM     86  F   UNL A   1      44.146  34.320  26.722  1.00  0.00    -0.203 F 
ATOM     87  F   UNL A   1      47.339  35.807  30.893  1.00  0.00    -0.200 F 
ATOM     88  C   UNL A   1      46.365  36.294  28.797  1.00  0.00     0.200 A 
ATOM     89  F   UNL A   1      45.352  36.745  26.711  1.00  0.00    -0.200 F 
ATOM     90  F   UNL A   1      46.936  37.506  28.797  1.00  0.00    -0.200 F 
ENDBRANCH  57  80
ENDBRANCH  31  32
ENDBRANCH  24  26
ENDBRANCH  23  24
ENDBRANCH  22  23
ENDBRANCH   1  22
TORSDOF 15
ENDMDL
MODEL 3
REMARK VINA RESULT:     -11.7      2.173      4.187
REMARK SMILES Cc1cccc(C[N@@H+](C)C[C@]2(C(=O)OCCOC(=O)c3ccc(-c4c5nc(c(-c6c(F)c(F)c(F)c(F)c6F)c6ccc([nH]6)c(-c6c(F)c(F)c(F)c(F)c6F)c6nc(c(-c7c(F)c(F)c(F)c(F)c7F)c7ccc4[nH]7)C=C6)C=C5)cc3)CCOC2)n1
REMARK SMILES IDX 15 1 14 2 12 3 13 4 11 5 83 6 86 7 84 8 85 9 10 10 8 11 9 12
REMARK SMILES IDX 7 14 6 15 1 16 2 17 3 18 87 19 4 20 5 21 16 22 17 23 18 24
REMARK SMILES IDX 19 25 20 26 21 27 82 28 22 29 81 30 23 31 24 32 25 33 75 34
REMARK SMILES IDX 26 35 80 36 74 37 76 38 27 39 79 40 73 41 72 42 28 44 60 45
REMARK SMILES IDX 40 46 59 47 41 48 44 49 58 50 77 51 42 52 43 53 57 55 78 56
REMARK SMILES IDX 45 57 29 58 30 59 38 60 31 61 32 62 36 63 39 64 33 65 34 66
REMARK SMILES IDX 37 67 35 68 61 69 62 70 70 71 63 72 64 73 68 74 71 75 65 76
REMARK SMILES IDX 66 77 69 78 67 79 46 80 47 81 55 82 48 83 49 84 53 85 56 86
REMARK SMILES IDX 50 87 51 88 54 89 52 90
REMARK H PARENT 8 13 76 43 44 54
REMARK Flexibility Score: inf
ROOT
ATOM      1  C   UNL A   1      32.684  27.673  26.628  1.00  0.00     0.274 C 
ENDROOT
BRANCH   1   2
ATOM      2  O   UNL A   1      31.713  26.831  25.947  1.00  0.00    -0.461 OA
BRANCH   2   3
ATOM      3  C   UNL A   1      32.177  25.726  25.272  1.00  0.00     0.320 C 
ATOM      4  O   UNL A   1      32.346  24.629  25.789  1.00  0.00    -0.251 OA
BRANCH   3   5
ATOM      5  C   UNL A   1      32.271  25.987  23.768  1.00  0.00     0.142 C 
ATOM      6  C   UNL A   1      33.283  27.089  23.456  1.00  0.00     0.055 C 
ATOM      7  C   UNL A   1      32.964  24.833  23.036  1.00  0.00     0.185 C 
ATOM      8  C   UNL A   1      33.655  26.818  22.017  1.00  0.00     0.161 C 
ATOM      9  O   UNL A   1      33.576  25.396  21.856  1.00  0.00    -0.380 OA
BRANCH   5  10
ATOM     10  C   UNL A   1      30.863  26.127  23.101  1.00  0.00     0.283 C 
BRANCH  10  11
ATOM     11  N   UNL A   1      30.019  27.297  23.360  1.00  0.00    -0.331 N 
ATOM     12  C   UNL A   1      28.661  26.885  23.705  1.00  0.00     0.333 C 
ATOM     13  H   UNL A   1      30.323  27.795  24.197  1.00  0.00     0.348 HD
BRANCH  11  14
ATOM     14  C   UNL A   1      30.191  28.319  22.304  1.00  0.00     0.319 C 
BRANCH  14  15
ATOM     15  C   UNL A   1      29.435  29.627  22.461  1.00  0.00     0.095 A 
ATOM     16  C   UNL A   1      27.864  32.055  20.201  1.00  0.00     0.067 C 
ATOM     17  C   UNL A   1      28.388  31.433  21.454  1.00  0.00     0.038 A 
ATOM     18  C   UNL A   1      28.416  32.162  22.638  1.00  0.00     0.023 A 
ATOM     19  N   UNL A   1      28.901  30.186  21.347  1.00  0.00    -0.252 NA
ATOM     20  C   UNL A   1      28.966  31.579  23.771  1.00  0.00     0.004 A 
ATOM     21  C   UNL A   1      29.482  30.294  23.686  1.00  0.00     0.030 A 
ENDBRANCH  14  15
ENDBRANCH  11  14
ENDBRANCH  10  11
ENDBRANCH   5  10
ENDBRANCH   3   5
ENDBRANCH   2   3
ENDBRANCH   1   2
BRANCH   1  22
ATOM     22  C   UNL A   1      32.206  29.151  26.708  1.00  0.00     0.275 C 
BRANCH  22  23
ATOM     23  O   UNL A   1      33.159  30.114  26.175  1.00  0.00    -0.458 OA
BRANCH  23  24
ATOM     24  C   UNL A   1      33.534  31.118  27.037  1.00  0.00     0.338 C 
ATOM     25  O   UNL A   1      32.868  32.117  27.268  1.00  0.00    -0.246 OA
BRANCH  24  26
ATOM     26  C   UNL A   1      34.858  30.872  27.714  1.00  0.00     0.060 A 
ATOM     27  C   UNL A   1      35.174  29.619  28.208  1.00  0.00     0.016 A 
ATOM     28  C   UNL A   1      35.783  31.888  27.964  1.00  0.00     0.016 A 
ATOM     29  C   UNL A   1      36.320  29.327  28.929  1.00  0.00     0.010 A 
ATOM     30  C   UNL A   1      36.981  31.612  28.671  1.00  0.00     0.010 A 
ATOM     31  C   UNL A   1      37.254  30.321  29.162  1.00  0.00    -0.014 A 
BRANCH  31  32
ATOM     32  C   UNL A   1      38.409  29.967  30.023  1.00  0.00     0.031 A 
ATOM     33  C   UNL A   1      39.548  29.197  29.430  1.00  0.00     0.074 A 
ATOM     34  C   UNL A   1      38.551  30.517  31.245  1.00  0.00     0.049 A 
ATOM     35  N   UNL A   1      40.594  28.677  30.018  1.00  0.00    -0.248 NA
ATOM     36  C   UNL A   1      39.523  29.014  27.971  1.00  0.00     0.031 C 
ATOM     37  C   UNL A   1      37.627  31.482  31.843  1.00  0.00     0.029 A 
ATOM     38  N   UNL A   1      39.551  30.397  32.180  1.00  0.00    -0.354 N 
ATOM     39  C   UNL A   1      41.309  28.042  29.014  1.00  0.00     0.074 A 
ATOM     40  C   UNL A   1      40.614  28.290  27.769  1.00  0.00     0.031 C 
ATOM     41  C   UNL A   1      38.126  31.895  33.018  1.00  0.00     0.029 A 
ATOM     42  C   UNL A   1      39.346  31.157  33.307  1.00  0.00     0.049 A 
ATOM     43  H   UNL A   1      40.339  29.820  32.056  1.00  0.00     0.167 HD
ATOM     44  C   UNL A   1      42.422  27.282  29.142  1.00  0.00     0.037 A 
ATOM     45  C   UNL A   1      40.036  31.215  34.464  1.00  0.00     0.037 A 
ATOM     46  C   UNL A   1      43.102  27.077  30.394  1.00  0.00     0.049 A 
ATOM     47  C   UNL A   1      41.214  30.294  34.623  1.00  0.00     0.074 A 
ATOM     48  C   UNL A   1      44.145  26.221  30.692  1.00  0.00     0.029 A 
ATOM     49  N   UNL A   1      42.804  27.768  31.563  1.00  0.00    -0.354 N 
ATOM     50  N   UNL A   1      41.770  29.508  33.732  1.00  0.00    -0.248 NA
ATOM     51  C   UNL A   1      41.824  30.220  35.956  1.00  0.00     0.031 C 
ATOM     52  C   UNL A   1      44.454  26.368  32.051  1.00  0.00     0.029 A 
ATOM     53  C   UNL A   1      43.633  27.348  32.588  1.00  0.00     0.049 A 
ATOM     54  H   UNL A   1      42.104  28.455  31.649  1.00  0.00     0.167 HD
ATOM     55  C   UNL A   1      42.781  28.833  34.397  1.00  0.00     0.074 A 
ATOM     56  C   UNL A   1      42.793  29.336  35.757  1.00  0.00     0.031 C 
ATOM     57  C   UNL A   1      43.611  27.865  33.933  1.00  0.00     0.037 A 
BRANCH  44  58
ATOM     58  C   UNL A   1      42.860  26.519  27.929  1.00  0.00     0.064 A 
ATOM     59  C   UNL A   1      43.780  27.031  27.005  1.00  0.00     0.173 A 
ATOM     60  C   UNL A   1      42.291  25.263  27.665  1.00  0.00     0.173 A 
ATOM     61  F   UNL A   1      44.327  28.242  27.194  1.00  0.00    -0.203 F 
ATOM     62  C   UNL A   1      44.090  26.325  25.842  1.00  0.00     0.198 A 
ATOM     63  C   UNL A   1      42.620  24.552  26.515  1.00  0.00     0.198 A 
ATOM     64  F   UNL A   1      41.397  24.734  28.514  1.00  0.00    -0.203 F 
ATOM     65  F   UNL A   1      44.925  26.859  24.939  1.00  0.00    -0.200 F 
ATOM     66  C   UNL A   1      43.511  25.088  25.599  1.00  0.00     0.200 A 
ATOM     67  F   UNL A   1      42.057  23.358  26.284  1.00  0.00    -0.200 F 
ATOM     68  F   UNL A   1      43.799  24.420  24.474  1.00  0.00    -0.200 F 
ENDBRANCH  44  58
BRANCH  45  69
ATOM     69  C   UNL A   1      39.578  32.094  35.580  1.00  0.00     0.064 A 
ATOM     70  C   UNL A   1      38.627  31.657  36.513  1.00  0.00     0.173 A 
ATOM     71  C   UNL A   1      40.085  33.394  35.740  1.00  0.00     0.173 A 
ATOM     72  F   UNL A   1      38.078  30.440  36.392  1.00  0.00    -0.203 F 
ATOM     73  C   UNL A   1      38.208  32.481  37.560  1.00  0.00     0.198 A 
ATOM     74  C   UNL A   1      39.698  34.201  36.808  1.00  0.00     0.198 A 
ATOM     75  F   UNL A   1      40.982  33.880  34.869  1.00  0.00    -0.203 F 
ATOM     76  F   UNL A   1      37.268  32.053  38.414  1.00  0.00    -0.200 F 
ATOM     77  C   UNL A   1      38.754  33.747  37.714  1.00  0.00     0.200 A 
ATOM     78  F   UNL A   1      40.243  35.415  36.960  1.00  0.00    -0.200 F 
ATOM     79  F   UNL A   1      38.368  34.529  38.730  1.00  0.00    -0.200 F 
ENDBRANCH  45  69
BRANCH  57  80
ATOM     80  C   UNL A   1      44.589  27.296  34.912  1.00  0.00     0.064 A 
ATOM     81  C   UNL A   1      45.852  27.877  35.102  1.00  0.00     0.173 A 
ATOM     82  C   UNL A   1      44.251  26.175  35.683  1.00  0.00     0.173 A 
ATOM     83  F   UNL A   1      46.222  28.939  34.372  1.00  0.00    -0.203 F 
ATOM     84  C   UNL A   1      46.752  27.341  36.017  1.00  0.00     0.198 A 
ATOM     85  C   UNL A   1      45.146  25.657  36.614  1.00  0.00     0.198 A 
ATOM     86  F   UNL A   1      43.055  25.589  35.536  1.00  0.00    -0.203 F 
ATOM     87  F   UNL A   1      47.970  27.884  36.152  1.00  0.00    -0.200 F 
ATOM     88  C   UNL A   1      46.397  26.235  36.775  1.00  0.00     0.200 A 
ATOM     89  F   UNL A   1      44.800  24.593  37.352  1.00  0.00    -0.200 F 
ATOM     90  F   UNL A   1      47.265  25.720  37.656  1.00  0.00    -0.200 F 
ENDBRANCH  57  80
ENDBRANCH  31  32
ENDBRANCH  24  26
ENDBRANCH  23  24
ENDBRANCH  22  23
ENDBRANCH   1  22
TORSDOF 15
ENDMDL
