MODEL 1
REMARK VINA RESULT:     -12.4      0.000      0.000
REMARK SMILES CCc1c(Cl)ccc2c1C=C(C(=O)OCCOC(=O)c1ccc(-c3c4nc(c(-c5c(F)c(F)c(F)c(F)c5F)c5ccc([nH]5)c(-c5c(F)c(F)c(F)c(F)c5F)c5nc(c(-c6c(F)c(F)c(F)c(F)c6F)c6ccc3[nH]6)C=C5)C=C4)cc1)[C@@H](C(F)(F)F)O2
REMARK SMILES IDX 16 1 15 2 14 3 12 4 13 5 11 6 3 7 4 8 9 9 5 10 6 11 8 12
REMARK SMILES IDX 10 13 7 14 88 15 83 16 2 17 1 18 84 19 85 20 86 21 87 22
REMARK SMILES IDX 17 23 18 24 19 25 20 26 21 27 82 28 22 29 81 30 23 31 24 32
REMARK SMILES IDX 25 33 75 34 26 35 80 36 74 37 76 38 27 39 79 40 73 41 72 42
REMARK SMILES IDX 28 44 60 45 40 46 59 47 41 48 44 49 58 50 77 51 42 52 43 53
REMARK SMILES IDX 57 55 78 56 45 57 29 58 30 59 38 60 31 61 32 62 36 63 39 64
REMARK SMILES IDX 33 65 34 66 37 67 35 68 61 69 62 70 70 71 63 72 64 73 68 74
REMARK SMILES IDX 71 75 65 76 66 77 69 78 67 79 46 80 47 81 55 82 48 83 49 84
REMARK SMILES IDX 53 85 56 86 50 87 51 88 54 89 52 90
REMARK H PARENT 76 43 44 54
REMARK Flexibility Score: inf
ROOT
ATOM      1  C   UNL A   1      31.763  30.177  25.810  1.00  0.00     0.275 C 
ENDROOT
BRANCH   1   2
ATOM      2  C   UNL A   1      31.554  28.927  24.952  1.00  0.00     0.275 C 
BRANCH   2   3
ATOM      3  O   UNL A   1      32.161  27.754  25.538  1.00  0.00    -0.459 OA
BRANCH   3   4
ATOM      4  C   UNL A   1      33.035  27.098  24.740  1.00  0.00     0.338 C 
ATOM      5  O   UNL A   1      33.805  27.601  23.942  1.00  0.00    -0.246 OA
BRANCH   4   6
ATOM      6  C   UNL A   1      32.955  25.638  24.950  1.00  0.00     0.087 C 
ATOM      7  C   UNL A   1      35.313  22.766  24.924  1.00  0.00    -0.019 A 
ATOM      8  C   UNL A   1      35.208  21.362  25.042  1.00  0.00     0.045 A 
ATOM      9  C   UNL A   1      34.114  23.518  25.053  1.00  0.00     0.022 A 
ATOM     10  Cl  UNL A   1      36.583  20.310  25.001  1.00  0.00    -0.084 Cl
ATOM     11  C   UNL A   1      33.967  20.741  25.223  1.00  0.00     0.024 A 
ATOM     12  C   UNL A   1      32.869  22.879  25.183  1.00  0.00     0.128 A 
ATOM     13  C   UNL A   1      34.105  24.971  25.088  1.00  0.00     0.027 C 
ATOM     14  C   UNL A   1      32.800  21.496  25.279  1.00  0.00     0.048 A 
ATOM     15  O   UNL A   1      31.675  23.547  25.264  1.00  0.00    -0.475 OA
ATOM     16  C   UNL A   1      31.637  24.939  24.840  1.00  0.00     0.316 C 
BRANCH   7  17
ATOM     17  C   UNL A   1      36.668  23.430  24.698  1.00  0.00     0.034 C 
ATOM     18  C   UNL A   1      37.493  23.703  25.959  1.00  0.00     0.009 C 
ENDBRANCH   7  17
BRANCH  16  19
ATOM     19  C   UNL A   1      31.055  25.055  23.423  1.00  0.00     0.430 C 
ATOM     20  F   UNL A   1      32.034  25.095  22.488  1.00  0.00    -0.167 F 
ATOM     21  F   UNL A   1      30.278  23.984  23.126  1.00  0.00    -0.167 F 
ATOM     22  F   UNL A   1      30.294  26.161  23.267  1.00  0.00    -0.167 F 
ENDBRANCH  16  19
ENDBRANCH   4   6
ENDBRANCH   3   4
ENDBRANCH   2   3
ENDBRANCH   1   2
BRANCH   1  23
ATOM     23  O   UNL A   1      33.162  30.377  26.094  1.00  0.00    -0.458 OA
BRANCH  23  24
ATOM     24  C   UNL A   1      33.448  31.311  27.024  1.00  0.00     0.338 C 
ATOM     25  O   UNL A   1      32.721  32.208  27.432  1.00  0.00    -0.246 OA
BRANCH  24  26
ATOM     26  C   UNL A   1      34.753  31.016  27.627  1.00  0.00     0.060 A 
ATOM     27  C   UNL A   1      35.661  32.005  27.988  1.00  0.00     0.016 A 
ATOM     28  C   UNL A   1      35.006  29.690  27.957  1.00  0.00     0.016 A 
ATOM     29  C   UNL A   1      36.835  31.638  28.667  1.00  0.00     0.010 A 
ATOM     30  C   UNL A   1      36.117  29.335  28.707  1.00  0.00     0.010 A 
ATOM     31  C   UNL A   1      37.064  30.300  29.050  1.00  0.00    -0.014 A 
BRANCH  31  32
ATOM     32  C   UNL A   1      38.255  29.886  29.836  1.00  0.00     0.031 A 
ATOM     33  C   UNL A   1      38.476  30.388  31.241  1.00  0.00     0.074 A 
ATOM     34  C   UNL A   1      39.214  29.151  29.238  1.00  0.00     0.049 A 
ATOM     35  N   UNL A   1      39.453  30.117  32.072  1.00  0.00    -0.248 NA
ATOM     36  C   UNL A   1      37.505  31.361  31.767  1.00  0.00     0.031 C 
ATOM     37  C   UNL A   1      39.204  28.733  27.836  1.00  0.00     0.029 A 
ATOM     38  N   UNL A   1      40.387  28.637  29.732  1.00  0.00    -0.354 N 
ATOM     39  C   UNL A   1      39.218  30.889  33.203  1.00  0.00     0.074 A 
ATOM     40  C   UNL A   1      38.055  31.701  32.923  1.00  0.00     0.031 C 
ATOM     41  C   UNL A   1      40.292  27.984  27.595  1.00  0.00     0.029 A 
ATOM     42  C   UNL A   1      41.076  27.876  28.821  1.00  0.00     0.049 A 
ATOM     43  H   UNL A   1      40.703  28.796  30.650  1.00  0.00     0.167 HD
ATOM     44  C   UNL A   1      39.882  30.889  34.383  1.00  0.00     0.037 A 
ATOM     45  C   UNL A   1      42.196  27.142  28.966  1.00  0.00     0.037 A 
ATOM     46  C   UNL A   1      41.007  30.040  34.673  1.00  0.00     0.049 A 
ATOM     47  C   UNL A   1      42.863  27.073  30.311  1.00  0.00     0.074 A 
ATOM     48  C   UNL A   1      41.670  29.863  35.876  1.00  0.00     0.029 A 
ATOM     49  N   UNL A   1      41.637  29.224  33.746  1.00  0.00    -0.354 N 
ATOM     50  N   UNL A   1      42.544  27.691  31.422  1.00  0.00    -0.248 NA
ATOM     51  C   UNL A   1      44.032  26.191  30.429  1.00  0.00     0.031 C 
ATOM     52  C   UNL A   1      42.720  28.964  35.669  1.00  0.00     0.029 A 
ATOM     53  C   UNL A   1      42.688  28.550  34.346  1.00  0.00     0.049 A 
ATOM     54  H   UNL A   1      41.376  29.136  32.800  1.00  0.00     0.167 HD
ATOM     55  C   UNL A   1      43.455  27.256  32.375  1.00  0.00     0.074 A 
ATOM     56  C   UNL A   1      44.332  26.311  31.715  1.00  0.00     0.031 C 
ATOM     57  C   UNL A   1      43.552  27.611  33.679  1.00  0.00     0.037 A 
BRANCH  44  58
ATOM     58  C   UNL A   1      39.376  31.786  35.478  1.00  0.00     0.064 A 
ATOM     59  C   UNL A   1      38.460  31.323  36.435  1.00  0.00     0.173 A 
ATOM     60  C   UNL A   1      39.865  33.093  35.623  1.00  0.00     0.173 A 
ATOM     61  F   UNL A   1      37.960  30.080  36.344  1.00  0.00    -0.203 F 
ATOM     62  C   UNL A   1      38.031  32.140  37.477  1.00  0.00     0.198 A 
ATOM     63  C   UNL A   1      39.459  33.898  36.685  1.00  0.00     0.198 A 
ATOM     64  F   UNL A   1      40.753  33.586  34.746  1.00  0.00    -0.203 F 
ATOM     65  F   UNL A   1      37.124  31.685  38.353  1.00  0.00    -0.200 F 
ATOM     66  C   UNL A   1      38.538  33.424  37.607  1.00  0.00     0.200 A 
ATOM     67  F   UNL A   1      39.964  35.132  36.822  1.00  0.00    -0.200 F 
ATOM     68  F   UNL A   1      38.138  34.203  38.621  1.00  0.00    -0.200 F 
ENDBRANCH  44  58
BRANCH  45  69
ATOM     69  C   UNL A   1      42.672  26.319  27.828  1.00  0.00     0.064 A 
ATOM     70  C   UNL A   1      42.081  25.076  27.562  1.00  0.00     0.173 A 
ATOM     71  C   UNL A   1      43.667  26.773  26.953  1.00  0.00     0.173 A 
ATOM     72  F   UNL A   1      41.132  24.598  28.383  1.00  0.00    -0.203 F 
ATOM     73  C   UNL A   1      42.469  24.315  26.464  1.00  0.00     0.198 A 
ATOM     74  C   UNL A   1      44.040  26.019  25.841  1.00  0.00     0.198 A 
ATOM     75  F   UNL A   1      44.253  27.961  27.159  1.00  0.00    -0.203 F 
ATOM     76  F   UNL A   1      41.898  23.123  26.243  1.00  0.00    -0.200 F 
ATOM     77  C   UNL A   1      43.442  24.790  25.599  1.00  0.00     0.200 A 
ATOM     78  F   UNL A   1      44.971  26.487  24.997  1.00  0.00    -0.200 F 
ATOM     79  F   UNL A   1      43.803  24.066  24.531  1.00  0.00    -0.200 F 
ENDBRANCH  45  69
BRANCH  57  80
ATOM     80  C   UNL A   1      44.636  26.973  34.494  1.00  0.00     0.064 A 
ATOM     81  C   UNL A   1      45.869  27.611  34.695  1.00  0.00     0.173 A 
ATOM     82  C   UNL A   1      44.412  25.749  35.143  1.00  0.00     0.173 A 
ATOM     83  F   UNL A   1      46.132  28.776  34.085  1.00  0.00    -0.203 F 
ATOM     84  C   UNL A   1      46.843  27.041  35.510  1.00  0.00     0.198 A 
ATOM     85  C   UNL A   1      45.380  25.196  35.978  1.00  0.00     0.198 A 
ATOM     86  F   UNL A   1      43.246  25.105  34.989  1.00  0.00    -0.203 F 
ATOM     87  F   UNL A   1      48.024  27.654  35.666  1.00  0.00    -0.200 F 
ATOM     88  C   UNL A   1      46.594  25.840  36.158  1.00  0.00     0.200 A 
ATOM     89  F   UNL A   1      45.133  24.042  36.613  1.00  0.00    -0.200 F 
ATOM     90  F   UNL A   1      47.527  25.302  36.954  1.00  0.00    -0.200 F 
ENDBRANCH  57  80
ENDBRANCH  31  32
ENDBRANCH  24  26
ENDBRANCH  23  24
ENDBRANCH   1  23
TORSDOF 13
ENDMDL
MODEL 2
REMARK VINA RESULT:     -12.4      0.247      1.224
REMARK SMILES CCc1c(Cl)ccc2c1C=C(C(=O)OCCOC(=O)c1ccc(-c3c4nc(c(-c5c(F)c(F)c(F)c(F)c5F)c5ccc([nH]5)c(-c5c(F)c(F)c(F)c(F)c5F)c5nc(c(-c6c(F)c(F)c(F)c(F)c6F)c6ccc3[nH]6)C=C5)C=C4)cc1)[C@@H](C(F)(F)F)O2
REMARK SMILES IDX 16 1 15 2 14 3 12 4 13 5 11 6 3 7 4 8 9 9 5 10 6 11 8 12
REMARK SMILES IDX 10 13 7 14 88 15 83 16 2 17 1 18 84 19 85 20 86 21 87 22
REMARK SMILES IDX 17 23 18 24 19 25 20 26 21 27 82 28 22 29 81 30 23 31 24 32
REMARK SMILES IDX 25 33 75 34 26 35 80 36 74 37 76 38 27 39 79 40 73 41 72 42
REMARK SMILES IDX 28 44 60 45 40 46 59 47 41 48 44 49 58 50 77 51 42 52 43 53
REMARK SMILES IDX 57 55 78 56 45 57 29 58 30 59 38 60 31 61 32 62 36 63 39 64
REMARK SMILES IDX 33 65 34 66 37 67 35 68 61 69 62 70 70 71 63 72 64 73 68 74
REMARK SMILES IDX 71 75 65 76 66 77 69 78 67 79 46 80 47 81 55 82 48 83 49 84
REMARK SMILES IDX 53 85 56 86 50 87 51 88 54 89 52 90
REMARK H PARENT 76 43 44 54
REMARK Flexibility Score: inf
ROOT
ATOM      1  C   UNL A   1      31.771  29.862  26.358  1.00  0.00     0.275 C 
ENDROOT
BRANCH   1   2
ATOM      2  C   UNL A   1      31.650  28.502  25.665  1.00  0.00     0.275 C 
BRANCH   2   3
ATOM      3  O   UNL A   1      32.750  27.624  25.990  1.00  0.00    -0.459 OA
BRANCH   3   4
ATOM      4  C   UNL A   1      33.330  27.008  24.933  1.00  0.00     0.338 C 
ATOM      5  O   UNL A   1      33.844  27.552  23.972  1.00  0.00    -0.246 OA
BRANCH   4   6
ATOM      6  C   UNL A   1      33.272  25.540  25.074  1.00  0.00     0.087 C 
ATOM      7  C   UNL A   1      35.686  22.715  24.993  1.00  0.00    -0.019 A 
ATOM      8  C   UNL A   1      35.605  21.306  25.045  1.00  0.00     0.045 A 
ATOM      9  C   UNL A   1      34.468  23.438  25.118  1.00  0.00     0.022 A 
ATOM     10  Cl  UNL A   1      37.000  20.281  25.000  1.00  0.00    -0.084 Cl
ATOM     11  C   UNL A   1      34.371  20.654  25.158  1.00  0.00     0.024 A 
ATOM     12  C   UNL A   1      33.233  22.772  25.179  1.00  0.00     0.128 A 
ATOM     13  C   UNL A   1      34.430  24.888  25.218  1.00  0.00     0.027 C 
ATOM     14  C   UNL A   1      33.187  21.385  25.210  1.00  0.00     0.048 A 
ATOM     15  O   UNL A   1      32.024  23.414  25.252  1.00  0.00    -0.475 OA
ATOM     16  C   UNL A   1      31.971  24.823  24.890  1.00  0.00     0.316 C 
BRANCH   7  17
ATOM     17  C   UNL A   1      37.034  23.413  24.842  1.00  0.00     0.034 C 
ATOM     18  C   UNL A   1      37.798  23.674  26.143  1.00  0.00     0.009 C 
ENDBRANCH   7  17
BRANCH  16  19
ATOM     19  C   UNL A   1      31.432  24.992  23.463  1.00  0.00     0.430 C 
ATOM     20  F   UNL A   1      30.793  26.177  23.312  1.00  0.00    -0.167 F 
ATOM     21  F   UNL A   1      32.441  24.978  22.556  1.00  0.00    -0.167 F 
ATOM     22  F   UNL A   1      30.567  24.013  23.118  1.00  0.00    -0.167 F 
ENDBRANCH  16  19
ENDBRANCH   4   6
ENDBRANCH   3   4
ENDBRANCH   2   3
ENDBRANCH   1   2
BRANCH   1  23
ATOM     23  O   UNL A   1      33.086  30.419  26.171  1.00  0.00    -0.458 OA
BRANCH  23  24
ATOM     24  C   UNL A   1      33.435  31.407  27.019  1.00  0.00     0.338 C 
ATOM     25  O   UNL A   1      32.760  32.369  27.366  1.00  0.00    -0.246 OA
BRANCH  24  26
ATOM     26  C   UNL A   1      34.736  31.096  27.623  1.00  0.00     0.060 A 
ATOM     27  C   UNL A   1      35.661  32.073  27.974  1.00  0.00     0.016 A 
ATOM     28  C   UNL A   1      34.967  29.769  27.965  1.00  0.00     0.016 A 
ATOM     29  C   UNL A   1      36.829  31.693  28.655  1.00  0.00     0.010 A 
ATOM     30  C   UNL A   1      36.072  29.402  28.718  1.00  0.00     0.010 A 
ATOM     31  C   UNL A   1      37.036  30.354  29.050  1.00  0.00    -0.014 A 
BRANCH  31  32
ATOM     32  C   UNL A   1      38.222  29.927  29.839  1.00  0.00     0.031 A 
ATOM     33  C   UNL A   1      38.441  30.423  31.246  1.00  0.00     0.074 A 
ATOM     34  C   UNL A   1      39.176  29.186  29.242  1.00  0.00     0.049 A 
ATOM     35  N   UNL A   1      39.413  30.141  32.080  1.00  0.00    -0.248 NA
ATOM     36  C   UNL A   1      37.477  31.403  31.772  1.00  0.00     0.031 C 
ATOM     37  C   UNL A   1      39.167  28.773  27.838  1.00  0.00     0.029 A 
ATOM     38  N   UNL A   1      40.342  28.660  29.738  1.00  0.00    -0.354 N 
ATOM     39  C   UNL A   1      39.181  30.911  33.212  1.00  0.00     0.074 A 
ATOM     40  C   UNL A   1      38.026  31.734  32.932  1.00  0.00     0.031 C 
ATOM     41  C   UNL A   1      40.249  28.016  27.598  1.00  0.00     0.029 A 
ATOM     42  C   UNL A   1      41.028  27.896  28.827  1.00  0.00     0.049 A 
ATOM     43  H   UNL A   1      40.657  28.814  30.658  1.00  0.00     0.167 HD
ATOM     44  C   UNL A   1      39.842  30.901  34.395  1.00  0.00     0.037 A 
ATOM     45  C   UNL A   1      42.142  27.153  28.973  1.00  0.00     0.037 A 
ATOM     46  C   UNL A   1      40.959  30.042  34.686  1.00  0.00     0.049 A 
ATOM     47  C   UNL A   1      42.804  27.074  30.320  1.00  0.00     0.074 A 
ATOM     48  C   UNL A   1      41.615  29.855  35.890  1.00  0.00     0.029 A 
ATOM     49  N   UNL A   1      41.585  29.223  33.758  1.00  0.00    -0.354 N 
ATOM     50  N   UNL A   1      42.486  27.690  31.432  1.00  0.00    -0.248 NA
ATOM     51  C   UNL A   1      43.964  26.181  30.439  1.00  0.00     0.031 C 
ATOM     52  C   UNL A   1      42.659  28.948  35.684  1.00  0.00     0.029 A 
ATOM     53  C   UNL A   1      42.628  28.539  34.360  1.00  0.00     0.049 A 
ATOM     54  H   UNL A   1      41.326  29.141  32.811  1.00  0.00     0.167 HD
ATOM     55  C   UNL A   1      43.390  27.244  32.387  1.00  0.00     0.074 A 
ATOM     56  C   UNL A   1      44.261  26.294  31.727  1.00  0.00     0.031 C 
ATOM     57  C   UNL A   1      43.485  27.594  33.692  1.00  0.00     0.037 A 
BRANCH  44  58
ATOM     58  C   UNL A   1      39.340  31.799  35.491  1.00  0.00     0.064 A 
ATOM     59  C   UNL A   1      38.442  31.331  36.463  1.00  0.00     0.173 A 
ATOM     60  C   UNL A   1      39.816  33.113  35.622  1.00  0.00     0.173 A 
ATOM     61  F   UNL A   1      37.955  30.083  36.386  1.00  0.00    -0.203 F 
ATOM     62  C   UNL A   1      38.017  32.150  37.506  1.00  0.00     0.198 A 
ATOM     63  C   UNL A   1      39.414  33.919  36.685  1.00  0.00     0.198 A 
ATOM     64  F   UNL A   1      40.687  33.610  34.730  1.00  0.00    -0.203 F 
ATOM     65  F   UNL A   1      37.127  31.690  38.396  1.00  0.00    -0.200 F 
ATOM     66  C   UNL A   1      38.511  33.440  37.622  1.00  0.00     0.200 A 
ATOM     67  F   UNL A   1      39.907  35.160  36.807  1.00  0.00    -0.200 F 
ATOM     68  F   UNL A   1      38.115  34.221  38.636  1.00  0.00    -0.200 F 
ENDBRANCH  44  58
BRANCH  45  69
ATOM     69  C   UNL A   1      42.614  26.329  27.834  1.00  0.00     0.064 A 
ATOM     70  C   UNL A   1      42.026  25.083  27.574  1.00  0.00     0.173 A 
ATOM     71  C   UNL A   1      43.602  26.785  26.952  1.00  0.00     0.173 A 
ATOM     72  F   UNL A   1      41.084  24.604  28.401  1.00  0.00    -0.203 F 
ATOM     73  C   UNL A   1      42.411  24.321  26.475  1.00  0.00     0.198 A 
ATOM     74  C   UNL A   1      43.972  26.030  25.840  1.00  0.00     0.198 A 
ATOM     75  F   UNL A   1      44.185  27.976  27.153  1.00  0.00    -0.203 F 
ATOM     76  F   UNL A   1      41.843  23.127  26.259  1.00  0.00    -0.200 F 
ATOM     77  C   UNL A   1      43.377  24.799  25.604  1.00  0.00     0.200 A 
ATOM     78  F   UNL A   1      44.896  26.500  24.990  1.00  0.00    -0.200 F 
ATOM     79  F   UNL A   1      43.735  24.074  24.535  1.00  0.00    -0.200 F 
ENDBRANCH  45  69
BRANCH  57  80
ATOM     80  C   UNL A   1      44.562  26.944  34.508  1.00  0.00     0.064 A 
ATOM     81  C   UNL A   1      44.352  25.710  35.141  1.00  0.00     0.173 A 
ATOM     82  C   UNL A   1      45.838  27.521  34.592  1.00  0.00     0.173 A 
ATOM     83  F   UNL A   1      43.145  25.127  35.098  1.00  0.00    -0.203 F 
ATOM     84  C   UNL A   1      45.380  25.083  35.839  1.00  0.00     0.198 A 
ATOM     85  C   UNL A   1      46.870  26.877  35.269  1.00  0.00     0.198 A 
ATOM     86  F   UNL A   1      46.090  28.695  33.995  1.00  0.00    -0.203 F 
ATOM     87  F   UNL A   1      45.150  23.918  36.461  1.00  0.00    -0.200 F 
ATOM     88  C   UNL A   1      46.640  25.661  35.894  1.00  0.00     0.200 A 
ATOM     89  F   UNL A   1      48.090  27.430  35.311  1.00  0.00    -0.200 F 
ATOM     90  F   UNL A   1      47.631  25.046  36.553  1.00  0.00    -0.200 F 
ENDBRANCH  57  80
ENDBRANCH  31  32
ENDBRANCH  24  26
ENDBRANCH  23  24
ENDBRANCH   1  23
TORSDOF 13
ENDMDL
MODEL 3
REMARK VINA RESULT:     -12.4      4.461      9.767
REMARK SMILES CCc1c(Cl)ccc2c1C=C(C(=O)OCCOC(=O)c1ccc(-c3c4nc(c(-c5c(F)c(F)c(F)c(F)c5F)c5ccc([nH]5)c(-c5c(F)c(F)c(F)c(F)c5F)c5nc(c(-c6c(F)c(F)c(F)c(F)c6F)c6ccc3[nH]6)C=C5)C=C4)cc1)[C@@H](C(F)(F)F)O2
REMARK SMILES IDX 16 1 15 2 14 3 12 4 13 5 11 6 3 7 4 8 9 9 5 10 6 11 8 12
REMARK SMILES IDX 10 13 7 14 88 15 83 16 2 17 1 18 84 19 85 20 86 21 87 22
REMARK SMILES IDX 17 23 18 24 19 25 20 26 21 27 82 28 22 29 81 30 23 31 24 32
REMARK SMILES IDX 25 33 75 34 26 35 80 36 74 37 76 38 27 39 79 40 73 41 72 42
REMARK SMILES IDX 28 44 60 45 40 46 59 47 41 48 44 49 58 50 77 51 42 52 43 53
REMARK SMILES IDX 57 55 78 56 45 57 29 58 30 59 38 60 31 61 32 62 36 63 39 64
REMARK SMILES IDX 33 65 34 66 37 67 35 68 61 69 62 70 70 71 63 72 64 73 68 74
REMARK SMILES IDX 71 75 65 76 66 77 69 78 67 79 46 80 47 81 55 82 48 83 49 84
REMARK SMILES IDX 53 85 56 86 50 87 51 88 54 89 52 90
REMARK H PARENT 76 43 44 54
REMARK Flexibility Score: inf
ROOT
ATOM      1  C   UNL A   1      37.588  20.220  25.017  1.00  0.00     0.275 C 
ENDROOT
BRANCH   1   2
ATOM      2  C   UNL A   1      36.096  20.560  25.026  1.00  0.00     0.275 C 
BRANCH   2   3
ATOM      3  O   UNL A   1      35.788  21.647  25.928  1.00  0.00    -0.459 OA
BRANCH   3   4
ATOM      4  C   UNL A   1      34.508  22.082  25.891  1.00  0.00     0.338 C 
ATOM      5  O   UNL A   1      33.589  21.689  26.589  1.00  0.00    -0.246 OA
BRANCH   4   6
ATOM      6  C   UNL A   1      34.331  23.134  24.871  1.00  0.00     0.087 C 
ATOM      7  C   UNL A   1      33.522  26.761  24.833  1.00  0.00    -0.019 A 
ATOM      8  C   UNL A   1      33.272  27.738  23.843  1.00  0.00     0.045 A 
ATOM      9  C   UNL A   1      33.860  25.456  24.383  1.00  0.00     0.022 A 
ATOM     10  Cl  UNL A   1      32.937  29.395  24.220  1.00  0.00    -0.084 Cl
ATOM     11  C   UNL A   1      33.304  27.414  22.482  1.00  0.00     0.024 A 
ATOM     12  C   UNL A   1      33.838  25.132  23.016  1.00  0.00     0.128 A 
ATOM     13  C   UNL A   1      34.273  24.401  25.294  1.00  0.00     0.027 C 
ATOM     14  C   UNL A   1      33.572  26.112  22.070  1.00  0.00     0.048 A 
ATOM     15  O   UNL A   1      34.109  23.882  22.525  1.00  0.00    -0.475 OA
ATOM     16  C   UNL A   1      34.063  22.757  23.448  1.00  0.00     0.316 C 
BRANCH   7  17
ATOM     17  C   UNL A   1      33.456  27.119  26.314  1.00  0.00     0.034 C 
ATOM     18  C   UNL A   1      32.052  27.178  26.923  1.00  0.00     0.009 C 
ENDBRANCH   7  17
BRANCH  16  19
ATOM     19  C   UNL A   1      32.735  22.000  23.308  1.00  0.00     0.430 C 
ATOM     20  F   UNL A   1      32.866  20.699  23.661  1.00  0.00    -0.167 F 
ATOM     21  F   UNL A   1      31.784  22.528  24.118  1.00  0.00    -0.167 F 
ATOM     22  F   UNL A   1      32.252  22.033  22.046  1.00  0.00    -0.167 F 
ENDBRANCH  16  19
ENDBRANCH   4   6
ENDBRANCH   3   4
ENDBRANCH   2   3
ENDBRANCH   1   2
BRANCH   1  23
ATOM     23  O   UNL A   1      38.376  21.357  25.420  1.00  0.00    -0.458 OA
BRANCH  23  24
ATOM     24  C   UNL A   1      39.425  21.093  26.224  1.00  0.00     0.338 C 
ATOM     25  O   UNL A   1      39.969  20.012  26.413  1.00  0.00    -0.246 OA
BRANCH  24  26
ATOM     26  C   UNL A   1      39.959  22.350  26.762  1.00  0.00     0.060 A 
ATOM     27  C   UNL A   1      40.997  22.399  27.685  1.00  0.00     0.016 A 
ATOM     28  C   UNL A   1      39.470  23.526  26.206  1.00  0.00     0.016 A 
ATOM     29  C   UNL A   1      41.523  23.648  28.054  1.00  0.00     0.010 A 
ATOM     30  C   UNL A   1      40.047  24.753  26.497  1.00  0.00     0.010 A 
ATOM     31  C   UNL A   1      41.064  24.837  27.449  1.00  0.00    -0.014 A 
BRANCH  31  32
ATOM     32  C   UNL A   1      41.649  26.168  27.756  1.00  0.00     0.031 A 
ATOM     33  C   UNL A   1      43.040  26.533  27.304  1.00  0.00     0.074 A 
ATOM     34  C   UNL A   1      40.972  27.013  28.559  1.00  0.00     0.049 A 
ATOM     35  N   UNL A   1      43.698  27.654  27.474  1.00  0.00    -0.248 NA
ATOM     36  C   UNL A   1      43.818  25.490  26.615  1.00  0.00     0.031 C 
ATOM     37  C   UNL A   1      39.688  26.722  29.197  1.00  0.00     0.029 A 
ATOM     38  N   UNL A   1      41.275  28.283  28.983  1.00  0.00    -0.354 N 
ATOM     39  C   UNL A   1      44.958  27.445  26.928  1.00  0.00     0.074 A 
ATOM     40  C   UNL A   1      45.005  26.067  26.493  1.00  0.00     0.031 C 
ATOM     41  C   UNL A   1      39.289  27.800  29.890  1.00  0.00     0.029 A 
ATOM     42  C   UNL A   1      40.291  28.853  29.750  1.00  0.00     0.049 A 
ATOM     43  H   UNL A   1      42.117  28.741  28.757  1.00  0.00     0.167 HD
ATOM     44  C   UNL A   1      45.968  28.332  26.761  1.00  0.00     0.037 A 
ATOM     45  C   UNL A   1      40.188  30.097  30.255  1.00  0.00     0.037 A 
ATOM     46  C   UNL A   1      45.896  29.716  27.149  1.00  0.00     0.049 A 
ATOM     47  C   UNL A   1      41.273  31.099  29.974  1.00  0.00     0.074 A 
ATOM     48  C   UNL A   1      46.807  30.730  26.907  1.00  0.00     0.029 A 
ATOM     49  N   UNL A   1      44.850  30.280  27.862  1.00  0.00    -0.354 N 
ATOM     50  N   UNL A   1      42.398  30.934  29.322  1.00  0.00    -0.248 NA
ATOM     51  C   UNL A   1      41.066  32.463  30.480  1.00  0.00     0.031 C 
ATOM     52  C   UNL A   1      46.327  31.900  27.501  1.00  0.00     0.029 A 
ATOM     53  C   UNL A   1      45.098  31.625  28.079  1.00  0.00     0.049 A 
ATOM     54  H   UNL A   1      44.048  29.796  28.169  1.00  0.00     0.167 HD
ATOM     55  C   UNL A   1      43.021  32.175  29.318  1.00  0.00     0.074 A 
ATOM     56  C   UNL A   1      42.143  33.086  30.022  1.00  0.00     0.031 C 
ATOM     57  C   UNL A   1      44.214  32.522  28.779  1.00  0.00     0.037 A 
BRANCH  44  58
ATOM     58  C   UNL A   1      47.218  27.857  26.075  1.00  0.00     0.064 A 
ATOM     59  C   UNL A   1      48.321  27.393  26.809  1.00  0.00     0.173 A 
ATOM     60  C   UNL A   1      47.291  27.789  24.675  1.00  0.00     0.173 A 
ATOM     61  F   UNL A   1      48.305  27.436  28.150  1.00  0.00    -0.203 F 
ATOM     62  C   UNL A   1      49.459  26.907  26.170  1.00  0.00     0.198 A 
ATOM     63  C   UNL A   1      48.419  27.271  24.039  1.00  0.00     0.198 A 
ATOM     64  F   UNL A   1      46.262  28.205  23.921  1.00  0.00    -0.203 F 
ATOM     65  F   UNL A   1      50.513  26.509  26.896  1.00  0.00    -0.200 F 
ATOM     66  C   UNL A   1      49.503  26.837  24.787  1.00  0.00     0.200 A 
ATOM     67  F   UNL A   1      48.453  27.186  22.702  1.00  0.00    -0.200 F 
ATOM     68  F   UNL A   1      50.591  26.352  24.174  1.00  0.00    -0.200 F 
ENDBRANCH  44  58
BRANCH  45  69
ATOM     69  C   UNL A   1      38.948  30.487  30.969  1.00  0.00     0.064 A 
ATOM     70  C   UNL A   1      38.893  30.429  32.369  1.00  0.00     0.173 A 
ATOM     71  C   UNL A   1      37.828  30.982  30.289  1.00  0.00     0.173 A 
ATOM     72  F   UNL A   1      39.940  29.951  33.059  1.00  0.00    -0.203 F 
ATOM     73  C   UNL A   1      37.762  30.848  33.063  1.00  0.00     0.198 A 
ATOM     74  C   UNL A   1      36.703  31.420  30.986  1.00  0.00     0.198 A 
ATOM     75  F   UNL A   1      37.839  31.068  28.951  1.00  0.00    -0.203 F 
ATOM     76  F   UNL A   1      37.731  30.766  34.399  1.00  0.00    -0.200 F 
ATOM     77  C   UNL A   1      36.671  31.352  32.371  1.00  0.00     0.200 A 
ATOM     78  F   UNL A   1      35.655  31.921  30.317  1.00  0.00    -0.200 F 
ATOM     79  F   UNL A   1      35.589  31.772  33.040  1.00  0.00    -0.200 F 
ENDBRANCH  45  69
BRANCH  57  80
ATOM     80  C   UNL A   1      44.647  33.951  28.913  1.00  0.00     0.064 A 
ATOM     81  C   UNL A   1      45.452  34.372  29.982  1.00  0.00     0.173 A 
ATOM     82  C   UNL A   1      44.321  34.890  27.923  1.00  0.00     0.173 A 
ATOM     83  F   UNL A   1      45.779  33.513  30.958  1.00  0.00    -0.203 F 
ATOM     84  C   UNL A   1      45.905  35.686  30.059  1.00  0.00     0.198 A 
ATOM     85  C   UNL A   1      44.798  36.196  27.991  1.00  0.00     0.198 A 
ATOM     86  F   UNL A   1      43.562  34.532  26.876  1.00  0.00    -0.203 F 
ATOM     87  F   UNL A   1      46.649  36.073  31.105  1.00  0.00    -0.200 F 
ATOM     88  C   UNL A   1      45.586  36.593  29.060  1.00  0.00     0.200 A 
ATOM     89  F   UNL A   1      44.500  37.068  27.018  1.00  0.00    -0.200 F 
ATOM     90  F   UNL A   1      46.038  37.852  29.129  1.00  0.00    -0.200 F 
ENDBRANCH  57  80
ENDBRANCH  31  32
ENDBRANCH  24  26
ENDBRANCH  23  24
ENDBRANCH   1  23
TORSDOF 13
ENDMDL
