MODEL 1
REMARK VINA RESULT:     -11.1      0.000      0.000
REMARK SMILES CN(CCCC(=O)OCCOC(=O)c1ccc(-c2c3nc(c(-c4c(F)c(F)c(F)c(F)c4F)c4ccc([nH]4)c(-c4c(F)c(F)c(F)c(F)c4F)c4nc(c(-c5c(F)c(F)c(F)c(F)c5F)c5ccc2[nH]5)C=C4)C=C3)cc1)C(=O)c1c[nH]nc1-c1ccccc1
REMARK SMILES IDX 6 1 7 2 5 3 4 4 3 5 2 6 1 7 77 8 78 9 79 10 80 11 83 12
REMARK SMILES IDX 81 13 82 14 84 16 85 17 89 18 86 19 88 20 87 21 8 22 9 23
REMARK SMILES IDX 10 24 11 25 12 26 13 27 14 28 15 29 76 30 16 31 75 32 17 33
REMARK SMILES IDX 18 34 19 35 69 36 20 37 74 38 68 39 70 40 21 41 73 42 67 43
REMARK SMILES IDX 66 44 22 46 54 47 34 48 53 49 35 50 38 51 52 52 71 53 36 54
REMARK SMILES IDX 37 55 51 57 72 58 39 59 23 60 24 61 32 62 25 63 26 64 30 65
REMARK SMILES IDX 33 66 27 67 28 68 31 69 29 70 55 71 56 72 64 73 57 74 58 75
REMARK SMILES IDX 62 76 65 77 59 78 60 79 63 80 61 81 40 82 41 83 49 84 42 85
REMARK SMILES IDX 43 86 47 87 50 88 44 89 45 90 48 91 46 92
REMARK H PARENT 81 15 70 45 38 56
REMARK Flexibility Score: inf
ROOT
ATOM      1  C   UNL A   1      33.108  28.315  25.208  1.00  0.00     0.305 C 
ATOM      2  O   UNL A   1      33.611  28.859  24.233  1.00  0.00    -0.252 OA
ENDROOT
BRANCH   1   3
ATOM      3  C   UNL A   1      33.609  26.992  25.745  1.00  0.00     0.124 C 
BRANCH   3   4
ATOM      4  C   UNL A   1      34.027  25.968  24.705  1.00  0.00     0.033 C 
BRANCH   4   5
ATOM      5  C   UNL A   1      34.716  24.718  25.259  1.00  0.00     0.120 C 
BRANCH   5   6
ATOM      6  N   UNL A   1      35.099  23.716  24.267  1.00  0.00    -0.342 N 
ATOM      7  C   UNL A   1      36.393  23.091  24.472  1.00  0.00     0.147 C 
BRANCH   6   8
ATOM      8  C   UNL A   1      34.173  22.987  23.501  1.00  0.00     0.257 C 
ATOM      9  O   UNL A   1      34.091  23.134  22.284  1.00  0.00    -0.269 OA
BRANCH   8  10
ATOM     10  C   UNL A   1      33.235  22.116  24.188  1.00  0.00     0.085 A 
ATOM     11  C   UNL A   1      33.531  20.860  24.687  1.00  0.00     0.119 A 
ATOM     12  C   UNL A   1      31.960  22.418  24.758  1.00  0.00     0.105 A 
ATOM     13  N   UNL A   1      32.428  20.443  25.365  1.00  0.00    -0.284 N 
ATOM     14  N   UNL A   1      31.472  21.372  25.446  1.00  0.00    -0.175 NA
ATOM     15  H   UNL A   1      32.343  19.543  25.758  1.00  0.00     0.189 HD
BRANCH  12  16
ATOM     16  C   UNL A   1      31.224  23.674  24.754  1.00  0.00     0.003 A 
ATOM     17  C   UNL A   1      30.915  24.268  25.986  1.00  0.00     0.010 A 
ATOM     18  C   UNL A   1      30.815  24.291  23.569  1.00  0.00     0.010 A 
ATOM     19  C   UNL A   1      30.231  25.480  26.037  1.00  0.00     0.001 A 
ATOM     20  C   UNL A   1      30.118  25.502  23.623  1.00  0.00     0.001 A 
ATOM     21  C   UNL A   1      29.835  26.098  24.855  1.00  0.00     0.000 A 
ENDBRANCH  12  16
ENDBRANCH   8  10
ENDBRANCH   6   8
ENDBRANCH   5   6
ENDBRANCH   4   5
ENDBRANCH   3   4
ENDBRANCH   1   3
BRANCH   1  22
ATOM     22  O   UNL A   1      32.151  28.868  25.994  1.00  0.00    -0.462 OA
BRANCH  22  23
ATOM     23  C   UNL A   1      31.434  29.972  25.414  1.00  0.00     0.274 C 
BRANCH  23  24
ATOM     24  C   UNL A   1      31.580  31.225  26.282  1.00  0.00     0.275 C 
BRANCH  24  25
ATOM     25  O   UNL A   1      32.619  31.076  27.269  1.00  0.00    -0.458 OA
BRANCH  25  26
ATOM     26  C   UNL A   1      33.404  32.159  27.466  1.00  0.00     0.338 C 
ATOM     27  O   UNL A   1      33.094  33.338  27.341  1.00  0.00    -0.246 OA
BRANCH  26  28
ATOM     28  C   UNL A   1      34.693  31.733  28.027  1.00  0.00     0.060 A 
ATOM     29  C   UNL A   1      34.826  30.419  28.489  1.00  0.00     0.016 A 
ATOM     30  C   UNL A   1      35.741  32.641  28.162  1.00  0.00     0.016 A 
ATOM     31  C   UNL A   1      36.005  29.994  29.078  1.00  0.00     0.010 A 
ATOM     32  C   UNL A   1      36.921  32.224  28.778  1.00  0.00     0.010 A 
ATOM     33  C   UNL A   1      37.048  30.903  29.246  1.00  0.00    -0.014 A 
BRANCH  33  34
ATOM     34  C   UNL A   1      38.215  30.496  30.045  1.00  0.00     0.031 A 
ATOM     35  C   UNL A   1      39.216  29.571  29.427  1.00  0.00     0.074 A 
ATOM     36  C   UNL A   1      38.401  31.005  31.274  1.00  0.00     0.049 A 
ATOM     37  N   UNL A   1      40.245  28.978  29.969  1.00  0.00    -0.248 NA
ATOM     38  C   UNL A   1      39.031  29.277  27.995  1.00  0.00     0.031 C 
ATOM     39  C   UNL A   1      37.545  32.004  31.912  1.00  0.00     0.029 A 
ATOM     40  N   UNL A   1      39.374  30.750  32.203  1.00  0.00    -0.354 N 
ATOM     41  C   UNL A   1      40.815  28.222  28.955  1.00  0.00     0.074 A 
ATOM     42  C   UNL A   1      40.017  28.425  27.765  1.00  0.00     0.031 C 
ATOM     43  C   UNL A   1      38.025  32.270  33.138  1.00  0.00     0.029 A 
ATOM     44  C   UNL A   1      39.183  31.416  33.387  1.00  0.00     0.049 A 
ATOM     45  H   UNL A   1      40.135  30.148  32.038  1.00  0.00     0.167 HD
ATOM     46  C   UNL A   1      41.905  27.424  29.024  1.00  0.00     0.037 A 
ATOM     47  C   UNL A   1      39.849  31.304  34.551  1.00  0.00     0.037 A 
ATOM     48  C   UNL A   1      42.681  27.240  30.221  1.00  0.00     0.049 A 
ATOM     49  C   UNL A   1      40.992  30.326  34.634  1.00  0.00     0.074 A 
ATOM     50  C   UNL A   1      43.784  26.432  30.424  1.00  0.00     0.029 A 
ATOM     51  N   UNL A   1      42.426  27.883  31.426  1.00  0.00    -0.354 N 
ATOM     52  N   UNL A   1      41.499  29.564  33.694  1.00  0.00    -0.248 NA
ATOM     53  C   UNL A   1      41.644  30.183  35.941  1.00  0.00     0.031 C 
ATOM     54  C   UNL A   1      44.171  26.555  31.764  1.00  0.00     0.029 A 
ATOM     55  C   UNL A   1      43.340  27.477  32.382  1.00  0.00     0.049 A 
ATOM     56  H   UNL A   1      41.701  28.532  31.576  1.00  0.00     0.167 HD
ATOM     57  C   UNL A   1      42.543  28.868  34.288  1.00  0.00     0.074 A 
ATOM     58  C   UNL A   1      42.604  29.310  35.667  1.00  0.00     0.031 C 
ATOM     59  C   UNL A   1      43.376  27.946  33.745  1.00  0.00     0.037 A 
BRANCH  46  60
ATOM     60  C   UNL A   1      42.274  26.657  27.790  1.00  0.00     0.064 A 
ATOM     61  C   UNL A   1      41.706  25.409  27.493  1.00  0.00     0.173 A 
ATOM     62  C   UNL A   1      43.223  27.175  26.895  1.00  0.00     0.173 A 
ATOM     63  F   UNL A   1      40.814  24.858  28.330  1.00  0.00    -0.203 F 
ATOM     64  C   UNL A   1      42.094  24.696  26.361  1.00  0.00     0.198 A 
ATOM     65  C   UNL A   1      43.588  26.472  25.750  1.00  0.00     0.198 A 
ATOM     66  F   UNL A   1      43.800  28.362  27.135  1.00  0.00    -0.203 F 
ATOM     67  F   UNL A   1      41.579  23.481  26.126  1.00  0.00    -0.200 F 
ATOM     68  C   UNL A   1      43.030  25.231  25.488  1.00  0.00     0.200 A 
ATOM     69  F   UNL A   1      44.488  26.993  24.904  1.00  0.00    -0.200 F 
ATOM     70  F   UNL A   1      43.404  24.543  24.400  1.00  0.00    -0.200 F 
ENDBRANCH  46  60
BRANCH  47  71
ATOM     71  C   UNL A   1      39.429  32.102  35.731  1.00  0.00     0.064 A 
ATOM     72  C   UNL A   1      39.975  33.369  35.977  1.00  0.00     0.173 A 
ATOM     73  C   UNL A   1      38.481  31.613  36.642  1.00  0.00     0.173 A 
ATOM     74  F   UNL A   1      40.903  33.870  35.149  1.00  0.00    -0.203 F 
ATOM     75  C   UNL A   1      39.598  34.111  37.095  1.00  0.00     0.198 A 
ATOM     76  C   UNL A   1      38.083  32.367  37.744  1.00  0.00     0.198 A 
ATOM     77  F   UNL A   1      37.931  30.405  36.457  1.00  0.00    -0.203 F 
ATOM     78  F   UNL A   1      40.167  35.301  37.329  1.00  0.00    -0.200 F 
ATOM     79  C   UNL A   1      38.647  33.613  37.973  1.00  0.00     0.200 A 
ATOM     80  F   UNL A   1      37.157  31.886  38.584  1.00  0.00    -0.200 F 
ATOM     81  F   UNL A   1      38.282  34.328  39.047  1.00  0.00    -0.200 F 
ENDBRANCH  47  71
BRANCH  59  82
ATOM     82  C   UNL A   1      44.447  27.390  34.636  1.00  0.00     0.064 A 
ATOM     83  C   UNL A   1      44.259  26.204  35.360  1.00  0.00     0.173 A 
ATOM     84  C   UNL A   1      45.690  28.034  34.732  1.00  0.00     0.173 A 
ATOM     85  F   UNL A   1      43.081  25.563  35.312  1.00  0.00    -0.203 F 
ATOM     86  C   UNL A   1      45.271  25.695  36.168  1.00  0.00     0.198 A 
ATOM     87  C   UNL A   1      46.709  27.505  35.518  1.00  0.00     0.198 A 
ATOM     88  F   UNL A   1      45.919  29.167  34.052  1.00  0.00    -0.203 F 
ATOM     89  F   UNL A   1      45.056  24.585  36.888  1.00  0.00    -0.200 F 
ATOM     90  C   UNL A   1      46.497  26.341  36.240  1.00  0.00     0.200 A 
ATOM     91  F   UNL A   1      47.897  28.122  35.576  1.00  0.00    -0.200 F 
ATOM     92  F   UNL A   1      47.473  25.844  37.013  1.00  0.00    -0.200 F 
ENDBRANCH  59  82
ENDBRANCH  33  34
ENDBRANCH  26  28
ENDBRANCH  25  26
ENDBRANCH  24  25
ENDBRANCH  23  24
ENDBRANCH  22  23
ENDBRANCH   1  22
TORSDOF 17
ENDMDL
MODEL 2
REMARK VINA RESULT:     -10.9      1.191      2.810
REMARK SMILES CN(CCCC(=O)OCCOC(=O)c1ccc(-c2c3nc(c(-c4c(F)c(F)c(F)c(F)c4F)c4ccc([nH]4)c(-c4c(F)c(F)c(F)c(F)c4F)c4nc(c(-c5c(F)c(F)c(F)c(F)c5F)c5ccc2[nH]5)C=C4)C=C3)cc1)C(=O)c1c[nH]nc1-c1ccccc1
REMARK SMILES IDX 6 1 7 2 5 3 4 4 3 5 2 6 1 7 77 8 78 9 79 10 80 11 83 12
REMARK SMILES IDX 81 13 82 14 84 16 85 17 89 18 86 19 88 20 87 21 8 22 9 23
REMARK SMILES IDX 10 24 11 25 12 26 13 27 14 28 15 29 76 30 16 31 75 32 17 33
REMARK SMILES IDX 18 34 19 35 69 36 20 37 74 38 68 39 70 40 21 41 73 42 67 43
REMARK SMILES IDX 66 44 22 46 54 47 34 48 53 49 35 50 38 51 52 52 71 53 36 54
REMARK SMILES IDX 37 55 51 57 72 58 39 59 23 60 24 61 32 62 25 63 26 64 30 65
REMARK SMILES IDX 33 66 27 67 28 68 31 69 29 70 55 71 56 72 64 73 57 74 58 75
REMARK SMILES IDX 62 76 65 77 59 78 60 79 63 80 61 81 40 82 41 83 49 84 42 85
REMARK SMILES IDX 43 86 47 87 50 88 44 89 45 90 48 91 46 92
REMARK H PARENT 81 15 70 45 38 56
REMARK Flexibility Score: inf
ROOT
ATOM      1  C   UNL A   1      31.024  28.898  23.267  1.00  0.00     0.305 C 
ATOM      2  O   UNL A   1      32.080  28.985  22.653  1.00  0.00    -0.252 OA
ENDROOT
BRANCH   1   3
ATOM      3  C   UNL A   1      29.895  28.000  22.813  1.00  0.00     0.124 C 
BRANCH   3   4
ATOM      4  C   UNL A   1      29.349  27.041  23.856  1.00  0.00     0.033 C 
BRANCH   4   5
ATOM      5  C   UNL A   1      30.030  25.672  23.906  1.00  0.00     0.120 C 
BRANCH   5   6
ATOM      6  N   UNL A   1      31.323  25.634  24.586  1.00  0.00    -0.342 N 
ATOM      7  C   UNL A   1      31.332  24.981  25.883  1.00  0.00     0.147 C 
BRANCH   6   8
ATOM      8  C   UNL A   1      32.557  25.698  23.917  1.00  0.00     0.257 C 
ATOM      9  O   UNL A   1      33.494  26.358  24.361  1.00  0.00    -0.269 OA
BRANCH   8  10
ATOM     10  C   UNL A   1      32.682  25.044  22.625  1.00  0.00     0.085 A 
ATOM     11  C   UNL A   1      32.555  25.671  21.399  1.00  0.00     0.119 A 
ATOM     12  C   UNL A   1      33.227  23.764  22.300  1.00  0.00     0.105 A 
ATOM     13  N   UNL A   1      32.873  24.743  20.455  1.00  0.00    -0.284 N 
ATOM     14  N   UNL A   1      33.306  23.590  20.970  1.00  0.00    -0.175 NA
ATOM     15  H   UNL A   1      32.791  24.907  19.487  1.00  0.00     0.189 HD
BRANCH  12  16
ATOM     16  C   UNL A   1      33.756  22.737  23.186  1.00  0.00     0.003 A 
ATOM     17  C   UNL A   1      35.088  22.847  23.613  1.00  0.00     0.010 A 
ATOM     18  C   UNL A   1      32.984  21.653  23.610  1.00  0.00     0.010 A 
ATOM     19  C   UNL A   1      35.635  21.903  24.477  1.00  0.00     0.001 A 
ATOM     20  C   UNL A   1      33.540  20.699  24.469  1.00  0.00     0.001 A 
ATOM     21  C   UNL A   1      34.860  20.830  24.907  1.00  0.00     0.000 A 
ENDBRANCH  12  16
ENDBRANCH   8  10
ENDBRANCH   6   8
ENDBRANCH   5   6
ENDBRANCH   4   5
ENDBRANCH   3   4
ENDBRANCH   1   3
BRANCH   1  22
ATOM     22  O   UNL A   1      30.780  29.475  24.470  1.00  0.00    -0.462 OA
BRANCH  22  23
ATOM     23  C   UNL A   1      31.691  29.119  25.525  1.00  0.00     0.274 C 
BRANCH  23  24
ATOM     24  C   UNL A   1      32.699  30.245  25.770  1.00  0.00     0.275 C 
BRANCH  24  25
ATOM     25  O   UNL A   1      32.735  30.643  27.154  1.00  0.00    -0.458 OA
BRANCH  25  26
ATOM     26  C   UNL A   1      33.439  31.763  27.427  1.00  0.00     0.338 C 
ATOM     27  O   UNL A   1      33.050  32.924  27.359  1.00  0.00    -0.246 OA
BRANCH  26  28
ATOM     28  C   UNL A   1      34.743  31.396  27.994  1.00  0.00     0.060 A 
ATOM     29  C   UNL A   1      34.930  30.091  28.463  1.00  0.00     0.016 A 
ATOM     30  C   UNL A   1      35.751  32.348  28.128  1.00  0.00     0.016 A 
ATOM     31  C   UNL A   1      36.125  29.719  29.058  1.00  0.00     0.010 A 
ATOM     32  C   UNL A   1      36.946  31.984  28.749  1.00  0.00     0.010 A 
ATOM     33  C   UNL A   1      37.127  30.673  29.224  1.00  0.00    -0.014 A 
BRANCH  33  34
ATOM     34  C   UNL A   1      38.309  30.319  30.029  1.00  0.00     0.031 A 
ATOM     35  C   UNL A   1      39.337  29.415  29.427  1.00  0.00     0.074 A 
ATOM     36  C   UNL A   1      38.479  30.858  31.248  1.00  0.00     0.049 A 
ATOM     37  N   UNL A   1      40.386  28.867  29.978  1.00  0.00    -0.248 NA
ATOM     38  C   UNL A   1      39.161  29.088  28.001  1.00  0.00     0.031 C 
ATOM     39  C   UNL A   1      37.592  31.841  31.868  1.00  0.00     0.029 A 
ATOM     40  N   UNL A   1      39.461  30.653  32.179  1.00  0.00    -0.354 N 
ATOM     41  C   UNL A   1      40.979  28.110  28.978  1.00  0.00     0.074 A 
ATOM     42  C   UNL A   1      40.174  28.263  27.786  1.00  0.00     0.031 C 
ATOM     43  C   UNL A   1      38.065  32.146  33.088  1.00  0.00     0.029 A 
ATOM     44  C   UNL A   1      39.250  31.335  33.351  1.00  0.00     0.049 A 
ATOM     45  H   UNL A   1      40.241  30.073  32.024  1.00  0.00     0.167 HD
ATOM     46  C   UNL A   1      42.095  27.349  29.061  1.00  0.00     0.037 A 
ATOM     47  C   UNL A   1      39.921  31.268  34.516  1.00  0.00     0.037 A 
ATOM     48  C   UNL A   1      42.878  27.214  30.260  1.00  0.00     0.049 A 
ATOM     49  C   UNL A   1      41.095  30.330  34.614  1.00  0.00     0.074 A 
ATOM     50  C   UNL A   1      44.007  26.447  30.476  1.00  0.00     0.029 A 
ATOM     51  N   UNL A   1      42.604  27.872  31.452  1.00  0.00    -0.354 N 
ATOM     52  N   UNL A   1      41.626  29.566  33.689  1.00  0.00    -0.248 NA
ATOM     53  C   UNL A   1      41.754  30.233  35.923  1.00  0.00     0.031 C 
ATOM     54  C   UNL A   1      44.391  26.608  31.812  1.00  0.00     0.029 A 
ATOM     55  C   UNL A   1      43.532  27.514  32.415  1.00  0.00     0.049 A 
ATOM     56  H   UNL A   1      41.859  28.500  31.591  1.00  0.00     0.167 HD
ATOM     57  C   UNL A   1      42.692  28.916  34.294  1.00  0.00     0.074 A 
ATOM     58  C   UNL A   1      42.741  29.387  35.664  1.00  0.00     0.031 C 
ATOM     59  C   UNL A   1      43.555  28.011  33.767  1.00  0.00     0.037 A 
BRANCH  46  60
ATOM     60  C   UNL A   1      42.487  26.571  27.841  1.00  0.00     0.064 A 
ATOM     61  C   UNL A   1      41.946  25.308  27.560  1.00  0.00     0.173 A 
ATOM     62  C   UNL A   1      43.431  27.093  26.945  1.00  0.00     0.173 A 
ATOM     63  F   UNL A   1      41.058  24.752  28.399  1.00  0.00    -0.203 F 
ATOM     64  C   UNL A   1      42.354  24.585  26.441  1.00  0.00     0.198 A 
ATOM     65  C   UNL A   1      43.818  26.381  25.812  1.00  0.00     0.198 A 
ATOM     66  F   UNL A   1      43.984  28.295  27.169  1.00  0.00    -0.203 F 
ATOM     67  F   UNL A   1      41.865  23.357  26.222  1.00  0.00    -0.200 F 
ATOM     68  C   UNL A   1      43.286  25.125  25.566  1.00  0.00     0.200 A 
ATOM     69  F   UNL A   1      44.713  26.906  24.965  1.00  0.00    -0.200 F 
ATOM     70  F   UNL A   1      43.681  24.428  24.492  1.00  0.00    -0.200 F 
ENDBRANCH  46  60
BRANCH  47  71
ATOM     71  C   UNL A   1      39.477  32.075  35.680  1.00  0.00     0.064 A 
ATOM     72  C   UNL A   1      38.526  31.579  36.582  1.00  0.00     0.173 A 
ATOM     73  C   UNL A   1      39.984  33.363  35.911  1.00  0.00     0.173 A 
ATOM     74  F   UNL A   1      37.993  30.363  36.390  1.00  0.00    -0.203 F 
ATOM     75  C   UNL A   1      38.091  32.343  37.663  1.00  0.00     0.198 A 
ATOM     76  C   UNL A   1      39.570  34.115  37.009  1.00  0.00     0.198 A 
ATOM     77  F   UNL A   1      40.892  33.888  35.076  1.00  0.00    -0.203 F 
ATOM     78  F   UNL A   1      37.151  31.860  38.486  1.00  0.00    -0.200 F 
ATOM     79  C   UNL A   1      38.619  33.607  37.880  1.00  0.00     0.200 A 
ATOM     80  F   UNL A   1      40.090  35.331  37.219  1.00  0.00    -0.200 F 
ATOM     81  F   UNL A   1      38.203  34.341  38.922  1.00  0.00    -0.200 F 
ENDBRANCH  47  71
BRANCH  59  82
ATOM     82  C   UNL A   1      44.644  27.507  34.667  1.00  0.00     0.064 A 
ATOM     83  C   UNL A   1      45.865  28.185  34.795  1.00  0.00     0.173 A 
ATOM     84  C   UNL A   1      44.444  26.354  35.439  1.00  0.00     0.173 A 
ATOM     85  F   UNL A   1      46.107  29.284  34.064  1.00  0.00    -0.203 F 
ATOM     86  C   UNL A   1      46.856  27.711  35.649  1.00  0.00     0.198 A 
ATOM     87  C   UNL A   1      45.427  25.900  36.314  1.00  0.00     0.198 A 
ATOM     88  F   UNL A   1      43.289  25.675  35.356  1.00  0.00    -0.203 F 
ATOM     89  F   UNL A   1      48.034  28.347  35.722  1.00  0.00    -0.200 F 
ATOM     90  C   UNL A   1      46.634  26.574  36.412  1.00  0.00     0.200 A 
ATOM     91  F   UNL A   1      45.205  24.810  37.061  1.00  0.00    -0.200 F 
ATOM     92  F   UNL A   1      47.588  26.125  37.239  1.00  0.00    -0.200 F 
ENDBRANCH  59  82
ENDBRANCH  33  34
ENDBRANCH  26  28
ENDBRANCH  25  26
ENDBRANCH  24  25
ENDBRANCH  23  24
ENDBRANCH  22  23
ENDBRANCH   1  22
TORSDOF 17
ENDMDL
MODEL 3
REMARK VINA RESULT:     -10.8      4.349      9.839
REMARK SMILES CN(CCCC(=O)OCCOC(=O)c1ccc(-c2c3nc(c(-c4c(F)c(F)c(F)c(F)c4F)c4ccc([nH]4)c(-c4c(F)c(F)c(F)c(F)c4F)c4nc(c(-c5c(F)c(F)c(F)c(F)c5F)c5ccc2[nH]5)C=C4)C=C3)cc1)C(=O)c1c[nH]nc1-c1ccccc1
REMARK SMILES IDX 6 1 7 2 5 3 4 4 3 5 2 6 1 7 77 8 78 9 79 10 80 11 83 12
REMARK SMILES IDX 81 13 82 14 84 16 85 17 89 18 86 19 88 20 87 21 8 22 9 23
REMARK SMILES IDX 10 24 11 25 12 26 13 27 14 28 15 29 76 30 16 31 75 32 17 33
REMARK SMILES IDX 18 34 19 35 69 36 20 37 74 38 68 39 70 40 21 41 73 42 67 43
REMARK SMILES IDX 66 44 22 46 54 47 34 48 53 49 35 50 38 51 52 52 71 53 36 54
REMARK SMILES IDX 37 55 51 57 72 58 39 59 23 60 24 61 32 62 25 63 26 64 30 65
REMARK SMILES IDX 33 66 27 67 28 68 31 69 29 70 55 71 56 72 64 73 57 74 58 75
REMARK SMILES IDX 62 76 65 77 59 78 60 79 63 80 61 81 40 82 41 83 49 84 42 85
REMARK SMILES IDX 43 86 47 87 50 88 44 89 45 90 48 91 46 92
REMARK H PARENT 81 15 70 45 38 56
REMARK Flexibility Score: inf
ROOT
ATOM      1  C   UNL A   1      34.631  22.437  25.251  1.00  0.00     0.305 C 
ATOM      2  O   UNL A   1      34.283  22.372  26.423  1.00  0.00    -0.252 OA
ENDROOT
BRANCH   1   3
ATOM      3  C   UNL A   1      34.973  23.748  24.579  1.00  0.00     0.124 C 
BRANCH   3   4
ATOM      4  C   UNL A   1      33.974  24.875  24.773  1.00  0.00     0.033 C 
BRANCH   4   5
ATOM      5  C   UNL A   1      32.566  24.599  24.241  1.00  0.00     0.120 C 
BRANCH   5   6
ATOM      6  N   UNL A   1      31.475  24.861  25.177  1.00  0.00    -0.342 N 
ATOM      7  C   UNL A   1      31.035  23.724  25.966  1.00  0.00     0.147 C 
BRANCH   6   8
ATOM      8  C   UNL A   1      31.199  26.131  25.715  1.00  0.00     0.257 C 
ATOM      9  O   UNL A   1      31.033  26.293  26.921  1.00  0.00    -0.269 OA
BRANCH   8  10
ATOM     10  C   UNL A   1      31.015  27.247  24.803  1.00  0.00     0.085 A 
ATOM     11  C   UNL A   1      29.994  27.358  23.876  1.00  0.00     0.119 A 
ATOM     12  C   UNL A   1      31.597  28.551  24.828  1.00  0.00     0.105 A 
ATOM     13  N   UNL A   1      30.105  28.597  23.325  1.00  0.00    -0.284 N 
ATOM     14  N   UNL A   1      31.049  29.349  23.897  1.00  0.00    -0.175 NA
ATOM     15  H   UNL A   1      29.544  28.909  22.577  1.00  0.00     0.189 HD
BRANCH  12  16
ATOM     16  C   UNL A   1      32.584  29.101  25.746  1.00  0.00     0.003 A 
ATOM     17  C   UNL A   1      32.264  30.274  26.444  1.00  0.00     0.010 A 
ATOM     18  C   UNL A   1      33.831  28.502  25.942  1.00  0.00     0.010 A 
ATOM     19  C   UNL A   1      33.164  30.829  27.349  1.00  0.00     0.001 A 
ATOM     20  C   UNL A   1      34.738  29.068  26.843  1.00  0.00     0.001 A 
ATOM     21  C   UNL A   1      34.401  30.224  27.550  1.00  0.00     0.000 A 
ENDBRANCH  12  16
ENDBRANCH   8  10
ENDBRANCH   6   8
ENDBRANCH   5   6
ENDBRANCH   4   5
ENDBRANCH   3   4
ENDBRANCH   1   3
BRANCH   1  22
ATOM     22  O   UNL A   1      34.878  21.365  24.457  1.00  0.00    -0.462 OA
BRANCH  22  23
ATOM     23  C   UNL A   1      35.797  20.395  24.992  1.00  0.00     0.274 C 
BRANCH  23  24
ATOM     24  C   UNL A   1      37.243  20.806  24.701  1.00  0.00     0.275 C 
BRANCH  24  25
ATOM     25  O   UNL A   1      37.755  21.711  25.697  1.00  0.00    -0.458 OA
BRANCH  25  26
ATOM     26  C   UNL A   1      39.000  21.446  26.151  1.00  0.00     0.338 C 
ATOM     27  O   UNL A   1      39.627  20.398  26.040  1.00  0.00    -0.246 OA
BRANCH  26  28
ATOM     28  C   UNL A   1      39.600  22.677  26.682  1.00  0.00     0.060 A 
ATOM     29  C   UNL A   1      39.162  23.910  26.184  1.00  0.00     0.016 A 
ATOM     30  C   UNL A   1      40.638  22.616  27.610  1.00  0.00     0.016 A 
ATOM     31  C   UNL A   1      39.742  25.091  26.615  1.00  0.00     0.010 A 
ATOM     32  C   UNL A   1      41.241  23.803  28.027  1.00  0.00     0.010 A 
ATOM     33  C   UNL A   1      40.800  25.039  27.520  1.00  0.00    -0.014 A 
BRANCH  33  34
ATOM     34  C   UNL A   1      41.534  26.280  27.818  1.00  0.00     0.031 A 
ATOM     35  C   UNL A   1      40.845  27.341  28.618  1.00  0.00     0.074 A 
ATOM     36  C   UNL A   1      42.814  26.415  27.434  1.00  0.00     0.049 A 
ATOM     37  N   UNL A   1      41.234  28.556  28.895  1.00  0.00    -0.248 NA
ATOM     38  C   UNL A   1      39.536  26.978  29.189  1.00  0.00     0.031 C 
ATOM     39  C   UNL A   1      43.604  25.389  26.756  1.00  0.00     0.029 A 
ATOM     40  N   UNL A   1      43.672  27.475  27.562  1.00  0.00    -0.354 N 
ATOM     41  C   UNL A   1      40.210  29.112  29.649  1.00  0.00     0.074 A 
ATOM     42  C   UNL A   1      39.179  28.106  29.783  1.00  0.00     0.031 C 
ATOM     43  C   UNL A   1      44.834  25.874  26.516  1.00  0.00     0.029 A 
ATOM     44  C   UNL A   1      44.891  27.261  26.970  1.00  0.00     0.049 A 
ATOM     45  H   UNL A   1      43.437  28.307  28.032  1.00  0.00     0.167 HD
ATOM     46  C   UNL A   1      40.143  30.358  30.171  1.00  0.00     0.037 A 
ATOM     47  C   UNL A   1      45.914  28.115  26.781  1.00  0.00     0.037 A 
ATOM     48  C   UNL A   1      41.183  31.340  30.023  1.00  0.00     0.049 A 
ATOM     49  C   UNL A   1      45.769  29.530  27.276  1.00  0.00     0.074 A 
ATOM     50  C   UNL A   1      41.215  32.645  30.476  1.00  0.00     0.029 A 
ATOM     51  N   UNL A   1      42.384  31.113  29.362  1.00  0.00    -0.354 N 
ATOM     52  N   UNL A   1      44.778  30.079  27.938  1.00  0.00    -0.248 NA
ATOM     53  C   UNL A   1      46.878  30.447  26.985  1.00  0.00     0.031 C 
ATOM     54  C   UNL A   1      42.418  33.221  30.053  1.00  0.00     0.029 A 
ATOM     55  C   UNL A   1      43.158  32.260  29.380  1.00  0.00     0.049 A 
ATOM     56  H   UNL A   1      42.646  30.261  28.944  1.00  0.00     0.167 HD
ATOM     57  C   UNL A   1      45.151  31.397  28.163  1.00  0.00     0.074 A 
ATOM     58  C   UNL A   1      46.467  31.560  27.577  1.00  0.00     0.031 C 
ATOM     59  C   UNL A   1      44.469  32.384  28.795  1.00  0.00     0.037 A 
BRANCH  46  60
ATOM     60  C   UNL A   1      38.883  30.732  30.893  1.00  0.00     0.064 A 
ATOM     61  C   UNL A   1      37.772  31.263  30.221  1.00  0.00     0.173 A 
ATOM     62  C   UNL A   1      38.792  30.569  32.283  1.00  0.00     0.173 A 
ATOM     63  F   UNL A   1      37.817  31.463  28.895  1.00  0.00    -0.203 F 
ATOM     64  C   UNL A   1      36.626  31.641  30.918  1.00  0.00     0.198 A 
ATOM     65  C   UNL A   1      37.635  30.922  32.974  1.00  0.00     0.198 A 
ATOM     66  F   UNL A   1      39.828  30.071  32.975  1.00  0.00    -0.203 F 
ATOM     67  F   UNL A   1      35.598  32.197  30.263  1.00  0.00    -0.200 F 
ATOM     68  C   UNL A   1      36.558  31.465  32.293  1.00  0.00     0.200 A 
ATOM     69  F   UNL A   1      37.569  30.746  34.301  1.00  0.00    -0.200 F 
ATOM     70  F   UNL A   1      35.456  31.832  32.963  1.00  0.00    -0.200 F 
ENDBRANCH  46  60
BRANCH  47  71
ATOM     71  C   UNL A   1      47.134  27.669  26.061  1.00  0.00     0.064 A 
ATOM     72  C   UNL A   1      47.196  27.693  24.662  1.00  0.00     0.173 A 
ATOM     73  C   UNL A   1      48.260  27.200  26.756  1.00  0.00     0.173 A 
ATOM     74  F   UNL A   1      46.137  28.109  23.952  1.00  0.00    -0.203 F 
ATOM     75  C   UNL A   1      48.332  27.255  23.984  1.00  0.00     0.198 A 
ATOM     76  C   UNL A   1      49.406  26.789  26.078  1.00  0.00     0.198 A 
ATOM     77  F   UNL A   1      48.251  27.152  28.096  1.00  0.00    -0.203 F 
ATOM     78  F   UNL A   1      48.349  27.249  22.644  1.00  0.00    -0.200 F 
ATOM     79  C   UNL A   1      49.438  26.810  24.692  1.00  0.00     0.200 A 
ATOM     80  F   UNL A   1      50.475  26.370  26.767  1.00  0.00    -0.200 F 
ATOM     81  F   UNL A   1      50.532  26.391  24.040  1.00  0.00    -0.200 F 
ENDBRANCH  47  71
BRANCH  59  82
ATOM     82  C   UNL A   1      45.156  33.712  28.919  1.00  0.00     0.064 A 
ATOM     83  C   UNL A   1      46.014  33.999  29.989  1.00  0.00     0.173 A 
ATOM     84  C   UNL A   1      44.982  34.691  27.930  1.00  0.00     0.173 A 
ATOM     85  F   UNL A   1      46.198  33.100  30.968  1.00  0.00    -0.203 F 
ATOM     86  C   UNL A   1      46.655  35.231  30.077  1.00  0.00     0.198 A 
ATOM     87  C   UNL A   1      45.648  35.910  28.006  1.00  0.00     0.198 A 
ATOM     88  F   UNL A   1      44.176  34.459  26.882  1.00  0.00    -0.203 F 
ATOM     89  F   UNL A   1      47.435  35.504  31.133  1.00  0.00    -0.200 F 
ATOM     90  C   UNL A   1      46.478  36.182  29.083  1.00  0.00     0.200 A 
ATOM     91  F   UNL A   1      45.488  36.822  27.037  1.00  0.00    -0.200 F 
ATOM     92  F   UNL A   1      47.104  37.364  29.166  1.00  0.00    -0.200 F 
ENDBRANCH  59  82
ENDBRANCH  33  34
ENDBRANCH  26  28
ENDBRANCH  25  26
ENDBRANCH  24  25
ENDBRANCH  23  24
ENDBRANCH  22  23
ENDBRANCH   1  22
TORSDOF 17
ENDMDL
