MODEL 1
REMARK VINA RESULT:     -14.2      0.000      0.000
REMARK SMILES Cc1cccc(CNC(=O)N[C@@H](CC2=c3ccccc3=NC2)C(=O)OCCOC(=O)c2ccc(-c3c4nc(c(-c5c(F)c(F)c(F)c(F)c5F)c5ccc([nH]5)c(-c5c(F)c(F)c(F)c(F)c5F)c5nc(c(-c6c(F)c(F)c(F)c(F)c6F)c6ccc3[nH]6)C=C5)C=C4)cc2)c1
REMARK SMILES IDX 26 1 25 2 23 3 24 4 12 5 11 6 8 7 9 8 10 10 7 12 6 13 1 14
REMARK SMILES IDX 2 15 3 16 94 17 4 18 5 19 13 20 14 21 15 22 22 23 16 24
REMARK SMILES IDX 20 25 21 26 17 27 19 28 18 29 27 30 28 31 29 32 30 33 31 34
REMARK SMILES IDX 32 35 93 36 33 37 92 38 34 39 35 40 36 41 86 42 37 43 91 44
REMARK SMILES IDX 85 45 87 46 38 47 90 48 84 49 83 50 39 52 71 53 51 54 70 55
REMARK SMILES IDX 52 56 55 57 69 58 88 59 53 60 54 61 68 63 89 64 56 65 40 66
REMARK SMILES IDX 41 67 49 68 42 69 43 70 47 71 50 72 44 73 45 74 48 75 46 76
REMARK SMILES IDX 72 77 73 78 81 79 74 80 75 81 79 82 82 83 76 84 77 85 80 86
REMARK SMILES IDX 78 87 57 88 58 89 66 90 59 91 60 92 64 93 67 94 61 95 62 96
REMARK SMILES IDX 65 97 63 98
REMARK H PARENT 8 9 11 11 87 51 55 62
REMARK Flexibility Score: inf
ROOT
ATOM      1  C   UNL A   1      32.548  30.820  26.813  1.00  0.00     0.274 C 
ENDROOT
BRANCH   1   2
ATOM      2  O   UNL A   1      32.934  29.470  26.480  1.00  0.00    -0.461 OA
BRANCH   2   3
ATOM      3  C   UNL A   1      31.950  28.402  26.687  1.00  0.00     0.329 C 
ATOM      4  O   UNL A   1      31.966  28.254  27.954  1.00  0.00    -0.250 OA
BRANCH   3   5
ATOM      5  C   UNL A   1      30.682  27.563  25.115  1.00  0.00     0.198 C 
BRANCH   5   6
ATOM      6  N   UNL A   1      30.242  28.208  23.636  1.00  0.00    -0.324 N 
ATOM      7  N   UNL A   1      31.952  29.325  22.387  1.00  0.00    -0.334 N 
ATOM      8  C   UNL A   1      30.698  28.997  22.667  1.00  0.00     0.315 C 
ATOM      9  H   UNL A   1      31.978  30.008  21.678  1.00  0.00     0.165 HD
ATOM     10  O   UNL A   1      29.831  29.478  21.929  1.00  0.00    -0.249 OA
ATOM     11  H   UNL A   1      29.336  27.898  23.404  1.00  0.00     0.166 HD
BRANCH   7  12
ATOM     12  C   UNL A   1      33.297  28.981  22.809  1.00  0.00     0.153 C 
BRANCH  12  13
ATOM     13  C   UNL A   1      33.590  27.489  22.846  1.00  0.00    -0.028 A 
ATOM     14  C   UNL A   1      34.634  24.897  25.473  1.00  0.00     0.044 C 
ATOM     15  C   UNL A   1      34.188  25.518  24.180  1.00  0.00    -0.051 A 
ATOM     16  C   UNL A   1      33.810  24.691  23.118  1.00  0.00     0.003 A 
ATOM     17  C   UNL A   1      34.068  26.911  24.038  1.00  0.00     0.009 A 
ATOM     18  C   UNL A   1      33.363  25.246  21.921  1.00  0.00     0.001 A 
ATOM     19  C   UNL A   1      33.279  26.632  21.777  1.00  0.00     0.005 A 
ENDBRANCH  12  13
ENDBRANCH   7  12
ENDBRANCH   5   6
BRANCH   5  20
ATOM     20  C   UNL A   1      30.515  25.875  24.423  1.00  0.00     0.070 C 
BRANCH  20  21
ATOM     21  C   UNL A   1      30.655  24.505  25.105  1.00  0.00    -0.037 C 
ATOM     22  C   UNL A   1      31.026  23.282  24.710  1.00  0.00     0.001 A 
ATOM     23  C   UNL A   1      30.532  24.475  26.616  1.00  0.00     0.174 C 
ATOM     24  C   UNL A   1      31.196  22.566  23.486  1.00  0.00     0.010 A 
ATOM     25  C   UNL A   1      31.690  22.788  25.941  1.00  0.00     0.065 A 
ATOM     26  N   UNL A   1      31.407  23.375  27.063  1.00  0.00    -0.280 NA
ATOM     27  C   UNL A   1      32.157  21.631  23.394  1.00  0.00     0.001 A 
ATOM     28  C   UNL A   1      32.769  21.789  25.757  1.00  0.00     0.028 A 
ATOM     29  C   UNL A   1      33.015  21.321  24.522  1.00  0.00     0.002 A 
ENDBRANCH  20  21
ENDBRANCH   5  20
ENDBRANCH   3   5
ENDBRANCH   2   3
ENDBRANCH   1   2
BRANCH   1  30
ATOM     30  C   UNL A   1      33.556  31.421  27.803  1.00  0.00     0.275 C 
BRANCH  30  31
ATOM     31  O   UNL A   1      34.882  31.645  27.250  1.00  0.00    -0.458 OA
BRANCH  31  32
ATOM     32  C   UNL A   1      36.012  31.574  28.007  1.00  0.00     0.338 C 
ATOM     33  O   UNL A   1      36.636  32.536  28.418  1.00  0.00    -0.246 OA
BRANCH  32  34
ATOM     34  C   UNL A   1      36.578  30.218  28.053  1.00  0.00     0.060 A 
ATOM     35  C   UNL A   1      36.542  29.329  29.620  1.00  0.00     0.016 A 
ATOM     36  C   UNL A   1      37.856  29.838  26.865  1.00  0.00     0.016 A 
ATOM     37  C   UNL A   1      37.907  28.227  30.091  1.00  0.00     0.010 A 
ATOM     38  C   UNL A   1      39.219  28.734  27.331  1.00  0.00     0.010 A 
ATOM     39  C   UNL A   1      39.254  27.975  28.958  1.00  0.00    -0.014 A 
BRANCH  39  40
ATOM     40  C   UNL A   1      40.656  27.805  29.363  1.00  0.00     0.031 A 
ATOM     41  C   UNL A   1      41.425  26.730  28.728  1.00  0.00     0.074 A 
ATOM     42  C   UNL A   1      41.271  28.885  29.890  1.00  0.00     0.049 A 
ATOM     43  N   UNL A   1      42.512  26.890  28.051  1.00  0.00    -0.248 NA
ATOM     44  C   UNL A   1      40.943  25.350  28.798  1.00  0.00     0.031 C 
ATOM     45  C   UNL A   1      42.678  29.257  29.835  1.00  0.00     0.029 A 
ATOM     46  N   UNL A   1      40.715  29.861  30.698  1.00  0.00    -0.354 N 
ATOM     47  C   UNL A   1      42.961  25.636  27.718  1.00  0.00     0.074 A 
ATOM     48  C   UNL A   1      41.896  24.717  28.112  1.00  0.00     0.031 C 
ATOM     49  C   UNL A   1      42.916  30.229  30.734  1.00  0.00     0.029 A 
ATOM     50  C   UNL A   1      41.697  30.451  31.491  1.00  0.00     0.049 A 
ATOM     51  H   UNL A   1      39.761  30.104  30.711  1.00  0.00     0.167 HD
ATOM     52  C   UNL A   1      44.251  25.276  27.945  1.00  0.00     0.037 A 
ATOM     53  C   UNL A   1      41.571  30.293  32.841  1.00  0.00     0.037 A 
ATOM     54  C   UNL A   1      44.839  25.995  29.057  1.00  0.00     0.049 A 
ATOM     55  C   UNL A   1      42.462  29.172  33.327  1.00  0.00     0.074 A 
ATOM     56  C   UNL A   1      45.581  27.154  29.177  1.00  0.00     0.029 A 
ATOM     57  N   UNL A   1      44.432  25.650  30.343  1.00  0.00    -0.354 N 
ATOM     58  N   UNL A   1      43.028  28.295  32.541  1.00  0.00    -0.248 NA
ATOM     59  C   UNL A   1      42.828  28.982  34.725  1.00  0.00     0.031 C 
ATOM     60  C   UNL A   1      45.548  27.546  30.546  1.00  0.00     0.029 A 
ATOM     61  C   UNL A   1      44.827  26.602  31.265  1.00  0.00     0.049 A 
ATOM     62  H   UNL A   1      43.929  24.835  30.567  1.00  0.00     0.167 HD
ATOM     63  C   UNL A   1      43.829  27.465  33.269  1.00  0.00     0.074 A 
ATOM     64  C   UNL A   1      43.676  27.943  34.633  1.00  0.00     0.031 C 
ATOM     65  C   UNL A   1      44.544  26.453  32.693  1.00  0.00     0.037 A 
BRANCH  52  66
ATOM     66  C   UNL A   1      44.950  24.560  26.819  1.00  0.00     0.064 A 
ATOM     67  C   UNL A   1      44.808  23.174  26.636  1.00  0.00     0.173 A 
ATOM     68  C   UNL A   1      45.840  25.205  25.926  1.00  0.00     0.173 A 
ATOM     69  F   UNL A   1      43.986  22.455  27.413  1.00  0.00    -0.203 F 
ATOM     70  C   UNL A   1      45.528  22.480  25.656  1.00  0.00     0.198 A 
ATOM     71  C   UNL A   1      46.551  24.512  24.945  1.00  0.00     0.198 A 
ATOM     72  F   UNL A   1      46.047  26.529  25.977  1.00  0.00    -0.203 F 
ATOM     73  F   UNL A   1      45.380  21.153  25.535  1.00  0.00    -0.200 F 
ATOM     74  C   UNL A   1      46.402  23.148  24.817  1.00  0.00     0.200 A 
ATOM     75  F   UNL A   1      47.385  25.176  24.131  1.00  0.00    -0.200 F 
ATOM     76  F   UNL A   1      47.095  22.478  23.885  1.00  0.00    -0.200 F 
ENDBRANCH  52  66
BRANCH  53  77
ATOM     77  C   UNL A   1      40.179  30.621  33.282  1.00  0.00     0.064 A 
ATOM     78  C   UNL A   1      39.831  31.991  33.264  1.00  0.00     0.173 A 
ATOM     79  C   UNL A   1      39.127  29.698  33.255  1.00  0.00     0.173 A 
ATOM     80  F   UNL A   1      40.798  32.923  33.305  1.00  0.00    -0.203 F 
ATOM     81  C   UNL A   1      38.520  32.412  33.058  1.00  0.00     0.198 A 
ATOM     82  C   UNL A   1      37.804  30.128  33.081  1.00  0.00     0.198 A 
ATOM     83  F   UNL A   1      39.375  28.381  33.248  1.00  0.00    -0.203 F 
ATOM     84  F   UNL A   1      38.253  33.717  32.898  1.00  0.00    -0.200 F 
ATOM     85  C   UNL A   1      37.512  31.478  32.933  1.00  0.00     0.200 A 
ATOM     86  F   UNL A   1      36.826  29.220  32.942  1.00  0.00    -0.200 F 
ATOM     87  F   UNL A   1      36.271  31.878  32.626  1.00  0.00    -0.200 F 
ENDBRANCH  53  77
BRANCH  65  88
ATOM     88  C   UNL A   1      45.137  25.299  33.469  1.00  0.00     0.064 A 
ATOM     89  C   UNL A   1      44.369  24.247  33.999  1.00  0.00     0.173 A 
ATOM     90  C   UNL A   1      46.537  25.143  33.596  1.00  0.00     0.173 A 
ATOM     91  F   UNL A   1      43.049  24.168  33.786  1.00  0.00    -0.203 F 
ATOM     92  C   UNL A   1      44.941  23.192  34.711  1.00  0.00     0.198 A 
ATOM     93  C   UNL A   1      47.111  24.046  34.239  1.00  0.00     0.198 A 
ATOM     94  F   UNL A   1      47.394  26.028  33.065  1.00  0.00    -0.203 F 
ATOM     95  F   UNL A   1      44.148  22.259  35.257  1.00  0.00    -0.200 F 
ATOM     96  C   UNL A   1      46.311  23.088  34.826  1.00  0.00     0.200 A 
ATOM     97  F   UNL A   1      48.444  23.913  34.266  1.00  0.00    -0.200 F 
ATOM     98  F   UNL A   1      46.859  22.050  35.470  1.00  0.00    -0.200 F 
ENDBRANCH  65  88
ENDBRANCH  39  40
ENDBRANCH  32  34
ENDBRANCH  31  32
ENDBRANCH  30  31
ENDBRANCH   1  30
TORSDOF 16
ENDMDL
MODEL 2
REMARK VINA RESULT:     -13.7      1.265      3.314
REMARK SMILES Cc1cccc(CNC(=O)N[C@@H](CC2=c3ccccc3=NC2)C(=O)OCCOC(=O)c2ccc(-c3c4nc(c(-c5c(F)c(F)c(F)c(F)c5F)c5ccc([nH]5)c(-c5c(F)c(F)c(F)c(F)c5F)c5nc(c(-c6c(F)c(F)c(F)c(F)c6F)c6ccc3[nH]6)C=C5)C=C4)cc2)c1
REMARK SMILES IDX 26 1 25 2 23 3 24 4 12 5 11 6 8 7 9 8 10 10 7 12 6 13 1 14
REMARK SMILES IDX 2 15 3 16 94 17 4 18 5 19 13 20 14 21 15 22 22 23 16 24
REMARK SMILES IDX 20 25 21 26 17 27 19 28 18 29 27 30 28 31 29 32 30 33 31 34
REMARK SMILES IDX 32 35 93 36 33 37 92 38 34 39 35 40 36 41 86 42 37 43 91 44
REMARK SMILES IDX 85 45 87 46 38 47 90 48 84 49 83 50 39 52 71 53 51 54 70 55
REMARK SMILES IDX 52 56 55 57 69 58 88 59 53 60 54 61 68 63 89 64 56 65 40 66
REMARK SMILES IDX 41 67 49 68 42 69 43 70 47 71 50 72 44 73 45 74 48 75 46 76
REMARK SMILES IDX 72 77 73 78 81 79 74 80 75 81 79 82 82 83 76 84 77 85 80 86
REMARK SMILES IDX 78 87 57 88 58 89 66 90 59 91 60 92 64 93 67 94 61 95 62 96
REMARK SMILES IDX 65 97 63 98
REMARK H PARENT 8 9 11 11 87 51 55 62
REMARK Flexibility Score: inf
ROOT
ATOM      1  C   UNL A   1      33.387  30.407  26.661  1.00  0.00     0.274 C 
ENDROOT
BRANCH   1   2
ATOM      2  O   UNL A   1      32.757  29.183  27.094  1.00  0.00    -0.461 OA
BRANCH   2   3
ATOM      3  C   UNL A   1      33.154  27.935  26.434  1.00  0.00     0.329 C 
ATOM      4  O   UNL A   1      34.425  27.964  26.530  1.00  0.00    -0.250 OA
BRANCH   3   5
ATOM      5  C   UNL A   1      31.757  26.404  25.735  1.00  0.00     0.198 C 
BRANCH   5   6
ATOM      6  N   UNL A   1      31.021  25.161  26.577  1.00  0.00    -0.324 N 
ATOM      7  N   UNL A   1      32.366  23.244  27.076  1.00  0.00    -0.334 N 
ATOM      8  C   UNL A   1      31.220  23.904  26.962  1.00  0.00     0.315 C 
ATOM      9  H   UNL A   1      32.196  22.296  27.283  1.00  0.00     0.165 HD
ATOM     10  O   UNL A   1      30.198  23.276  27.261  1.00  0.00    -0.249 OA
ATOM     11  H   UNL A   1      30.139  25.463  26.895  1.00  0.00     0.166 HD
BRANCH   7  12
ATOM     12  C   UNL A   1      33.791  23.495  26.987  1.00  0.00     0.153 C 
BRANCH  12  13
ATOM     13  C   UNL A   1      34.412  23.168  25.637  1.00  0.00    -0.028 A 
ATOM     14  C   UNL A   1      33.354  23.300  21.954  1.00  0.00     0.044 C 
ATOM     15  C   UNL A   1      34.185  23.137  23.194  1.00  0.00    -0.051 A 
ATOM     16  C   UNL A   1      35.564  22.939  23.074  1.00  0.00     0.003 A 
ATOM     17  C   UNL A   1      33.621  23.258  24.475  1.00  0.00     0.009 A 
ATOM     18  C   UNL A   1      36.357  22.818  24.212  1.00  0.00     0.001 A 
ATOM     19  C   UNL A   1      35.783  22.905  25.482  1.00  0.00     0.005 A 
ENDBRANCH  12  13
ENDBRANCH   7  12
ENDBRANCH   5   6
BRANCH   5  20
ATOM     20  C   UNL A   1      30.339  26.453  24.576  1.00  0.00     0.070 C 
BRANCH  20  21
ATOM     21  C   UNL A   1      30.039  27.414  23.414  1.00  0.00    -0.037 C 
ATOM     22  C   UNL A   1      28.995  28.169  23.053  1.00  0.00     0.001 A 
ATOM     23  C   UNL A   1      31.202  27.787  22.515  1.00  0.00     0.174 C 
ATOM     24  C   UNL A   1      27.603  28.269  23.349  1.00  0.00     0.010 A 
ATOM     25  C   UNL A   1      29.696  29.326  22.444  1.00  0.00     0.065 A 
ATOM     26  N   UNL A   1      30.923  29.161  22.058  1.00  0.00    -0.280 NA
ATOM     27  C   UNL A   1      27.007  29.474  23.335  1.00  0.00     0.001 A 
ATOM     28  C   UNL A   1      28.995  30.630  22.503  1.00  0.00     0.028 A 
ATOM     29  C   UNL A   1      27.750  30.675  23.005  1.00  0.00     0.002 A 
ENDBRANCH  20  21
ENDBRANCH   5  20
ENDBRANCH   3   5
ENDBRANCH   2   3
ENDBRANCH   1   2
BRANCH   1  30
ATOM     30  C   UNL A   1      33.938  31.168  27.875  1.00  0.00     0.275 C 
BRANCH  30  31
ATOM     31  O   UNL A   1      35.176  31.888  27.623  1.00  0.00    -0.458 OA
BRANCH  31  32
ATOM     32  C   UNL A   1      36.288  31.723  28.391  1.00  0.00     0.338 C 
ATOM     33  O   UNL A   1      36.929  32.630  28.893  1.00  0.00    -0.246 OA
BRANCH  32  34
ATOM     34  C   UNL A   1      36.819  30.353  28.332  1.00  0.00     0.060 A 
ATOM     35  C   UNL A   1      36.773  29.352  29.830  1.00  0.00     0.016 A 
ATOM     36  C   UNL A   1      38.076  30.028  27.106  1.00  0.00     0.016 A 
ATOM     37  C   UNL A   1      38.111  28.184  30.205  1.00  0.00     0.010 A 
ATOM     38  C   UNL A   1      39.413  28.858  27.475  1.00  0.00     0.010 A 
ATOM     39  C   UNL A   1      39.442  27.981  29.042  1.00  0.00    -0.014 A 
BRANCH  39  40
ATOM     40  C   UNL A   1      40.842  27.746  29.419  1.00  0.00     0.031 A 
ATOM     41  C   UNL A   1      41.552  26.646  28.757  1.00  0.00     0.074 A 
ATOM     42  C   UNL A   1      41.513  28.792  29.946  1.00  0.00     0.049 A 
ATOM     43  N   UNL A   1      42.632  26.768  28.062  1.00  0.00    -0.248 NA
ATOM     44  C   UNL A   1      41.011  25.287  28.821  1.00  0.00     0.031 C 
ATOM     45  C   UNL A   1      42.934  29.103  29.869  1.00  0.00     0.029 A 
ATOM     46  N   UNL A   1      41.015  29.781  30.776  1.00  0.00    -0.354 N 
ATOM     47  C   UNL A   1      43.020  25.498  27.707  1.00  0.00     0.074 A 
ATOM     48  C   UNL A   1      41.924  24.622  28.110  1.00  0.00     0.031 C 
ATOM     49  C   UNL A   1      43.230  30.053  30.774  1.00  0.00     0.029 A 
ATOM     50  C   UNL A   1      42.035  30.319  31.556  1.00  0.00     0.049 A 
ATOM     51  H   UNL A   1      40.073  30.065  30.810  1.00  0.00     0.167 HD
ATOM     52  C   UNL A   1      44.297  25.080  27.905  1.00  0.00     0.037 A 
ATOM     53  C   UNL A   1      41.928  30.149  32.906  1.00  0.00     0.037 A 
ATOM     54  C   UNL A   1      44.936  25.760  29.014  1.00  0.00     0.049 A 
ATOM     55  C   UNL A   1      42.777  28.985  33.364  1.00  0.00     0.074 A 
ATOM     56  C   UNL A   1      45.729  26.884  29.133  1.00  0.00     0.029 A 
ATOM     57  N   UNL A   1      44.538  25.417  30.303  1.00  0.00    -0.354 N 
ATOM     58  N   UNL A   1      43.290  28.094  32.557  1.00  0.00    -0.248 NA
ATOM     59  C   UNL A   1      43.160  28.763  34.752  1.00  0.00     0.031 C 
ATOM     60  C   UNL A   1      45.739  27.261  30.507  1.00  0.00     0.029 A 
ATOM     61  C   UNL A   1      44.991  26.340  31.228  1.00  0.00     0.049 A 
ATOM     62  H   UNL A   1      44.004  24.622  30.528  1.00  0.00     0.167 HD
ATOM     63  C   UNL A   1      44.067  27.222  33.261  1.00  0.00     0.074 A 
ATOM     64  C   UNL A   1      43.961  27.689  34.632  1.00  0.00     0.031 C 
ATOM     65  C   UNL A   1      44.727  26.186  32.660  1.00  0.00     0.037 A 
BRANCH  52  66
ATOM     66  C   UNL A   1      44.944  24.349  26.758  1.00  0.00     0.064 A 
ATOM     67  C   UNL A   1      44.704  22.981  26.537  1.00  0.00     0.173 A 
ATOM     68  C   UNL A   1      45.877  24.953  25.881  1.00  0.00     0.173 A 
ATOM     69  F   UNL A   1      43.833  22.302  27.295  1.00  0.00    -0.203 F 
ATOM     70  C   UNL A   1      45.373  22.266  25.537  1.00  0.00     0.198 A 
ATOM     71  C   UNL A   1      46.538  24.240  24.881  1.00  0.00     0.198 A 
ATOM     72  F   UNL A   1      46.178  26.258  25.969  1.00  0.00    -0.203 F 
ATOM     73  F   UNL A   1      45.131  20.957  25.379  1.00  0.00    -0.200 F 
ATOM     74  C   UNL A   1      46.292  22.893  24.714  1.00  0.00     0.200 A 
ATOM     75  F   UNL A   1      47.416  24.866  24.084  1.00  0.00    -0.200 F 
ATOM     76  F   UNL A   1      46.936  22.203  23.763  1.00  0.00    -0.200 F 
ENDBRANCH  52  66
BRANCH  53  77
ATOM     77  C   UNL A   1      40.559  30.532  33.378  1.00  0.00     0.064 A 
ATOM     78  C   UNL A   1      40.273  31.917  33.385  1.00  0.00     0.173 A 
ATOM     79  C   UNL A   1      39.467  29.657  33.356  1.00  0.00     0.173 A 
ATOM     80  F   UNL A   1      41.280  32.804  33.422  1.00  0.00    -0.203 F 
ATOM     81  C   UNL A   1      38.978  32.398  33.208  1.00  0.00     0.198 A 
ATOM     82  C   UNL A   1      38.162  30.148  33.212  1.00  0.00     0.198 A 
ATOM     83  F   UNL A   1      39.657  28.330  33.326  1.00  0.00    -0.203 F 
ATOM     84  F   UNL A   1      38.767  33.716  33.072  1.00  0.00    -0.200 F 
ATOM     85  C   UNL A   1      37.928  31.511  33.089  1.00  0.00     0.200 A 
ATOM     86  F   UNL A   1      37.142  29.286  33.078  1.00  0.00    -0.200 F 
ATOM     87  F   UNL A   1      36.701  31.970  32.810  1.00  0.00    -0.200 F 
ENDBRANCH  53  77
BRANCH  65  88
ATOM     88  C   UNL A   1      45.284  24.999  33.412  1.00  0.00     0.064 A 
ATOM     89  C   UNL A   1      46.478  25.044  34.154  1.00  0.00     0.173 A 
ATOM     90  C   UNL A   1      44.555  23.792  33.520  1.00  0.00     0.173 A 
ATOM     91  F   UNL A   1      47.171  26.181  34.297  1.00  0.00    -0.203 F 
ATOM     92  C   UNL A   1      46.971  23.934  34.841  1.00  0.00     0.198 A 
ATOM     93  C   UNL A   1      45.012  22.709  34.272  1.00  0.00     0.198 A 
ATOM     94  F   UNL A   1      43.360  23.637  32.933  1.00  0.00    -0.203 F 
ATOM     95  F   UNL A   1      48.154  24.017  35.466  1.00  0.00    -0.200 F 
ATOM     96  C   UNL A   1      46.236  22.769  34.905  1.00  0.00     0.200 A 
ATOM     97  F   UNL A   1      44.245  21.617  34.399  1.00  0.00    -0.200 F 
ATOM     98  F   UNL A   1      46.690  21.721  35.603  1.00  0.00    -0.200 F 
ENDBRANCH  65  88
ENDBRANCH  39  40
ENDBRANCH  32  34
ENDBRANCH  31  32
ENDBRANCH  30  31
ENDBRANCH   1  30
TORSDOF 16
ENDMDL
MODEL 3
REMARK VINA RESULT:     -13.6      1.324      2.438
REMARK SMILES Cc1cccc(CNC(=O)N[C@@H](CC2=c3ccccc3=NC2)C(=O)OCCOC(=O)c2ccc(-c3c4nc(c(-c5c(F)c(F)c(F)c(F)c5F)c5ccc([nH]5)c(-c5c(F)c(F)c(F)c(F)c5F)c5nc(c(-c6c(F)c(F)c(F)c(F)c6F)c6ccc3[nH]6)C=C5)C=C4)cc2)c1
REMARK SMILES IDX 26 1 25 2 23 3 24 4 12 5 11 6 8 7 9 8 10 10 7 12 6 13 1 14
REMARK SMILES IDX 2 15 3 16 94 17 4 18 5 19 13 20 14 21 15 22 22 23 16 24
REMARK SMILES IDX 20 25 21 26 17 27 19 28 18 29 27 30 28 31 29 32 30 33 31 34
REMARK SMILES IDX 32 35 93 36 33 37 92 38 34 39 35 40 36 41 86 42 37 43 91 44
REMARK SMILES IDX 85 45 87 46 38 47 90 48 84 49 83 50 39 52 71 53 51 54 70 55
REMARK SMILES IDX 52 56 55 57 69 58 88 59 53 60 54 61 68 63 89 64 56 65 40 66
REMARK SMILES IDX 41 67 49 68 42 69 43 70 47 71 50 72 44 73 45 74 48 75 46 76
REMARK SMILES IDX 72 77 73 78 81 79 74 80 75 81 79 82 82 83 76 84 77 85 80 86
REMARK SMILES IDX 78 87 57 88 58 89 66 90 59 91 60 92 64 93 67 94 61 95 62 96
REMARK SMILES IDX 65 97 63 98
REMARK H PARENT 8 9 11 11 87 51 55 62
REMARK Flexibility Score: inf
ROOT
ATOM      1  C   UNL A   1      33.066  31.287  27.372  1.00  0.00     0.274 C 
ENDROOT
BRANCH   1   2
ATOM      2  O   UNL A   1      33.636  30.225  26.579  1.00  0.00    -0.461 OA
BRANCH   2   3
ATOM      3  C   UNL A   1      32.784  29.076  26.254  1.00  0.00     0.329 C 
ATOM      4  O   UNL A   1      31.642  29.450  26.681  1.00  0.00    -0.250 OA
BRANCH   3   5
ATOM      5  C   UNL A   1      33.435  27.337  25.098  1.00  0.00     0.198 C 
BRANCH   5   6
ATOM      6  N   UNL A   1      33.600  27.151  23.445  1.00  0.00    -0.324 N 
ATOM      7  N   UNL A   1      31.977  25.781  22.341  1.00  0.00    -0.334 N 
ATOM      8  C   UNL A   1      33.122  26.446  22.424  1.00  0.00     0.315 C 
ATOM      9  H   UNL A   1      31.938  25.268  21.501  1.00  0.00     0.165 HD
ATOM     10  O   UNL A   1      33.842  26.417  21.420  1.00  0.00    -0.249 OA
ATOM     11  H   UNL A   1      34.285  27.778  23.114  1.00  0.00     0.166 HD
BRANCH   7  12
ATOM     12  C   UNL A   1      30.764  25.583  23.111  1.00  0.00     0.153 C 
BRANCH  12  13
ATOM     13  C   UNL A   1      30.809  24.407  24.076  1.00  0.00    -0.028 A 
ATOM     14  C   UNL A   1      32.405  20.922  24.182  1.00  0.00     0.044 C 
ATOM     15  C   UNL A   1      31.668  22.165  24.587  1.00  0.00    -0.051 A 
ATOM     16  C   UNL A   1      31.261  22.319  25.916  1.00  0.00     0.003 A 
ATOM     17  C   UNL A   1      31.445  23.214  23.679  1.00  0.00     0.009 A 
ATOM     18  C   UNL A   1      30.604  23.479  26.319  1.00  0.00     0.001 A 
ATOM     19  C   UNL A   1      30.357  24.502  25.402  1.00  0.00     0.005 A 
ENDBRANCH  12  13
ENDBRANCH   7  12
ENDBRANCH   5   6
BRANCH   5  20
ATOM     20  C   UNL A   1      34.751  26.091  25.364  1.00  0.00     0.070 C 
BRANCH  20  21
ATOM     21  C   UNL A   1      34.666  24.557  25.432  1.00  0.00    -0.037 C 
ATOM     22  C   UNL A   1      35.159  23.546  24.708  1.00  0.00     0.001 A 
ATOM     23  C   UNL A   1      34.043  23.960  26.679  1.00  0.00     0.174 C 
ATOM     24  C   UNL A   1      35.736  23.347  23.418  1.00  0.00     0.010 A 
ATOM     25  C   UNL A   1      35.374  22.532  25.768  1.00  0.00     0.065 A 
ATOM     26  N   UNL A   1      34.726  22.669  26.883  1.00  0.00    -0.280 NA
ATOM     27  C   UNL A   1      36.680  22.404  23.254  1.00  0.00     0.001 A 
ATOM     28  C   UNL A   1      36.461  21.551  25.535  1.00  0.00     0.028 A 
ATOM     29  C   UNL A   1      37.112  21.572  24.361  1.00  0.00     0.002 A 
ENDBRANCH  20  21
ENDBRANCH   5  20
ENDBRANCH   3   5
ENDBRANCH   2   3
ENDBRANCH   1   2
BRANCH   1  30
ATOM     30  C   UNL A   1      34.173  32.000  28.161  1.00  0.00     0.275 C 
BRANCH  30  31
ATOM     31  O   UNL A   1      35.518  31.759  27.664  1.00  0.00    -0.458 OA
BRANCH  31  32
ATOM     32  C   UNL A   1      36.582  31.570  28.492  1.00  0.00     0.338 C 
ATOM     33  O   UNL A   1      37.187  32.460  29.062  1.00  0.00    -0.246 OA
BRANCH  32  34
ATOM     34  C   UNL A   1      37.120  30.203  28.420  1.00  0.00     0.060 A 
ATOM     35  C   UNL A   1      37.025  29.168  29.892  1.00  0.00     0.016 A 
ATOM     36  C   UNL A   1      38.421  29.911  27.232  1.00  0.00     0.016 A 
ATOM     37  C   UNL A   1      38.354  27.995  30.288  1.00  0.00     0.010 A 
ATOM     38  C   UNL A   1      39.749  28.737  27.622  1.00  0.00     0.010 A 
ATOM     39  C   UNL A   1      39.725  27.824  29.169  1.00  0.00    -0.014 A 
BRANCH  39  40
ATOM     40  C   UNL A   1      41.113  27.585  29.589  1.00  0.00     0.031 A 
ATOM     41  C   UNL A   1      41.866  26.535  28.894  1.00  0.00     0.074 A 
ATOM     42  C   UNL A   1      41.745  28.606  30.205  1.00  0.00     0.049 A 
ATOM     43  N   UNL A   1      42.972  26.713  28.253  1.00  0.00    -0.248 NA
ATOM     44  C   UNL A   1      41.344  25.169  28.854  1.00  0.00     0.031 C 
ATOM     45  C   UNL A   1      43.163  28.939  30.207  1.00  0.00     0.029 A 
ATOM     46  N   UNL A   1      41.198  29.537  31.071  1.00  0.00    -0.354 N 
ATOM     47  C   UNL A   1      43.393  25.472  27.840  1.00  0.00     0.074 A 
ATOM     48  C   UNL A   1      42.295  24.559  28.144  1.00  0.00     0.031 C 
ATOM     49  C   UNL A   1      43.407  29.837  31.178  1.00  0.00     0.029 A 
ATOM     50  C   UNL A   1      42.177  30.040  31.924  1.00  0.00     0.049 A 
ATOM     51  H   UNL A   1      40.251  29.806  31.081  1.00  0.00     0.167 HD
ATOM     52  C   UNL A   1      44.668  25.059  28.066  1.00  0.00     0.037 A 
ATOM     53  C   UNL A   1      42.016  29.788  33.256  1.00  0.00     0.037 A 
ATOM     54  C   UNL A   1      45.250  25.680  29.240  1.00  0.00     0.049 A 
ATOM     55  C   UNL A   1      42.864  28.610  33.678  1.00  0.00     0.074 A 
ATOM     56  C   UNL A   1      46.020  26.805  29.458  1.00  0.00     0.029 A 
ATOM     57  N   UNL A   1      44.804  25.255  30.489  1.00  0.00    -0.354 N 
ATOM     58  N   UNL A   1      43.424  27.775  32.842  1.00  0.00    -0.248 NA
ATOM     59  C   UNL A   1      43.193  28.310  35.066  1.00  0.00     0.031 C 
ATOM     60  C   UNL A   1      45.968  27.098  30.851  1.00  0.00     0.029 A 
ATOM     61  C   UNL A   1      45.204  26.126  31.485  1.00  0.00     0.049 A 
ATOM     62  H   UNL A   1      44.274  24.441  30.643  1.00  0.00     0.167 HD
ATOM     63  C   UNL A   1      44.185  26.873  33.526  1.00  0.00     0.074 A 
ATOM     64  C   UNL A   1      44.014  27.256  34.917  1.00  0.00     0.031 C 
ATOM     65  C   UNL A   1      44.884  25.884  32.893  1.00  0.00     0.037 A 
BRANCH  52  66
ATOM     66  C   UNL A   1      45.372  24.406  26.907  1.00  0.00     0.064 A 
ATOM     67  C   UNL A   1      46.244  25.135  26.079  1.00  0.00     0.173 A 
ATOM     68  C   UNL A   1      45.158  23.058  26.530  1.00  0.00     0.173 A 
ATOM     69  F   UNL A   1      46.535  26.416  26.340  1.00  0.00    -0.203 F 
ATOM     70  C   UNL A   1      46.829  24.567  24.941  1.00  0.00     0.198 A 
ATOM     71  C   UNL A   1      45.747  22.492  25.399  1.00  0.00     0.198 A 
ATOM     72  F   UNL A   1      44.367  22.247  27.248  1.00  0.00    -0.203 F 
ATOM     73  F   UNL A   1      47.634  25.307  24.166  1.00  0.00    -0.200 F 
ATOM     74  C   UNL A   1      46.576  23.250  24.599  1.00  0.00     0.200 A 
ATOM     75  F   UNL A   1      45.502  21.211  25.088  1.00  0.00    -0.200 F 
ATOM     76  F   UNL A   1      47.132  22.713  23.504  1.00  0.00    -0.200 F 
ENDBRANCH  52  66
BRANCH  53  77
ATOM     77  C   UNL A   1      40.624  30.125  33.691  1.00  0.00     0.064 A 
ATOM     78  C   UNL A   1      40.321  31.503  33.783  1.00  0.00     0.173 A 
ATOM     79  C   UNL A   1      39.544  29.244  33.558  1.00  0.00     0.173 A 
ATOM     80  F   UNL A   1      41.315  32.394  33.928  1.00  0.00    -0.203 F 
ATOM     81  C   UNL A   1      39.030  31.984  33.583  1.00  0.00     0.198 A 
ATOM     82  C   UNL A   1      38.241  29.732  33.391  1.00  0.00     0.198 A 
ATOM     83  F   UNL A   1      39.751  27.925  33.444  1.00  0.00    -0.203 F 
ATOM     84  F   UNL A   1      38.809  33.306  33.530  1.00  0.00    -0.200 F 
ATOM     85  C   UNL A   1      37.997  31.099  33.354  1.00  0.00     0.200 A 
ATOM     86  F   UNL A   1      37.239  28.874  33.151  1.00  0.00    -0.200 F 
ATOM     87  F   UNL A   1      36.778  31.565  33.053  1.00  0.00    -0.200 F 
ENDBRANCH  53  77
BRANCH  65  88
ATOM     88  C   UNL A   1      45.428  24.661  33.595  1.00  0.00     0.064 A 
ATOM     89  C   UNL A   1      44.692  23.474  33.762  1.00  0.00     0.173 A 
ATOM     90  C   UNL A   1      46.776  24.595  34.016  1.00  0.00     0.173 A 
ATOM     91  F   UNL A   1      43.467  23.330  33.240  1.00  0.00    -0.203 F 
ATOM     92  C   UNL A   1      45.216  22.357  34.413  1.00  0.00     0.198 A 
ATOM     93  C   UNL A   1      47.322  23.450  34.596  1.00  0.00     0.198 A 
ATOM     94  F   UNL A   1      47.618  25.624  33.843  1.00  0.00    -0.203 F 
ATOM     95  F   UNL A   1      44.440  21.282  34.609  1.00  0.00    -0.200 F 
ATOM     96  C   UNL A   1      46.533  22.343  34.826  1.00  0.00     0.200 A 
ATOM     97  F   UNL A   1      48.625  23.419  34.909  1.00  0.00    -0.200 F 
ATOM     98  F   UNL A   1      47.047  21.252  35.409  1.00  0.00    -0.200 F 
ENDBRANCH  65  88
ENDBRANCH  39  40
ENDBRANCH  32  34
ENDBRANCH  31  32
ENDBRANCH  30  31
ENDBRANCH   1  30
TORSDOF 16
ENDMDL
