MODEL 1
REMARK VINA RESULT:     -10.4      0.000      0.000
REMARK SMILES O=C(OCCOC(=O)[C@@H](NC(=O)c1cscn1)c1ccccc1C(F)(F)F)c1ccc(-c2c3nc(c(-c4c(F)c(F)c(F)c(F)c4F)c4ccc([nH]4)c(-c4c(F)c(F)c(F)c(F)c4F)c4nc(c(-c5c(F)c(F)c(F)c(F)c5F)c5ccc2[nH]5)C=C4)C=C3)cc1
REMARK SMILES IDX 4 1 3 2 2 3 1 4 28 5 29 6 90 7 30 8 89 9 31 10 32 11 33 12
REMARK SMILES IDX 83 13 34 14 88 15 82 16 84 17 35 18 87 19 81 20 80 21 36 23
REMARK SMILES IDX 68 24 48 25 67 26 49 27 52 28 66 29 85 30 50 31 51 32 65 34
REMARK SMILES IDX 86 35 53 36 37 37 38 38 46 39 39 40 40 41 44 42 47 43 41 44
REMARK SMILES IDX 42 45 45 46 43 47 69 48 70 49 78 50 71 51 72 52 76 53 79 54
REMARK SMILES IDX 73 55 74 56 77 57 75 58 54 59 55 60 63 61 56 62 57 63 61 64
REMARK SMILES IDX 64 65 58 66 59 67 62 68 60 69 5 70 6 71 7 72 8 73 9 74 10 75
REMARK SMILES IDX 11 76 12 78 13 79 14 80 17 81 15 82 16 83 18 84 19 85 23 86
REMARK SMILES IDX 20 87 22 88 21 89 24 90 25 91 26 92 27 93
REMARK H PARENT 84 22 52 33 10 77
REMARK Flexibility Score: inf
ROOT
ATOM      1  C   UNL A   1      33.504  32.140  28.305  1.00  0.00     0.275 C 
ENDROOT
BRANCH   1   2
ATOM      2  O   UNL A   1      34.192  31.246  27.419  1.00  0.00    -0.458 OA
BRANCH   2   3
ATOM      3  C   UNL A   1      34.741  30.038  27.672  1.00  0.00     0.338 C 
ATOM      4  O   UNL A   1      34.091  29.046  27.337  1.00  0.00    -0.246 OA
BRANCH   3   5
ATOM      5  C   UNL A   1      36.084  29.789  28.313  1.00  0.00     0.060 A 
ATOM      6  C   UNL A   1      36.357  29.316  29.604  1.00  0.00     0.016 A 
ATOM      7  C   UNL A   1      37.187  29.966  27.458  1.00  0.00     0.016 A 
ATOM      8  C   UNL A   1      37.670  28.967  30.006  1.00  0.00     0.010 A 
ATOM      9  C   UNL A   1      38.481  29.593  27.840  1.00  0.00     0.010 A 
ATOM     10  C   UNL A   1      38.740  29.064  29.114  1.00  0.00    -0.014 A 
BRANCH  10  11
ATOM     11  C   UNL A   1      40.153  28.703  29.455  1.00  0.00     0.031 A 
ATOM     12  C   UNL A   1      40.991  29.744  30.084  1.00  0.00     0.074 A 
ATOM     13  C   UNL A   1      40.752  27.565  29.046  1.00  0.00     0.049 A 
ATOM     14  N   UNL A   1      42.264  29.702  30.358  1.00  0.00    -0.248 NA
ATOM     15  C   UNL A   1      40.315  30.998  30.439  1.00  0.00     0.031 C 
ATOM     16  C   UNL A   1      40.026  26.485  28.446  1.00  0.00     0.029 A 
ATOM     17  N   UNL A   1      42.048  27.115  28.984  1.00  0.00    -0.354 N 
ATOM     18  C   UNL A   1      42.541  30.921  30.931  1.00  0.00     0.074 A 
ATOM     19  C   UNL A   1      41.335  31.721  30.861  1.00  0.00     0.031 C 
ATOM     20  C   UNL A   1      40.841  25.596  27.876  1.00  0.00     0.029 A 
ATOM     21  C   UNL A   1      42.187  25.943  28.260  1.00  0.00     0.049 A 
ATOM     22  H   UNL A   1      42.803  27.580  29.411  1.00  0.00     0.167 HD
ATOM     23  C   UNL A   1      43.696  31.302  31.518  1.00  0.00     0.037 A 
ATOM     24  C   UNL A   1      43.256  25.170  27.995  1.00  0.00     0.037 A 
ATOM     25  C   UNL A   1      44.879  30.487  31.529  1.00  0.00     0.049 A 
ATOM     26  C   UNL A   1      44.520  25.576  28.670  1.00  0.00     0.074 A 
ATOM     27  C   UNL A   1      46.103  30.742  32.112  1.00  0.00     0.029 A 
ATOM     28  N   UNL A   1      44.986  29.249  30.894  1.00  0.00    -0.354 N 
ATOM     29  N   UNL A   1      44.750  26.675  29.345  1.00  0.00    -0.248 NA
ATOM     30  C   UNL A   1      45.644  24.636  28.627  1.00  0.00     0.031 C 
ATOM     31  C   UNL A   1      46.958  29.675  31.805  1.00  0.00     0.029 A 
ATOM     32  C   UNL A   1      46.261  28.732  31.063  1.00  0.00     0.049 A 
ATOM     33  H   UNL A   1      44.260  28.806  30.398  1.00  0.00     0.167 HD
ATOM     34  C   UNL A   1      46.034  26.565  29.827  1.00  0.00     0.074 A 
ATOM     35  C   UNL A   1      46.531  25.272  29.383  1.00  0.00     0.031 C 
ATOM     36  C   UNL A   1      46.732  27.457  30.568  1.00  0.00     0.037 A 
BRANCH  23  37
ATOM     37  C   UNL A   1      43.649  32.657  32.148  1.00  0.00     0.064 A 
ATOM     38  C   UNL A   1      43.258  32.810  33.493  1.00  0.00     0.173 A 
ATOM     39  C   UNL A   1      43.759  33.806  31.357  1.00  0.00     0.173 A 
ATOM     40  F   UNL A   1      43.088  31.731  34.273  1.00  0.00    -0.203 F 
ATOM     41  C   UNL A   1      42.888  34.055  33.990  1.00  0.00     0.198 A 
ATOM     42  C   UNL A   1      43.426  35.056  31.873  1.00  0.00     0.198 A 
ATOM     43  F   UNL A   1      44.112  33.708  30.068  1.00  0.00    -0.203 F 
ATOM     44  F   UNL A   1      42.378  34.156  35.226  1.00  0.00    -0.200 F 
ATOM     45  C   UNL A   1      42.963  35.175  33.176  1.00  0.00     0.200 A 
ATOM     46  F   UNL A   1      43.488  36.139  31.087  1.00  0.00    -0.200 F 
ATOM     47  F   UNL A   1      42.552  36.364  33.636  1.00  0.00    -0.200 F 
ENDBRANCH  23  37
BRANCH  24  48
ATOM     48  C   UNL A   1      43.095  23.882  27.261  1.00  0.00     0.064 A 
ATOM     49  C   UNL A   1      43.475  23.774  25.913  1.00  0.00     0.173 A 
ATOM     50  C   UNL A   1      42.665  22.707  27.900  1.00  0.00     0.173 A 
ATOM     51  F   UNL A   1      43.904  24.860  25.252  1.00  0.00    -0.203 F 
ATOM     52  C   UNL A   1      43.420  22.556  25.234  1.00  0.00     0.198 A 
ATOM     53  C   UNL A   1      42.628  21.484  27.224  1.00  0.00     0.198 A 
ATOM     54  F   UNL A   1      42.303  22.739  29.190  1.00  0.00    -0.203 F 
ATOM     55  F   UNL A   1      43.781  22.493  23.945  1.00  0.00    -0.200 F 
ATOM     56  C   UNL A   1      43.003  21.411  25.892  1.00  0.00     0.200 A 
ATOM     57  F   UNL A   1      42.240  20.371  27.865  1.00  0.00    -0.200 F 
ATOM     58  F   UNL A   1      42.970  20.238  25.243  1.00  0.00    -0.200 F 
ENDBRANCH  24  48
BRANCH  36  59
ATOM     59  C   UNL A   1      48.133  27.067  30.898  1.00  0.00     0.064 A 
ATOM     60  C   UNL A   1      49.203  27.465  30.083  1.00  0.00     0.173 A 
ATOM     61  C   UNL A   1      48.411  26.333  32.058  1.00  0.00     0.173 A 
ATOM     62  F   UNL A   1      48.972  28.140  28.946  1.00  0.00    -0.203 F 
ATOM     63  C   UNL A   1      50.509  27.138  30.421  1.00  0.00     0.198 A 
ATOM     64  C   UNL A   1      49.722  26.032  32.406  1.00  0.00     0.198 A 
ATOM     65  F   UNL A   1      47.414  25.922  32.855  1.00  0.00    -0.203 F 
ATOM     66  F   UNL A   1      51.517  27.497  29.614  1.00  0.00    -0.200 F 
ATOM     67  C   UNL A   1      50.769  26.434  31.589  1.00  0.00     0.200 A 
ATOM     68  F   UNL A   1      49.973  25.356  33.535  1.00  0.00    -0.200 F 
ATOM     69  F   UNL A   1      52.031  26.137  31.923  1.00  0.00    -0.200 F 
ENDBRANCH  36  59
ENDBRANCH  10  11
ENDBRANCH   3   5
ENDBRANCH   2   3
ENDBRANCH   1   2
BRANCH   1  70
ATOM     70  C   UNL A   1      34.439  33.123  29.014  1.00  0.00     0.274 C 
BRANCH  70  71
ATOM     71  O   UNL A   1      34.887  32.621  30.285  1.00  0.00    -0.460 OA
BRANCH  71  72
ATOM     72  C   UNL A   1      36.214  32.790  30.583  1.00  0.00     0.333 C 
ATOM     73  O   UNL A   1      37.120  32.658  29.759  1.00  0.00    -0.249 OA
BRANCH  72  74
ATOM     74  C   UNL A   1      36.469  33.053  32.088  1.00  0.00     0.224 C 
BRANCH  74  75
ATOM     75  N   UNL A   1      35.242  32.851  32.829  1.00  0.00    -0.334 N 
ATOM     76  C   UNL A   1      34.111  33.586  32.859  1.00  0.00     0.271 C 
ATOM     77  H   UNL A   1      35.231  32.051  33.403  1.00  0.00     0.165 HD
ATOM     78  O   UNL A   1      33.098  32.907  33.121  1.00  0.00    -0.267 OA
BRANCH  76  79
ATOM     79  C   UNL A   1      34.030  35.006  32.481  1.00  0.00     0.139 A 
ATOM     80  C   UNL A   1      34.532  36.071  33.213  1.00  0.00     0.100 A 
ATOM     81  N   UNL A   1      33.148  35.411  31.467  1.00  0.00    -0.240 NA
ATOM     82  S   UNL A   1      33.875  37.563  32.657  1.00  0.00    -0.130 S 
ATOM     83  C   UNL A   1      32.988  36.713  31.472  1.00  0.00     0.176 A 
ENDBRANCH  76  79
ENDBRANCH  74  75
BRANCH  74  84
ATOM     84  C   UNL A   1      37.637  32.300  32.737  1.00  0.00    -0.002 A 
ATOM     85  C   UNL A   1      37.501  30.915  32.959  1.00  0.00     0.007 A 
ATOM     86  C   UNL A   1      38.792  32.956  33.270  1.00  0.00     0.061 A 
ATOM     87  C   UNL A   1      38.364  30.226  33.807  1.00  0.00     0.000 A 
ATOM     88  C   UNL A   1      39.630  32.238  34.150  1.00  0.00     0.013 A 
ATOM     89  C   UNL A   1      39.399  30.896  34.440  1.00  0.00     0.001 A 
BRANCH  86  90
ATOM     90  C   UNL A   1      39.166  34.425  33.082  1.00  0.00     0.416 C 
ATOM     91  F   UNL A   1      38.092  35.223  32.829  1.00  0.00    -0.166 F 
ATOM     92  F   UNL A   1      39.729  34.947  34.212  1.00  0.00    -0.166 F 
ATOM     93  F   UNL A   1      40.075  34.665  32.096  1.00  0.00    -0.166 F 
ENDBRANCH  86  90
ENDBRANCH  74  84
ENDBRANCH  72  74
ENDBRANCH  71  72
ENDBRANCH  70  71
ENDBRANCH   1  70
TORSDOF 15
ENDMDL
MODEL 2
REMARK VINA RESULT:     -10.4      4.231     11.296
REMARK SMILES O=C(OCCOC(=O)[C@@H](NC(=O)c1cscn1)c1ccccc1C(F)(F)F)c1ccc(-c2c3nc(c(-c4c(F)c(F)c(F)c(F)c4F)c4ccc([nH]4)c(-c4c(F)c(F)c(F)c(F)c4F)c4nc(c(-c5c(F)c(F)c(F)c(F)c5F)c5ccc2[nH]5)C=C4)C=C3)cc1
REMARK SMILES IDX 4 1 3 2 2 3 1 4 28 5 29 6 90 7 30 8 89 9 31 10 32 11 33 12
REMARK SMILES IDX 83 13 34 14 88 15 82 16 84 17 35 18 87 19 81 20 80 21 36 23
REMARK SMILES IDX 68 24 48 25 67 26 49 27 52 28 66 29 85 30 50 31 51 32 65 34
REMARK SMILES IDX 86 35 53 36 37 37 38 38 46 39 39 40 40 41 44 42 47 43 41 44
REMARK SMILES IDX 42 45 45 46 43 47 69 48 70 49 78 50 71 51 72 52 76 53 79 54
REMARK SMILES IDX 73 55 74 56 77 57 75 58 54 59 55 60 63 61 56 62 57 63 61 64
REMARK SMILES IDX 64 65 58 66 59 67 62 68 60 69 5 70 6 71 7 72 8 73 9 74 10 75
REMARK SMILES IDX 11 76 12 78 13 79 14 80 17 81 15 82 16 83 18 84 19 85 23 86
REMARK SMILES IDX 20 87 22 88 21 89 24 90 25 91 26 92 27 93
REMARK H PARENT 84 22 52 33 10 77
REMARK Flexibility Score: inf
ROOT
ATOM      1  C   UNL A   1      40.212  21.599  26.668  1.00  0.00     0.275 C 
ENDROOT
BRANCH   1   2
ATOM      2  O   UNL A   1      39.081  22.199  26.020  1.00  0.00    -0.458 OA
BRANCH   2   3
ATOM      3  C   UNL A   1      38.563  23.438  26.168  1.00  0.00     0.338 C 
ATOM      4  O   UNL A   1      37.402  23.608  25.791  1.00  0.00    -0.246 OA
BRANCH   3   5
ATOM      5  C   UNL A   1      39.268  24.631  26.766  1.00  0.00     0.060 A 
ATOM      6  C   UNL A   1      40.103  25.558  26.128  1.00  0.00     0.016 A 
ATOM      7  C   UNL A   1      38.956  24.885  28.114  1.00  0.00     0.016 A 
ATOM      8  C   UNL A   1      40.554  26.729  26.785  1.00  0.00     0.010 A 
ATOM      9  C   UNL A   1      39.374  26.055  28.759  1.00  0.00     0.010 A 
ATOM     10  C   UNL A   1      40.161  27.009  28.095  1.00  0.00    -0.014 A 
BRANCH  10  11
ATOM     11  C   UNL A   1      40.582  28.229  28.855  1.00  0.00     0.031 A 
ATOM     12  C   UNL A   1      41.886  28.186  29.548  1.00  0.00     0.074 A 
ATOM     13  C   UNL A   1      39.764  29.273  29.104  1.00  0.00     0.049 A 
ATOM     14  N   UNL A   1      42.403  29.067  30.356  1.00  0.00    -0.248 NA
ATOM     15  C   UNL A   1      42.710  26.992  29.313  1.00  0.00     0.031 C 
ATOM     16  C   UNL A   1      38.490  29.421  28.467  1.00  0.00     0.029 A 
ATOM     17  N   UNL A   1      39.791  30.349  29.955  1.00  0.00    -0.354 N 
ATOM     18  C   UNL A   1      43.621  28.541  30.718  1.00  0.00     0.074 A 
ATOM     19  C   UNL A   1      43.717  27.219  30.135  1.00  0.00     0.031 C 
ATOM     20  C   UNL A   1      37.745  30.358  29.058  1.00  0.00     0.029 A 
ATOM     21  C   UNL A   1      38.590  31.037  30.008  1.00  0.00     0.049 A 
ATOM     22  H   UNL A   1      40.586  30.607  30.477  1.00  0.00     0.167 HD
ATOM     23  C   UNL A   1      44.593  29.152  31.428  1.00  0.00     0.037 A 
ATOM     24  C   UNL A   1      38.215  32.144  30.675  1.00  0.00     0.037 A 
ATOM     25  C   UNL A   1      44.439  30.452  32.019  1.00  0.00     0.049 A 
ATOM     26  C   UNL A   1      39.299  32.832  31.430  1.00  0.00     0.074 A 
ATOM     27  C   UNL A   1      45.353  31.194  32.736  1.00  0.00     0.029 A 
ATOM     28  N   UNL A   1      43.260  31.199  31.975  1.00  0.00    -0.354 N 
ATOM     29  N   UNL A   1      40.515  32.400  31.657  1.00  0.00    -0.248 NA
ATOM     30  C   UNL A   1      39.015  34.169  31.958  1.00  0.00     0.031 C 
ATOM     31  C   UNL A   1      44.721  32.374  33.153  1.00  0.00     0.029 A 
ATOM     32  C   UNL A   1      43.423  32.391  32.663  1.00  0.00     0.049 A 
ATOM     33  H   UNL A   1      42.433  30.919  31.520  1.00  0.00     0.167 HD
ATOM     34  C   UNL A   1      41.157  33.409  32.338  1.00  0.00     0.074 A 
ATOM     35  C   UNL A   1      40.196  34.493  32.470  1.00  0.00     0.031 C 
ATOM     36  C   UNL A   1      42.426  33.429  32.809  1.00  0.00     0.037 A 
BRANCH  23  37
ATOM     37  C   UNL A   1      45.851  28.355  31.563  1.00  0.00     0.064 A 
ATOM     38  C   UNL A   1      46.066  27.538  32.691  1.00  0.00     0.173 A 
ATOM     39  C   UNL A   1      46.929  28.587  30.702  1.00  0.00     0.173 A 
ATOM     40  F   UNL A   1      45.075  27.331  33.573  1.00  0.00    -0.203 F 
ATOM     41  C   UNL A   1      47.337  27.065  32.997  1.00  0.00     0.198 A 
ATOM     42  C   UNL A   1      48.192  28.078  30.992  1.00  0.00     0.198 A 
ATOM     43  F   UNL A   1      46.777  29.371  29.625  1.00  0.00    -0.203 F 
ATOM     44  F   UNL A   1      47.549  26.416  34.151  1.00  0.00    -0.200 F 
ATOM     45  C   UNL A   1      48.401  27.344  32.152  1.00  0.00     0.200 A 
ATOM     46  F   UNL A   1      49.223  28.352  30.183  1.00  0.00    -0.200 F 
ATOM     47  F   UNL A   1      49.635  26.938  32.477  1.00  0.00    -0.200 F 
ENDBRANCH  23  37
BRANCH  24  48
ATOM     48  C   UNL A   1      36.862  32.734  30.461  1.00  0.00     0.064 A 
ATOM     49  C   UNL A   1      35.863  32.603  31.438  1.00  0.00     0.173 A 
ATOM     50  C   UNL A   1      36.562  33.527  29.340  1.00  0.00     0.173 A 
ATOM     51  F   UNL A   1      36.094  31.866  32.534  1.00  0.00    -0.203 F 
ATOM     52  C   UNL A   1      34.621  33.225  31.300  1.00  0.00     0.198 A 
ATOM     53  C   UNL A   1      35.325  34.166  29.212  1.00  0.00     0.198 A 
ATOM     54  F   UNL A   1      37.479  33.705  28.379  1.00  0.00    -0.203 F 
ATOM     55  F   UNL A   1      33.687  33.069  32.248  1.00  0.00    -0.200 F 
ATOM     56  C   UNL A   1      34.355  34.011  30.191  1.00  0.00     0.200 A 
ATOM     57  F   UNL A   1      35.073  34.940  28.148  1.00  0.00    -0.200 F 
ATOM     58  F   UNL A   1      33.169  34.624  30.070  1.00  0.00    -0.200 F 
ENDBRANCH  24  48
BRANCH  36  59
ATOM     59  C   UNL A   1      42.818  34.660  33.555  1.00  0.00     0.064 A 
ATOM     60  C   UNL A   1      43.263  35.803  32.875  1.00  0.00     0.173 A 
ATOM     61  C   UNL A   1      42.704  34.711  34.950  1.00  0.00     0.173 A 
ATOM     62  F   UNL A   1      43.417  35.781  31.543  1.00  0.00    -0.203 F 
ATOM     63  C   UNL A   1      43.583  36.961  33.573  1.00  0.00     0.198 A 
ATOM     64  C   UNL A   1      42.999  35.880  35.640  1.00  0.00     0.198 A 
ATOM     65  F   UNL A   1      42.296  33.634  35.636  1.00  0.00    -0.203 F 
ATOM     66  F   UNL A   1      44.038  38.033  32.911  1.00  0.00    -0.200 F 
ATOM     67  C   UNL A   1      43.438  37.002  34.952  1.00  0.00     0.200 A 
ATOM     68  F   UNL A   1      42.855  35.922  36.971  1.00  0.00    -0.200 F 
ATOM     69  F   UNL A   1      43.728  38.126  35.621  1.00  0.00    -0.200 F 
ENDBRANCH  36  59
ENDBRANCH  10  11
ENDBRANCH   3   5
ENDBRANCH   2   3
ENDBRANCH   1   2
BRANCH   1  70
ATOM     70  C   UNL A   1      41.465  21.572  25.789  1.00  0.00     0.274 C 
BRANCH  70  71
ATOM     71  O   UNL A   1      42.179  22.821  25.829  1.00  0.00    -0.460 OA
BRANCH  71  72
ATOM     72  C   UNL A   1      43.229  22.904  26.705  1.00  0.00     0.333 C 
ATOM     73  O   UNL A   1      43.174  22.519  27.874  1.00  0.00    -0.249 OA
BRANCH  72  74
ATOM     74  C   UNL A   1      44.458  23.635  26.111  1.00  0.00     0.224 C 
BRANCH  74  75
ATOM     75  N   UNL A   1      44.563  23.337  24.698  1.00  0.00    -0.334 N 
ATOM     76  C   UNL A   1      44.608  22.149  24.060  1.00  0.00     0.271 C 
ATOM     77  H   UNL A   1      44.609  24.125  24.110  1.00  0.00     0.165 HD
ATOM     78  O   UNL A   1      44.153  22.203  22.900  1.00  0.00    -0.267 OA
BRANCH  76  79
ATOM     79  C   UNL A   1      45.008  20.880  24.689  1.00  0.00     0.139 A 
ATOM     80  C   UNL A   1      46.299  20.519  25.044  1.00  0.00     0.100 A 
ATOM     81  N   UNL A   1      44.118  19.794  24.700  1.00  0.00    -0.240 NA
ATOM     82  S   UNL A   1      46.403  18.828  25.351  1.00  0.00    -0.130 S 
ATOM     83  C   UNL A   1      44.734  18.681  25.021  1.00  0.00     0.176 A 
ENDBRANCH  76  79
ENDBRANCH  74  75
BRANCH  74  84
ATOM     84  C   UNL A   1      44.559  25.144  26.366  1.00  0.00    -0.002 A 
ATOM     85  C   UNL A   1      43.786  26.012  25.567  1.00  0.00     0.007 A 
ATOM     86  C   UNL A   1      45.511  25.725  27.263  1.00  0.00     0.061 A 
ATOM     87  C   UNL A   1      44.044  27.379  25.519  1.00  0.00     0.000 A 
ATOM     88  C   UNL A   1      45.771  27.110  27.166  1.00  0.00     0.013 A 
ATOM     89  C   UNL A   1      45.067  27.921  26.281  1.00  0.00     0.001 A 
BRANCH  86  90
ATOM     90  C   UNL A   1      46.390  24.975  28.261  1.00  0.00     0.416 C 
ATOM     91  F   UNL A   1      45.683  24.152  29.083  1.00  0.00    -0.166 F 
ATOM     92  F   UNL A   1      47.279  24.154  27.628  1.00  0.00    -0.166 F 
ATOM     93  F   UNL A   1      47.155  25.767  29.061  1.00  0.00    -0.166 F 
ENDBRANCH  86  90
ENDBRANCH  74  84
ENDBRANCH  72  74
ENDBRANCH  71  72
ENDBRANCH  70  71
ENDBRANCH   1  70
TORSDOF 15
ENDMDL
MODEL 3
REMARK VINA RESULT:     -10.2      0.428      1.641
REMARK SMILES O=C(OCCOC(=O)[C@@H](NC(=O)c1cscn1)c1ccccc1C(F)(F)F)c1ccc(-c2c3nc(c(-c4c(F)c(F)c(F)c(F)c4F)c4ccc([nH]4)c(-c4c(F)c(F)c(F)c(F)c4F)c4nc(c(-c5c(F)c(F)c(F)c(F)c5F)c5ccc2[nH]5)C=C4)C=C3)cc1
REMARK SMILES IDX 4 1 3 2 2 3 1 4 28 5 29 6 90 7 30 8 89 9 31 10 32 11 33 12
REMARK SMILES IDX 83 13 34 14 88 15 82 16 84 17 35 18 87 19 81 20 80 21 36 23
REMARK SMILES IDX 68 24 48 25 67 26 49 27 52 28 66 29 85 30 50 31 51 32 65 34
REMARK SMILES IDX 86 35 53 36 37 37 38 38 46 39 39 40 40 41 44 42 47 43 41 44
REMARK SMILES IDX 42 45 45 46 43 47 69 48 70 49 78 50 71 51 72 52 76 53 79 54
REMARK SMILES IDX 73 55 74 56 77 57 75 58 54 59 55 60 63 61 56 62 57 63 61 64
REMARK SMILES IDX 64 65 58 66 59 67 62 68 60 69 5 70 6 71 7 72 8 73 9 74 10 75
REMARK SMILES IDX 11 76 12 78 13 79 14 80 17 81 15 82 16 83 18 84 19 85 23 86
REMARK SMILES IDX 20 87 22 88 21 89 24 90 25 91 26 92 27 93
REMARK H PARENT 84 22 52 33 10 77
REMARK Flexibility Score: inf
ROOT
ATOM      1  C   UNL A   1      33.652  32.171  28.314  1.00  0.00     0.275 C 
ENDROOT
BRANCH   1   2
ATOM      2  O   UNL A   1      34.167  31.214  27.377  1.00  0.00    -0.458 OA
BRANCH   2   3
ATOM      3  C   UNL A   1      34.730  30.007  27.603  1.00  0.00     0.338 C 
ATOM      4  O   UNL A   1      34.100  29.016  27.227  1.00  0.00    -0.246 OA
BRANCH   3   5
ATOM      5  C   UNL A   1      36.066  29.759  28.258  1.00  0.00     0.060 A 
ATOM      6  C   UNL A   1      36.328  29.328  29.566  1.00  0.00     0.016 A 
ATOM      7  C   UNL A   1      37.175  29.885  27.401  1.00  0.00     0.016 A 
ATOM      8  C   UNL A   1      37.633  28.971  29.985  1.00  0.00     0.010 A 
ATOM      9  C   UNL A   1      38.462  29.505  27.801  1.00  0.00     0.010 A 
ATOM     10  C   UNL A   1      38.707  29.018  29.095  1.00  0.00    -0.014 A 
BRANCH  10  11
ATOM     11  C   UNL A   1      40.112  28.645  29.454  1.00  0.00     0.031 A 
ATOM     12  C   UNL A   1      40.941  29.669  30.123  1.00  0.00     0.074 A 
ATOM     13  C   UNL A   1      40.717  27.516  29.031  1.00  0.00     0.049 A 
ATOM     14  N   UNL A   1      42.208  29.618  30.420  1.00  0.00    -0.248 NA
ATOM     15  C   UNL A   1      40.261  30.917  30.493  1.00  0.00     0.031 C 
ATOM     16  C   UNL A   1      40.000  26.452  28.393  1.00  0.00     0.029 A 
ATOM     17  N   UNL A   1      42.012  27.063  28.983  1.00  0.00    -0.354 N 
ATOM     18  C   UNL A   1      42.477  30.823  31.026  1.00  0.00     0.074 A 
ATOM     19  C   UNL A   1      41.274  31.627  30.952  1.00  0.00     0.031 C 
ATOM     20  C   UNL A   1      40.824  25.573  27.818  1.00  0.00     0.029 A 
ATOM     21  C   UNL A   1      42.163  25.908  28.235  1.00  0.00     0.049 A 
ATOM     22  H   UNL A   1      42.760  27.517  29.435  1.00  0.00     0.167 HD
ATOM     23  C   UNL A   1      43.621  31.186  31.643  1.00  0.00     0.037 A 
ATOM     24  C   UNL A   1      43.235  25.139  27.973  1.00  0.00     0.037 A 
ATOM     25  C   UNL A   1      44.802  30.369  31.658  1.00  0.00     0.049 A 
ATOM     26  C   UNL A   1      44.487  25.525  28.681  1.00  0.00     0.074 A 
ATOM     27  C   UNL A   1      46.015  30.607  32.270  1.00  0.00     0.029 A 
ATOM     28  N   UNL A   1      44.918  29.145  30.997  1.00  0.00    -0.354 N 
ATOM     29  N   UNL A   1      44.706  26.608  29.386  1.00  0.00    -0.248 NA
ATOM     30  C   UNL A   1      45.609  24.584  28.638  1.00  0.00     0.031 C 
ATOM     31  C   UNL A   1      46.874  29.545  31.955  1.00  0.00     0.029 A 
ATOM     32  C   UNL A   1      46.188  28.621  31.179  1.00  0.00     0.049 A 
ATOM     33  H   UNL A   1      44.201  28.716  30.478  1.00  0.00     0.167 HD
ATOM     34  C   UNL A   1      45.981  26.484  29.889  1.00  0.00     0.074 A 
ATOM     35  C   UNL A   1      46.483  25.200  29.425  1.00  0.00     0.031 C 
ATOM     36  C   UNL A   1      46.666  27.356  30.664  1.00  0.00     0.037 A 
BRANCH  23  37
ATOM     37  C   UNL A   1      43.566  32.527  32.304  1.00  0.00     0.064 A 
ATOM     38  C   UNL A   1      43.981  33.684  31.616  1.00  0.00     0.173 A 
ATOM     39  C   UNL A   1      43.330  32.625  33.680  1.00  0.00     0.173 A 
ATOM     40  F   UNL A   1      44.269  33.624  30.306  1.00  0.00    -0.203 F 
ATOM     41  C   UNL A   1      44.253  34.862  32.303  1.00  0.00     0.198 A 
ATOM     42  C   UNL A   1      43.567  33.819  34.356  1.00  0.00     0.198 A 
ATOM     43  F   UNL A   1      42.950  31.547  34.379  1.00  0.00    -0.203 F 
ATOM     44  F   UNL A   1      44.789  35.906  31.653  1.00  0.00    -0.200 F 
ATOM     45  C   UNL A   1      44.055  34.925  33.674  1.00  0.00     0.200 A 
ATOM     46  F   UNL A   1      43.385  33.881  35.681  1.00  0.00    -0.200 F 
ATOM     47  F   UNL A   1      44.372  36.041  34.344  1.00  0.00    -0.200 F 
ENDBRANCH  23  37
BRANCH  24  48
ATOM     48  C   UNL A   1      43.085  23.867  27.207  1.00  0.00     0.064 A 
ATOM     49  C   UNL A   1      43.461  23.799  25.855  1.00  0.00     0.173 A 
ATOM     50  C   UNL A   1      42.670  22.672  27.817  1.00  0.00     0.173 A 
ATOM     51  F   UNL A   1      43.876  24.905  25.221  1.00  0.00    -0.203 F 
ATOM     52  C   UNL A   1      43.417  22.598  25.145  1.00  0.00     0.198 A 
ATOM     53  C   UNL A   1      42.644  21.466  27.110  1.00  0.00     0.198 A 
ATOM     54  F   UNL A   1      42.312  22.667  29.109  1.00  0.00    -0.203 F 
ATOM     55  F   UNL A   1      43.774  22.572  23.854  1.00  0.00    -0.200 F 
ATOM     56  C   UNL A   1      43.015  21.432  25.775  1.00  0.00     0.200 A 
ATOM     57  F   UNL A   1      42.270  20.334  27.723  1.00  0.00    -0.200 F 
ATOM     58  F   UNL A   1      42.992  20.275  25.097  1.00  0.00    -0.200 F 
ENDBRANCH  24  48
BRANCH  36  59
ATOM     59  C   UNL A   1      48.060  26.955  31.011  1.00  0.00     0.064 A 
ATOM     60  C   UNL A   1      48.318  26.139  32.122  1.00  0.00     0.173 A 
ATOM     61  C   UNL A   1      49.134  27.348  30.204  1.00  0.00     0.173 A 
ATOM     62  F   UNL A   1      47.319  25.770  32.938  1.00  0.00    -0.203 F 
ATOM     63  C   UNL A   1      49.613  25.730  32.414  1.00  0.00     0.198 A 
ATOM     64  C   UNL A   1      50.424  26.914  30.483  1.00  0.00     0.198 A 
ATOM     65  F   UNL A   1      48.928  28.140  29.141  1.00  0.00    -0.203 F 
ATOM     66  F   UNL A   1      49.847  24.979  33.498  1.00  0.00    -0.200 F 
ATOM     67  C   UNL A   1      50.663  26.107  31.587  1.00  0.00     0.200 A 
ATOM     68  F   UNL A   1      51.436  27.274  29.684  1.00  0.00    -0.200 F 
ATOM     69  F   UNL A   1      51.907  25.695  31.858  1.00  0.00    -0.200 F 
ENDBRANCH  36  59
ENDBRANCH  10  11
ENDBRANCH   3   5
ENDBRANCH   2   3
ENDBRANCH   1   2
BRANCH   1  70
ATOM     70  C   UNL A   1      34.731  33.097  28.882  1.00  0.00     0.274 C 
BRANCH  70  71
ATOM     71  O   UNL A   1      35.071  32.761  30.239  1.00  0.00    -0.460 OA
BRANCH  71  72
ATOM     72  C   UNL A   1      36.386  32.907  30.600  1.00  0.00     0.333 C 
ATOM     73  O   UNL A   1      37.326  32.783  29.815  1.00  0.00    -0.249 OA
BRANCH  72  74
ATOM     74  C   UNL A   1      36.575  33.133  32.120  1.00  0.00     0.224 C 
BRANCH  74  75
ATOM     75  N   UNL A   1      35.316  32.920  32.802  1.00  0.00    -0.334 N 
ATOM     76  C   UNL A   1      34.189  33.662  32.803  1.00  0.00     0.271 C 
ATOM     77  H   UNL A   1      35.274  32.104  33.351  1.00  0.00     0.165 HD
ATOM     78  O   UNL A   1      33.161  32.984  33.002  1.00  0.00    -0.267 OA
BRANCH  76  79
ATOM     79  C   UNL A   1      34.133  35.093  32.464  1.00  0.00     0.139 A 
ATOM     80  C   UNL A   1      34.403  36.144  33.326  1.00  0.00     0.100 A 
ATOM     81  N   UNL A   1      33.494  35.508  31.285  1.00  0.00    -0.240 NA
ATOM     82  S   UNL A   1      33.826  37.633  32.681  1.00  0.00    -0.130 S 
ATOM     83  C   UNL A   1      33.278  36.802  31.294  1.00  0.00     0.176 A 
ENDBRANCH  76  79
ENDBRANCH  74  75
BRANCH  74  84
ATOM     84  C   UNL A   1      37.710  32.360  32.802  1.00  0.00    -0.002 A 
ATOM     85  C   UNL A   1      37.527  30.986  33.058  1.00  0.00     0.007 A 
ATOM     86  C   UNL A   1      38.880  32.992  33.332  1.00  0.00     0.061 A 
ATOM     87  C   UNL A   1      38.357  30.292  33.933  1.00  0.00     0.000 A 
ATOM     88  C   UNL A   1      39.684  32.269  34.240  1.00  0.00     0.013 A 
ATOM     89  C   UNL A   1      39.406  30.944  34.562  1.00  0.00     0.001 A 
BRANCH  86  90
ATOM     90  C   UNL A   1      39.304  34.443  33.112  1.00  0.00     0.416 C 
ATOM     91  F   UNL A   1      38.575  35.330  33.843  1.00  0.00    -0.166 F 
ATOM     92  F   UNL A   1      40.596  34.652  33.500  1.00  0.00    -0.166 F 
ATOM     93  F   UNL A   1      39.255  34.866  31.818  1.00  0.00    -0.166 F 
ENDBRANCH  86  90
ENDBRANCH  74  84
ENDBRANCH  72  74
ENDBRANCH  71  72
ENDBRANCH  70  71
ENDBRANCH   1  70
TORSDOF 15
ENDMDL
