MODEL 1
REMARK VINA RESULT:     -12.5      0.000      0.000
REMARK SMILES Cc1cc(S[C@@H](C)c2ccc(C(=O)OCCOC(=O)c3ccc(-c4c5nc(c(-c6c(F)c(F)c(F)c(F)c6F)c6ccc([nH]6)c(-c6c(F)c(F)c(F)c(F)c6F)c6nc(c(-c7c(F)c(F)c(F)c(F)c7F)c7ccc4[nH]7)C=C6)C=C5)cc3)o2)n(C)n1
REMARK SMILES IDX 15 1 14 2 12 3 13 4 11 5 8 6 9 7 83 8 10 9 6 10 7 11 5 12
REMARK SMILES IDX 4 13 1 14 2 15 3 16 86 17 84 18 85 19 16 20 17 21 18 22
REMARK SMILES IDX 19 23 20 24 21 25 82 26 22 27 81 28 23 29 24 30 25 31 75 32
REMARK SMILES IDX 26 33 80 34 74 35 76 36 27 37 79 38 73 39 72 40 28 42 60 43
REMARK SMILES IDX 40 44 59 45 41 46 44 47 58 48 77 49 42 50 43 51 57 53 78 54
REMARK SMILES IDX 45 55 29 56 30 57 38 58 31 59 32 60 36 61 39 62 33 63 34 64
REMARK SMILES IDX 37 65 35 66 61 67 62 68 70 69 63 70 64 71 68 72 71 73 65 74
REMARK SMILES IDX 66 75 69 76 67 77 46 78 47 79 55 80 48 81 49 82 53 83 56 84
REMARK SMILES IDX 50 85 51 86 54 87 52 88
REMARK H PARENT 76 41 44 52
REMARK Flexibility Score: inf
ROOT
ATOM      1  C   UNL A   1      42.734  21.277  26.530  1.00  0.00     0.275 C 
ENDROOT
BRANCH   1   2
ATOM      2  O   UNL A   1      41.406  21.795  26.743  1.00  0.00    -0.456 OA
BRANCH   2   3
ATOM      3  C   UNL A   1      40.370  21.023  26.301  1.00  0.00     0.374 C 
ATOM      4  O   UNL A   1      40.432  19.805  26.160  1.00  0.00    -0.242 OA
BRANCH   3   5
ATOM      5  C   UNL A   1      39.209  21.848  26.046  1.00  0.00     0.211 A 
ATOM      6  C   UNL A   1      37.200  22.261  25.190  1.00  0.00     0.118 A 
ATOM      7  C   UNL A   1      37.549  23.367  25.941  1.00  0.00     0.048 A 
ATOM      8  O   UNL A   1      38.235  21.365  25.214  1.00  0.00    -0.453 OA
ATOM      9  C   UNL A   1      38.827  23.099  26.495  1.00  0.00     0.058 A 
BRANCH   6  10
ATOM     10  C   UNL A   1      35.947  21.903  24.428  1.00  0.00     0.116 C 
ATOM     11  C   UNL A   1      35.503  23.036  23.485  1.00  0.00     0.028 C 
BRANCH  10  12
ATOM     12  S   UNL A   1      34.563  21.308  25.498  1.00  0.00    -0.096 SA
BRANCH  12  13
ATOM     13  C   UNL A   1      34.005  19.912  24.639  1.00  0.00     0.095 A 
ATOM     14  C   UNL A   1      33.582  16.415  23.775  1.00  0.00     0.069 C 
ATOM     15  C   UNL A   1      33.523  17.875  23.959  1.00  0.00     0.061 A 
ATOM     16  C   UNL A   1      34.515  18.641  24.577  1.00  0.00     0.060 A 
ATOM     17  N   UNL A   1      32.513  18.633  23.515  1.00  0.00    -0.178 NA
ATOM     18  N   UNL A   1      32.881  19.894  23.855  1.00  0.00    -0.262 N 
ATOM     19  C   UNL A   1      32.202  21.013  23.241  1.00  0.00     0.175 C 
ENDBRANCH  12  13
ENDBRANCH  10  12
ENDBRANCH   6  10
ENDBRANCH   3   5
ENDBRANCH   2   3
ENDBRANCH   1   2
BRANCH   1  20
ATOM     20  C   UNL A   1      43.468  22.020  25.409  1.00  0.00     0.275 C 
BRANCH  20  21
ATOM     21  O   UNL A   1      42.752  23.199  24.988  1.00  0.00    -0.458 OA
BRANCH  21  22
ATOM     22  C   UNL A   1      43.455  24.350  25.060  1.00  0.00     0.338 C 
ATOM     23  O   UNL A   1      44.574  24.559  24.615  1.00  0.00    -0.246 OA
BRANCH  22  24
ATOM     24  C   UNL A   1      42.660  25.412  25.696  1.00  0.00     0.060 A 
ATOM     25  C   UNL A   1      43.271  26.643  25.866  1.00  0.00     0.016 A 
ATOM     26  C   UNL A   1      41.449  25.146  26.339  1.00  0.00     0.016 A 
ATOM     27  C   UNL A   1      42.746  27.540  26.795  1.00  0.00     0.010 A 
ATOM     28  C   UNL A   1      40.897  26.095  27.228  1.00  0.00     0.010 A 
ATOM     29  C   UNL A   1      41.592  27.268  27.560  1.00  0.00    -0.014 A 
BRANCH  29  30
ATOM     30  C   UNL A   1      41.283  28.145  28.763  1.00  0.00     0.031 A 
ATOM     31  C   UNL A   1      40.052  29.051  28.811  1.00  0.00     0.074 A 
ATOM     32  C   UNL A   1      41.967  27.979  29.919  1.00  0.00     0.049 A 
ATOM     33  N   UNL A   1      39.499  29.656  29.844  1.00  0.00    -0.248 NA
ATOM     34  C   UNL A   1      39.324  29.296  27.555  1.00  0.00     0.031 C 
ATOM     35  C   UNL A   1      43.143  27.125  30.086  1.00  0.00     0.029 A 
ATOM     36  N   UNL A   1      41.733  28.456  31.193  1.00  0.00    -0.354 N 
ATOM     37  C   UNL A   1      38.343  30.274  29.369  1.00  0.00     0.074 A 
ATOM     38  C   UNL A   1      38.277  30.002  27.954  1.00  0.00     0.031 C 
ATOM     39  C   UNL A   1      43.445  27.036  31.389  1.00  0.00     0.029 A 
ATOM     40  C   UNL A   1      42.569  27.925  32.148  1.00  0.00     0.049 A 
ATOM     41  H   UNL A   1      41.032  29.117  31.399  1.00  0.00     0.167 HD
ATOM     42  C   UNL A   1      37.420  31.020  30.027  1.00  0.00     0.037 A 
ATOM     43  C   UNL A   1      42.657  28.134  33.479  1.00  0.00     0.037 A 
ATOM     44  C   UNL A   1      37.507  31.417  31.407  1.00  0.00     0.049 A 
ATOM     45  C   UNL A   1      41.738  29.126  34.139  1.00  0.00     0.074 A 
ATOM     46  C   UNL A   1      36.699  32.302  32.103  1.00  0.00     0.029 A 
ATOM     47  N   UNL A   1      38.478  30.985  32.293  1.00  0.00    -0.354 N 
ATOM     48  N   UNL A   1      40.686  29.737  33.656  1.00  0.00    -0.248 NA
ATOM     49  C   UNL A   1      42.050  29.488  35.531  1.00  0.00     0.031 C 
ATOM     50  C   UNL A   1      37.242  32.483  33.380  1.00  0.00     0.029 A 
ATOM     51  C   UNL A   1      38.331  31.638  33.509  1.00  0.00     0.049 A 
ATOM     52  H   UNL A   1      39.171  30.316  32.091  1.00  0.00     0.167 HD
ATOM     53  C   UNL A   1      40.215  30.553  34.677  1.00  0.00     0.074 A 
ATOM     54  C   UNL A   1      41.064  30.323  35.824  1.00  0.00     0.031 C 
ATOM     55  C   UNL A   1      39.180  31.430  34.653  1.00  0.00     0.037 A 
BRANCH  42  56
ATOM     56  C   UNL A   1      36.278  31.577  29.221  1.00  0.00     0.064 A 
ATOM     57  C   UNL A   1      35.211  30.779  28.780  1.00  0.00     0.173 A 
ATOM     58  C   UNL A   1      36.240  32.948  28.922  1.00  0.00     0.173 A 
ATOM     59  F   UNL A   1      35.205  29.460  29.024  1.00  0.00    -0.203 F 
ATOM     60  C   UNL A   1      34.154  31.335  28.059  1.00  0.00     0.198 A 
ATOM     61  C   UNL A   1      35.172  33.503  28.223  1.00  0.00     0.198 A 
ATOM     62  F   UNL A   1      37.234  33.752  29.324  1.00  0.00    -0.203 F 
ATOM     63  F   UNL A   1      33.158  30.553  27.618  1.00  0.00    -0.200 F 
ATOM     64  C   UNL A   1      34.134  32.696  27.787  1.00  0.00     0.200 A 
ATOM     65  F   UNL A   1      35.151  34.819  27.971  1.00  0.00    -0.200 F 
ATOM     66  F   UNL A   1      33.114  33.229  27.099  1.00  0.00    -0.200 F 
ENDBRANCH  42  56
BRANCH  43  67
ATOM     67  C   UNL A   1      43.712  27.446  34.281  1.00  0.00     0.064 A 
ATOM     68  C   UNL A   1      43.465  26.225  34.926  1.00  0.00     0.173 A 
ATOM     69  C   UNL A   1      44.982  28.019  34.453  1.00  0.00     0.173 A 
ATOM     70  F   UNL A   1      42.258  25.648  34.834  1.00  0.00    -0.203 F 
ATOM     71  C   UNL A   1      44.441  25.614  35.714  1.00  0.00     0.198 A 
ATOM     72  C   UNL A   1      45.972  27.383  35.197  1.00  0.00     0.198 A 
ATOM     73  F   UNL A   1      45.271  29.200  33.885  1.00  0.00    -0.203 F 
ATOM     74  F   UNL A   1      44.157  24.481  36.372  1.00  0.00    -0.200 F 
ATOM     75  C   UNL A   1      45.698  26.187  35.837  1.00  0.00     0.200 A 
ATOM     76  F   UNL A   1      47.190  27.934  35.293  1.00  0.00    -0.200 F 
ATOM     77  F   UNL A   1      46.640  25.592  36.581  1.00  0.00    -0.200 F 
ENDBRANCH  43  67
BRANCH  55  78
ATOM     78  C   UNL A   1      38.900  32.209  35.907  1.00  0.00     0.064 A 
ATOM     79  C   UNL A   1      39.336  33.534  36.068  1.00  0.00     0.173 A 
ATOM     80  C   UNL A   1      38.176  31.630  36.962  1.00  0.00     0.173 A 
ATOM     81  F   UNL A   1      40.038  34.137  35.096  1.00  0.00    -0.203 F 
ATOM     82  C   UNL A   1      39.100  34.231  37.251  1.00  0.00     0.198 A 
ATOM     83  C   UNL A   1      37.908  32.343  38.128  1.00  0.00     0.198 A 
ATOM     84  F   UNL A   1      37.721  30.372  36.861  1.00  0.00    -0.203 F 
ATOM     85  F   UNL A   1      39.587  35.470  37.405  1.00  0.00    -0.200 F 
ATOM     86  C   UNL A   1      38.383  33.636  38.278  1.00  0.00     0.200 A 
ATOM     87  F   UNL A   1      37.199  31.774  39.111  1.00  0.00    -0.200 F 
ATOM     88  F   UNL A   1      38.160  34.307  39.416  1.00  0.00    -0.200 F 
ENDBRANCH  55  78
ENDBRANCH  29  30
ENDBRANCH  22  24
ENDBRANCH  21  22
ENDBRANCH  20  21
ENDBRANCH   1  20
TORSDOF 14
ENDMDL
MODEL 2
REMARK VINA RESULT:     -12.0      1.376      2.482
REMARK SMILES Cc1cc(S[C@@H](C)c2ccc(C(=O)OCCOC(=O)c3ccc(-c4c5nc(c(-c6c(F)c(F)c(F)c(F)c6F)c6ccc([nH]6)c(-c6c(F)c(F)c(F)c(F)c6F)c6nc(c(-c7c(F)c(F)c(F)c(F)c7F)c7ccc4[nH]7)C=C6)C=C5)cc3)o2)n(C)n1
REMARK SMILES IDX 15 1 14 2 12 3 13 4 11 5 8 6 9 7 83 8 10 9 6 10 7 11 5 12
REMARK SMILES IDX 4 13 1 14 2 15 3 16 86 17 84 18 85 19 16 20 17 21 18 22
REMARK SMILES IDX 19 23 20 24 21 25 82 26 22 27 81 28 23 29 24 30 25 31 75 32
REMARK SMILES IDX 26 33 80 34 74 35 76 36 27 37 79 38 73 39 72 40 28 42 60 43
REMARK SMILES IDX 40 44 59 45 41 46 44 47 58 48 77 49 42 50 43 51 57 53 78 54
REMARK SMILES IDX 45 55 29 56 30 57 38 58 31 59 32 60 36 61 39 62 33 63 34 64
REMARK SMILES IDX 37 65 35 66 61 67 62 68 70 69 63 70 64 71 68 72 71 73 65 74
REMARK SMILES IDX 66 75 69 76 67 77 46 78 47 79 55 80 48 81 49 82 53 83 56 84
REMARK SMILES IDX 50 85 51 86 54 87 52 88
REMARK H PARENT 76 41 44 52
REMARK Flexibility Score: inf
ROOT
ATOM      1  C   UNL A   1      42.532  21.015  26.656  1.00  0.00     0.275 C 
ENDROOT
BRANCH   1   2
ATOM      2  O   UNL A   1      41.165  21.264  26.274  1.00  0.00    -0.456 OA
BRANCH   2   3
ATOM      3  C   UNL A   1      40.453  20.194  25.814  1.00  0.00     0.374 C 
ATOM      4  O   UNL A   1      40.920  19.068  25.671  1.00  0.00    -0.242 OA
BRANCH   3   5
ATOM      5  C   UNL A   1      39.087  20.586  25.542  1.00  0.00     0.211 A 
ATOM      6  C   UNL A   1      37.415  22.044  25.415  1.00  0.00     0.118 A 
ATOM      7  C   UNL A   1      36.934  20.843  24.931  1.00  0.00     0.048 A 
ATOM      8  O   UNL A   1      38.706  21.869  25.835  1.00  0.00    -0.453 OA
ATOM      9  C   UNL A   1      38.005  19.915  25.003  1.00  0.00     0.058 A 
BRANCH   6  10
ATOM     10  C   UNL A   1      36.797  23.418  25.523  1.00  0.00     0.116 C 
ATOM     11  C   UNL A   1      37.641  24.361  26.400  1.00  0.00     0.028 C 
BRANCH  10  12
ATOM     12  S   UNL A   1      35.021  23.404  26.030  1.00  0.00    -0.096 SA
BRANCH  12  13
ATOM     13  C   UNL A   1      34.334  24.619  25.007  1.00  0.00     0.095 A 
ATOM     14  C   UNL A   1      33.381  27.918  23.838  1.00  0.00     0.069 C 
ATOM     15  C   UNL A   1      33.715  26.498  24.042  1.00  0.00     0.061 A 
ATOM     16  C   UNL A   1      33.945  25.904  25.285  1.00  0.00     0.060 A 
ATOM     17  N   UNL A   1      33.800  25.611  23.043  1.00  0.00    -0.178 NA
ATOM     18  N   UNL A   1      34.080  24.441  23.671  1.00  0.00    -0.262 N 
ATOM     19  C   UNL A   1      33.911  23.199  22.951  1.00  0.00     0.175 C 
ENDBRANCH  12  13
ENDBRANCH  10  12
ENDBRANCH   6  10
ENDBRANCH   3   5
ENDBRANCH   2   3
ENDBRANCH   1   2
BRANCH   1  20
ATOM     20  C   UNL A   1      43.508  21.968  25.957  1.00  0.00     0.275 C 
BRANCH  20  21
ATOM     21  O   UNL A   1      42.822  22.904  25.102  1.00  0.00    -0.458 OA
BRANCH  21  22
ATOM     22  C   UNL A   1      43.416  24.112  24.986  1.00  0.00     0.338 C 
ATOM     23  O   UNL A   1      44.446  24.372  24.384  1.00  0.00    -0.246 OA
BRANCH  22  24
ATOM     24  C   UNL A   1      42.608  25.159  25.632  1.00  0.00     0.060 A 
ATOM     25  C   UNL A   1      43.164  26.424  25.718  1.00  0.00     0.016 A 
ATOM     26  C   UNL A   1      41.453  24.859  26.359  1.00  0.00     0.016 A 
ATOM     27  C   UNL A   1      42.650  27.330  26.645  1.00  0.00     0.010 A 
ATOM     28  C   UNL A   1      40.907  25.814  27.245  1.00  0.00     0.010 A 
ATOM     29  C   UNL A   1      41.561  27.032  27.490  1.00  0.00    -0.014 A 
BRANCH  29  30
ATOM     30  C   UNL A   1      41.281  27.940  28.677  1.00  0.00     0.031 A 
ATOM     31  C   UNL A   1      40.060  28.861  28.724  1.00  0.00     0.074 A 
ATOM     32  C   UNL A   1      41.981  27.792  29.826  1.00  0.00     0.049 A 
ATOM     33  N   UNL A   1      39.530  29.495  29.751  1.00  0.00    -0.248 NA
ATOM     34  C   UNL A   1      39.315  29.085  27.474  1.00  0.00     0.031 C 
ATOM     35  C   UNL A   1      43.150  26.929  29.994  1.00  0.00     0.029 A 
ATOM     36  N   UNL A   1      41.773  28.301  31.092  1.00  0.00    -0.354 N 
ATOM     37  C   UNL A   1      38.374  30.115  29.281  1.00  0.00     0.074 A 
ATOM     38  C   UNL A   1      38.282  29.811  27.873  1.00  0.00     0.031 C 
ATOM     39  C   UNL A   1      43.472  26.867  31.294  1.00  0.00     0.029 A 
ATOM     40  C   UNL A   1      42.618  27.782  32.046  1.00  0.00     0.049 A 
ATOM     41  H   UNL A   1      41.082  28.974  31.294  1.00  0.00     0.167 HD
ATOM     42  C   UNL A   1      37.469  30.886  29.936  1.00  0.00     0.037 A 
ATOM     43  C   UNL A   1      42.729  28.020  33.370  1.00  0.00     0.037 A 
ATOM     44  C   UNL A   1      37.583  31.313  31.305  1.00  0.00     0.049 A 
ATOM     45  C   UNL A   1      41.832  29.038  34.022  1.00  0.00     0.074 A 
ATOM     46  C   UNL A   1      36.796  32.224  31.993  1.00  0.00     0.029 A 
ATOM     47  N   UNL A   1      38.564  30.891  32.185  1.00  0.00    -0.354 N 
ATOM     48  N   UNL A   1      40.779  29.649  33.541  1.00  0.00    -0.248 NA
ATOM     49  C   UNL A   1      42.170  29.428  35.400  1.00  0.00     0.031 C 
ATOM     50  C   UNL A   1      37.361  32.427  33.256  1.00  0.00     0.029 A 
ATOM     51  C   UNL A   1      38.443  31.573  33.388  1.00  0.00     0.049 A 
ATOM     52  H   UNL A   1      39.246  30.210  31.987  1.00  0.00     0.167 HD
ATOM     53  C   UNL A   1      40.333  30.494  34.550  1.00  0.00     0.074 A 
ATOM     54  C   UNL A   1      41.198  30.281  35.689  1.00  0.00     0.031 C 
ATOM     55  C   UNL A   1      39.308  31.382  34.522  1.00  0.00     0.037 A 
BRANCH  42  56
ATOM     56  C   UNL A   1      36.321  31.437  29.135  1.00  0.00     0.064 A 
ATOM     57  C   UNL A   1      35.239  30.641  28.727  1.00  0.00     0.173 A 
ATOM     58  C   UNL A   1      36.293  32.802  28.807  1.00  0.00     0.173 A 
ATOM     59  F   UNL A   1      35.224  29.328  29.001  1.00  0.00    -0.203 F 
ATOM     60  C   UNL A   1      34.178  31.192  28.010  1.00  0.00     0.198 A 
ATOM     61  C   UNL A   1      35.219  33.353  28.112  1.00  0.00     0.198 A 
ATOM     62  F   UNL A   1      37.301  33.605  29.176  1.00  0.00    -0.203 F 
ATOM     63  F   UNL A   1      33.167  30.412  27.602  1.00  0.00    -0.200 F 
ATOM     64  C   UNL A   1      34.166  32.547  27.710  1.00  0.00     0.200 A 
ATOM     65  F   UNL A   1      35.207  34.663  27.832  1.00  0.00    -0.200 F 
ATOM     66  F   UNL A   1      33.142  33.077  27.025  1.00  0.00    -0.200 F 
ENDBRANCH  42  56
BRANCH  43  67
ATOM     67  C   UNL A   1      43.790  27.339  34.171  1.00  0.00     0.064 A 
ATOM     68  C   UNL A   1      43.538  26.141  34.855  1.00  0.00     0.173 A 
ATOM     69  C   UNL A   1      45.071  27.898  34.303  1.00  0.00     0.173 A 
ATOM     70  F   UNL A   1      42.320  25.580  34.802  1.00  0.00    -0.203 F 
ATOM     71  C   UNL A   1      44.519  25.537  35.641  1.00  0.00     0.198 A 
ATOM     72  C   UNL A   1      46.066  27.268  35.045  1.00  0.00     0.198 A 
ATOM     73  F   UNL A   1      45.366  29.058  33.697  1.00  0.00    -0.203 F 
ATOM     74  F   UNL A   1      44.231  24.427  36.336  1.00  0.00    -0.200 F 
ATOM     75  C   UNL A   1      45.787  26.094  35.724  1.00  0.00     0.200 A 
ATOM     76  F   UNL A   1      47.293  27.803  35.104  1.00  0.00    -0.200 F 
ATOM     77  F   UNL A   1      46.734  25.506  36.467  1.00  0.00    -0.200 F 
ENDBRANCH  43  67
BRANCH  55  78
ATOM     78  C   UNL A   1      39.056  32.192  35.763  1.00  0.00     0.064 A 
ATOM     79  C   UNL A   1      38.325  31.679  36.845  1.00  0.00     0.173 A 
ATOM     80  C   UNL A   1      39.561  33.498  35.879  1.00  0.00     0.173 A 
ATOM     81  F   UNL A   1      37.813  30.440  36.788  1.00  0.00    -0.203 F 
ATOM     82  C   UNL A   1      38.069  32.455  37.974  1.00  0.00     0.198 A 
ATOM     83  C   UNL A   1      39.336  34.257  37.025  1.00  0.00     0.198 A 
ATOM     84  F   UNL A   1      40.280  34.037  34.883  1.00  0.00    -0.203 F 
ATOM     85  F   UNL A   1      37.309  31.965  38.963  1.00  0.00    -0.200 F 
ATOM     86  C   UNL A   1      38.578  33.742  38.064  1.00  0.00     0.200 A 
ATOM     87  F   UNL A   1      39.845  35.493  37.117  1.00  0.00    -0.200 F 
ATOM     88  F   UNL A   1      38.328  34.488  39.148  1.00  0.00    -0.200 F 
ENDBRANCH  55  78
ENDBRANCH  29  30
ENDBRANCH  22  24
ENDBRANCH  21  22
ENDBRANCH  20  21
ENDBRANCH   1  20
TORSDOF 14
ENDMDL
MODEL 3
REMARK VINA RESULT:     -12.0      1.356      2.381
REMARK SMILES Cc1cc(S[C@@H](C)c2ccc(C(=O)OCCOC(=O)c3ccc(-c4c5nc(c(-c6c(F)c(F)c(F)c(F)c6F)c6ccc([nH]6)c(-c6c(F)c(F)c(F)c(F)c6F)c6nc(c(-c7c(F)c(F)c(F)c(F)c7F)c7ccc4[nH]7)C=C6)C=C5)cc3)o2)n(C)n1
REMARK SMILES IDX 15 1 14 2 12 3 13 4 11 5 8 6 9 7 83 8 10 9 6 10 7 11 5 12
REMARK SMILES IDX 4 13 1 14 2 15 3 16 86 17 84 18 85 19 16 20 17 21 18 22
REMARK SMILES IDX 19 23 20 24 21 25 82 26 22 27 81 28 23 29 24 30 25 31 75 32
REMARK SMILES IDX 26 33 80 34 74 35 76 36 27 37 79 38 73 39 72 40 28 42 60 43
REMARK SMILES IDX 40 44 59 45 41 46 44 47 58 48 77 49 42 50 43 51 57 53 78 54
REMARK SMILES IDX 45 55 29 56 30 57 38 58 31 59 32 60 36 61 39 62 33 63 34 64
REMARK SMILES IDX 37 65 35 66 61 67 62 68 70 69 63 70 64 71 68 72 71 73 65 74
REMARK SMILES IDX 66 75 69 76 67 77 46 78 47 79 55 80 48 81 49 82 53 83 56 84
REMARK SMILES IDX 50 85 51 86 54 87 52 88
REMARK H PARENT 76 41 44 52
REMARK Flexibility Score: inf
ROOT
ATOM      1  C   UNL A   1      43.034  20.943  26.121  1.00  0.00     0.275 C 
ENDROOT
BRANCH   1   2
ATOM      2  O   UNL A   1      41.699  21.307  25.717  1.00  0.00    -0.456 OA
BRANCH   2   3
ATOM      3  C   UNL A   1      40.701  21.065  26.616  1.00  0.00     0.374 C 
ATOM      4  O   UNL A   1      40.774  20.234  27.517  1.00  0.00    -0.242 OA
BRANCH   3   5
ATOM      5  C   UNL A   1      39.574  21.934  26.353  1.00  0.00     0.211 A 
ATOM      6  C   UNL A   1      37.514  22.376  25.646  1.00  0.00     0.118 A 
ATOM      7  C   UNL A   1      38.013  23.549  26.179  1.00  0.00     0.048 A 
ATOM      8  O   UNL A   1      38.486  21.413  25.705  1.00  0.00    -0.453 OA
ATOM      9  C   UNL A   1      39.324  23.264  26.639  1.00  0.00     0.058 A 
BRANCH   6  10
ATOM     10  C   UNL A   1      36.165  22.011  25.076  1.00  0.00     0.116 C 
ATOM     11  C   UNL A   1      35.990  20.487  24.942  1.00  0.00     0.028 C 
BRANCH  10  12
ATOM     12  S   UNL A   1      35.747  22.897  23.509  1.00  0.00    -0.096 SA
BRANCH  12  13
ATOM     13  C   UNL A   1      34.739  24.188  24.071  1.00  0.00     0.095 A 
ATOM     14  C   UNL A   1      33.673  27.035  26.048  1.00  0.00     0.069 C 
ATOM     15  C   UNL A   1      33.897  25.960  25.066  1.00  0.00     0.061 A 
ATOM     16  C   UNL A   1      34.736  24.862  25.265  1.00  0.00     0.060 A 
ATOM     17  N   UNL A   1      33.281  25.908  23.879  1.00  0.00    -0.178 NA
ATOM     18  N   UNL A   1      33.737  24.755  23.328  1.00  0.00    -0.262 N 
ATOM     19  C   UNL A   1      33.038  24.195  22.193  1.00  0.00     0.175 C 
ENDBRANCH  12  13
ENDBRANCH  10  12
ENDBRANCH   6  10
ENDBRANCH   3   5
ENDBRANCH   2   3
ENDBRANCH   1   2
BRANCH   1  20
ATOM     20  C   UNL A   1      44.098  21.817  25.447  1.00  0.00     0.275 C 
BRANCH  20  21
ATOM     21  O   UNL A   1      44.288  23.064  26.145  1.00  0.00    -0.458 OA
BRANCH  21  22
ATOM     22  C   UNL A   1      44.216  24.168  25.371  1.00  0.00     0.338 C 
ATOM     23  O   UNL A   1      44.738  24.338  24.280  1.00  0.00    -0.246 OA
BRANCH  22  24
ATOM     24  C   UNL A   1      43.331  25.177  25.975  1.00  0.00     0.060 A 
ATOM     25  C   UNL A   1      43.826  26.465  26.089  1.00  0.00     0.016 A 
ATOM     26  C   UNL A   1      42.156  24.825  26.644  1.00  0.00     0.016 A 
ATOM     27  C   UNL A   1      43.227  27.345  26.989  1.00  0.00     0.010 A 
ATOM     28  C   UNL A   1      41.525  25.754  27.501  1.00  0.00     0.010 A 
ATOM     29  C   UNL A   1      42.111  26.998  27.778  1.00  0.00    -0.014 A 
BRANCH  29  30
ATOM     30  C   UNL A   1      41.732  27.890  28.950  1.00  0.00     0.031 A 
ATOM     31  C   UNL A   1      40.469  28.754  28.937  1.00  0.00     0.074 A 
ATOM     32  C   UNL A   1      42.382  27.774  30.131  1.00  0.00     0.049 A 
ATOM     33  N   UNL A   1      39.861  29.362  29.937  1.00  0.00    -0.248 NA
ATOM     34  C   UNL A   1      39.777  28.946  27.652  1.00  0.00     0.031 C 
ATOM     35  C   UNL A   1      43.580  26.965  30.357  1.00  0.00     0.029 A 
ATOM     36  N   UNL A   1      42.089  28.270  31.386  1.00  0.00    -0.354 N 
ATOM     37  C   UNL A   1      38.702  29.929  29.410  1.00  0.00     0.074 A 
ATOM     38  C   UNL A   1      38.693  29.623  28.000  1.00  0.00     0.031 C 
ATOM     39  C   UNL A   1      43.840  26.915  31.671  1.00  0.00     0.029 A 
ATOM     40  C   UNL A   1      42.910  27.789  32.380  1.00  0.00     0.049 A 
ATOM     41  H   UNL A   1      41.359  28.911  31.554  1.00  0.00     0.167 HD
ATOM     42  C   UNL A   1      37.732  30.656  30.020  1.00  0.00     0.037 A 
ATOM     43  C   UNL A   1      42.945  28.030  33.708  1.00  0.00     0.037 A 
ATOM     44  C   UNL A   1      37.759  31.086  31.392  1.00  0.00     0.049 A 
ATOM     45  C   UNL A   1      41.971  29.004  34.314  1.00  0.00     0.074 A 
ATOM     46  C   UNL A   1      36.899  31.958  32.041  1.00  0.00     0.029 A 
ATOM     47  N   UNL A   1      38.714  30.708  32.319  1.00  0.00    -0.354 N 
ATOM     48  N   UNL A   1      40.916  29.567  33.783  1.00  0.00    -0.248 NA
ATOM     49  C   UNL A   1      42.224  29.407  35.707  1.00  0.00     0.031 C 
ATOM     50  C   UNL A   1      37.392  32.185  33.330  1.00  0.00     0.029 A 
ATOM     51  C   UNL A   1      38.504  31.381  33.515  1.00  0.00     0.049 A 
ATOM     52  H   UNL A   1      39.436  30.059  32.156  1.00  0.00     0.167 HD
ATOM     53  C   UNL A   1      40.383  30.389  34.768  1.00  0.00     0.074 A 
ATOM     54  C   UNL A   1      41.200  30.214  35.948  1.00  0.00     0.031 C 
ATOM     55  C   UNL A   1      39.321  31.229  34.690  1.00  0.00     0.037 A 
BRANCH  42  56
ATOM     56  C   UNL A   1      36.600  31.155  29.163  1.00  0.00     0.064 A 
ATOM     57  C   UNL A   1      35.537  30.328  28.768  1.00  0.00     0.173 A 
ATOM     58  C   UNL A   1      36.567  32.501  28.768  1.00  0.00     0.173 A 
ATOM     59  F   UNL A   1      35.526  29.031  29.106  1.00  0.00    -0.203 F 
ATOM     60  C   UNL A   1      34.489  30.833  27.998  1.00  0.00     0.198 A 
ATOM     61  C   UNL A   1      35.508  33.006  28.019  1.00  0.00     0.198 A 
ATOM     62  F   UNL A   1      37.558  33.332  29.123  1.00  0.00    -0.203 F 
ATOM     63  F   UNL A   1      33.496  30.023  27.603  1.00  0.00    -0.200 F 
ATOM     64  C   UNL A   1      34.473  32.171  27.631  1.00  0.00     0.200 A 
ATOM     65  F   UNL A   1      35.491  34.301  27.675  1.00  0.00    -0.200 F 
ATOM     66  F   UNL A   1      33.462  32.655  26.895  1.00  0.00    -0.200 F 
ENDBRANCH  42  56
BRANCH  43  67
ATOM     67  C   UNL A   1      43.996  27.397  34.560  1.00  0.00     0.064 A 
ATOM     68  C   UNL A   1      45.257  27.988  34.729  1.00  0.00     0.173 A 
ATOM     69  C   UNL A   1      43.773  26.163  35.190  1.00  0.00     0.173 A 
ATOM     70  F   UNL A   1      45.545  29.146  34.118  1.00  0.00    -0.203 F 
ATOM     71  C   UNL A   1      46.250  27.365  35.486  1.00  0.00     0.198 A 
ATOM     72  C   UNL A   1      44.746  25.568  35.988  1.00  0.00     0.198 A 
ATOM     73  F   UNL A   1      42.597  25.533  35.044  1.00  0.00    -0.203 F 
ATOM     74  F   UNL A   1      47.467  27.919  35.578  1.00  0.00    -0.200 F 
ATOM     75  C   UNL A   1      45.989  26.163  36.126  1.00  0.00     0.200 A 
ATOM     76  F   UNL A   1      44.478  24.416  36.619  1.00  0.00    -0.200 F 
ATOM     77  F   UNL A   1      46.938  25.573  36.866  1.00  0.00    -0.200 F 
ENDBRANCH  43  67
BRANCH  55  78
ATOM     78  C   UNL A   1      38.972  32.025  35.916  1.00  0.00     0.064 A 
ATOM     79  C   UNL A   1      39.398  33.352  36.082  1.00  0.00     0.173 A 
ATOM     80  C   UNL A   1      38.191  31.460  36.937  1.00  0.00     0.173 A 
ATOM     81  F   UNL A   1      40.151  33.942  35.141  1.00  0.00    -0.203 F 
ATOM     82  C   UNL A   1      39.097  34.065  37.240  1.00  0.00     0.198 A 
ATOM     83  C   UNL A   1      37.860  32.189  38.077  1.00  0.00     0.198 A 
ATOM     84  F   UNL A   1      37.743  30.200  36.829  1.00  0.00    -0.203 F 
ATOM     85  F   UNL A   1      39.575  35.307  37.403  1.00  0.00    -0.200 F 
ATOM     86  C   UNL A   1      38.325  33.484  38.235  1.00  0.00     0.200 A 
ATOM     87  F   UNL A   1      37.098  31.632  39.028  1.00  0.00    -0.200 F 
ATOM     88  F   UNL A   1      38.040  34.170  39.350  1.00  0.00    -0.200 F 
ENDBRANCH  55  78
ENDBRANCH  29  30
ENDBRANCH  22  24
ENDBRANCH  21  22
ENDBRANCH  20  21
ENDBRANCH   1  20
TORSDOF 14
ENDMDL
