MODEL 1
REMARK VINA RESULT:     -12.4      0.000      0.000
REMARK SMILES O=C(COc1ccccc1/C=N\N1CC[NH+](Cc2ccc(Cl)cc2)CC1)OCCOC(=O)c1ccc(-c2c3nc(c(-c4c(F)c(F)c(F)c(F)c4F)c4ccc([nH]4)c(-c4c(F)c(F)c(F)c(F)c4F)c4nc(c(-c5c(F)c(F)c(F)c(F)c5F)c5ccc2[nH]5)C=C4)C=C3)cc1
REMARK SMILES IDX 1 1 2 2 3 3 4 4 5 5 6 6 10 7 7 8 9 9 8 10 11 11 12 12 13 13
REMARK SMILES IDX 14 14 26 15 15 16 25 17 16 18 17 20 18 21 19 22 24 23 20 24
REMARK SMILES IDX 23 25 21 26 22 27 27 28 28 29 29 30 30 31 31 32 32 33 33 34
REMARK SMILES IDX 34 35 95 36 35 37 94 38 36 39 37 40 38 41 88 42 39 43 93 44
REMARK SMILES IDX 87 45 89 46 40 47 92 48 86 49 85 50 41 52 73 53 53 54 72 55
REMARK SMILES IDX 54 56 57 57 71 58 90 59 55 60 56 61 70 63 91 64 58 65 42 66
REMARK SMILES IDX 43 67 51 68 44 69 45 70 49 71 52 72 46 73 47 74 50 75 48 76
REMARK SMILES IDX 74 77 75 78 83 79 76 80 77 81 81 82 84 83 78 84 79 85 82 86
REMARK SMILES IDX 80 87 59 88 60 89 68 90 61 91 62 92 66 93 69 94 63 95 64 96
REMARK SMILES IDX 67 97 65 98
REMARK H PARENT 16 19 89 51 57 62
REMARK Flexibility Score: inf
ROOT
ATOM      1  O   UNL A   1      42.160  18.380  25.760  1.00  0.00    -0.248 OA
ATOM      2  C   UNL A   1      42.250  19.602  25.885  1.00  0.00     0.344 C 
ENDROOT
BRANCH   2   3
ATOM      3  C   UNL A   1      41.178  20.379  26.646  1.00  0.00     0.352 C 
BRANCH   3   4
ATOM      4  O   UNL A   1      39.887  20.464  26.061  1.00  0.00    -0.481 OA
BRANCH   4   5
ATOM      5  C   UNL A   1      39.366  21.727  26.136  1.00  0.00     0.129 A 
ATOM      6  C   UNL A   1      40.158  22.733  26.692  1.00  0.00     0.047 A 
ATOM      7  C   UNL A   1      38.045  21.988  25.753  1.00  0.00     0.037 A 
ATOM      8  C   UNL A   1      39.634  24.016  26.848  1.00  0.00     0.004 A 
ATOM      9  C   UNL A   1      37.507  23.256  25.980  1.00  0.00     0.013 A 
ATOM     10  C   UNL A   1      38.307  24.274  26.502  1.00  0.00     0.001 A 
BRANCH   7  11
ATOM     11  C   UNL A   1      37.294  20.904  25.091  1.00  0.00     0.145 C 
ATOM     12  N   UNL A   1      36.036  20.803  24.774  1.00  0.00    -0.185 NA
BRANCH  12  13
ATOM     13  N   UNL A   1      35.176  21.744  25.202  1.00  0.00    -0.286 NA
ATOM     14  C   UNL A   1      34.194  21.259  26.179  1.00  0.00     0.200 C 
ATOM     15  C   UNL A   1      34.456  22.644  24.277  1.00  0.00     0.200 C 
ATOM     16  C   UNL A   1      33.752  22.435  27.056  1.00  0.00     0.286 C 
ATOM     17  C   UNL A   1      33.953  23.882  25.075  1.00  0.00     0.286 C 
ATOM     18  N   UNL A   1      33.254  23.621  26.348  1.00  0.00    -0.328 N 
ATOM     19  H   UNL A   1      33.522  24.412  26.933  1.00  0.00     0.348 HD
BRANCH  18  20
ATOM     20  C   UNL A   1      31.799  23.760  26.324  1.00  0.00     0.299 C 
BRANCH  20  21
ATOM     21  C   UNL A   1      31.265  25.011  25.671  1.00  0.00     0.006 A 
ATOM     22  C   UNL A   1      31.672  26.270  26.139  1.00  0.00     0.011 A 
ATOM     23  C   UNL A   1      30.404  24.942  24.568  1.00  0.00     0.011 A 
ATOM     24  C   UNL A   1      31.276  27.434  25.482  1.00  0.00     0.021 A 
ATOM     25  C   UNL A   1      30.012  26.106  23.906  1.00  0.00     0.021 A 
ATOM     26  C   UNL A   1      30.459  27.346  24.359  1.00  0.00     0.041 A 
ATOM     27  Cl  UNL A   1      30.008  28.778  23.521  1.00  0.00    -0.084 Cl
ENDBRANCH  20  21
ENDBRANCH  18  20
ENDBRANCH  12  13
ENDBRANCH   7  11
ENDBRANCH   4   5
ENDBRANCH   3   4
ENDBRANCH   2   3
BRANCH   2  28
ATOM     28  O   UNL A   1      43.276  20.274  25.308  1.00  0.00    -0.460 OA
BRANCH  28  29
ATOM     29  C   UNL A   1      43.428  21.711  25.257  1.00  0.00     0.274 C 
BRANCH  29  30
ATOM     30  C   UNL A   1      44.904  22.103  25.219  1.00  0.00     0.275 C 
BRANCH  30  31
ATOM     31  O   UNL A   1      45.132  23.148  26.178  1.00  0.00    -0.458 OA
BRANCH  31  32
ATOM     32  C   UNL A   1      45.075  24.408  25.677  1.00  0.00     0.338 C 
ATOM     33  O   UNL A   1      45.536  24.806  24.624  1.00  0.00    -0.246 OA
BRANCH  32  34
ATOM     34  C   UNL A   1      44.156  25.195  26.524  1.00  0.00     0.060 A 
ATOM     35  C   UNL A   1      44.234  26.592  26.456  1.00  0.00     0.016 A 
ATOM     36  C   UNL A   1      43.203  24.578  27.342  1.00  0.00     0.016 A 
ATOM     37  C   UNL A   1      43.400  27.376  27.249  1.00  0.00     0.010 A 
ATOM     38  C   UNL A   1      42.375  25.362  28.146  1.00  0.00     0.010 A 
ATOM     39  C   UNL A   1      42.508  26.762  28.137  1.00  0.00    -0.014 A 
BRANCH  39  40
ATOM     40  C   UNL A   1      41.948  27.557  29.254  1.00  0.00     0.031 A 
ATOM     41  C   UNL A   1      42.658  27.482  30.578  1.00  0.00     0.074 A 
ATOM     42  C   UNL A   1      40.867  28.339  29.101  1.00  0.00     0.049 A 
ATOM     43  N   UNL A   1      42.396  28.094  31.702  1.00  0.00    -0.248 NA
ATOM     44  C   UNL A   1      43.825  26.585  30.639  1.00  0.00     0.031 C 
ATOM     45  C   UNL A   1      40.111  28.515  27.864  1.00  0.00     0.029 A 
ATOM     46  N   UNL A   1      40.220  29.138  30.011  1.00  0.00    -0.354 N 
ATOM     47  C   UNL A   1      43.365  27.662  32.597  1.00  0.00     0.074 A 
ATOM     48  C   UNL A   1      44.195  26.704  31.902  1.00  0.00     0.031 C 
ATOM     49  C   UNL A   1      39.098  29.371  28.092  1.00  0.00     0.029 A 
ATOM     50  C   UNL A   1      39.129  29.790  29.493  1.00  0.00     0.049 A 
ATOM     51  H   UNL A   1      40.511  29.234  30.946  1.00  0.00     0.167 HD
ATOM     52  C   UNL A   1      43.560  28.040  33.881  1.00  0.00     0.037 A 
ATOM     53  C   UNL A   1      38.261  30.629  30.093  1.00  0.00     0.037 A 
ATOM     54  C   UNL A   1      42.731  28.984  34.577  1.00  0.00     0.049 A 
ATOM     55  C   UNL A   1      38.462  30.987  31.545  1.00  0.00     0.074 A 
ATOM     56  C   UNL A   1      42.845  29.443  35.875  1.00  0.00     0.029 A 
ATOM     57  N   UNL A   1      41.622  29.607  34.024  1.00  0.00    -0.354 N 
ATOM     58  N   UNL A   1      39.411  30.615  32.371  1.00  0.00    -0.248 NA
ATOM     59  C   UNL A   1      37.474  31.897  32.143  1.00  0.00     0.031 C 
ATOM     60  C   UNL A   1      41.774  30.307  36.127  1.00  0.00     0.029 A 
ATOM     61  C   UNL A   1      41.028  30.431  34.965  1.00  0.00     0.049 A 
ATOM     62  H   UNL A   1      41.304  29.483  33.101  1.00  0.00     0.167 HD
ATOM     63  C   UNL A   1      39.163  31.281  33.566  1.00  0.00     0.074 A 
ATOM     64  C   UNL A   1      37.974  32.080  33.358  1.00  0.00     0.031 C 
ATOM     65  C   UNL A   1      39.860  31.241  34.729  1.00  0.00     0.037 A 
BRANCH  52  66
ATOM     66  C   UNL A   1      44.699  27.398  34.616  1.00  0.00     0.064 A 
ATOM     67  C   UNL A   1      44.540  26.189  35.312  1.00  0.00     0.173 A 
ATOM     68  C   UNL A   1      45.963  28.006  34.634  1.00  0.00     0.173 A 
ATOM     69  F   UNL A   1      43.345  25.581  35.344  1.00  0.00    -0.203 F 
ATOM     70  C   UNL A   1      45.597  25.630  36.026  1.00  0.00     0.198 A 
ATOM     71  C   UNL A   1      47.024  27.429  35.325  1.00  0.00     0.198 A 
ATOM     72  F   UNL A   1      46.165  29.164  33.988  1.00  0.00    -0.203 F 
ATOM     73  F   UNL A   1      45.407  24.508  36.732  1.00  0.00    -0.200 F 
ATOM     74  C   UNL A   1      46.838  26.248  36.027  1.00  0.00     0.200 A 
ATOM     75  F   UNL A   1      48.226  28.024  35.319  1.00  0.00    -0.200 F 
ATOM     76  F   UNL A   1      47.855  25.711  36.716  1.00  0.00    -0.200 F 
ENDBRANCH  52  66
BRANCH  53  77
ATOM     77  C   UNL A   1      37.133  31.216  29.324  1.00  0.00     0.064 A 
ATOM     78  C   UNL A   1      37.139  32.569  28.955  1.00  0.00     0.173 A 
ATOM     79  C   UNL A   1      36.010  30.451  28.977  1.00  0.00     0.173 A 
ATOM     80  F   UNL A   1      38.179  33.348  29.287  1.00  0.00    -0.203 F 
ATOM     81  C   UNL A   1      36.055  33.140  28.292  1.00  0.00     0.198 A 
ATOM     82  C   UNL A   1      34.938  31.017  28.290  1.00  0.00     0.198 A 
ATOM     83  F   UNL A   1      35.953  29.153  29.307  1.00  0.00    -0.203 F 
ATOM     84  F   UNL A   1      36.065  34.448  27.998  1.00  0.00    -0.200 F 
ATOM     85  C   UNL A   1      34.957  32.363  27.957  1.00  0.00     0.200 A 
ATOM     86  F   UNL A   1      33.882  30.261  27.960  1.00  0.00    -0.200 F 
ATOM     87  F   UNL A   1      33.913  32.913  27.321  1.00  0.00    -0.200 F 
ENDBRANCH  53  77
BRANCH  65  88
ATOM     88  C   UNL A   1      39.400  32.134  35.845  1.00  0.00     0.064 A 
ATOM     89  C   UNL A   1      38.440  31.723  36.781  1.00  0.00     0.173 A 
ATOM     90  C   UNL A   1      39.966  33.409  36.003  1.00  0.00     0.173 A 
ATOM     91  F   UNL A   1      37.861  30.518  36.668  1.00  0.00    -0.203 F 
ATOM     92  C   UNL A   1      38.042  32.566  37.815  1.00  0.00     0.198 A 
ATOM     93  C   UNL A   1      39.590  34.237  37.056  1.00  0.00     0.198 A 
ATOM     94  F   UNL A   1      40.897  33.848  35.142  1.00  0.00    -0.203 F 
ATOM     95  F   UNL A   1      37.087  32.172  38.667  1.00  0.00    -0.200 F 
ATOM     96  C   UNL A   1      38.621  33.819  37.956  1.00  0.00     0.200 A 
ATOM     97  F   UNL A   1      40.163  35.440  37.201  1.00  0.00    -0.200 F 
ATOM     98  F   UNL A   1      38.241  34.625  38.956  1.00  0.00    -0.200 F 
ENDBRANCH  65  88
ENDBRANCH  39  40
ENDBRANCH  32  34
ENDBRANCH  31  32
ENDBRANCH  30  31
ENDBRANCH  29  30
ENDBRANCH  28  29
ENDBRANCH   2  28
TORSDOF 17
ENDMDL
MODEL 2
REMARK VINA RESULT:     -12.2      4.356      7.058
REMARK SMILES O=C(COc1ccccc1/C=N\N1CC[NH+](Cc2ccc(Cl)cc2)CC1)OCCOC(=O)c1ccc(-c2c3nc(c(-c4c(F)c(F)c(F)c(F)c4F)c4ccc([nH]4)c(-c4c(F)c(F)c(F)c(F)c4F)c4nc(c(-c5c(F)c(F)c(F)c(F)c5F)c5ccc2[nH]5)C=C4)C=C3)cc1
REMARK SMILES IDX 1 1 2 2 3 3 4 4 5 5 6 6 10 7 7 8 9 9 8 10 11 11 12 12 13 13
REMARK SMILES IDX 14 14 26 15 15 16 25 17 16 18 17 20 18 21 19 22 24 23 20 24
REMARK SMILES IDX 23 25 21 26 22 27 27 28 28 29 29 30 30 31 31 32 32 33 33 34
REMARK SMILES IDX 34 35 95 36 35 37 94 38 36 39 37 40 38 41 88 42 39 43 93 44
REMARK SMILES IDX 87 45 89 46 40 47 92 48 86 49 85 50 41 52 73 53 53 54 72 55
REMARK SMILES IDX 54 56 57 57 71 58 90 59 55 60 56 61 70 63 91 64 58 65 42 66
REMARK SMILES IDX 43 67 51 68 44 69 45 70 49 71 52 72 46 73 47 74 50 75 48 76
REMARK SMILES IDX 74 77 75 78 83 79 76 80 77 81 81 82 84 83 78 84 79 85 82 86
REMARK SMILES IDX 80 87 59 88 60 89 68 90 61 91 62 92 66 93 69 94 63 95 64 96
REMARK SMILES IDX 67 97 65 98
REMARK H PARENT 16 19 89 51 57 62
REMARK Flexibility Score: inf
ROOT
ATOM      1  O   UNL A   1      36.108  22.198  26.174  1.00  0.00    -0.248 OA
ATOM      2  C   UNL A   1      36.541  22.283  25.024  1.00  0.00     0.344 C 
ENDROOT
BRANCH   2   3
ATOM      3  C   UNL A   1      36.261  23.529  24.186  1.00  0.00     0.352 C 
BRANCH   3   4
ATOM      4  O   UNL A   1      35.049  24.226  24.429  1.00  0.00    -0.481 OA
BRANCH   4   5
ATOM      5  C   UNL A   1      33.957  23.545  23.963  1.00  0.00     0.129 A 
ATOM      6  C   UNL A   1      33.980  23.089  22.643  1.00  0.00     0.047 A 
ATOM      7  C   UNL A   1      32.812  23.386  24.752  1.00  0.00     0.037 A 
ATOM      8  C   UNL A   1      32.858  22.453  22.114  1.00  0.00     0.004 A 
ATOM      9  C   UNL A   1      31.671  22.813  24.191  1.00  0.00     0.013 A 
ATOM     10  C   UNL A   1      31.701  22.324  22.883  1.00  0.00     0.001 A 
BRANCH   7  11
ATOM     11  C   UNL A   1      32.886  23.809  26.164  1.00  0.00     0.145 C 
ATOM     12  N   UNL A   1      32.480  24.894  26.756  1.00  0.00    -0.185 NA
BRANCH  12  13
ATOM     13  N   UNL A   1      32.021  25.913  26.010  1.00  0.00    -0.286 NA
ATOM     14  C   UNL A   1      32.831  27.135  26.099  1.00  0.00     0.200 C 
ATOM     15  C   UNL A   1      30.604  26.334  26.022  1.00  0.00     0.200 C 
ATOM     16  C   UNL A   1      32.658  27.934  24.804  1.00  0.00     0.286 C 
ATOM     17  C   UNL A   1      30.319  27.168  24.739  1.00  0.00     0.286 C 
ATOM     18  N   UNL A   1      31.277  28.242  24.411  1.00  0.00    -0.328 N 
ATOM     19  H   UNL A   1      31.286  28.249  23.391  1.00  0.00     0.348 HD
BRANCH  18  20
ATOM     20  C   UNL A   1      30.840  29.606  24.705  1.00  0.00     0.299 C 
BRANCH  20  21
ATOM     21  C   UNL A   1      29.973  30.263  23.659  1.00  0.00     0.006 A 
ATOM     22  C   UNL A   1      29.252  31.424  23.981  1.00  0.00     0.011 A 
ATOM     23  C   UNL A   1      29.913  29.765  22.351  1.00  0.00     0.011 A 
ATOM     24  C   UNL A   1      28.533  32.107  23.001  1.00  0.00     0.021 A 
ATOM     25  C   UNL A   1      29.197  30.452  21.368  1.00  0.00     0.021 A 
ATOM     26  C   UNL A   1      28.521  31.625  21.696  1.00  0.00     0.041 A 
ATOM     27  Cl  UNL A   1      27.671  32.492  20.478  1.00  0.00    -0.084 Cl
ENDBRANCH  20  21
ENDBRANCH  18  20
ENDBRANCH  12  13
ENDBRANCH   7  11
ENDBRANCH   4   5
ENDBRANCH   3   4
ENDBRANCH   2   3
BRANCH   2  28
ATOM     28  O   UNL A   1      37.228  21.253  24.475  1.00  0.00    -0.460 OA
BRANCH  28  29
ATOM     29  C   UNL A   1      37.290  19.902  24.989  1.00  0.00     0.274 C 
BRANCH  29  30
ATOM     30  C   UNL A   1      38.722  19.525  25.365  1.00  0.00     0.275 C 
BRANCH  30  31
ATOM     31  O   UNL A   1      39.481  20.728  25.567  1.00  0.00    -0.458 OA
BRANCH  31  32
ATOM     32  C   UNL A   1      40.458  20.640  26.504  1.00  0.00     0.338 C 
ATOM     33  O   UNL A   1      41.181  19.687  26.729  1.00  0.00    -0.246 OA
BRANCH  32  34
ATOM     34  C   UNL A   1      40.663  21.984  27.079  1.00  0.00     0.060 A 
ATOM     35  C   UNL A   1      39.902  23.041  26.564  1.00  0.00     0.016 A 
ATOM     36  C   UNL A   1      41.557  22.202  28.133  1.00  0.00     0.016 A 
ATOM     37  C   UNL A   1      40.073  24.330  27.063  1.00  0.00     0.010 A 
ATOM     38  C   UNL A   1      41.738  23.495  28.626  1.00  0.00     0.010 A 
ATOM     39  C   UNL A   1      41.032  24.569  28.056  1.00  0.00    -0.014 A 
BRANCH  39  40
ATOM     40  C   UNL A   1      41.507  25.955  28.275  1.00  0.00     0.031 A 
ATOM     41  C   UNL A   1      42.870  26.308  27.746  1.00  0.00     0.074 A 
ATOM     42  C   UNL A   1      40.754  26.878  28.894  1.00  0.00     0.049 A 
ATOM     43  N   UNL A   1      43.509  27.447  27.779  1.00  0.00    -0.248 NA
ATOM     44  C   UNL A   1      43.617  25.218  27.095  1.00  0.00     0.031 C 
ATOM     45  C   UNL A   1      39.410  26.664  29.424  1.00  0.00     0.029 A 
ATOM     46  N   UNL A   1      41.025  28.193  29.177  1.00  0.00    -0.354 N 
ATOM     47  C   UNL A   1      44.724  27.212  27.149  1.00  0.00     0.074 A 
ATOM     48  C   UNL A   1      44.754  25.813  26.784  1.00  0.00     0.031 C 
ATOM     49  C   UNL A   1      38.971  27.812  29.972  1.00  0.00     0.029 A 
ATOM     50  C   UNL A   1      40.009  28.834  29.842  1.00  0.00     0.049 A 
ATOM     51  H   UNL A   1      41.868  28.635  28.928  1.00  0.00     0.167 HD
ATOM     52  C   UNL A   1      45.722  28.085  26.882  1.00  0.00     0.037 A 
ATOM     53  C   UNL A   1      39.938  30.104  30.288  1.00  0.00     0.037 A 
ATOM     54  C   UNL A   1      45.698  29.472  27.254  1.00  0.00     0.049 A 
ATOM     55  C   UNL A   1      41.091  31.044  30.034  1.00  0.00     0.074 A 
ATOM     56  C   UNL A   1      46.653  30.445  27.025  1.00  0.00     0.029 A 
ATOM     57  N   UNL A   1      44.660  30.080  27.944  1.00  0.00    -0.354 N 
ATOM     58  N   UNL A   1      42.215  30.828  29.393  1.00  0.00    -0.248 NA
ATOM     59  C   UNL A   1      40.956  32.411  30.557  1.00  0.00     0.031 C 
ATOM     60  C   UNL A   1      46.216  31.632  27.622  1.00  0.00     0.029 A 
ATOM     61  C   UNL A   1      44.961  31.412  28.171  1.00  0.00     0.049 A 
ATOM     62  H   UNL A   1      43.832  29.631  28.231  1.00  0.00     0.167 HD
ATOM     63  C   UNL A   1      42.896  32.040  29.392  1.00  0.00     0.074 A 
ATOM     64  C   UNL A   1      42.058  32.988  30.098  1.00  0.00     0.031 C 
ATOM     65  C   UNL A   1      44.101  32.345  28.851  1.00  0.00     0.037 A 
BRANCH  52  66
ATOM     66  C   UNL A   1      46.933  27.543  26.184  1.00  0.00     0.064 A 
ATOM     67  C   UNL A   1      48.010  26.991  26.895  1.00  0.00     0.173 A 
ATOM     68  C   UNL A   1      47.023  27.589  24.785  1.00  0.00     0.173 A 
ATOM     69  F   UNL A   1      47.983  26.947  28.235  1.00  0.00    -0.203 F 
ATOM     70  C   UNL A   1      49.146  26.534  26.232  1.00  0.00     0.198 A 
ATOM     71  C   UNL A   1      48.148  27.104  24.124  1.00  0.00     0.198 A 
ATOM     72  F   UNL A   1      46.023  28.111  24.060  1.00  0.00    -0.203 F 
ATOM     73  F   UNL A   1      50.187  26.066  26.934  1.00  0.00    -0.200 F 
ATOM     74  C   UNL A   1      49.212  26.586  24.848  1.00  0.00     0.200 A 
ATOM     75  F   UNL A   1      48.207  27.148  22.785  1.00  0.00    -0.200 F 
ATOM     76  F   UNL A   1      50.306  26.148  24.210  1.00  0.00    -0.200 F 
ENDBRANCH  52  66
BRANCH  53  77
ATOM     77  C   UNL A   1      38.723  30.581  30.999  1.00  0.00     0.064 A 
ATOM     78  C   UNL A   1      37.626  31.091  30.290  1.00  0.00     0.173 A 
ATOM     79  C   UNL A   1      38.648  30.574  32.400  1.00  0.00     0.173 A 
ATOM     80  F   UNL A   1      37.662  31.144  28.951  1.00  0.00    -0.203 F 
ATOM     81  C   UNL A   1      36.512  31.601  30.954  1.00  0.00     0.198 A 
ATOM     82  C   UNL A   1      37.521  31.059  33.062  1.00  0.00     0.198 A 
ATOM     83  F   UNL A   1      39.669  30.098  33.126  1.00  0.00    -0.203 F 
ATOM     84  F   UNL A   1      35.501  32.132  30.253  1.00  0.00    -0.200 F 
ATOM     85  C   UNL A   1      36.459  31.581  32.339  1.00  0.00     0.200 A 
ATOM     86  F   UNL A   1      37.470  31.030  34.401  1.00  0.00    -0.200 F 
ATOM     87  F   UNL A   1      35.389  32.073  32.978  1.00  0.00    -0.200 F 
ENDBRANCH  53  77
BRANCH  65  88
ATOM     88  C   UNL A   1      44.559  33.772  28.937  1.00  0.00     0.064 A 
ATOM     89  C   UNL A   1      45.364  34.234  29.989  1.00  0.00     0.173 A 
ATOM     90  C   UNL A   1      44.221  34.682  27.922  1.00  0.00     0.173 A 
ATOM     91  F   UNL A   1      45.706  33.409  30.989  1.00  0.00    -0.203 F 
ATOM     92  C   UNL A   1      45.788  35.560  30.036  1.00  0.00     0.198 A 
ATOM     93  C   UNL A   1      44.673  35.998  27.956  1.00  0.00     0.198 A 
ATOM     94  F   UNL A   1      43.463  34.290  26.887  1.00  0.00    -0.203 F 
ATOM     95  F   UNL A   1      46.513  35.992  31.077  1.00  0.00    -0.200 F 
ATOM     96  C   UNL A   1      45.448  36.438  29.018  1.00  0.00     0.200 A 
ATOM     97  F   UNL A   1      44.358  36.840  26.962  1.00  0.00    -0.200 F 
ATOM     98  F   UNL A   1      45.863  37.711  29.063  1.00  0.00    -0.200 F 
ENDBRANCH  65  88
ENDBRANCH  39  40
ENDBRANCH  32  34
ENDBRANCH  31  32
ENDBRANCH  30  31
ENDBRANCH  29  30
ENDBRANCH  28  29
ENDBRANCH   2  28
TORSDOF 17
ENDMDL
MODEL 3
REMARK VINA RESULT:     -11.9      4.381      7.196
REMARK SMILES O=C(COc1ccccc1/C=N\N1CC[NH+](Cc2ccc(Cl)cc2)CC1)OCCOC(=O)c1ccc(-c2c3nc(c(-c4c(F)c(F)c(F)c(F)c4F)c4ccc([nH]4)c(-c4c(F)c(F)c(F)c(F)c4F)c4nc(c(-c5c(F)c(F)c(F)c(F)c5F)c5ccc2[nH]5)C=C4)C=C3)cc1
REMARK SMILES IDX 1 1 2 2 3 3 4 4 5 5 6 6 10 7 7 8 9 9 8 10 11 11 12 12 13 13
REMARK SMILES IDX 14 14 26 15 15 16 25 17 16 18 17 20 18 21 19 22 24 23 20 24
REMARK SMILES IDX 23 25 21 26 22 27 27 28 28 29 29 30 30 31 31 32 32 33 33 34
REMARK SMILES IDX 34 35 95 36 35 37 94 38 36 39 37 40 38 41 88 42 39 43 93 44
REMARK SMILES IDX 87 45 89 46 40 47 92 48 86 49 85 50 41 52 73 53 53 54 72 55
REMARK SMILES IDX 54 56 57 57 71 58 90 59 55 60 56 61 70 63 91 64 58 65 42 66
REMARK SMILES IDX 43 67 51 68 44 69 45 70 49 71 52 72 46 73 47 74 50 75 48 76
REMARK SMILES IDX 74 77 75 78 83 79 76 80 77 81 81 82 84 83 78 84 79 85 82 86
REMARK SMILES IDX 80 87 59 88 60 89 68 90 61 91 62 92 66 93 69 94 63 95 64 96
REMARK SMILES IDX 67 97 65 98
REMARK H PARENT 16 19 89 51 57 62
REMARK Flexibility Score: inf
ROOT
ATOM      1  O   UNL A   1      38.022  24.068  26.372  1.00  0.00    -0.248 OA
ATOM      2  C   UNL A   1      37.527  23.023  25.952  1.00  0.00     0.344 C 
ENDROOT
BRANCH   2   3
ATOM      3  C   UNL A   1      36.046  22.966  25.581  1.00  0.00     0.352 C 
BRANCH   3   4
ATOM      4  O   UNL A   1      35.160  22.352  26.504  1.00  0.00    -0.481 OA
BRANCH   4   5
ATOM      5  C   UNL A   1      34.150  21.672  25.880  1.00  0.00     0.129 A 
ATOM      6  C   UNL A   1      34.494  20.738  24.901  1.00  0.00     0.047 A 
ATOM      7  C   UNL A   1      32.808  21.965  26.145  1.00  0.00     0.037 A 
ATOM      8  C   UNL A   1      33.489  20.077  24.194  1.00  0.00     0.004 A 
ATOM      9  C   UNL A   1      31.812  21.352  25.384  1.00  0.00     0.013 A 
ATOM     10  C   UNL A   1      32.150  20.391  24.429  1.00  0.00     0.001 A 
BRANCH   7  11
ATOM     11  C   UNL A   1      32.513  22.895  27.253  1.00  0.00     0.145 C 
ATOM     12  N   UNL A   1      32.058  24.114  27.252  1.00  0.00    -0.185 NA
BRANCH  12  13
ATOM     13  N   UNL A   1      31.930  24.762  26.081  1.00  0.00    -0.286 NA
ATOM     14  C   UNL A   1      33.174  25.371  25.594  1.00  0.00     0.200 C 
ATOM     15  C   UNL A   1      30.846  25.731  25.822  1.00  0.00     0.200 C 
ATOM     16  C   UNL A   1      33.107  25.471  24.067  1.00  0.00     0.286 C 
ATOM     17  C   UNL A   1      30.696  25.914  24.283  1.00  0.00     0.286 C 
ATOM     18  N   UNL A   1      31.931  26.153  23.512  1.00  0.00    -0.328 N 
ATOM     19  H   UNL A   1      31.750  25.689  22.622  1.00  0.00     0.348 HD
BRANCH  18  20
ATOM     20  C   UNL A   1      32.163  27.529  23.078  1.00  0.00     0.299 C 
BRANCH  20  21
ATOM     21  C   UNL A   1      30.995  28.474  23.222  1.00  0.00     0.006 A 
ATOM     22  C   UNL A   1      31.040  29.494  24.185  1.00  0.00     0.011 A 
ATOM     23  C   UNL A   1      29.883  28.385  22.376  1.00  0.00     0.011 A 
ATOM     24  C   UNL A   1      30.021  30.443  24.262  1.00  0.00     0.021 A 
ATOM     25  C   UNL A   1      28.865  29.338  22.448  1.00  0.00     0.021 A 
ATOM     26  C   UNL A   1      28.945  30.369  23.383  1.00  0.00     0.041 A 
ATOM     27  Cl  UNL A   1      27.712  31.565  23.447  1.00  0.00    -0.084 Cl
ENDBRANCH  20  21
ENDBRANCH  18  20
ENDBRANCH  12  13
ENDBRANCH   7  11
ENDBRANCH   4   5
ENDBRANCH   3   4
ENDBRANCH   2   3
BRANCH   2  28
ATOM     28  O   UNL A   1      38.279  21.899  25.860  1.00  0.00    -0.460 OA
BRANCH  28  29
ATOM     29  C   UNL A   1      38.010  20.763  25.006  1.00  0.00     0.274 C 
BRANCH  29  30
ATOM     30  C   UNL A   1      38.905  19.581  25.371  1.00  0.00     0.275 C 
BRANCH  30  31
ATOM     31  O   UNL A   1      39.764  19.967  26.455  1.00  0.00    -0.458 OA
BRANCH  31  32
ATOM     32  C   UNL A   1      41.091  19.794  26.226  1.00  0.00     0.338 C 
ATOM     33  O   UNL A   1      41.637  18.815  25.752  1.00  0.00    -0.246 OA
BRANCH  32  34
ATOM     34  C   UNL A   1      41.765  21.090  26.442  1.00  0.00     0.060 A 
ATOM     35  C   UNL A   1      42.171  21.409  27.744  1.00  0.00     0.016 A 
ATOM     36  C   UNL A   1      42.032  21.964  25.382  1.00  0.00     0.016 A 
ATOM     37  C   UNL A   1      42.795  22.627  28.001  1.00  0.00     0.010 A 
ATOM     38  C   UNL A   1      42.646  23.190  25.640  1.00  0.00     0.010 A 
ATOM     39  C   UNL A   1      42.983  23.544  26.958  1.00  0.00    -0.014 A 
BRANCH  39  40
ATOM     40  C   UNL A   1      43.241  24.964  27.291  1.00  0.00     0.031 A 
ATOM     41  C   UNL A   1      44.599  25.515  26.951  1.00  0.00     0.074 A 
ATOM     42  C   UNL A   1      42.306  25.748  27.850  1.00  0.00     0.049 A 
ATOM     43  N   UNL A   1      45.074  26.722  27.109  1.00  0.00    -0.248 NA
ATOM     44  C   UNL A   1      45.554  24.566  26.352  1.00  0.00     0.031 C 
ATOM     45  C   UNL A   1      40.949  25.337  28.201  1.00  0.00     0.029 A 
ATOM     46  N   UNL A   1      42.367  27.068  28.219  1.00  0.00    -0.354 N 
ATOM     47  C   UNL A   1      46.375  26.677  26.626  1.00  0.00     0.074 A 
ATOM     48  C   UNL A   1      46.632  25.316  26.209  1.00  0.00     0.031 C 
ATOM     49  C   UNL A   1      40.302  26.388  28.737  1.00  0.00     0.029 A 
ATOM     50  C   UNL A   1      41.205  27.538  28.779  1.00  0.00     0.049 A 
ATOM     51  H   UNL A   1      43.168  27.626  28.095  1.00  0.00     0.167 HD
ATOM     52  C   UNL A   1      47.274  27.682  26.521  1.00  0.00     0.037 A 
ATOM     53  C   UNL A   1      40.915  28.761  29.265  1.00  0.00     0.037 A 
ATOM     54  C   UNL A   1      47.024  29.032  26.944  1.00  0.00     0.049 A 
ATOM     55  C   UNL A   1      41.957  29.851  29.195  1.00  0.00     0.074 A 
ATOM     56  C   UNL A   1      47.863  30.129  26.876  1.00  0.00     0.029 A 
ATOM     57  N   UNL A   1      45.842  29.464  27.526  1.00  0.00    -0.354 N 
ATOM     58  N   UNL A   1      43.167  29.816  28.690  1.00  0.00    -0.248 NA
ATOM     59  C   UNL A   1      41.582  31.158  29.754  1.00  0.00     0.031 C 
ATOM     60  C   UNL A   1      47.206  31.215  27.463  1.00  0.00     0.029 A 
ATOM     61  C   UNL A   1      45.937  30.808  27.843  1.00  0.00     0.049 A 
ATOM     62  H   UNL A   1      45.052  28.899  27.689  1.00  0.00     0.167 HD
ATOM     63  C   UNL A   1      43.677  31.102  28.824  1.00  0.00     0.074 A 
ATOM     64  C   UNL A   1      42.645  31.894  29.459  1.00  0.00     0.031 C 
ATOM     65  C   UNL A   1      44.887  31.586  28.449  1.00  0.00     0.037 A 
BRANCH  52  66
ATOM     66  C   UNL A   1      48.620  27.338  25.956  1.00  0.00     0.064 A 
ATOM     67  C   UNL A   1      48.868  27.363  24.575  1.00  0.00     0.173 A 
ATOM     68  C   UNL A   1      49.671  26.967  26.807  1.00  0.00     0.173 A 
ATOM     69  F   UNL A   1      47.889  27.688  23.719  1.00  0.00    -0.203 F 
ATOM     70  C   UNL A   1      50.111  26.997  24.065  1.00  0.00     0.198 A 
ATOM     71  C   UNL A   1      50.921  26.629  26.295  1.00  0.00     0.198 A 
ATOM     72  F   UNL A   1      49.483  26.923  28.134  1.00  0.00    -0.203 F 
ATOM     73  F   UNL A   1      50.308  26.970  22.739  1.00  0.00    -0.200 F 
ATOM     74  C   UNL A   1      51.137  26.636  24.925  1.00  0.00     0.200 A 
ATOM     75  F   UNL A   1      51.914  26.288  27.128  1.00  0.00    -0.200 F 
ATOM     76  F   UNL A   1      52.332  26.281  24.433  1.00  0.00    -0.200 F 
ENDBRANCH  52  66
BRANCH  53  77
ATOM     77  C   UNL A   1      39.573  29.041  29.840  1.00  0.00     0.064 A 
ATOM     78  C   UNL A   1      38.526  29.506  29.032  1.00  0.00     0.173 A 
ATOM     79  C   UNL A   1      39.320  28.886  31.211  1.00  0.00     0.173 A 
ATOM     80  F   UNL A   1      38.726  29.695  27.720  1.00  0.00    -0.203 F 
ATOM     81  C   UNL A   1      37.285  29.832  29.576  1.00  0.00     0.198 A 
ATOM     82  C   UNL A   1      38.070  29.187  31.750  1.00  0.00     0.198 A 
ATOM     83  F   UNL A   1      40.287  28.445  32.027  1.00  0.00    -0.203 F 
ATOM     84  F   UNL A   1      36.319  30.326  28.790  1.00  0.00    -0.200 F 
ATOM     85  C   UNL A   1      37.058  29.670  30.934  1.00  0.00     0.200 A 
ATOM     86  F   UNL A   1      37.851  29.020  33.061  1.00  0.00    -0.200 F 
ATOM     87  F   UNL A   1      35.865  29.985  31.458  1.00  0.00    -0.200 F 
ENDBRANCH  53  77
BRANCH  65  88
ATOM     88  C   UNL A   1      45.140  33.052  28.651  1.00  0.00     0.064 A 
ATOM     89  C   UNL A   1      44.766  34.010  27.698  1.00  0.00     0.173 A 
ATOM     90  C   UNL A   1      45.729  33.507  29.842  1.00  0.00     0.173 A 
ATOM     91  F   UNL A   1      44.210  33.627  26.539  1.00  0.00    -0.203 F 
ATOM     92  C   UNL A   1      44.998  35.366  27.917  1.00  0.00     0.198 A 
ATOM     93  C   UNL A   1      45.931  34.864  30.071  1.00  0.00     0.198 A 
ATOM     94  F   UNL A   1      46.096  32.633  30.792  1.00  0.00    -0.203 F 
ATOM     95  F   UNL A   1      44.679  36.259  26.970  1.00  0.00    -0.200 F 
ATOM     96  C   UNL A   1      45.574  35.792  29.105  1.00  0.00     0.200 A 
ATOM     97  F   UNL A   1      46.471  35.275  31.227  1.00  0.00    -0.200 F 
ATOM     98  F   UNL A   1      45.791  37.097  29.315  1.00  0.00    -0.200 F 
ENDBRANCH  65  88
ENDBRANCH  39  40
ENDBRANCH  32  34
ENDBRANCH  31  32
ENDBRANCH  30  31
ENDBRANCH  29  30
ENDBRANCH  28  29
ENDBRANCH   2  28
TORSDOF 17
ENDMDL
