MODEL 1
REMARK VINA RESULT:     -12.4      0.000      0.000
REMARK SMILES Nc1ncccc1C[N@@H+]1CC2(CC[NH2+]CC2)C[C@H]1C(=O)OCCOC(=O)c1ccc(-c2c3nc(c(-c4c(F)c(F)c(F)c(F)c4F)c4ccc([nH]4)c(-c4c(F)c(F)c(F)c(F)c4F)c4nc(c(-c5c(F)c(F)c(F)c(F)c5F)c5ccc2[nH]5)C=C4)C=C3)cc1
REMARK SMILES IDX 22 1 21 2 19 3 20 4 18 5 9 6 10 7 11 9 17 10 12 11 16 12
REMARK SMILES IDX 13 13 15 14 14 15 8 18 7 19 2 20 3 21 4 22 6 23 5 24 1 25
REMARK SMILES IDX 23 28 24 29 25 30 26 31 27 32 28 33 89 34 29 35 88 36 30 37
REMARK SMILES IDX 31 38 32 39 82 40 33 41 87 42 81 43 83 44 34 45 86 46 80 47
REMARK SMILES IDX 79 48 35 50 67 51 47 52 66 53 48 54 51 55 65 56 84 57 49 58
REMARK SMILES IDX 50 59 64 61 85 62 52 63 36 64 37 65 45 66 38 67 39 68 43 69
REMARK SMILES IDX 46 70 40 71 41 72 44 73 42 74 68 75 69 76 77 77 70 78 71 79
REMARK SMILES IDX 75 80 78 81 72 82 73 83 76 84 74 85 53 86 54 87 62 88 55 89
REMARK SMILES IDX 56 90 60 91 63 92 57 93 58 94 61 95 59 96
REMARK H PARENT 9 8 14 16 14 17 1 26 1 27 83 49 51 60
REMARK Flexibility Score: inf
ROOT
ATOM      1  C   UNL A   1      31.213  31.079  25.974  1.00  0.00     0.274 C 
ENDROOT
BRANCH   1   2
ATOM      2  O   UNL A   1      32.310  30.151  26.068  1.00  0.00    -0.458 OA
BRANCH   2   3
ATOM      3  C   UNL A   1      32.487  29.306  25.017  1.00  0.00     0.365 C 
ATOM      4  O   UNL A   1      33.417  29.388  24.218  1.00  0.00    -0.245 OA
BRANCH   3   5
ATOM      5  C   UNL A   1      31.378  28.251  24.865  1.00  0.00     0.296 C 
ATOM      6  N   UNL A   1      31.437  27.501  23.596  1.00  0.00    -0.319 N 
ATOM      7  C   UNL A   1      32.174  26.256  23.833  1.00  0.00     0.270 C 
ATOM      8  H   UNL A   1      31.956  28.056  22.915  1.00  0.00     0.349 HD
ATOM      9  C   UNL A   1      32.290  26.042  25.362  1.00  0.00     0.036 C 
ATOM     10  C   UNL A   1      31.472  27.199  25.962  1.00  0.00     0.091 C 
ATOM     11  C   UNL A   1      33.759  26.101  25.849  1.00  0.00     0.074 C 
ATOM     12  C   UNL A   1      31.722  24.678  25.810  1.00  0.00     0.074 C 
ATOM     13  C   UNL A   1      34.571  24.873  25.426  1.00  0.00     0.261 C 
ATOM     14  C   UNL A   1      32.585  23.507  25.341  1.00  0.00     0.261 C 
ATOM     15  N   UNL A   1      33.947  23.622  25.856  1.00  0.00    -0.346 N 
ATOM     16  H   UNL A   1      33.920  23.597  26.876  1.00  0.00     0.346 HD
ATOM     17  H   UNL A   1      34.497  22.844  25.492  1.00  0.00     0.346 HD
BRANCH   6  18
ATOM     18  C   UNL A   1      30.157  27.364  22.873  1.00  0.00     0.303 C 
BRANCH  18  19
ATOM     19  C   UNL A   1      29.320  28.614  22.701  1.00  0.00     0.048 A 
ATOM     20  C   UNL A   1      29.830  29.805  22.177  1.00  0.00     0.132 A 
ATOM     21  N   UNL A   1      29.169  30.977  22.231  1.00  0.00    -0.239 NA
ATOM     22  C   UNL A   1      27.927  30.975  22.749  1.00  0.00     0.113 A 
ATOM     23  C   UNL A   1      27.989  28.635  23.132  1.00  0.00     0.015 A 
ATOM     24  C   UNL A   1      27.285  29.832  23.177  1.00  0.00     0.021 A 
BRANCH  20  25
ATOM     25  N   UNL A   1      31.066  29.887  21.564  1.00  0.00    -0.383 N 
ATOM     26  H   UNL A   1      31.491  30.765  21.428  1.00  0.00     0.158 HD
ATOM     27  H   UNL A   1      31.523  29.068  21.265  1.00  0.00     0.158 HD
ENDBRANCH  20  25
ENDBRANCH  18  19
ENDBRANCH   6  18
ENDBRANCH   3   5
ENDBRANCH   2   3
ENDBRANCH   1   2
BRANCH   1  28
ATOM     28  C   UNL A   1      31.465  32.317  26.831  1.00  0.00     0.275 C 
BRANCH  28  29
ATOM     29  O   UNL A   1      32.818  32.778  26.679  1.00  0.00    -0.458 OA
BRANCH  29  30
ATOM     30  C   UNL A   1      33.303  33.482  27.727  1.00  0.00     0.338 C 
ATOM     31  O   UNL A   1      32.811  34.454  28.273  1.00  0.00    -0.246 OA
BRANCH  30  32
ATOM     32  C   UNL A   1      34.528  32.835  28.211  1.00  0.00     0.060 A 
ATOM     33  C   UNL A   1      34.460  31.491  28.577  1.00  0.00     0.016 A 
ATOM     34  C   UNL A   1      35.704  33.564  28.388  1.00  0.00     0.016 A 
ATOM     35  C   UNL A   1      35.566  30.871  29.149  1.00  0.00     0.010 A 
ATOM     36  C   UNL A   1      36.817  32.937  28.960  1.00  0.00     0.010 A 
ATOM     37  C   UNL A   1      36.746  31.593  29.364  1.00  0.00    -0.014 A 
BRANCH  37  38
ATOM     38  C   UNL A   1      37.873  30.951  30.081  1.00  0.00     0.031 A 
ATOM     39  C   UNL A   1      38.109  31.276  31.529  1.00  0.00     0.074 A 
ATOM     40  C   UNL A   1      38.647  30.048  29.454  1.00  0.00     0.049 A 
ATOM     41  N   UNL A   1      39.083  30.896  32.315  1.00  0.00    -0.248 NA
ATOM     42  C   UNL A   1      37.108  32.135  32.181  1.00  0.00     0.031 C 
ATOM     43  C   UNL A   1      38.470  29.597  28.074  1.00  0.00     0.029 A 
ATOM     44  N   UNL A   1      39.740  29.348  29.898  1.00  0.00    -0.354 N 
ATOM     45  C   UNL A   1      38.822  31.476  33.549  1.00  0.00     0.074 A 
ATOM     46  C   UNL A   1      37.606  32.250  33.404  1.00  0.00     0.031 C 
ATOM     47  C   UNL A   1      39.424  28.697  27.782  1.00  0.00     0.029 A 
ATOM     48  C   UNL A   1      40.306  28.546  28.937  1.00  0.00     0.049 A 
ATOM     49  H   UNL A   1      40.086  29.413  30.818  1.00  0.00     0.167 HD
ATOM     50  C   UNL A   1      39.529  31.367  34.698  1.00  0.00     0.037 A 
ATOM     51  C   UNL A   1      41.427  27.803  28.977  1.00  0.00     0.037 A 
ATOM     52  C   UNL A   1      40.736  30.596  34.838  1.00  0.00     0.049 A 
ATOM     53  C   UNL A   1      42.243  27.773  30.242  1.00  0.00     0.074 A 
ATOM     54  C   UNL A   1      41.550  30.456  35.949  1.00  0.00     0.029 A 
ATOM     55  N   UNL A   1      41.299  29.827  33.831  1.00  0.00    -0.354 N 
ATOM     56  N   UNL A   1      42.011  28.355  31.393  1.00  0.00    -0.248 NA
ATOM     57  C   UNL A   1      43.483  26.983  30.211  1.00  0.00     0.031 C 
ATOM     58  C   UNL A   1      42.620  29.624  35.606  1.00  0.00     0.029 A 
ATOM     59  C   UNL A   1      42.453  29.214  34.293  1.00  0.00     0.049 A 
ATOM     60  H   UNL A   1      40.934  29.730  32.923  1.00  0.00     0.167 HD
ATOM     61  C   UNL A   1      43.055  27.984  32.228  1.00  0.00     0.074 A 
ATOM     62  C   UNL A   1      43.917  27.113  31.456  1.00  0.00     0.031 C 
ATOM     63  C   UNL A   1      43.284  28.334  33.516  1.00  0.00     0.037 A 
BRANCH  50  64
ATOM     64  C   UNL A   1      39.026  32.114  35.896  1.00  0.00     0.064 A 
ATOM     65  C   UNL A   1      38.194  31.502  36.844  1.00  0.00     0.173 A 
ATOM     66  C   UNL A   1      39.421  33.441  36.126  1.00  0.00     0.173 A 
ATOM     67  F   UNL A   1      37.777  30.240  36.661  1.00  0.00    -0.203 F 
ATOM     68  C   UNL A   1      37.766  32.194  37.974  1.00  0.00     0.198 A 
ATOM     69  C   UNL A   1      39.010  34.123  37.268  1.00  0.00     0.198 A 
ATOM     70  F   UNL A   1      40.218  34.070  35.250  1.00  0.00    -0.203 F 
ATOM     71  F   UNL A   1      36.947  31.600  38.853  1.00  0.00    -0.200 F 
ATOM     72  C   UNL A   1      38.179  33.500  38.189  1.00  0.00     0.200 A 
ATOM     73  F   UNL A   1      39.417  35.382  37.479  1.00  0.00    -0.200 F 
ATOM     74  F   UNL A   1      37.775  34.162  39.282  1.00  0.00    -0.200 F 
ENDBRANCH  50  64
BRANCH  51  75
ATOM     75  C   UNL A   1      41.871  27.050  27.774  1.00  0.00     0.064 A 
ATOM     76  C   UNL A   1      41.440  25.737  27.543  1.00  0.00     0.173 A 
ATOM     77  C   UNL A   1      42.767  27.614  26.855  1.00  0.00     0.173 A 
ATOM     78  F   UNL A   1      40.606  25.144  28.410  1.00  0.00    -0.203 F 
ATOM     79  C   UNL A   1      41.907  25.008  26.452  1.00  0.00     0.198 A 
ATOM     80  C   UNL A   1      43.211  26.895  25.747  1.00  0.00     0.198 A 
ATOM     81  F   UNL A   1      43.216  28.865  27.034  1.00  0.00    -0.203 F 
ATOM     82  F   UNL A   1      41.524  23.735  26.287  1.00  0.00    -0.200 F 
ATOM     83  C   UNL A   1      42.789  25.589  25.553  1.00  0.00     0.200 A 
ATOM     84  F   UNL A   1      44.059  27.462  24.878  1.00  0.00    -0.200 F 
ATOM     85  F   UNL A   1      43.244  24.884  24.508  1.00  0.00    -0.200 F 
ENDBRANCH  51  75
BRANCH  63  86
ATOM     86  C   UNL A   1      44.486  27.738  34.185  1.00  0.00     0.064 A 
ATOM     87  C   UNL A   1      44.428  26.496  34.832  1.00  0.00     0.173 A 
ATOM     88  C   UNL A   1      45.720  28.405  34.147  1.00  0.00     0.173 A 
ATOM     89  F   UNL A   1      43.266  25.829  34.908  1.00  0.00    -0.203 F 
ATOM     90  C   UNL A   1      45.557  25.953  35.439  1.00  0.00     0.198 A 
ATOM     91  C   UNL A   1      46.852  27.847  34.733  1.00  0.00     0.198 A 
ATOM     92  F   UNL A   1      45.828  29.594  33.535  1.00  0.00    -0.203 F 
ATOM     93  F   UNL A   1      45.468  24.785  36.090  1.00  0.00    -0.200 F 
ATOM     94  C   UNL A   1      46.769  26.625  35.384  1.00  0.00     0.200 A 
ATOM     95  F   UNL A   1      48.026  28.493  34.670  1.00  0.00    -0.200 F 
ATOM     96  F   UNL A   1      47.856  26.099  35.965  1.00  0.00    -0.200 F 
ENDBRANCH  63  86
ENDBRANCH  37  38
ENDBRANCH  30  32
ENDBRANCH  29  30
ENDBRANCH  28  29
ENDBRANCH   1  28
TORSDOF 14
ENDMDL
MODEL 2
REMARK VINA RESULT:     -12.4      4.967     10.574
REMARK SMILES Nc1ncccc1C[N@@H+]1CC2(CC[NH2+]CC2)C[C@H]1C(=O)OCCOC(=O)c1ccc(-c2c3nc(c(-c4c(F)c(F)c(F)c(F)c4F)c4ccc([nH]4)c(-c4c(F)c(F)c(F)c(F)c4F)c4nc(c(-c5c(F)c(F)c(F)c(F)c5F)c5ccc2[nH]5)C=C4)C=C3)cc1
REMARK SMILES IDX 22 1 21 2 19 3 20 4 18 5 9 6 10 7 11 9 17 10 12 11 16 12
REMARK SMILES IDX 13 13 15 14 14 15 8 18 7 19 2 20 3 21 4 22 6 23 5 24 1 25
REMARK SMILES IDX 23 28 24 29 25 30 26 31 27 32 28 33 89 34 29 35 88 36 30 37
REMARK SMILES IDX 31 38 32 39 82 40 33 41 87 42 81 43 83 44 34 45 86 46 80 47
REMARK SMILES IDX 79 48 35 50 67 51 47 52 66 53 48 54 51 55 65 56 84 57 49 58
REMARK SMILES IDX 50 59 64 61 85 62 52 63 36 64 37 65 45 66 38 67 39 68 43 69
REMARK SMILES IDX 46 70 40 71 41 72 44 73 42 74 68 75 69 76 77 77 70 78 71 79
REMARK SMILES IDX 75 80 78 81 72 82 73 83 76 84 74 85 53 86 54 87 62 88 55 89
REMARK SMILES IDX 56 90 60 91 63 92 57 93 58 94 61 95 59 96
REMARK H PARENT 9 8 14 16 14 17 1 26 1 27 83 49 51 60
REMARK Flexibility Score: inf
ROOT
ATOM      1  C   UNL A   1      37.287  19.712  24.781  1.00  0.00     0.274 C 
ENDROOT
BRANCH   1   2
ATOM      2  O   UNL A   1      36.902  21.099  24.831  1.00  0.00    -0.458 OA
BRANCH   2   3
ATOM      3  C   UNL A   1      35.717  21.382  25.436  1.00  0.00     0.365 C 
ATOM      4  O   UNL A   1      35.579  21.521  26.649  1.00  0.00    -0.245 OA
BRANCH   3   5
ATOM      5  C   UNL A   1      34.522  21.458  24.470  1.00  0.00     0.296 C 
ATOM      6  N   UNL A   1      33.220  21.624  25.143  1.00  0.00    -0.319 N 
ATOM      7  C   UNL A   1      32.898  23.054  25.178  1.00  0.00     0.270 C 
ATOM      8  H   UNL A   1      33.307  21.291  26.104  1.00  0.00     0.349 HD
ATOM      9  C   UNL A   1      33.848  23.789  24.201  1.00  0.00     0.036 C 
ATOM     10  C   UNL A   1      34.650  22.655  23.537  1.00  0.00     0.091 C 
ATOM     11  C   UNL A   1      34.794  24.770  24.937  1.00  0.00     0.074 C 
ATOM     12  C   UNL A   1      33.082  24.612  23.143  1.00  0.00     0.074 C 
ATOM     13  C   UNL A   1      34.066  26.011  25.461  1.00  0.00     0.261 C 
ATOM     14  C   UNL A   1      32.379  25.826  23.749  1.00  0.00     0.261 C 
ATOM     15  N   UNL A   1      33.336  26.712  24.405  1.00  0.00    -0.346 N 
ATOM     16  H   UNL A   1      34.001  27.054  23.711  1.00  0.00     0.346 HD
ATOM     17  H   UNL A   1      32.823  27.488  24.825  1.00  0.00     0.346 HD
BRANCH   6  18
ATOM     18  C   UNL A   1      32.139  20.732  24.675  1.00  0.00     0.303 C 
BRANCH  18  19
ATOM     19  C   UNL A   1      32.512  19.301  24.352  1.00  0.00     0.048 A 
ATOM     20  C   UNL A   1      32.961  18.394  25.316  1.00  0.00     0.132 A 
ATOM     21  N   UNL A   1      33.508  17.203  25.011  1.00  0.00    -0.239 NA
ATOM     22  C   UNL A   1      33.552  16.845  23.713  1.00  0.00     0.113 A 
ATOM     23  C   UNL A   1      32.478  18.846  23.029  1.00  0.00     0.015 A 
ATOM     24  C   UNL A   1      33.022  17.611  22.697  1.00  0.00     0.021 A 
BRANCH  20  25
ATOM     25  N   UNL A   1      32.891  18.646  26.673  1.00  0.00    -0.383 N 
ATOM     26  H   UNL A   1      33.717  18.735  27.201  1.00  0.00     0.158 HD
ATOM     27  H   UNL A   1      32.014  18.739  27.112  1.00  0.00     0.158 HD
ENDBRANCH  20  25
ENDBRANCH  18  19
ENDBRANCH   6  18
ENDBRANCH   3   5
ENDBRANCH   2   3
ENDBRANCH   1   2
BRANCH   1  28
ATOM     28  C   UNL A   1      38.678  19.505  25.376  1.00  0.00     0.275 C 
BRANCH  28  29
ATOM     29  O   UNL A   1      39.256  20.761  25.771  1.00  0.00    -0.458 OA
BRANCH  29  30
ATOM     30  C   UNL A   1      40.138  20.686  26.795  1.00  0.00     0.338 C 
ATOM     31  O   UNL A   1      40.633  19.690  27.291  1.00  0.00    -0.246 OA
BRANCH  30  32
ATOM     32  C   UNL A   1      40.514  22.045  27.200  1.00  0.00     0.060 A 
ATOM     33  C   UNL A   1      39.913  23.117  26.540  1.00  0.00     0.016 A 
ATOM     34  C   UNL A   1      41.511  22.262  28.152  1.00  0.00     0.016 A 
ATOM     35  C   UNL A   1      40.324  24.418  26.812  1.00  0.00     0.010 A 
ATOM     36  C   UNL A   1      41.921  23.572  28.426  1.00  0.00     0.010 A 
ATOM     37  C   UNL A   1      41.344  24.655  27.741  1.00  0.00    -0.014 A 
BRANCH  37  38
ATOM     38  C   UNL A   1      41.852  26.035  27.930  1.00  0.00     0.031 A 
ATOM     39  C   UNL A   1      43.203  26.407  27.390  1.00  0.00     0.074 A 
ATOM     40  C   UNL A   1      41.087  26.959  28.537  1.00  0.00     0.049 A 
ATOM     41  N   UNL A   1      43.870  27.525  27.521  1.00  0.00    -0.248 NA
ATOM     42  C   UNL A   1      43.894  25.385  26.586  1.00  0.00     0.031 C 
ATOM     43  C   UNL A   1      39.730  26.737  29.036  1.00  0.00     0.029 A 
ATOM     44  N   UNL A   1      41.344  28.273  28.837  1.00  0.00    -0.354 N 
ATOM     45  C   UNL A   1      45.059  27.340  26.828  1.00  0.00     0.074 A 
ATOM     46  C   UNL A   1      45.033  25.995  26.293  1.00  0.00     0.031 C 
ATOM     47  C   UNL A   1      39.274  27.876  29.585  1.00  0.00     0.029 A 
ATOM     48  C   UNL A   1      40.323  28.890  29.518  1.00  0.00     0.049 A 
ATOM     49  H   UNL A   1      42.179  28.730  28.588  1.00  0.00     0.167 HD
ATOM     50  C   UNL A   1      46.075  28.217  26.652  1.00  0.00     0.037 A 
ATOM     51  C   UNL A   1      40.259  30.122  30.056  1.00  0.00     0.037 A 
ATOM     52  C   UNL A   1      46.096  29.553  27.185  1.00  0.00     0.049 A 
ATOM     53  C   UNL A   1      41.442  31.044  29.920  1.00  0.00     0.074 A 
ATOM     54  C   UNL A   1      47.098  30.504  27.097  1.00  0.00     0.029 A 
ATOM     55  N   UNL A   1      45.059  30.131  27.902  1.00  0.00    -0.354 N 
ATOM     56  N   UNL A   1      42.579  30.849  29.298  1.00  0.00    -0.248 NA
ATOM     57  C   UNL A   1      41.334  32.359  30.569  1.00  0.00     0.031 C 
ATOM     58  C   UNL A   1      46.678  31.648  27.785  1.00  0.00     0.029 A 
ATOM     59  C   UNL A   1      45.399  31.423  28.268  1.00  0.00     0.049 A 
ATOM     60  H   UNL A   1      44.207  29.688  28.119  1.00  0.00     0.167 HD
ATOM     61  C   UNL A   1      43.307  32.020  29.455  1.00  0.00     0.074 A 
ATOM     62  C   UNL A   1      42.479  32.928  30.222  1.00  0.00     0.031 C 
ATOM     63  C   UNL A   1      44.551  32.317  29.010  1.00  0.00     0.037 A 
BRANCH  50  64
ATOM     64  C   UNL A   1      47.261  27.754  25.861  1.00  0.00     0.064 A 
ATOM     65  C   UNL A   1      47.260  27.776  24.460  1.00  0.00     0.173 A 
ATOM     66  C   UNL A   1      48.430  27.331  26.513  1.00  0.00     0.173 A 
ATOM     67  F   UNL A   1      46.161  28.158  23.791  1.00  0.00    -0.203 F 
ATOM     68  C   UNL A   1      48.384  27.381  23.737  1.00  0.00     0.198 A 
ATOM     69  C   UNL A   1      49.559  26.958  25.788  1.00  0.00     0.198 A 
ATOM     70  F   UNL A   1      48.482  27.294  27.852  1.00  0.00    -0.203 F 
ATOM     71  F   UNL A   1      48.352  27.381  22.397  1.00  0.00    -0.200 F 
ATOM     72  C   UNL A   1      49.533  26.980  24.401  1.00  0.00     0.200 A 
ATOM     73  F   UNL A   1      50.672  26.580  26.430  1.00  0.00    -0.200 F 
ATOM     74  F   UNL A   1      50.617  26.610  23.704  1.00  0.00    -0.200 F 
ENDBRANCH  50  64
BRANCH  51  75
ATOM     75  C   UNL A   1      39.048  30.552  30.802  1.00  0.00     0.064 A 
ATOM     76  C   UNL A   1      38.000  31.222  30.157  1.00  0.00     0.173 A 
ATOM     77  C   UNL A   1      38.934  30.339  32.184  1.00  0.00     0.173 A 
ATOM     78  F   UNL A   1      38.077  31.475  28.842  1.00  0.00    -0.203 F 
ATOM     79  C   UNL A   1      36.895  31.684  30.869  1.00  0.00     0.198 A 
ATOM     80  C   UNL A   1      37.815  30.775  32.890  1.00  0.00     0.198 A 
ATOM     81  F   UNL A   1      39.912  29.709  32.850  1.00  0.00    -0.203 F 
ATOM     82  F   UNL A   1      35.934  32.372  30.237  1.00  0.00    -0.200 F 
ATOM     83  C   UNL A   1      36.802  31.457  32.234  1.00  0.00     0.200 A 
ATOM     84  F   UNL A   1      37.726  30.548  34.207  1.00  0.00    -0.200 F 
ATOM     85  F   UNL A   1      35.742  31.907  32.919  1.00  0.00    -0.200 F 
ENDBRANCH  51  75
BRANCH  63  86
ATOM     86  C   UNL A   1      45.072  33.693  29.299  1.00  0.00     0.064 A 
ATOM     87  C   UNL A   1      45.834  33.966  30.444  1.00  0.00     0.173 A 
ATOM     88  C   UNL A   1      44.834  34.743  28.400  1.00  0.00     0.173 A 
ATOM     89  F   UNL A   1      46.074  32.996  31.340  1.00  0.00    -0.203 F 
ATOM     90  C   UNL A   1      46.318  35.247  30.692  1.00  0.00     0.198 A 
ATOM     91  C   UNL A   1      45.341  36.017  28.638  1.00  0.00     0.198 A 
ATOM     92  F   UNL A   1      44.115  34.531  27.287  1.00  0.00    -0.203 F 
ATOM     93  F   UNL A   1      47.007  35.495  31.814  1.00  0.00    -0.200 F 
ATOM     94  C   UNL A   1      46.077  36.270  29.786  1.00  0.00     0.200 A 
ATOM     95  F   UNL A   1      45.116  37.003  27.757  1.00  0.00    -0.200 F 
ATOM     96  F   UNL A   1      46.547  37.502  30.024  1.00  0.00    -0.200 F 
ENDBRANCH  63  86
ENDBRANCH  37  38
ENDBRANCH  30  32
ENDBRANCH  29  30
ENDBRANCH  28  29
ENDBRANCH   1  28
TORSDOF 14
ENDMDL
MODEL 3
REMARK VINA RESULT:     -12.4      4.886      8.340
REMARK SMILES Nc1ncccc1C[N@@H+]1CC2(CC[NH2+]CC2)C[C@H]1C(=O)OCCOC(=O)c1ccc(-c2c3nc(c(-c4c(F)c(F)c(F)c(F)c4F)c4ccc([nH]4)c(-c4c(F)c(F)c(F)c(F)c4F)c4nc(c(-c5c(F)c(F)c(F)c(F)c5F)c5ccc2[nH]5)C=C4)C=C3)cc1
REMARK SMILES IDX 22 1 21 2 19 3 20 4 18 5 9 6 10 7 11 9 17 10 12 11 16 12
REMARK SMILES IDX 13 13 15 14 14 15 8 18 7 19 2 20 3 21 4 22 6 23 5 24 1 25
REMARK SMILES IDX 23 28 24 29 25 30 26 31 27 32 28 33 89 34 29 35 88 36 30 37
REMARK SMILES IDX 31 38 32 39 82 40 33 41 87 42 81 43 83 44 34 45 86 46 80 47
REMARK SMILES IDX 79 48 35 50 67 51 47 52 66 53 48 54 51 55 65 56 84 57 49 58
REMARK SMILES IDX 50 59 64 61 85 62 52 63 36 64 37 65 45 66 38 67 39 68 43 69
REMARK SMILES IDX 46 70 40 71 41 72 44 73 42 74 68 75 69 76 77 77 70 78 71 79
REMARK SMILES IDX 75 80 78 81 72 82 73 83 76 84 74 85 53 86 54 87 62 88 55 89
REMARK SMILES IDX 56 90 60 91 63 92 57 93 58 94 61 95 59 96
REMARK H PARENT 9 8 14 16 14 17 1 26 1 27 83 49 51 60
REMARK Flexibility Score: inf
ROOT
ATOM      1  C   UNL A   1      36.363  19.936  24.962  1.00  0.00     0.274 C 
ENDROOT
BRANCH   1   2
ATOM      2  O   UNL A   1      35.831  21.248  25.226  1.00  0.00    -0.458 OA
BRANCH   2   3
ATOM      3  C   UNL A   1      35.550  22.021  24.142  1.00  0.00     0.365 C 
ATOM      4  O   UNL A   1      36.391  22.666  23.521  1.00  0.00    -0.245 OA
BRANCH   3   5
ATOM      5  C   UNL A   1      34.056  22.077  23.782  1.00  0.00     0.296 C 
ATOM      6  N   UNL A   1      33.155  21.897  24.936  1.00  0.00    -0.319 N 
ATOM      7  C   UNL A   1      32.776  23.222  25.435  1.00  0.00     0.270 C 
ATOM      8  H   UNL A   1      33.666  21.410  25.673  1.00  0.00     0.349 HD
ATOM      9  C   UNL A   1      33.164  24.273  24.367  1.00  0.00     0.036 C 
ATOM     10  C   UNL A   1      33.688  23.431  23.189  1.00  0.00     0.091 C 
ATOM     11  C   UNL A   1      34.260  25.243  24.875  1.00  0.00     0.074 C 
ATOM     12  C   UNL A   1      31.964  25.140  23.931  1.00  0.00     0.074 C 
ATOM     13  C   UNL A   1      33.736  26.227  25.925  1.00  0.00     0.261 C 
ATOM     14  C   UNL A   1      31.499  26.087  25.036  1.00  0.00     0.261 C 
ATOM     15  N   UNL A   1      32.577  26.981  25.447  1.00  0.00    -0.346 N 
ATOM     16  H   UNL A   1      32.857  27.552  24.650  1.00  0.00     0.346 HD
ATOM     17  H   UNL A   1      32.237  27.570  26.209  1.00  0.00     0.346 HD
BRANCH   6  18
ATOM     18  C   UNL A   1      32.046  20.942  24.739  1.00  0.00     0.303 C 
BRANCH  18  19
ATOM     19  C   UNL A   1      32.413  19.517  24.380  1.00  0.00     0.048 A 
ATOM     20  C   UNL A   1      32.921  18.605  25.308  1.00  0.00     0.132 A 
ATOM     21  N   UNL A   1      33.461  17.421  24.960  1.00  0.00    -0.239 NA
ATOM     22  C   UNL A   1      33.436  17.078  23.658  1.00  0.00     0.113 A 
ATOM     23  C   UNL A   1      32.309  19.076  23.056  1.00  0.00     0.015 A 
ATOM     24  C   UNL A   1      32.844  17.850  22.681  1.00  0.00     0.021 A 
BRANCH  20  25
ATOM     25  N   UNL A   1      32.925  18.842  26.670  1.00  0.00    -0.383 N 
ATOM     26  H   UNL A   1      33.254  18.151  27.289  1.00  0.00     0.158 HD
ATOM     27  H   UNL A   1      32.599  19.703  27.020  1.00  0.00     0.158 HD
ENDBRANCH  20  25
ENDBRANCH  18  19
ENDBRANCH   6  18
ENDBRANCH   3   5
ENDBRANCH   2   3
ENDBRANCH   1   2
BRANCH   1  28
ATOM     28  C   UNL A   1      37.891  19.947  24.989  1.00  0.00     0.275 C 
BRANCH  28  29
ATOM     29  O   UNL A   1      38.380  21.049  25.770  1.00  0.00    -0.458 OA
BRANCH  29  30
ATOM     30  C   UNL A   1      39.591  20.852  26.340  1.00  0.00     0.338 C 
ATOM     31  O   UNL A   1      40.223  19.814  26.423  1.00  0.00    -0.246 OA
BRANCH  30  32
ATOM     32  C   UNL A   1      40.120  22.143  26.795  1.00  0.00     0.060 A 
ATOM     33  C   UNL A   1      39.671  23.299  26.156  1.00  0.00     0.016 A 
ATOM     34  C   UNL A   1      41.111  22.209  27.775  1.00  0.00     0.016 A 
ATOM     35  C   UNL A   1      40.230  24.531  26.478  1.00  0.00     0.010 A 
ATOM     36  C   UNL A   1      41.671  23.450  28.099  1.00  0.00     0.010 A 
ATOM     37  C   UNL A   1      41.248  24.615  27.435  1.00  0.00    -0.014 A 
BRANCH  37  38
ATOM     38  C   UNL A   1      41.915  25.916  27.679  1.00  0.00     0.031 A 
ATOM     39  C   UNL A   1      41.204  26.975  28.472  1.00  0.00     0.074 A 
ATOM     40  C   UNL A   1      43.166  26.128  27.234  1.00  0.00     0.049 A 
ATOM     41  N   UNL A   1      41.568  28.206  28.726  1.00  0.00    -0.248 NA
ATOM     42  C   UNL A   1      39.914  26.592  29.070  1.00  0.00     0.031 C 
ATOM     43  C   UNL A   1      43.984  25.150  26.517  1.00  0.00     0.029 A 
ATOM     44  N   UNL A   1      43.968  27.237  27.320  1.00  0.00    -0.354 N 
ATOM     45  C   UNL A   1      40.552  28.749  29.500  1.00  0.00     0.074 A 
ATOM     46  C   UNL A   1      39.546  27.720  29.662  1.00  0.00     0.031 C 
ATOM     47  C   UNL A   1      45.173  25.705  26.225  1.00  0.00     0.029 A 
ATOM     48  C   UNL A   1      45.180  27.089  26.691  1.00  0.00     0.049 A 
ATOM     49  H   UNL A   1      43.701  28.061  27.789  1.00  0.00     0.167 HD
ATOM     50  C   UNL A   1      40.472  29.991  30.032  1.00  0.00     0.037 A 
ATOM     51  C   UNL A   1      46.166  27.981  26.486  1.00  0.00     0.037 A 
ATOM     52  C   UNL A   1      41.474  31.011  29.870  1.00  0.00     0.049 A 
ATOM     53  C   UNL A   1      46.008  29.384  27.013  1.00  0.00     0.074 A 
ATOM     54  C   UNL A   1      41.466  32.314  30.334  1.00  0.00     0.029 A 
ATOM     55  N   UNL A   1      42.672  30.835  29.194  1.00  0.00    -0.354 N 
ATOM     56  N   UNL A   1      45.027  29.902  27.711  1.00  0.00    -0.248 NA
ATOM     57  C   UNL A   1      47.096  30.328  26.717  1.00  0.00     0.031 C 
ATOM     58  C   UNL A   1      42.647  32.936  29.915  1.00  0.00     0.029 A 
ATOM     59  C   UNL A   1      43.408  32.008  29.223  1.00  0.00     0.049 A 
ATOM     60  H   UNL A   1      42.957  30.000  28.757  1.00  0.00     0.167 HD
ATOM     61  C   UNL A   1      45.389  31.218  27.960  1.00  0.00     0.074 A 
ATOM     62  C   UNL A   1      46.687  31.418  27.350  1.00  0.00     0.031 C 
ATOM     63  C   UNL A   1      44.707  32.178  28.630  1.00  0.00     0.037 A 
BRANCH  50  64
ATOM     64  C   UNL A   1      39.247  30.327  30.828  1.00  0.00     0.064 A 
ATOM     65  C   UNL A   1      39.186  30.097  32.210  1.00  0.00     0.173 A 
ATOM     66  C   UNL A   1      38.140  30.932  30.212  1.00  0.00     0.173 A 
ATOM     67  F   UNL A   1      40.212  29.507  32.842  1.00  0.00    -0.203 F 
ATOM     68  C   UNL A   1      38.057  30.451  32.945  1.00  0.00     0.198 A 
ATOM     69  C   UNL A   1      37.023  31.304  30.953  1.00  0.00     0.198 A 
ATOM     70  F   UNL A   1      38.150  31.175  28.893  1.00  0.00    -0.203 F 
ATOM     71  F   UNL A   1      38.008  30.195  34.260  1.00  0.00    -0.200 F 
ATOM     72  C   UNL A   1      36.981  31.060  32.319  1.00  0.00     0.200 A 
ATOM     73  F   UNL A   1      35.987  31.902  30.349  1.00  0.00    -0.200 F 
ATOM     74  F   UNL A   1      35.899  31.409  33.030  1.00  0.00    -0.200 F 
ENDBRANCH  50  64
BRANCH  51  75
ATOM     75  C   UNL A   1      47.380  27.595  25.721  1.00  0.00     0.064 A 
ATOM     76  C   UNL A   1      48.540  27.158  26.374  1.00  0.00     0.173 A 
ATOM     77  C   UNL A   1      47.417  27.694  24.322  1.00  0.00     0.173 A 
ATOM     78  F   UNL A   1      48.561  27.074  27.713  1.00  0.00    -0.203 F 
ATOM     79  C   UNL A   1      49.698  26.859  25.661  1.00  0.00     0.198 A 
ATOM     80  C   UNL A   1      48.568  27.367  23.607  1.00  0.00     0.198 A 
ATOM     81  F   UNL A   1      46.337  28.115  23.648  1.00  0.00    -0.203 F 
ATOM     82  F   UNL A   1      50.811  26.499  26.316  1.00  0.00    -0.200 F 
ATOM     83  C   UNL A   1      49.710  26.960  24.278  1.00  0.00     0.200 A 
ATOM     84  F   UNL A   1      48.573  27.460  22.270  1.00  0.00    -0.200 F 
ATOM     85  F   UNL A   1      50.827  26.679  23.593  1.00  0.00    -0.200 F 
ENDBRANCH  51  75
BRANCH  63  86
ATOM     86  C   UNL A   1      45.373  33.513  28.778  1.00  0.00     0.064 A 
ATOM     87  C   UNL A   1      45.169  34.544  27.850  1.00  0.00     0.173 A 
ATOM     88  C   UNL A   1      46.197  33.775  29.883  1.00  0.00     0.173 A 
ATOM     89  F   UNL A   1      44.401  34.335  26.769  1.00  0.00    -0.203 F 
ATOM     90  C   UNL A   1      45.786  35.782  28.009  1.00  0.00     0.198 A 
ATOM     91  C   UNL A   1      46.792  35.021  30.053  1.00  0.00     0.198 A 
ATOM     92  F   UNL A   1      46.418  32.823  30.802  1.00  0.00    -0.203 F 
ATOM     93  F   UNL A   1      45.613  36.738  27.086  1.00  0.00    -0.200 F 
ATOM     94  C   UNL A   1      46.592  36.021  29.113  1.00  0.00     0.200 A 
ATOM     95  F   UNL A   1      47.563  35.255  31.125  1.00  0.00    -0.200 F 
ATOM     96  F   UNL A   1      47.183  37.214  29.267  1.00  0.00    -0.200 F 
ENDBRANCH  63  86
ENDBRANCH  37  38
ENDBRANCH  30  32
ENDBRANCH  29  30
ENDBRANCH  28  29
ENDBRANCH   1  28
TORSDOF 14
ENDMDL
