MODEL 1
REMARK VINA RESULT:     -13.3      0.000      0.000
REMARK SMILES Cc1ccc(C(=O)OCCOC(=O)c2ccc(-c3c4nc(c(-c5c(F)c(F)c(F)c(F)c5F)c5ccc([nH]5)c(-c5c(F)c(F)c(F)c(F)c5F)c5nc(c(-c6c(F)c(F)c(F)c(F)c6F)c6ccc3[nH]6)C=C5)C=C4)cc2)cc1S(=O)(=O)N(C)[C@H]1CCSC1
REMARK SMILES IDX 9 1 8 2 6 3 7 4 5 5 1 6 2 7 3 8 78 9 4 10 77 11 79 12 80 13
REMARK SMILES IDX 81 14 82 15 83 16 84 17 85 18 88 19 86 20 87 21 10 22 11 23
REMARK SMILES IDX 12 24 13 25 14 26 15 27 76 28 16 29 75 30 17 31 18 32 19 33
REMARK SMILES IDX 69 34 20 35 74 36 68 37 70 38 21 39 73 40 67 41 66 42 22 44
REMARK SMILES IDX 54 45 34 46 53 47 35 48 38 49 52 50 71 51 36 52 37 53 51 55
REMARK SMILES IDX 72 56 39 57 23 58 24 59 32 60 25 61 26 62 30 63 33 64 27 65
REMARK SMILES IDX 28 66 31 67 29 68 55 69 56 70 64 71 57 72 58 73 62 74 65 75
REMARK SMILES IDX 59 76 60 77 63 78 61 79 40 80 41 81 49 82 42 83 43 84 47 85
REMARK SMILES IDX 50 86 44 87 45 88 48 89 46 90
REMARK H PARENT 70 43 38 54
REMARK Flexibility Score: inf
ROOT
ATOM      1  C   UNL A   1      37.776  21.671  24.681  1.00  0.00     0.275 C 
ENDROOT
BRANCH   1   2
ATOM      2  O   UNL A   1      36.383  21.965  24.809  1.00  0.00    -0.458 OA
BRANCH   2   3
ATOM      3  C   UNL A   1      35.986  22.890  23.901  1.00  0.00     0.338 C 
ATOM      4  O   UNL A   1      36.408  23.001  22.757  1.00  0.00    -0.246 OA
BRANCH   3   5
ATOM      5  C   UNL A   1      35.003  23.843  24.436  1.00  0.00     0.061 A 
ATOM      6  C   UNL A   1      31.545  26.049  25.761  1.00  0.00     0.046 C 
ATOM      7  C   UNL A   1      32.773  25.413  25.185  1.00  0.00    -0.031 A 
ATOM      8  C   UNL A   1      33.596  24.774  26.144  1.00  0.00     0.006 A 
ATOM      9  C   UNL A   1      33.153  25.315  23.835  1.00  0.00     0.086 A 
ATOM     10  C   UNL A   1      34.731  24.043  25.781  1.00  0.00     0.016 A 
ATOM     11  C   UNL A   1      34.234  24.493  23.482  1.00  0.00     0.037 A 
BRANCH   9  12
ATOM     12  S   UNL A   1      32.518  26.147  22.389  1.00  0.00     0.243 S 
ATOM     13  O   UNL A   1      33.619  26.212  21.463  1.00  0.00    -0.207 OA
ATOM     14  O   UNL A   1      31.293  25.440  22.046  1.00  0.00    -0.207 OA
BRANCH  12  15
ATOM     15  N   UNL A   1      32.079  27.705  22.805  1.00  0.00    -0.197 NA
ATOM     16  C   UNL A   1      33.082  28.530  23.483  1.00  0.00     0.125 C 
BRANCH  15  17
ATOM     17  C   UNL A   1      30.721  28.161  22.452  1.00  0.00     0.083 C 
ATOM     18  C   UNL A   1      29.673  28.035  23.550  1.00  0.00     0.032 C 
ATOM     19  C   UNL A   1      30.689  29.631  22.024  1.00  0.00     0.089 C 
ATOM     20  C   UNL A   1      28.394  28.570  22.925  1.00  0.00     0.071 C 
ATOM     21  S   UNL A   1      28.922  30.077  22.063  1.00  0.00    -0.160 SA
ENDBRANCH  15  17
ENDBRANCH  12  15
ENDBRANCH   9  12
ENDBRANCH   3   5
ENDBRANCH   2   3
ENDBRANCH   1   2
BRANCH   1  22
ATOM     22  C   UNL A   1      38.581  21.937  25.957  1.00  0.00     0.275 C 
BRANCH  22  23
ATOM     23  O   UNL A   1      38.892  23.292  26.397  1.00  0.00    -0.458 OA
BRANCH  23  24
ATOM     24  C   UNL A   1      39.906  23.689  27.197  1.00  0.00     0.338 C 
ATOM     25  O   UNL A   1      40.771  22.925  27.601  1.00  0.00    -0.246 OA
BRANCH  24  26
ATOM     26  C   UNL A   1      39.893  25.096  27.622  1.00  0.00     0.060 A 
ATOM     27  C   UNL A   1      40.291  26.084  26.703  1.00  0.00     0.016 A 
ATOM     28  C   UNL A   1      39.393  25.434  28.875  1.00  0.00     0.016 A 
ATOM     29  C   UNL A   1      40.084  27.423  26.987  1.00  0.00     0.010 A 
ATOM     30  C   UNL A   1      39.068  26.740  29.115  1.00  0.00     0.010 A 
ATOM     31  C   UNL A   1      39.482  27.724  28.202  1.00  0.00    -0.014 A 
BRANCH  31  32
ATOM     32  C   UNL A   1      39.666  29.006  28.845  1.00  0.00     0.031 A 
ATOM     33  C   UNL A   1      38.627  30.037  28.794  1.00  0.00     0.074 A 
ATOM     34  C   UNL A   1      40.737  28.929  29.669  1.00  0.00     0.049 A 
ATOM     35  N   UNL A   1      38.829  31.274  29.073  1.00  0.00    -0.248 NA
ATOM     36  C   UNL A   1      37.257  29.774  28.357  1.00  0.00     0.031 C 
ATOM     37  C   UNL A   1      41.106  29.661  30.860  1.00  0.00     0.029 A 
ATOM     38  N   UNL A   1      41.826  28.052  29.469  1.00  0.00    -0.354 N 
ATOM     39  C   UNL A   1      37.584  31.839  29.275  1.00  0.00     0.074 A 
ATOM     40  C   UNL A   1      36.660  30.944  28.625  1.00  0.00     0.031 C 
ATOM     41  C   UNL A   1      42.420  29.459  31.092  1.00  0.00     0.029 A 
ATOM     42  C   UNL A   1      42.954  28.708  29.956  1.00  0.00     0.049 A 
ATOM     43  H   UNL A   1      41.795  27.154  29.064  1.00  0.00     0.167 HD
ATOM     44  C   UNL A   1      37.477  32.847  30.192  1.00  0.00     0.037 A 
ATOM     45  C   UNL A   1      43.845  29.182  29.034  1.00  0.00     0.037 A 
ATOM     46  C   UNL A   1      38.805  33.128  30.745  1.00  0.00     0.049 A 
ATOM     47  C   UNL A   1      43.831  30.688  29.048  1.00  0.00     0.074 A 
ATOM     48  C   UNL A   1      39.420  32.670  31.901  1.00  0.00     0.029 A 
ATOM     49  N   UNL A   1      39.819  33.594  29.914  1.00  0.00    -0.354 N 
ATOM     50  N   UNL A   1      42.758  31.412  29.237  1.00  0.00    -0.248 NA
ATOM     51  C   UNL A   1      45.051  31.477  28.965  1.00  0.00     0.031 C 
ATOM     52  C   UNL A   1      40.821  32.796  31.728  1.00  0.00     0.029 A 
ATOM     53  C   UNL A   1      41.056  33.313  30.465  1.00  0.00     0.049 A 
ATOM     54  H   UNL A   1      39.676  34.058  29.058  1.00  0.00     0.167 HD
ATOM     55  C   UNL A   1      43.137  32.715  29.416  1.00  0.00     0.074 A 
ATOM     56  C   UNL A   1      44.575  32.711  29.196  1.00  0.00     0.031 C 
ATOM     57  C   UNL A   1      42.280  33.709  29.792  1.00  0.00     0.037 A 
BRANCH  44  58
ATOM     58  C   UNL A   1      36.195  33.291  30.876  1.00  0.00     0.064 A 
ATOM     59  C   UNL A   1      35.309  34.182  30.221  1.00  0.00     0.173 A 
ATOM     60  C   UNL A   1      35.789  32.921  32.172  1.00  0.00     0.173 A 
ATOM     61  F   UNL A   1      35.492  34.545  28.945  1.00  0.00    -0.203 F 
ATOM     62  C   UNL A   1      34.189  34.737  30.845  1.00  0.00     0.198 A 
ATOM     63  C   UNL A   1      34.677  33.495  32.807  1.00  0.00     0.198 A 
ATOM     64  F   UNL A   1      36.417  31.955  32.851  1.00  0.00    -0.203 F 
ATOM     65  F   UNL A   1      33.410  35.595  30.170  1.00  0.00    -0.200 F 
ATOM     66  C   UNL A   1      33.886  34.414  32.148  1.00  0.00     0.200 A 
ATOM     67  F   UNL A   1      34.375  33.146  34.066  1.00  0.00    -0.200 F 
ATOM     68  F   UNL A   1      32.822  34.959  32.753  1.00  0.00    -0.200 F 
ENDBRANCH  44  58
BRANCH  45  69
ATOM     69  C   UNL A   1      43.979  28.320  27.810  1.00  0.00     0.064 A 
ATOM     70  C   UNL A   1      44.565  27.038  27.942  1.00  0.00     0.173 A 
ATOM     71  C   UNL A   1      43.319  28.584  26.603  1.00  0.00     0.173 A 
ATOM     72  F   UNL A   1      45.215  26.712  29.072  1.00  0.00    -0.203 F 
ATOM     73  C   UNL A   1      44.411  26.048  26.969  1.00  0.00     0.198 A 
ATOM     74  C   UNL A   1      43.182  27.592  25.619  1.00  0.00     0.198 A 
ATOM     75  F   UNL A   1      42.735  29.770  26.389  1.00  0.00    -0.203 F 
ATOM     76  F   UNL A   1      44.891  24.814  27.188  1.00  0.00    -0.200 F 
ATOM     77  C   UNL A   1      43.707  26.323  25.813  1.00  0.00     0.200 A 
ATOM     78  F   UNL A   1      42.468  27.843  24.512  1.00  0.00    -0.200 F 
ATOM     79  F   UNL A   1      43.488  25.357  24.908  1.00  0.00    -0.200 F 
ENDBRANCH  45  69
BRANCH  57  80
ATOM     80  C   UNL A   1      42.571  35.178  29.675  1.00  0.00     0.064 A 
ATOM     81  C   UNL A   1      43.444  35.853  30.542  1.00  0.00     0.173 A 
ATOM     82  C   UNL A   1      42.118  35.917  28.556  1.00  0.00     0.173 A 
ATOM     83  F   UNL A   1      44.039  35.222  31.565  1.00  0.00    -0.203 F 
ATOM     84  C   UNL A   1      43.781  37.190  30.347  1.00  0.00     0.198 A 
ATOM     85  C   UNL A   1      42.519  37.229  28.324  1.00  0.00     0.198 A 
ATOM     86  F   UNL A   1      41.304  35.381  27.635  1.00  0.00    -0.203 F 
ATOM     87  F   UNL A   1      44.574  37.807  31.234  1.00  0.00    -0.200 F 
ATOM     88  C   UNL A   1      43.333  37.872  29.231  1.00  0.00     0.200 A 
ATOM     89  F   UNL A   1      42.131  37.853  27.204  1.00  0.00    -0.200 F 
ATOM     90  F   UNL A   1      43.704  39.141  29.021  1.00  0.00    -0.200 F 
ENDBRANCH  57  80
ENDBRANCH  31  32
ENDBRANCH  24  26
ENDBRANCH  23  24
ENDBRANCH  22  23
ENDBRANCH   1  22
TORSDOF 14
ENDMDL
MODEL 2
REMARK VINA RESULT:     -13.2      4.055     10.062
REMARK SMILES Cc1ccc(C(=O)OCCOC(=O)c2ccc(-c3c4nc(c(-c5c(F)c(F)c(F)c(F)c5F)c5ccc([nH]5)c(-c5c(F)c(F)c(F)c(F)c5F)c5nc(c(-c6c(F)c(F)c(F)c(F)c6F)c6ccc3[nH]6)C=C5)C=C4)cc2)cc1S(=O)(=O)N(C)[C@H]1CCSC1
REMARK SMILES IDX 9 1 8 2 6 3 7 4 5 5 1 6 2 7 3 8 78 9 4 10 77 11 79 12 80 13
REMARK SMILES IDX 81 14 82 15 83 16 84 17 85 18 88 19 86 20 87 21 10 22 11 23
REMARK SMILES IDX 12 24 13 25 14 26 15 27 76 28 16 29 75 30 17 31 18 32 19 33
REMARK SMILES IDX 69 34 20 35 74 36 68 37 70 38 21 39 73 40 67 41 66 42 22 44
REMARK SMILES IDX 54 45 34 46 53 47 35 48 38 49 52 50 71 51 36 52 37 53 51 55
REMARK SMILES IDX 72 56 39 57 23 58 24 59 32 60 25 61 26 62 30 63 33 64 27 65
REMARK SMILES IDX 28 66 31 67 29 68 55 69 56 70 64 71 57 72 58 73 62 74 65 75
REMARK SMILES IDX 59 76 60 77 63 78 61 79 40 80 41 81 49 82 42 83 43 84 47 85
REMARK SMILES IDX 50 86 44 87 45 88 48 89 46 90
REMARK H PARENT 70 43 38 54
REMARK Flexibility Score: inf
ROOT
ATOM      1  C   UNL A   1      33.729  29.328  26.512  1.00  0.00     0.275 C 
ENDROOT
BRANCH   1   2
ATOM      2  O   UNL A   1      33.433  28.169  27.295  1.00  0.00    -0.458 OA
BRANCH   2   3
ATOM      3  C   UNL A   1      32.135  27.802  27.166  1.00  0.00     0.338 C 
ATOM      4  O   UNL A   1      31.211  28.162  27.884  1.00  0.00    -0.246 OA
BRANCH   3   5
ATOM      5  C   UNL A   1      31.911  26.837  26.080  1.00  0.00     0.061 A 
ATOM      6  C   UNL A   1      30.466  23.946  23.228  1.00  0.00     0.046 C 
ATOM      7  C   UNL A   1      31.082  24.826  24.272  1.00  0.00    -0.031 A 
ATOM      8  C   UNL A   1      31.225  26.177  23.876  1.00  0.00     0.006 A 
ATOM      9  C   UNL A   1      31.453  24.492  25.587  1.00  0.00     0.086 A 
ATOM     10  C   UNL A   1      31.687  27.164  24.751  1.00  0.00     0.016 A 
ATOM     11  C   UNL A   1      31.816  25.512  26.479  1.00  0.00     0.037 A 
BRANCH   9  12
ATOM     12  S   UNL A   1      31.626  22.900  26.373  1.00  0.00     0.243 S 
ATOM     13  O   UNL A   1      32.207  23.164  27.664  1.00  0.00    -0.207 OA
ATOM     14  O   UNL A   1      30.319  22.270  26.257  1.00  0.00    -0.207 OA
BRANCH  12  15
ATOM     15  N   UNL A   1      32.695  21.967  25.488  1.00  0.00    -0.197 NA
ATOM     16  C   UNL A   1      32.184  20.720  24.914  1.00  0.00     0.125 C 
BRANCH  15  17
ATOM     17  C   UNL A   1      34.076  22.459  25.327  1.00  0.00     0.083 C 
ATOM     18  C   UNL A   1      35.164  21.601  25.956  1.00  0.00     0.032 C 
ATOM     19  C   UNL A   1      34.475  22.611  23.855  1.00  0.00     0.089 C 
ATOM     20  C   UNL A   1      36.461  22.328  25.639  1.00  0.00     0.071 C 
ATOM     21  S   UNL A   1      36.288  22.796  23.894  1.00  0.00    -0.160 SA
ENDBRANCH  15  17
ENDBRANCH  12  15
ENDBRANCH   9  12
ENDBRANCH   3   5
ENDBRANCH   2   3
ENDBRANCH   1   2
BRANCH   1  22
ATOM     22  C   UNL A   1      34.001  30.583  27.348  1.00  0.00     0.275 C 
BRANCH  22  23
ATOM     23  O   UNL A   1      35.013  30.599  28.397  1.00  0.00    -0.458 OA
BRANCH  23  24
ATOM     24  C   UNL A   1      36.264  31.106  28.331  1.00  0.00     0.338 C 
ATOM     25  O   UNL A   1      36.493  32.274  28.053  1.00  0.00    -0.246 OA
BRANCH  24  26
ATOM     26  C   UNL A   1      37.367  30.160  28.554  1.00  0.00     0.060 A 
ATOM     27  C   UNL A   1      37.254  29.221  29.596  1.00  0.00     0.016 A 
ATOM     28  C   UNL A   1      38.445  30.140  27.677  1.00  0.00     0.016 A 
ATOM     29  C   UNL A   1      38.161  28.182  29.697  1.00  0.00     0.010 A 
ATOM     30  C   UNL A   1      39.272  29.050  27.687  1.00  0.00     0.010 A 
ATOM     31  C   UNL A   1      39.165  28.125  28.739  1.00  0.00    -0.014 A 
BRANCH  31  32
ATOM     32  C   UNL A   1      40.423  27.457  28.993  1.00  0.00     0.031 A 
ATOM     33  C   UNL A   1      40.654  26.080  28.552  1.00  0.00     0.074 A 
ATOM     34  C   UNL A   1      41.331  28.379  29.390  1.00  0.00     0.049 A 
ATOM     35  N   UNL A   1      41.604  25.336  28.991  1.00  0.00    -0.248 NA
ATOM     36  C   UNL A   1      39.784  25.384  27.605  1.00  0.00     0.031 C 
ATOM     37  C   UNL A   1      42.775  28.417  29.322  1.00  0.00     0.029 A 
ATOM     38  N   UNL A   1      40.998  29.582  30.052  1.00  0.00    -0.354 N 
ATOM     39  C   UNL A   1      41.725  24.287  28.098  1.00  0.00     0.074 A 
ATOM     40  C   UNL A   1      40.466  24.250  27.396  1.00  0.00     0.031 C 
ATOM     41  C   UNL A   1      43.214  29.371  30.171  1.00  0.00     0.029 A 
ATOM     42  C   UNL A   1      42.055  29.860  30.916  1.00  0.00     0.049 A 
ATOM     43  H   UNL A   1      40.181  30.118  29.928  1.00  0.00     0.167 HD
ATOM     44  C   UNL A   1      42.969  23.763  27.890  1.00  0.00     0.037 A 
ATOM     45  C   UNL A   1      41.830  29.678  32.252  1.00  0.00     0.037 A 
ATOM     46  C   UNL A   1      43.929  24.460  28.750  1.00  0.00     0.049 A 
ATOM     47  C   UNL A   1      42.656  28.520  32.748  1.00  0.00     0.074 A 
ATOM     48  C   UNL A   1      44.767  25.534  28.487  1.00  0.00     0.029 A 
ATOM     49  N   UNL A   1      43.807  24.381  30.134  1.00  0.00    -0.354 N 
ATOM     50  N   UNL A   1      42.901  27.440  32.053  1.00  0.00    -0.248 NA
ATOM     51  C   UNL A   1      43.358  28.556  34.023  1.00  0.00     0.031 C 
ATOM     52  C   UNL A   1      45.087  26.148  29.723  1.00  0.00     0.029 A 
ATOM     53  C   UNL A   1      44.434  25.459  30.732  1.00  0.00     0.049 A 
ATOM     54  H   UNL A   1      43.341  23.661  30.617  1.00  0.00     0.167 HD
ATOM     55  C   UNL A   1      43.857  26.707  32.705  1.00  0.00     0.074 A 
ATOM     56  C   UNL A   1      44.080  27.426  33.950  1.00  0.00     0.031 C 
ATOM     57  C   UNL A   1      44.457  25.601  32.176  1.00  0.00     0.037 A 
BRANCH  44  58
ATOM     58  C   UNL A   1      43.396  22.947  26.679  1.00  0.00     0.064 A 
ATOM     59  C   UNL A   1      43.140  21.554  26.632  1.00  0.00     0.173 A 
ATOM     60  C   UNL A   1      44.086  23.447  25.559  1.00  0.00     0.173 A 
ATOM     61  F   UNL A   1      42.400  20.943  27.566  1.00  0.00    -0.203 F 
ATOM     62  C   UNL A   1      43.627  20.725  25.619  1.00  0.00     0.198 A 
ATOM     63  C   UNL A   1      44.594  22.612  24.553  1.00  0.00     0.198 A 
ATOM     64  F   UNL A   1      44.247  24.760  25.367  1.00  0.00    -0.203 F 
ATOM     65  F   UNL A   1      43.366  19.411  25.654  1.00  0.00    -0.200 F 
ATOM     66  C   UNL A   1      44.377  21.249  24.591  1.00  0.00     0.200 A 
ATOM     67  F   UNL A   1      45.296  23.141  23.539  1.00  0.00    -0.200 F 
ATOM     68  F   UNL A   1      44.860  20.452  23.627  1.00  0.00    -0.200 F 
ENDBRANCH  44  58
BRANCH  45  69
ATOM     69  C   UNL A   1      40.429  30.003  32.690  1.00  0.00     0.064 A 
ATOM     70  C   UNL A   1      40.012  31.356  32.683  1.00  0.00     0.173 A 
ATOM     71  C   UNL A   1      39.423  29.040  32.842  1.00  0.00     0.173 A 
ATOM     72  F   UNL A   1      40.920  32.336  32.541  1.00  0.00    -0.203 F 
ATOM     73  C   UNL A   1      38.664  31.717  32.723  1.00  0.00     0.198 A 
ATOM     74  C   UNL A   1      38.070  29.408  32.900  1.00  0.00     0.198 A 
ATOM     75  F   UNL A   1      39.725  27.735  32.860  1.00  0.00    -0.203 F 
ATOM     76  F   UNL A   1      38.312  33.006  32.602  1.00  0.00    -0.200 F 
ATOM     77  C   UNL A   1      37.692  30.739  32.817  1.00  0.00     0.200 A 
ATOM     78  F   UNL A   1      37.121  28.460  32.954  1.00  0.00    -0.200 F 
ATOM     79  F   UNL A   1      36.392  31.070  32.778  1.00  0.00    -0.200 F 
ENDBRANCH  45  69
BRANCH  57  80
ATOM     80  C   UNL A   1      45.244  24.596  32.968  1.00  0.00     0.064 A 
ATOM     81  C   UNL A   1      46.531  24.855  33.462  1.00  0.00     0.173 A 
ATOM     82  C   UNL A   1      44.640  23.396  33.415  1.00  0.00     0.173 A 
ATOM     83  F   UNL A   1      47.155  26.015  33.212  1.00  0.00    -0.203 F 
ATOM     84  C   UNL A   1      47.196  23.948  34.283  1.00  0.00     0.198 A 
ATOM     85  C   UNL A   1      45.278  22.531  34.297  1.00  0.00     0.198 A 
ATOM     86  F   UNL A   1      43.400  23.044  33.042  1.00  0.00    -0.203 F 
ATOM     87  F   UNL A   1      48.446  24.214  34.684  1.00  0.00    -0.200 F 
ATOM     88  C   UNL A   1      46.564  22.795  34.713  1.00  0.00     0.200 A 
ATOM     89  F   UNL A   1      44.627  21.454  34.757  1.00  0.00    -0.200 F 
ATOM     90  F   UNL A   1      47.188  21.954  35.547  1.00  0.00    -0.200 F 
ENDBRANCH  57  80
ENDBRANCH  31  32
ENDBRANCH  24  26
ENDBRANCH  23  24
ENDBRANCH  22  23
ENDBRANCH   1  22
TORSDOF 14
ENDMDL
MODEL 3
REMARK VINA RESULT:     -13.0      0.950      1.359
REMARK SMILES Cc1ccc(C(=O)OCCOC(=O)c2ccc(-c3c4nc(c(-c5c(F)c(F)c(F)c(F)c5F)c5ccc([nH]5)c(-c5c(F)c(F)c(F)c(F)c5F)c5nc(c(-c6c(F)c(F)c(F)c(F)c6F)c6ccc3[nH]6)C=C5)C=C4)cc2)cc1S(=O)(=O)N(C)[C@H]1CCSC1
REMARK SMILES IDX 9 1 8 2 6 3 7 4 5 5 1 6 2 7 3 8 78 9 4 10 77 11 79 12 80 13
REMARK SMILES IDX 81 14 82 15 83 16 84 17 85 18 88 19 86 20 87 21 10 22 11 23
REMARK SMILES IDX 12 24 13 25 14 26 15 27 76 28 16 29 75 30 17 31 18 32 19 33
REMARK SMILES IDX 69 34 20 35 74 36 68 37 70 38 21 39 73 40 67 41 66 42 22 44
REMARK SMILES IDX 54 45 34 46 53 47 35 48 38 49 52 50 71 51 36 52 37 53 51 55
REMARK SMILES IDX 72 56 39 57 23 58 24 59 32 60 25 61 26 62 30 63 33 64 27 65
REMARK SMILES IDX 28 66 31 67 29 68 55 69 56 70 64 71 57 72 58 73 62 74 65 75
REMARK SMILES IDX 59 76 60 77 63 78 61 79 40 80 41 81 49 82 42 83 43 84 47 85
REMARK SMILES IDX 50 86 44 87 45 88 48 89 46 90
REMARK H PARENT 70 43 38 54
REMARK Flexibility Score: inf
ROOT
ATOM      1  C   UNL A   1      37.530  21.617  24.691  1.00  0.00     0.275 C 
ENDROOT
BRANCH   1   2
ATOM      2  O   UNL A   1      36.150  21.585  24.317  1.00  0.00    -0.458 OA
BRANCH   2   3
ATOM      3  C   UNL A   1      35.829  22.632  23.518  1.00  0.00     0.338 C 
ATOM      4  O   UNL A   1      36.589  23.212  22.754  1.00  0.00    -0.246 OA
BRANCH   3   5
ATOM      5  C   UNL A   1      34.442  23.088  23.691  1.00  0.00     0.061 A 
ATOM      6  C   UNL A   1      30.263  24.107  23.407  1.00  0.00     0.046 C 
ATOM      7  C   UNL A   1      31.747  23.927  23.512  1.00  0.00    -0.031 A 
ATOM      8  C   UNL A   1      32.139  22.830  24.317  1.00  0.00     0.006 A 
ATOM      9  C   UNL A   1      32.762  24.651  22.863  1.00  0.00     0.086 A 
ATOM     10  C   UNL A   1      33.477  22.447  24.452  1.00  0.00     0.016 A 
ATOM     11  C   UNL A   1      34.086  24.189  22.927  1.00  0.00     0.037 A 
BRANCH   9  12
ATOM     12  S   UNL A   1      32.693  26.191  21.964  1.00  0.00     0.243 S 
ATOM     13  O   UNL A   1      34.063  26.594  21.776  1.00  0.00    -0.207 OA
ATOM     14  O   UNL A   1      31.827  25.931  20.822  1.00  0.00    -0.207 OA
BRANCH  12  15
ATOM     15  N   UNL A   1      31.924  27.339  22.905  1.00  0.00    -0.197 NA
ATOM     16  C   UNL A   1      30.755  28.008  22.330  1.00  0.00     0.125 C 
BRANCH  15  17
ATOM     17  C   UNL A   1      32.456  27.597  24.256  1.00  0.00     0.083 C 
ATOM     18  C   UNL A   1      33.225  28.900  24.428  1.00  0.00     0.032 C 
ATOM     19  C   UNL A   1      31.356  27.628  25.322  1.00  0.00     0.089 C 
ATOM     20  C   UNL A   1      33.646  28.909  25.890  1.00  0.00     0.071 C 
ATOM     21  S   UNL A   1      32.159  28.373  26.781  1.00  0.00    -0.160 SA
ENDBRANCH  15  17
ENDBRANCH  12  15
ENDBRANCH   9  12
ENDBRANCH   3   5
ENDBRANCH   2   3
ENDBRANCH   1   2
BRANCH   1  22
ATOM     22  C   UNL A   1      37.831  22.576  25.848  1.00  0.00     0.275 C 
BRANCH  22  23
ATOM     23  O   UNL A   1      39.088  23.311  25.926  1.00  0.00    -0.458 OA
BRANCH  23  24
ATOM     24  C   UNL A   1      39.825  23.573  27.027  1.00  0.00     0.338 C 
ATOM     25  O   UNL A   1      40.415  22.705  27.654  1.00  0.00    -0.246 OA
BRANCH  24  26
ATOM     26  C   UNL A   1      39.841  24.970  27.487  1.00  0.00     0.060 A 
ATOM     27  C   UNL A   1      40.276  25.970  26.598  1.00  0.00     0.016 A 
ATOM     28  C   UNL A   1      39.333  25.288  28.742  1.00  0.00     0.016 A 
ATOM     29  C   UNL A   1      40.098  27.306  26.913  1.00  0.00     0.010 A 
ATOM     30  C   UNL A   1      39.037  26.596  29.011  1.00  0.00     0.010 A 
ATOM     31  C   UNL A   1      39.488  27.592  28.128  1.00  0.00    -0.014 A 
BRANCH  31  32
ATOM     32  C   UNL A   1      39.694  28.853  28.805  1.00  0.00     0.031 A 
ATOM     33  C   UNL A   1      38.684  29.912  28.763  1.00  0.00     0.074 A 
ATOM     34  C   UNL A   1      40.749  28.726  29.644  1.00  0.00     0.049 A 
ATOM     35  N   UNL A   1      38.915  31.136  29.076  1.00  0.00    -0.248 NA
ATOM     36  C   UNL A   1      37.315  29.697  28.297  1.00  0.00     0.031 C 
ATOM     37  C   UNL A   1      41.117  29.419  30.859  1.00  0.00     0.029 A 
ATOM     38  N   UNL A   1      41.818  27.825  29.441  1.00  0.00    -0.354 N 
ATOM     39  C   UNL A   1      37.681  31.729  29.271  1.00  0.00     0.074 A 
ATOM     40  C   UNL A   1      36.746  30.875  28.584  1.00  0.00     0.031 C 
ATOM     41  C   UNL A   1      42.421  29.176  31.108  1.00  0.00     0.029 A 
ATOM     42  C   UNL A   1      42.954  28.439  29.963  1.00  0.00     0.049 A 
ATOM     43  H   UNL A   1      41.770  26.939  29.014  1.00  0.00     0.167 HD
ATOM     44  C   UNL A   1      37.586  32.717  30.211  1.00  0.00     0.037 A 
ATOM     45  C   UNL A   1      43.873  28.910  29.068  1.00  0.00     0.037 A 
ATOM     46  C   UNL A   1      38.911  32.948  30.793  1.00  0.00     0.049 A 
ATOM     47  C   UNL A   1      43.899  30.416  29.119  1.00  0.00     0.074 A 
ATOM     48  C   UNL A   1      39.494  32.446  31.947  1.00  0.00     0.029 A 
ATOM     49  N   UNL A   1      39.952  33.407  29.991  1.00  0.00    -0.354 N 
ATOM     50  N   UNL A   1      42.843  31.163  29.308  1.00  0.00    -0.248 NA
ATOM     51  C   UNL A   1      45.141  31.173  29.075  1.00  0.00     0.031 C 
ATOM     52  C   UNL A   1      40.900  32.538  31.801  1.00  0.00     0.029 A 
ATOM     53  C   UNL A   1      41.171  33.079  30.554  1.00  0.00     0.049 A 
ATOM     54  H   UNL A   1      39.835  33.896  29.144  1.00  0.00     0.167 HD
ATOM     55  C   UNL A   1      43.252  32.452  29.526  1.00  0.00     0.074 A 
ATOM     56  C   UNL A   1      44.693  32.414  29.330  1.00  0.00     0.031 C 
ATOM     57  C   UNL A   1      42.416  33.459  29.912  1.00  0.00     0.037 A 
BRANCH  44  58
ATOM     58  C   UNL A   1      36.304  33.179  30.885  1.00  0.00     0.064 A 
ATOM     59  C   UNL A   1      35.431  34.073  30.218  1.00  0.00     0.173 A 
ATOM     60  C   UNL A   1      35.889  32.822  32.182  1.00  0.00     0.173 A 
ATOM     61  F   UNL A   1      35.624  34.424  28.940  1.00  0.00    -0.203 F 
ATOM     62  C   UNL A   1      34.313  34.644  30.832  1.00  0.00     0.198 A 
ATOM     63  C   UNL A   1      34.779  33.412  32.806  1.00  0.00     0.198 A 
ATOM     64  F   UNL A   1      36.503  31.856  32.871  1.00  0.00    -0.203 F 
ATOM     65  F   UNL A   1      33.546  35.503  30.146  1.00  0.00    -0.200 F 
ATOM     66  C   UNL A   1      33.999  34.333  32.135  1.00  0.00     0.200 A 
ATOM     67  F   UNL A   1      34.467  33.075  34.067  1.00  0.00    -0.200 F 
ATOM     68  F   UNL A   1      32.937  34.894  32.731  1.00  0.00    -0.200 F 
ENDBRANCH  44  58
BRANCH  45  69
ATOM     69  C   UNL A   1      44.005  28.075  27.825  1.00  0.00     0.064 A 
ATOM     70  C   UNL A   1      44.516  26.760  27.940  1.00  0.00     0.173 A 
ATOM     71  C   UNL A   1      43.404  28.407  26.603  1.00  0.00     0.173 A 
ATOM     72  F   UNL A   1      45.106  26.369  29.082  1.00  0.00    -0.203 F 
ATOM     73  C   UNL A   1      44.345  25.807  26.935  1.00  0.00     0.198 A 
ATOM     74  C   UNL A   1      43.251  27.451  25.588  1.00  0.00     0.198 A 
ATOM     75  F   UNL A   1      42.893  29.629  26.403  1.00  0.00    -0.203 F 
ATOM     76  F   UNL A   1      44.750  24.543  27.135  1.00  0.00    -0.200 F 
ATOM     77  C   UNL A   1      43.699  26.150  25.763  1.00  0.00     0.200 A 
ATOM     78  F   UNL A   1      42.591  27.769  24.463  1.00  0.00    -0.200 F 
ATOM     79  F   UNL A   1      43.461  25.222  24.824  1.00  0.00    -0.200 F 
ENDBRANCH  45  69
BRANCH  57  80
ATOM     80  C   UNL A   1      42.748  34.922  29.836  1.00  0.00     0.064 A 
ATOM     81  C   UNL A   1      43.381  35.614  30.880  1.00  0.00     0.173 A 
ATOM     82  C   UNL A   1      42.605  35.633  28.620  1.00  0.00     0.173 A 
ATOM     83  F   UNL A   1      43.687  35.008  32.036  1.00  0.00    -0.203 F 
ATOM     84  C   UNL A   1      43.776  36.943  30.743  1.00  0.00     0.198 A 
ATOM     85  C   UNL A   1      43.071  36.934  28.465  1.00  0.00     0.198 A 
ATOM     86  F   UNL A   1      42.045  35.077  27.536  1.00  0.00    -0.203 F 
ATOM     87  F   UNL A   1      44.325  37.578  31.787  1.00  0.00    -0.200 F 
ATOM     88  C   UNL A   1      43.635  37.596  29.533  1.00  0.00     0.200 A 
ATOM     89  F   UNL A   1      42.989  37.530  27.268  1.00  0.00    -0.200 F 
ATOM     90  F   UNL A   1      44.066  38.856  29.393  1.00  0.00    -0.200 F 
ENDBRANCH  57  80
ENDBRANCH  31  32
ENDBRANCH  24  26
ENDBRANCH  23  24
ENDBRANCH  22  23
ENDBRANCH   1  22
TORSDOF 14
ENDMDL
