MODEL 1
REMARK VINA RESULT:     -10.5      0.000      0.000
REMARK SMILES C=CC[N@@H+](CC(=O)NC(=O)NC)CC(=O)OCCOC(=O)c1ccc(-c2c3nc(c(-c4c(F)c(F)c(F)c(F)c4F)c4ccc([nH]4)c(-c4c(F)c(F)c(F)c(F)c4F)c4nc(c(-c5c(F)c(F)c(F)c(F)c5F)c5ccc2[nH]5)C=C4)C=C3)cc1
REMARK SMILES IDX 17 1 16 2 14 3 15 4 13 5 4 6 3 8 2 9 1 10 5 11 6 12 7 13
REMARK SMILES IDX 8 14 9 15 10 17 11 18 12 19 18 21 19 22 20 23 21 24 22 25
REMARK SMILES IDX 23 26 84 27 24 28 83 29 25 30 26 31 27 32 77 33 28 34 82 35
REMARK SMILES IDX 76 36 78 37 29 38 81 39 75 40 74 41 30 43 62 44 42 45 61 46
REMARK SMILES IDX 43 47 46 48 60 49 79 50 44 51 45 52 59 54 80 55 47 56 31 57
REMARK SMILES IDX 32 58 40 59 33 60 34 61 38 62 41 63 35 64 36 65 39 66 37 67
REMARK SMILES IDX 63 68 64 69 72 70 65 71 66 72 70 73 73 74 67 75 68 76 71 77
REMARK SMILES IDX 69 78 48 79 49 80 57 81 50 82 51 83 55 84 58 85 52 86 53 87
REMARK SMILES IDX 56 88 54 89
REMARK H PARENT 4 7 8 16 11 20 78 42 46 53
REMARK Flexibility Score: inf
ROOT
ATOM      1  C   UNL A   1      31.856  28.502  26.928  1.00  0.00     0.274 C 
ENDROOT
BRANCH   1   2
ATOM      2  O   UNL A   1      31.792  27.684  25.741  1.00  0.00    -0.458 OA
BRANCH   2   3
ATOM      3  C   UNL A   1      31.037  26.565  25.821  1.00  0.00     0.361 C 
ATOM      4  O   UNL A   1      30.689  26.041  26.878  1.00  0.00    -0.245 OA
BRANCH   3   5
ATOM      5  C   UNL A   1      30.711  25.924  24.481  1.00  0.00     0.387 C 
BRANCH   5   6
ATOM      6  N   UNL A   1      31.799  25.515  23.584  1.00  0.00    -0.315 N 
ATOM      7  H   UNL A   1      32.430  26.285  23.807  1.00  0.00     0.349 HD
BRANCH   6   8
ATOM      8  C   UNL A   1      32.644  24.403  23.968  1.00  0.00     0.291 C 
BRANCH   8   9
ATOM      9  C   UNL A   1      34.101  24.737  24.106  1.00  0.00     0.025 C 
ATOM     10  C   UNL A   1      34.712  24.793  25.299  1.00  0.00     0.010 C 
ENDBRANCH   8   9
ENDBRANCH   6   8
BRANCH   6  11
ATOM     11  C   UNL A   1      31.590  25.695  22.142  1.00  0.00     0.364 C 
BRANCH  11  12
ATOM     12  C   UNL A   1      32.722  26.335  21.342  1.00  0.00     0.283 C 
ATOM     13  O   UNL A   1      33.184  25.750  20.352  1.00  0.00    -0.268 OA
ATOM     14  N   UNL A   1      33.266  27.568  21.651  1.00  0.00    -0.273 N 
ATOM     15  C   UNL A   1      33.120  28.565  22.573  1.00  0.00     0.321 C 
ATOM     16  H   UNL A   1      33.977  27.799  21.010  1.00  0.00     0.175 HD
ATOM     17  O   UNL A   1      34.118  29.116  23.038  1.00  0.00    -0.248 OA
ATOM     18  N   UNL A   1      31.913  28.994  22.979  1.00  0.00    -0.341 N 
ATOM     19  C   UNL A   1      30.620  28.881  22.355  1.00  0.00     0.144 C 
ATOM     20  H   UNL A   1      31.913  29.463  23.844  1.00  0.00     0.165 HD
ENDBRANCH  11  12
ENDBRANCH   6  11
ENDBRANCH   5   6
ENDBRANCH   3   5
ENDBRANCH   2   3
ENDBRANCH   1   2
BRANCH   1  21
ATOM     21  C   UNL A   1      31.816  29.981  26.565  1.00  0.00     0.275 C 
BRANCH  21  22
ATOM     22  O   UNL A   1      33.155  30.455  26.344  1.00  0.00    -0.458 OA
BRANCH  22  23
ATOM     23  C   UNL A   1      33.559  31.441  27.164  1.00  0.00     0.338 C 
ATOM     24  O   UNL A   1      32.965  32.475  27.452  1.00  0.00    -0.246 OA
BRANCH  23  25
ATOM     25  C   UNL A   1      34.862  31.105  27.735  1.00  0.00     0.060 A 
ATOM     26  C   UNL A   1      35.112  29.795  28.145  1.00  0.00     0.016 A 
ATOM     27  C   UNL A   1      35.784  32.118  27.990  1.00  0.00     0.016 A 
ATOM     28  C   UNL A   1      36.264  29.506  28.869  1.00  0.00     0.010 A 
ATOM     29  C   UNL A   1      36.973  31.811  28.652  1.00  0.00     0.010 A 
ATOM     30  C   UNL A   1      37.212  30.506  29.119  1.00  0.00    -0.014 A 
BRANCH  30  31
ATOM     31  C   UNL A   1      38.454  30.190  29.864  1.00  0.00     0.031 A 
ATOM     32  C   UNL A   1      39.484  29.270  29.275  1.00  0.00     0.074 A 
ATOM     33  C   UNL A   1      38.647  30.728  31.083  1.00  0.00     0.049 A 
ATOM     34  N   UNL A   1      40.536  28.736  29.841  1.00  0.00    -0.248 NA
ATOM     35  C   UNL A   1      39.308  28.899  27.862  1.00  0.00     0.031 C 
ATOM     36  C   UNL A   1      37.743  31.670  31.743  1.00  0.00     0.029 A 
ATOM     37  N   UNL A   1      39.663  30.552  31.987  1.00  0.00    -0.354 N 
ATOM     38  C   UNL A   1      41.125  27.936  28.870  1.00  0.00     0.074 A 
ATOM     39  C   UNL A   1      40.315  28.054  27.677  1.00  0.00     0.031 C 
ATOM     40  C   UNL A   1      38.248  32.000  32.940  1.00  0.00     0.029 A 
ATOM     41  C   UNL A   1      39.467  31.232  33.164  1.00  0.00     0.049 A 
ATOM     42  H   UNL A   1      40.455  29.994  31.810  1.00  0.00     0.167 HD
ATOM     43  C   UNL A   1      42.238  27.171  28.975  1.00  0.00     0.037 A 
ATOM     44  C   UNL A   1      40.161  31.201  34.316  1.00  0.00     0.037 A 
ATOM     45  C   UNL A   1      43.052  27.080  30.161  1.00  0.00     0.049 A 
ATOM     46  C   UNL A   1      41.363  30.310  34.422  1.00  0.00     0.074 A 
ATOM     47  C   UNL A   1      44.201  26.335  30.367  1.00  0.00     0.029 A 
ATOM     48  N   UNL A   1      42.804  27.765  31.341  1.00  0.00    -0.354 N 
ATOM     49  N   UNL A   1      41.883  29.517  33.518  1.00  0.00    -0.248 NA
ATOM     50  C   UNL A   1      42.064  30.295  35.712  1.00  0.00     0.031 C 
ATOM     51  C   UNL A   1      44.631  26.546  31.681  1.00  0.00     0.029 A 
ATOM     52  C   UNL A   1      43.771  27.451  32.283  1.00  0.00     0.049 A 
ATOM     53  H   UNL A   1      42.053  28.384  31.488  1.00  0.00     0.167 HD
ATOM     54  C   UNL A   1      42.971  28.910  34.126  1.00  0.00     0.074 A 
ATOM     55  C   UNL A   1      43.051  29.443  35.470  1.00  0.00     0.031 C 
ATOM     56  C   UNL A   1      43.825  27.988  33.618  1.00  0.00     0.037 A 
BRANCH  43  57
ATOM     57  C   UNL A   1      42.628  26.344  27.787  1.00  0.00     0.064 A 
ATOM     58  C   UNL A   1      42.040  25.098  27.528  1.00  0.00     0.173 A 
ATOM     59  C   UNL A   1      43.570  26.831  26.866  1.00  0.00     0.173 A 
ATOM     60  F   UNL A   1      41.145  24.584  28.386  1.00  0.00    -0.203 F 
ATOM     61  C   UNL A   1      42.390  24.363  26.398  1.00  0.00     0.198 A 
ATOM     62  C   UNL A   1      43.901  26.103  25.726  1.00  0.00     0.198 A 
ATOM     63  F   UNL A   1      44.158  28.020  27.067  1.00  0.00    -0.203 F 
ATOM     64  F   UNL A   1      41.838  23.160  26.185  1.00  0.00    -0.200 F 
ATOM     65  C   UNL A   1      43.314  24.869  25.495  1.00  0.00     0.200 A 
ATOM     66  F   UNL A   1      44.786  26.598  24.851  1.00  0.00    -0.200 F 
ATOM     67  F   UNL A   1      43.642  24.164  24.403  1.00  0.00    -0.200 F 
ENDBRANCH  43  57
BRANCH  44  68
ATOM     68  C   UNL A   1      39.695  32.013  35.467  1.00  0.00     0.064 A 
ATOM     69  C   UNL A   1      40.173  33.312  35.675  1.00  0.00     0.173 A 
ATOM     70  C   UNL A   1      38.732  31.516  36.359  1.00  0.00     0.173 A 
ATOM     71  F   UNL A   1      41.111  33.818  34.861  1.00  0.00    -0.203 F 
ATOM     72  C   UNL A   1      39.705  34.087  36.733  1.00  0.00     0.198 A 
ATOM     73  C   UNL A   1      38.246  32.301  37.401  1.00  0.00     0.198 A 
ATOM     74  F   UNL A   1      38.245  30.277  36.201  1.00  0.00    -0.203 F 
ATOM     75  F   UNL A   1      40.196  35.318  36.927  1.00  0.00    -0.200 F 
ATOM     76  C   UNL A   1      38.735  33.585  37.589  1.00  0.00     0.200 A 
ATOM     77  F   UNL A   1      37.298  31.817  38.216  1.00  0.00    -0.200 F 
ATOM     78  F   UNL A   1      38.273  34.337  38.597  1.00  0.00    -0.200 F 
ENDBRANCH  44  68
BRANCH  56  79
ATOM     79  C   UNL A   1      44.920  27.512  34.522  1.00  0.00     0.064 A 
ATOM     80  C   UNL A   1      44.753  26.388  35.341  1.00  0.00     0.173 A 
ATOM     81  C   UNL A   1      46.155  28.177  34.553  1.00  0.00     0.173 A 
ATOM     82  F   UNL A   1      43.582  25.732  35.357  1.00  0.00    -0.203 F 
ATOM     83  C   UNL A   1      45.778  25.957  36.179  1.00  0.00     0.198 A 
ATOM     84  C   UNL A   1      47.185  27.730  35.377  1.00  0.00     0.198 A 
ATOM     85  F   UNL A   1      46.362  29.256  33.784  1.00  0.00    -0.203 F 
ATOM     86  F   UNL A   1      45.584  24.904  36.985  1.00  0.00    -0.200 F 
ATOM     87  C   UNL A   1      46.994  26.625  36.192  1.00  0.00     0.200 A 
ATOM     88  F   UNL A   1      48.361  28.373  35.384  1.00  0.00    -0.200 F 
ATOM     89  F   UNL A   1      47.978  26.209  37.000  1.00  0.00    -0.200 F 
ENDBRANCH  56  79
ENDBRANCH  30  31
ENDBRANCH  23  25
ENDBRANCH  22  23
ENDBRANCH  21  22
ENDBRANCH   1  21
TORSDOF 16
ENDMDL
MODEL 2
REMARK VINA RESULT:     -10.4      1.212      2.906
REMARK SMILES C=CC[N@@H+](CC(=O)NC(=O)NC)CC(=O)OCCOC(=O)c1ccc(-c2c3nc(c(-c4c(F)c(F)c(F)c(F)c4F)c4ccc([nH]4)c(-c4c(F)c(F)c(F)c(F)c4F)c4nc(c(-c5c(F)c(F)c(F)c(F)c5F)c5ccc2[nH]5)C=C4)C=C3)cc1
REMARK SMILES IDX 17 1 16 2 14 3 15 4 13 5 4 6 3 8 2 9 1 10 5 11 6 12 7 13
REMARK SMILES IDX 8 14 9 15 10 17 11 18 12 19 18 21 19 22 20 23 21 24 22 25
REMARK SMILES IDX 23 26 84 27 24 28 83 29 25 30 26 31 27 32 77 33 28 34 82 35
REMARK SMILES IDX 76 36 78 37 29 38 81 39 75 40 74 41 30 43 62 44 42 45 61 46
REMARK SMILES IDX 43 47 46 48 60 49 79 50 44 51 45 52 59 54 80 55 47 56 31 57
REMARK SMILES IDX 32 58 40 59 33 60 34 61 38 62 41 63 35 64 36 65 39 66 37 67
REMARK SMILES IDX 63 68 64 69 72 70 65 71 66 72 70 73 73 74 67 75 68 76 71 77
REMARK SMILES IDX 69 78 48 79 49 80 57 81 50 82 51 83 55 84 58 85 52 86 53 87
REMARK SMILES IDX 56 88 54 89
REMARK H PARENT 4 7 8 16 11 20 78 42 46 53
REMARK Flexibility Score: inf
ROOT
ATOM      1  C   UNL A   1      32.475  29.145  25.175  1.00  0.00     0.274 C 
ENDROOT
BRANCH   1   2
ATOM      2  O   UNL A   1      32.464  28.110  26.180  1.00  0.00    -0.458 OA
BRANCH   2   3
ATOM      3  C   UNL A   1      31.837  26.958  25.852  1.00  0.00     0.361 C 
ATOM      4  O   UNL A   1      31.121  26.319  26.620  1.00  0.00    -0.245 OA
BRANCH   3   5
ATOM      5  C   UNL A   1      32.154  26.440  24.457  1.00  0.00     0.387 C 
BRANCH   5   6
ATOM      6  N   UNL A   1      33.102  25.331  24.289  1.00  0.00    -0.315 N 
ATOM      7  H   UNL A   1      33.535  25.676  23.432  1.00  0.00     0.349 HD
BRANCH   6   8
ATOM      8  C   UNL A   1      34.276  25.277  25.137  1.00  0.00     0.291 C 
BRANCH   8   9
ATOM      9  C   UNL A   1      35.152  24.078  24.924  1.00  0.00     0.025 C 
ATOM     10  C   UNL A   1      35.753  23.442  25.941  1.00  0.00     0.010 C 
ENDBRANCH   8   9
ENDBRANCH   6   8
BRANCH   6  11
ATOM     11  C   UNL A   1      32.559  24.037  23.860  1.00  0.00     0.364 C 
BRANCH  11  12
ATOM     12  C   UNL A   1      31.064  23.801  24.055  1.00  0.00     0.283 C 
ATOM     13  O   UNL A   1      30.278  24.030  23.125  1.00  0.00    -0.268 OA
ATOM     14  N   UNL A   1      30.519  23.319  25.232  1.00  0.00    -0.273 N 
ATOM     15  C   UNL A   1      30.920  22.925  26.475  1.00  0.00     0.321 C 
ATOM     16  H   UNL A   1      29.542  23.236  25.147  1.00  0.00     0.175 HD
ATOM     17  O   UNL A   1      30.256  23.246  27.461  1.00  0.00    -0.248 OA
ATOM     18  N   UNL A   1      32.012  22.165  26.669  1.00  0.00    -0.341 N 
ATOM     19  C   UNL A   1      32.723  21.299  25.763  1.00  0.00     0.144 C 
ATOM     20  H   UNL A   1      32.386  22.206  27.578  1.00  0.00     0.165 HD
ENDBRANCH  11  12
ENDBRANCH   6  11
ENDBRANCH   5   6
ENDBRANCH   3   5
ENDBRANCH   2   3
ENDBRANCH   1   2
BRANCH   1  21
ATOM     21  C   UNL A   1      31.984  30.465  25.756  1.00  0.00     0.275 C 
BRANCH  21  22
ATOM     22  O   UNL A   1      32.477  30.608  27.100  1.00  0.00    -0.458 OA
BRANCH  22  23
ATOM     23  C   UNL A   1      33.194  31.722  27.333  1.00  0.00     0.338 C 
ATOM     24  O   UNL A   1      32.861  32.887  27.147  1.00  0.00    -0.246 OA
BRANCH  23  25
ATOM     25  C   UNL A   1      34.493  31.362  27.900  1.00  0.00     0.060 A 
ATOM     26  C   UNL A   1      34.737  30.038  28.264  1.00  0.00     0.016 A 
ATOM     27  C   UNL A   1      35.417  32.363  28.195  1.00  0.00     0.016 A 
ATOM     28  C   UNL A   1      35.884  29.720  28.984  1.00  0.00     0.010 A 
ATOM     29  C   UNL A   1      36.601  32.029  28.852  1.00  0.00     0.010 A 
ATOM     30  C   UNL A   1      36.833  30.708  29.275  1.00  0.00    -0.014 A 
BRANCH  30  31
ATOM     31  C   UNL A   1      38.071  30.363  30.015  1.00  0.00     0.031 A 
ATOM     32  C   UNL A   1      39.092  29.445  29.408  1.00  0.00     0.074 A 
ATOM     33  C   UNL A   1      38.266  30.871  31.246  1.00  0.00     0.049 A 
ATOM     34  N   UNL A   1      40.137  28.887  29.965  1.00  0.00    -0.248 NA
ATOM     35  C   UNL A   1      38.916  29.106  27.987  1.00  0.00     0.031 C 
ATOM     36  C   UNL A   1      37.371  31.809  31.924  1.00  0.00     0.029 A 
ATOM     37  N   UNL A   1      39.279  30.665  32.148  1.00  0.00    -0.354 N 
ATOM     38  C   UNL A   1      40.720  28.103  28.977  1.00  0.00     0.074 A 
ATOM     39  C   UNL A   1      39.913  28.256  27.785  1.00  0.00     0.031 C 
ATOM     40  C   UNL A   1      37.877  32.107  33.129  1.00  0.00     0.029 A 
ATOM     41  C   UNL A   1      39.087  31.321  33.339  1.00  0.00     0.049 A 
ATOM     42  H   UNL A   1      40.065  30.103  31.960  1.00  0.00     0.167 HD
ATOM     43  C   UNL A   1      41.824  27.323  29.068  1.00  0.00     0.037 A 
ATOM     44  C   UNL A   1      39.779  31.258  34.491  1.00  0.00     0.037 A 
ATOM     45  C   UNL A   1      42.635  27.197  30.252  1.00  0.00     0.049 A 
ATOM     46  C   UNL A   1      40.971  30.352  34.580  1.00  0.00     0.074 A 
ATOM     47  C   UNL A   1      43.775  26.436  30.444  1.00  0.00     0.029 A 
ATOM     48  N   UNL A   1      42.392  27.860  31.447  1.00  0.00    -0.354 N 
ATOM     49  N   UNL A   1      41.484  29.573  33.660  1.00  0.00    -0.248 NA
ATOM     50  C   UNL A   1      41.668  30.301  35.871  1.00  0.00     0.031 C 
ATOM     51  C   UNL A   1      44.204  26.614  31.764  1.00  0.00     0.029 A 
ATOM     52  C   UNL A   1      43.353  27.515  32.384  1.00  0.00     0.049 A 
ATOM     53  H   UNL A   1      41.647  28.483  31.606  1.00  0.00     0.167 HD
ATOM     54  C   UNL A   1      42.564  28.941  34.256  1.00  0.00     0.074 A 
ATOM     55  C   UNL A   1      42.647  29.444  35.612  1.00  0.00     0.031 C 
ATOM     56  C   UNL A   1      43.409  28.022  33.731  1.00  0.00     0.037 A 
BRANCH  43  57
ATOM     57  C   UNL A   1      42.208  26.519  27.862  1.00  0.00     0.064 A 
ATOM     58  C   UNL A   1      43.188  26.959  26.962  1.00  0.00     0.173 A 
ATOM     59  C   UNL A   1      41.623  25.263  27.635  1.00  0.00     0.173 A 
ATOM     60  F   UNL A   1      43.767  28.158  27.128  1.00  0.00    -0.203 F 
ATOM     61  C   UNL A   1      43.558  26.179  25.868  1.00  0.00     0.198 A 
ATOM     62  C   UNL A   1      42.011  24.476  26.554  1.00  0.00     0.198 A 
ATOM     63  F   UNL A   1      40.684  24.794  28.470  1.00  0.00    -0.203 F 
ATOM     64  F   UNL A   1      44.475  26.633  25.003  1.00  0.00    -0.200 F 
ATOM     65  C   UNL A   1      42.975  24.936  25.670  1.00  0.00     0.200 A 
ATOM     66  F   UNL A   1      41.453  23.272  26.369  1.00  0.00    -0.200 F 
ATOM     67  F   UNL A   1      43.339  24.182  24.622  1.00  0.00    -0.200 F 
ENDBRANCH  43  57
BRANCH  44  68
ATOM     68  C   UNL A   1      39.319  32.049  35.659  1.00  0.00     0.064 A 
ATOM     69  C   UNL A   1      38.382  31.529  36.560  1.00  0.00     0.173 A 
ATOM     70  C   UNL A   1      39.840  33.327  35.917  1.00  0.00     0.173 A 
ATOM     71  F   UNL A   1      37.841  30.322  36.339  1.00  0.00    -0.203 F 
ATOM     72  C   UNL A   1      37.982  32.256  37.677  1.00  0.00     0.198 A 
ATOM     73  C   UNL A   1      39.458  34.042  37.050  1.00  0.00     0.198 A 
ATOM     74  F   UNL A   1      40.740  33.867  35.084  1.00  0.00    -0.203 F 
ATOM     75  F   UNL A   1      37.064  31.748  38.510  1.00  0.00    -0.200 F 
ATOM     76  C   UNL A   1      38.527  33.507  37.927  1.00  0.00     0.200 A 
ATOM     77  F   UNL A   1      40.000  35.243  37.294  1.00  0.00    -0.200 F 
ATOM     78  F   UNL A   1      38.153  34.200  39.011  1.00  0.00    -0.200 F 
ENDBRANCH  44  68
BRANCH  56  79
ATOM     79  C   UNL A   1      44.498  27.515  34.625  1.00  0.00     0.064 A 
ATOM     80  C   UNL A   1      45.726  28.182  34.730  1.00  0.00     0.173 A 
ATOM     81  C   UNL A   1      44.303  26.362  35.400  1.00  0.00     0.173 A 
ATOM     82  F   UNL A   1      45.963  29.279  33.993  1.00  0.00    -0.203 F 
ATOM     83  C   UNL A   1      46.732  27.700  35.562  1.00  0.00     0.198 A 
ATOM     84  C   UNL A   1      45.304  25.895  36.247  1.00  0.00     0.198 A 
ATOM     85  F   UNL A   1      43.144  25.692  35.335  1.00  0.00    -0.203 F 
ATOM     86  F   UNL A   1      47.914  28.330  35.616  1.00  0.00    -0.200 F 
ATOM     87  C   UNL A   1      46.518  26.561  36.324  1.00  0.00     0.200 A 
ATOM     88  F   UNL A   1      45.094  24.797  36.987  1.00  0.00    -0.200 F 
ATOM     89  F   UNL A   1      47.488  26.098  37.124  1.00  0.00    -0.200 F 
ENDBRANCH  56  79
ENDBRANCH  30  31
ENDBRANCH  23  25
ENDBRANCH  22  23
ENDBRANCH  21  22
ENDBRANCH   1  21
TORSDOF 16
ENDMDL
MODEL 3
REMARK VINA RESULT:     -10.4      5.242      8.977
REMARK SMILES C=CC[N@@H+](CC(=O)NC(=O)NC)CC(=O)OCCOC(=O)c1ccc(-c2c3nc(c(-c4c(F)c(F)c(F)c(F)c4F)c4ccc([nH]4)c(-c4c(F)c(F)c(F)c(F)c4F)c4nc(c(-c5c(F)c(F)c(F)c(F)c5F)c5ccc2[nH]5)C=C4)C=C3)cc1
REMARK SMILES IDX 17 1 16 2 14 3 15 4 13 5 4 6 3 8 2 9 1 10 5 11 6 12 7 13
REMARK SMILES IDX 8 14 9 15 10 17 11 18 12 19 18 21 19 22 20 23 21 24 22 25
REMARK SMILES IDX 23 26 84 27 24 28 83 29 25 30 26 31 27 32 77 33 28 34 82 35
REMARK SMILES IDX 76 36 78 37 29 38 81 39 75 40 74 41 30 43 62 44 42 45 61 46
REMARK SMILES IDX 43 47 46 48 60 49 79 50 44 51 45 52 59 54 80 55 47 56 31 57
REMARK SMILES IDX 32 58 40 59 33 60 34 61 38 62 41 63 35 64 36 65 39 66 37 67
REMARK SMILES IDX 63 68 64 69 72 70 65 71 66 72 70 73 73 74 67 75 68 76 71 77
REMARK SMILES IDX 69 78 48 79 49 80 57 81 50 82 51 83 55 84 58 85 52 86 53 87
REMARK SMILES IDX 56 88 54 89
REMARK H PARENT 4 7 8 16 11 20 78 42 46 53
REMARK Flexibility Score: inf
ROOT
ATOM      1  C   UNL A   1      41.715  20.971  27.455  1.00  0.00     0.274 C 
ENDROOT
BRANCH   1   2
ATOM      2  O   UNL A   1      42.590  21.920  26.812  1.00  0.00    -0.458 OA
BRANCH   2   3
ATOM      3  C   UNL A   1      43.184  22.832  27.614  1.00  0.00     0.361 C 
ATOM      4  O   UNL A   1      42.575  23.591  28.365  1.00  0.00    -0.245 OA
BRANCH   3   5
ATOM      5  C   UNL A   1      44.695  22.923  27.460  1.00  0.00     0.387 C 
BRANCH   5   6
ATOM      6  N   UNL A   1      45.282  23.110  26.127  1.00  0.00    -0.315 N 
ATOM      7  H   UNL A   1      44.412  23.342  25.648  1.00  0.00     0.349 HD
BRANCH   6   8
ATOM      8  C   UNL A   1      46.028  24.320  25.852  1.00  0.00     0.291 C 
BRANCH   8   9
ATOM      9  C   UNL A   1      45.199  25.568  25.774  1.00  0.00     0.025 C 
ATOM     10  C   UNL A   1      43.995  25.590  25.181  1.00  0.00     0.010 C 
ENDBRANCH   8   9
ENDBRANCH   6   8
BRANCH   6  11
ATOM     11  C   UNL A   1      45.719  21.908  25.407  1.00  0.00     0.364 C 
BRANCH  11  12
ATOM     12  C   UNL A   1      44.779  21.342  24.345  1.00  0.00     0.283 C 
ATOM     13  O   UNL A   1      44.522  22.009  23.332  1.00  0.00    -0.268 OA
ATOM     14  N   UNL A   1      44.193  20.093  24.438  1.00  0.00    -0.273 N 
ATOM     15  C   UNL A   1      44.157  19.025  25.288  1.00  0.00     0.321 C 
ATOM     16  H   UNL A   1      43.629  19.920  23.650  1.00  0.00     0.175 HD
ATOM     17  O   UNL A   1      43.090  18.447  25.495  1.00  0.00    -0.248 OA
ATOM     18  N   UNL A   1      45.260  18.555  25.895  1.00  0.00    -0.341 N 
ATOM     19  C   UNL A   1      46.652  18.706  25.558  1.00  0.00     0.144 C 
ATOM     20  H   UNL A   1      45.088  18.019  26.702  1.00  0.00     0.165 HD
ENDBRANCH  11  12
ENDBRANCH   6  11
ENDBRANCH   5   6
ENDBRANCH   3   5
ENDBRANCH   2   3
ENDBRANCH   1   2
BRANCH   1  21
ATOM     21  C   UNL A   1      40.299  21.087  26.906  1.00  0.00     0.275 C 
BRANCH  21  22
ATOM     22  O   UNL A   1      40.200  22.263  26.084  1.00  0.00    -0.458 OA
BRANCH  22  23
ATOM     23  C   UNL A   1      39.063  22.968  26.224  1.00  0.00     0.338 C 
ATOM     24  O   UNL A   1      37.919  22.620  25.951  1.00  0.00    -0.246 OA
BRANCH  23  25
ATOM     25  C   UNL A   1      39.363  24.275  26.806  1.00  0.00     0.060 A 
ATOM     26  C   UNL A   1      40.059  25.217  26.049  1.00  0.00     0.016 A 
ATOM     27  C   UNL A   1      39.074  24.515  28.148  1.00  0.00     0.016 A 
ATOM     28  C   UNL A   1      40.525  26.381  26.651  1.00  0.00     0.010 A 
ATOM     29  C   UNL A   1      39.478  25.716  28.731  1.00  0.00     0.010 A 
ATOM     30  C   UNL A   1      40.229  26.649  27.995  1.00  0.00    -0.014 A 
BRANCH  30  31
ATOM     31  C   UNL A   1      40.699  27.904  28.628  1.00  0.00     0.031 A 
ATOM     32  C   UNL A   1      42.134  28.058  29.041  1.00  0.00     0.074 A 
ATOM     33  C   UNL A   1      39.823  28.903  28.841  1.00  0.00     0.049 A 
ATOM     34  N   UNL A   1      42.690  28.998  29.765  1.00  0.00    -0.248 NA
ATOM     35  C   UNL A   1      43.071  27.021  28.582  1.00  0.00     0.031 C 
ATOM     36  C   UNL A   1      38.416  28.891  28.444  1.00  0.00     0.029 A 
ATOM     37  N   UNL A   1      39.987  30.121  29.452  1.00  0.00    -0.354 N 
ATOM     38  C   UNL A   1      44.028  28.645  29.882  1.00  0.00     0.074 A 
ATOM     39  C   UNL A   1      44.204  27.406  29.154  1.00  0.00     0.031 C 
ATOM     40  C   UNL A   1      37.845  30.048  28.809  1.00  0.00     0.029 A 
ATOM     41  C   UNL A   1      38.825  30.847  29.536  1.00  0.00     0.049 A 
ATOM     42  H   UNL A   1      40.852  30.442  29.796  1.00  0.00     0.167 HD
ATOM     43  C   UNL A   1      45.013  29.297  30.544  1.00  0.00     0.037 A 
ATOM     44  C   UNL A   1      38.562  32.003  30.171  1.00  0.00     0.037 A 
ATOM     45  C   UNL A   1      44.833  30.544  31.245  1.00  0.00     0.049 A 
ATOM     46  C   UNL A   1      39.659  32.683  30.935  1.00  0.00     0.074 A 
ATOM     47  C   UNL A   1      45.769  31.287  31.944  1.00  0.00     0.029 A 
ATOM     48  N   UNL A   1      43.633  31.235  31.327  1.00  0.00    -0.354 N 
ATOM     49  N   UNL A   1      40.908  32.317  31.087  1.00  0.00    -0.248 NA
ATOM     50  C   UNL A   1      39.306  33.926  31.633  1.00  0.00     0.031 C 
ATOM     51  C   UNL A   1      45.128  32.412  32.475  1.00  0.00     0.029 A 
ATOM     52  C   UNL A   1      43.801  32.390  32.076  1.00  0.00     0.049 A 
ATOM     53  H   UNL A   1      42.787  30.948  30.914  1.00  0.00     0.167 HD
ATOM     54  C   UNL A   1      41.492  33.281  31.893  1.00  0.00     0.074 A 
ATOM     55  C   UNL A   1      40.466  34.263  32.181  1.00  0.00     0.031 C 
ATOM     56  C   UNL A   1      42.763  33.346  32.358  1.00  0.00     0.037 A 
BRANCH  43  57
ATOM     57  C   UNL A   1      46.372  28.664  30.571  1.00  0.00     0.064 A 
ATOM     58  C   UNL A   1      46.734  27.734  31.555  1.00  0.00     0.173 A 
ATOM     59  C   UNL A   1      47.307  28.956  29.566  1.00  0.00     0.173 A 
ATOM     60  F   UNL A   1      45.880  27.432  32.545  1.00  0.00    -0.203 F 
ATOM     61  C   UNL A   1      47.989  27.129  31.540  1.00  0.00     0.198 A 
ATOM     62  C   UNL A   1      48.552  28.333  29.542  1.00  0.00     0.198 A 
ATOM     63  F   UNL A   1      47.007  29.837  28.599  1.00  0.00    -0.203 F 
ATOM     64  F   UNL A   1      48.326  26.264  32.508  1.00  0.00    -0.200 F 
ATOM     65  C   UNL A   1      48.893  27.423  30.530  1.00  0.00     0.200 A 
ATOM     66  F   UNL A   1      49.421  28.612  28.560  1.00  0.00    -0.200 F 
ATOM     67  F   UNL A   1      50.097  26.832  30.513  1.00  0.00    -0.200 F 
ENDBRANCH  43  57
BRANCH  44  68
ATOM     68  C   UNL A   1      37.185  32.554  30.139  1.00  0.00     0.064 A 
ATOM     69  C   UNL A   1      36.308  32.368  31.214  1.00  0.00     0.173 A 
ATOM     70  C   UNL A   1      36.734  33.311  29.046  1.00  0.00     0.173 A 
ATOM     71  F   UNL A   1      36.689  31.632  32.268  1.00  0.00    -0.203 F 
ATOM     72  C   UNL A   1      35.029  32.919  31.200  1.00  0.00     0.198 A 
ATOM     73  C   UNL A   1      35.464  33.883  29.045  1.00  0.00     0.198 A 
ATOM     74  F   UNL A   1      37.537  33.516  27.993  1.00  0.00    -0.203 F 
ATOM     75  F   UNL A   1      34.199  32.706  32.229  1.00  0.00    -0.200 F 
ATOM     76  C   UNL A   1      34.612  33.684  30.120  1.00  0.00     0.200 A 
ATOM     77  F   UNL A   1      35.072  34.634  28.006  1.00  0.00    -0.200 F 
ATOM     78  F   UNL A   1      33.387  34.228  30.114  1.00  0.00    -0.200 F 
ENDBRANCH  44  68
BRANCH  56  79
ATOM     79  C   UNL A   1      43.109  34.524  33.216  1.00  0.00     0.064 A 
ATOM     80  C   UNL A   1      43.080  34.440  34.615  1.00  0.00     0.173 A 
ATOM     81  C   UNL A   1      43.492  35.741  32.633  1.00  0.00     0.173 A 
ATOM     82  F   UNL A   1      42.702  33.301  35.215  1.00  0.00    -0.203 F 
ATOM     83  C   UNL A   1      43.401  35.542  35.402  1.00  0.00     0.198 A 
ATOM     84  C   UNL A   1      43.833  36.834  33.424  1.00  0.00     0.198 A 
ATOM     85  F   UNL A   1      43.537  35.867  31.299  1.00  0.00    -0.203 F 
ATOM     86  F   UNL A   1      43.327  35.454  36.737  1.00  0.00    -0.200 F 
ATOM     87  C   UNL A   1      43.782  36.736  34.806  1.00  0.00     0.200 A 
ATOM     88  F   UNL A   1      44.206  37.985  32.848  1.00  0.00    -0.200 F 
ATOM     89  F   UNL A   1      44.090  37.796  35.566  1.00  0.00    -0.200 F 
ENDBRANCH  56  79
ENDBRANCH  30  31
ENDBRANCH  23  25
ENDBRANCH  22  23
ENDBRANCH  21  22
ENDBRANCH   1  21
TORSDOF 16
ENDMDL
