MODEL 1
REMARK VINA RESULT:     -13.2      0.000      0.000
REMARK SMILES CC(C)c1ccc(-c2cnc([C@@H]3[NH2+][C@H](C(=O)OCCOC(=O)c4ccc(-c5c6nc(c(-c7c(F)c(F)c(F)c(F)c7F)c7ccc([nH]7)c(-c7c(F)c(F)c(F)c(F)c7F)c7nc(c(-c8c(F)c(F)c(F)c(F)c8F)c8ccc5[nH]8)C=C7)C=C6)cc4)C(C)(C)S3)s2)cc1
REMARK SMILES IDX 18 1 17 2 15 3 16 4 14 5 12 6 13 7 89 8 86 11 87 12 88 13
REMARK SMILES IDX 11 14 8 15 9 16 90 17 10 18 7 19 4 20 5 21 92 22 6 23 91 24
REMARK SMILES IDX 2 25 1 26 3 27 19 28 20 29 21 30 22 31 23 32 24 33 85 34
REMARK SMILES IDX 25 35 84 36 26 37 27 38 28 39 78 40 29 41 83 42 77 43 79 44
REMARK SMILES IDX 30 45 82 46 76 47 75 48 31 50 63 51 43 52 62 53 44 54 47 55
REMARK SMILES IDX 61 56 80 57 45 58 46 59 60 61 81 62 48 63 32 64 33 65 41 66
REMARK SMILES IDX 34 67 35 68 39 69 42 70 36 71 37 72 40 73 38 74 64 75 65 76
REMARK SMILES IDX 73 77 66 78 67 79 71 80 74 81 68 82 69 83 72 84 70 85 49 86
REMARK SMILES IDX 50 87 58 88 51 89 52 90 56 91 59 92 53 93 54 94 57 95 55 96
REMARK H PARENT 13 9 13 10 79 49 47 60
REMARK Flexibility Score: inf
ROOT
ATOM      1  C   UNL A   1      31.715  28.209  27.635  1.00  0.00     0.274 C 
ENDROOT
BRANCH   1   2
ATOM      2  O   UNL A   1      32.328  27.275  26.726  1.00  0.00    -0.458 OA
BRANCH   2   3
ATOM      3  C   UNL A   1      31.485  26.797  25.775  1.00  0.00     0.366 C 
ATOM      4  O   UNL A   1      30.953  25.689  25.843  1.00  0.00    -0.245 OA
BRANCH   3   5
ATOM      5  C   UNL A   1      31.263  27.737  24.561  1.00  0.00     0.310 C 
ATOM      6  C   UNL A   1      32.836  27.014  22.878  1.00  0.00     0.304 C 
ATOM      7  N   UNL A   1      32.590  28.038  23.908  1.00  0.00    -0.317 N 
ATOM      8  S   UNL A   1      31.217  26.787  22.061  1.00  0.00    -0.079 SA
ATOM      9  H   UNL A   1      32.562  28.962  23.479  1.00  0.00     0.348 HD
ATOM     10  H   UNL A   1      33.337  28.026  24.604  1.00  0.00     0.348 HD
ATOM     11  C   UNL A   1      30.220  27.464  23.446  1.00  0.00     0.079 C 
ATOM     12  C   UNL A   1      29.628  28.788  22.906  1.00  0.00     0.030 C 
ATOM     13  C   UNL A   1      29.020  26.580  23.809  1.00  0.00     0.030 C 
BRANCH   6  14
ATOM     14  C   UNL A   1      33.457  25.705  23.385  1.00  0.00     0.162 A 
ATOM     15  C   UNL A   1      33.921  23.331  23.900  1.00  0.00     0.055 A 
ATOM     16  C   UNL A   1      34.562  24.275  24.676  1.00  0.00     0.132 A 
ATOM     17  S   UNL A   1      33.116  24.179  22.623  1.00  0.00    -0.112 S 
ATOM     18  N   UNL A   1      34.271  25.598  24.415  1.00  0.00    -0.242 NA
BRANCH  15  19
ATOM     19  C   UNL A   1      33.854  21.869  24.127  1.00  0.00    -0.007 A 
ATOM     20  C   UNL A   1      33.864  19.023  24.582  1.00  0.00    -0.045 A 
ATOM     21  C   UNL A   1      32.738  19.697  24.069  1.00  0.00     0.004 A 
ATOM     22  C   UNL A   1      34.981  19.810  24.879  1.00  0.00     0.004 A 
ATOM     23  C   UNL A   1      32.728  21.092  23.856  1.00  0.00     0.010 A 
ATOM     24  C   UNL A   1      34.975  21.199  24.655  1.00  0.00     0.010 A 
BRANCH  20  25
ATOM     25  C   UNL A   1      33.879  17.495  24.691  1.00  0.00     0.013 C 
ATOM     26  C   UNL A   1      32.665  16.861  25.395  1.00  0.00     0.012 C 
ATOM     27  C   UNL A   1      34.054  16.782  23.342  1.00  0.00     0.012 C 
ENDBRANCH  20  25
ENDBRANCH  15  19
ENDBRANCH   6  14
ENDBRANCH   3   5
ENDBRANCH   2   3
ENDBRANCH   1   2
BRANCH   1  28
ATOM     28  C   UNL A   1      31.752  29.631  27.061  1.00  0.00     0.275 C 
BRANCH  28  29
ATOM     29  O   UNL A   1      33.106  30.005  26.726  1.00  0.00    -0.458 OA
BRANCH  29  30
ATOM     30  C   UNL A   1      33.549  31.202  27.176  1.00  0.00     0.338 C 
ATOM     31  O   UNL A   1      32.950  32.266  27.177  1.00  0.00    -0.246 OA
BRANCH  30  32
ATOM     32  C   UNL A   1      34.847  31.000  27.851  1.00  0.00     0.060 A 
ATOM     33  C   UNL A   1      35.070  29.745  28.405  1.00  0.00     0.016 A 
ATOM     34  C   UNL A   1      35.816  31.989  27.992  1.00  0.00     0.016 A 
ATOM     35  C   UNL A   1      36.265  29.432  29.051  1.00  0.00     0.010 A 
ATOM     36  C   UNL A   1      37.020  31.686  28.661  1.00  0.00     0.010 A 
ATOM     37  C   UNL A   1      37.257  30.400  29.185  1.00  0.00    -0.014 A 
BRANCH  37  38
ATOM     38  C   UNL A   1      38.492  30.073  29.947  1.00  0.00     0.031 A 
ATOM     39  C   UNL A   1      39.529  29.201  29.327  1.00  0.00     0.074 A 
ATOM     40  C   UNL A   1      38.771  30.644  31.133  1.00  0.00     0.049 A 
ATOM     41  N   UNL A   1      40.577  28.651  29.879  1.00  0.00    -0.248 NA
ATOM     42  C   UNL A   1      39.387  28.952  27.888  1.00  0.00     0.031 C 
ATOM     43  C   UNL A   1      37.988  31.709  31.724  1.00  0.00     0.029 A 
ATOM     44  N   UNL A   1      39.778  30.436  32.043  1.00  0.00    -0.354 N 
ATOM     45  C   UNL A   1      41.215  27.968  28.858  1.00  0.00     0.074 A 
ATOM     46  C   UNL A   1      40.442  28.186  27.652  1.00  0.00     0.031 C 
ATOM     47  C   UNL A   1      38.508  32.056  32.910  1.00  0.00     0.029 A 
ATOM     48  C   UNL A   1      39.624  31.165  33.200  1.00  0.00     0.049 A 
ATOM     49  H   UNL A   1      40.535  29.827  31.883  1.00  0.00     0.167 HD
ATOM     50  C   UNL A   1      42.335  27.213  28.938  1.00  0.00     0.037 A 
ATOM     51  C   UNL A   1      40.261  31.074  34.383  1.00  0.00     0.037 A 
ATOM     52  C   UNL A   1      43.075  26.994  30.154  1.00  0.00     0.049 A 
ATOM     53  C   UNL A   1      41.341  30.037  34.528  1.00  0.00     0.074 A 
ATOM     54  C   UNL A   1      44.165  26.171  30.368  1.00  0.00     0.029 A 
ATOM     55  N   UNL A   1      42.794  27.606  31.370  1.00  0.00    -0.354 N 
ATOM     56  N   UNL A   1      41.865  29.265  33.608  1.00  0.00    -0.248 NA
ATOM     57  C   UNL A   1      41.895  29.833  35.873  1.00  0.00     0.031 C 
ATOM     58  C   UNL A   1      44.505  26.238  31.724  1.00  0.00     0.029 A 
ATOM     59  C   UNL A   1      43.664  27.149  32.347  1.00  0.00     0.049 A 
ATOM     60  H   UNL A   1      42.079  28.268  31.516  1.00  0.00     0.167 HD
ATOM     61  C   UNL A   1      42.830  28.506  34.251  1.00  0.00     0.074 A 
ATOM     62  C   UNL A   1      42.822  28.914  35.643  1.00  0.00     0.031 C 
ATOM     63  C   UNL A   1      43.650  27.561  33.730  1.00  0.00     0.037 A 
BRANCH  50  64
ATOM     64  C   UNL A   1      42.735  26.484  27.693  1.00  0.00     0.064 A 
ATOM     65  C   UNL A   1      42.208  25.229  27.358  1.00  0.00     0.173 A 
ATOM     66  C   UNL A   1      43.713  27.035  26.852  1.00  0.00     0.173 A 
ATOM     67  F   UNL A   1      41.293  24.648  28.148  1.00  0.00    -0.203 F 
ATOM     68  C   UNL A   1      42.675  24.535  26.245  1.00  0.00     0.198 A 
ATOM     69  C   UNL A   1      44.155  26.351  25.724  1.00  0.00     0.198 A 
ATOM     70  F   UNL A   1      44.253  28.231  27.133  1.00  0.00    -0.203 F 
ATOM     71  F   UNL A   1      42.210  23.305  25.982  1.00  0.00    -0.200 F 
ATOM     72  C   UNL A   1      43.646  25.096  25.429  1.00  0.00     0.200 A 
ATOM     73  F   UNL A   1      45.090  26.899  24.935  1.00  0.00    -0.200 F 
ATOM     74  F   UNL A   1      44.105  24.420  24.367  1.00  0.00    -0.200 F 
ENDBRANCH  50  64
BRANCH  51  75
ATOM     75  C   UNL A   1      39.842  31.912  35.539  1.00  0.00     0.064 A 
ATOM     76  C   UNL A   1      38.766  31.540  36.356  1.00  0.00     0.173 A 
ATOM     77  C   UNL A   1      40.493  33.121  35.836  1.00  0.00     0.173 A 
ATOM     78  F   UNL A   1      38.085  30.416  36.095  1.00  0.00    -0.203 F 
ATOM     79  C   UNL A   1      38.357  32.345  37.419  1.00  0.00     0.198 A 
ATOM     80  C   UNL A   1      40.104  33.907  36.917  1.00  0.00     0.198 A 
ATOM     81  F   UNL A   1      41.510  33.539  35.070  1.00  0.00    -0.203 F 
ATOM     82  F   UNL A   1      37.297  31.988  38.158  1.00  0.00    -0.200 F 
ATOM     83  C   UNL A   1      39.031  33.523  37.705  1.00  0.00     0.200 A 
ATOM     84  F   UNL A   1      40.763  35.041  37.195  1.00  0.00    -0.200 F 
ATOM     85  F   UNL A   1      38.641  34.293  38.730  1.00  0.00    -0.200 F 
ENDBRANCH  51  75
BRANCH  63  86
ATOM     86  C   UNL A   1      44.641  26.926  34.659  1.00  0.00     0.064 A 
ATOM     87  C   UNL A   1      45.884  27.517  34.926  1.00  0.00     0.173 A 
ATOM     88  C   UNL A   1      44.322  25.732  35.323  1.00  0.00     0.173 A 
ATOM     89  F   UNL A   1      46.244  28.647  34.299  1.00  0.00    -0.203 F 
ATOM     90  C   UNL A   1      46.779  26.927  35.814  1.00  0.00     0.198 A 
ATOM     91  C   UNL A   1      45.207  25.161  36.233  1.00  0.00     0.198 A 
ATOM     92  F   UNL A   1      43.147  25.126  35.101  1.00  0.00    -0.203 F 
ATOM     93  F   UNL A   1      47.979  27.486  36.024  1.00  0.00    -0.200 F 
ATOM     94  C   UNL A   1      46.436  25.756  36.474  1.00  0.00     0.200 A 
ATOM     95  F   UNL A   1      44.869  24.035  36.878  1.00  0.00    -0.200 F 
ATOM     96  F   UNL A   1      47.294  25.197  37.339  1.00  0.00    -0.200 F 
ENDBRANCH  63  86
ENDBRANCH  37  38
ENDBRANCH  30  32
ENDBRANCH  29  30
ENDBRANCH  28  29
ENDBRANCH   1  28
TORSDOF 14
ENDMDL
MODEL 2
REMARK VINA RESULT:     -12.5      0.431      2.000
REMARK SMILES CC(C)c1ccc(-c2cnc([C@@H]3[NH2+][C@H](C(=O)OCCOC(=O)c4ccc(-c5c6nc(c(-c7c(F)c(F)c(F)c(F)c7F)c7ccc([nH]7)c(-c7c(F)c(F)c(F)c(F)c7F)c7nc(c(-c8c(F)c(F)c(F)c(F)c8F)c8ccc5[nH]8)C=C7)C=C6)cc4)C(C)(C)S3)s2)cc1
REMARK SMILES IDX 18 1 17 2 15 3 16 4 14 5 12 6 13 7 89 8 86 11 87 12 88 13
REMARK SMILES IDX 11 14 8 15 9 16 90 17 10 18 7 19 4 20 5 21 92 22 6 23 91 24
REMARK SMILES IDX 2 25 1 26 3 27 19 28 20 29 21 30 22 31 23 32 24 33 85 34
REMARK SMILES IDX 25 35 84 36 26 37 27 38 28 39 78 40 29 41 83 42 77 43 79 44
REMARK SMILES IDX 30 45 82 46 76 47 75 48 31 50 63 51 43 52 62 53 44 54 47 55
REMARK SMILES IDX 61 56 80 57 45 58 46 59 60 61 81 62 48 63 32 64 33 65 41 66
REMARK SMILES IDX 34 67 35 68 39 69 42 70 36 71 37 72 40 73 38 74 64 75 65 76
REMARK SMILES IDX 73 77 66 78 67 79 71 80 74 81 68 82 69 83 72 84 70 85 49 86
REMARK SMILES IDX 50 87 58 88 51 89 52 90 56 91 59 92 53 93 54 94 57 95 55 96
REMARK H PARENT 13 9 13 10 79 49 47 60
REMARK Flexibility Score: inf
ROOT
ATOM      1  C   UNL A   1      31.442  28.311  27.251  1.00  0.00     0.274 C 
ENDROOT
BRANCH   1   2
ATOM      2  O   UNL A   1      31.466  26.880  27.080  1.00  0.00    -0.458 OA
BRANCH   2   3
ATOM      3  C   UNL A   1      31.100  26.467  25.840  1.00  0.00     0.366 C 
ATOM      4  O   UNL A   1      30.893  25.286  25.559  1.00  0.00    -0.245 OA
BRANCH   3   5
ATOM      5  C   UNL A   1      30.994  27.591  24.777  1.00  0.00     0.310 C 
ATOM      6  C   UNL A   1      32.663  27.076  23.111  1.00  0.00     0.304 C 
ATOM      7  N   UNL A   1      32.373  27.937  24.271  1.00  0.00    -0.317 N 
ATOM      8  S   UNL A   1      31.102  27.043  22.161  1.00  0.00    -0.079 SA
ATOM      9  H   UNL A   1      32.402  28.916  23.990  1.00  0.00     0.348 HD
ATOM     10  H   UNL A   1      33.066  27.788  25.005  1.00  0.00     0.348 HD
ATOM     11  C   UNL A   1      30.027  27.536  23.565  1.00  0.00     0.079 C 
ATOM     12  C   UNL A   1      29.514  28.951  23.202  1.00  0.00     0.030 C 
ATOM     13  C   UNL A   1      28.779  26.655  23.703  1.00  0.00     0.030 C 
BRANCH   6  14
ATOM     14  C   UNL A   1      33.208  25.681  23.447  1.00  0.00     0.162 A 
ATOM     15  C   UNL A   1      33.500  23.240  23.723  1.00  0.00     0.055 A 
ATOM     16  C   UNL A   1      34.296  24.057  24.501  1.00  0.00     0.132 A 
ATOM     17  S   UNL A   1      32.657  24.260  22.607  1.00  0.00    -0.112 S 
ATOM     18  N   UNL A   1      34.103  25.417  24.375  1.00  0.00    -0.242 NA
BRANCH  15  19
ATOM     19  C   UNL A   1      33.322  21.774  23.840  1.00  0.00    -0.007 A 
ATOM     20  C   UNL A   1      33.103  18.915  24.127  1.00  0.00    -0.045 A 
ATOM     21  C   UNL A   1      32.229  19.656  23.307  1.00  0.00     0.004 A 
ATOM     22  C   UNL A   1      34.079  19.642  24.816  1.00  0.00     0.004 A 
ATOM     23  C   UNL A   1      32.328  21.058  23.173  1.00  0.00     0.010 A 
ATOM     24  C   UNL A   1      34.186  21.037  24.673  1.00  0.00     0.010 A 
BRANCH  20  25
ATOM     25  C   UNL A   1      33.039  17.385  24.156  1.00  0.00     0.013 C 
ATOM     26  C   UNL A   1      34.156  16.652  23.392  1.00  0.00     0.012 C 
ATOM     27  C   UNL A   1      32.986  16.797  25.574  1.00  0.00     0.012 C 
ENDBRANCH  20  25
ENDBRANCH  15  19
ENDBRANCH   6  14
ENDBRANCH   3   5
ENDBRANCH   2   3
ENDBRANCH   1   2
BRANCH   1  28
ATOM     28  C   UNL A   1      32.828  28.836  27.646  1.00  0.00     0.275 C 
BRANCH  28  29
ATOM     29  O   UNL A   1      33.282  29.824  26.695  1.00  0.00    -0.458 OA
BRANCH  29  30
ATOM     30  C   UNL A   1      33.653  31.030  27.182  1.00  0.00     0.338 C 
ATOM     31  O   UNL A   1      32.999  32.062  27.195  1.00  0.00    -0.246 OA
BRANCH  30  32
ATOM     32  C   UNL A   1      34.946  30.879  27.881  1.00  0.00     0.060 A 
ATOM     33  C   UNL A   1      35.166  29.666  28.522  1.00  0.00     0.016 A 
ATOM     34  C   UNL A   1      35.911  31.878  27.961  1.00  0.00     0.016 A 
ATOM     35  C   UNL A   1      36.355  29.401  29.199  1.00  0.00     0.010 A 
ATOM     36  C   UNL A   1      37.110  31.624  28.659  1.00  0.00     0.010 A 
ATOM     37  C   UNL A   1      37.344  30.378  29.273  1.00  0.00    -0.014 A 
BRANCH  37  38
ATOM     38  C   UNL A   1      38.574  30.108  30.066  1.00  0.00     0.031 A 
ATOM     39  C   UNL A   1      39.653  29.263  29.484  1.00  0.00     0.074 A 
ATOM     40  C   UNL A   1      38.807  30.709  31.247  1.00  0.00     0.049 A 
ATOM     41  N   UNL A   1      40.708  28.758  30.067  1.00  0.00    -0.248 NA
ATOM     42  C   UNL A   1      39.551  28.984  28.047  1.00  0.00     0.031 C 
ATOM     43  C   UNL A   1      37.975  31.755  31.803  1.00  0.00     0.029 A 
ATOM     44  N   UNL A   1      39.801  30.551  32.182  1.00  0.00    -0.354 N 
ATOM     45  C   UNL A   1      41.390  28.081  29.072  1.00  0.00     0.074 A 
ATOM     46  C   UNL A   1      40.637  28.252  27.846  1.00  0.00     0.031 C 
ATOM     47  C   UNL A   1      38.458  32.141  32.993  1.00  0.00     0.029 A 
ATOM     48  C   UNL A   1      39.597  31.294  33.322  1.00  0.00     0.049 A 
ATOM     49  H   UNL A   1      40.582  29.966  32.049  1.00  0.00     0.167 HD
ATOM     50  C   UNL A   1      42.534  27.367  29.189  1.00  0.00     0.037 A 
ATOM     51  C   UNL A   1      40.212  31.246  34.519  1.00  0.00     0.037 A 
ATOM     52  C   UNL A   1      43.255  27.195  30.423  1.00  0.00     0.049 A 
ATOM     53  C   UNL A   1      41.323  30.250  34.706  1.00  0.00     0.074 A 
ATOM     54  C   UNL A   1      44.368  26.414  30.675  1.00  0.00     0.029 A 
ATOM     55  N   UNL A   1      42.927  27.817  31.622  1.00  0.00    -0.354 N 
ATOM     56  N   UNL A   1      41.894  29.481  33.811  1.00  0.00    -0.248 NA
ATOM     57  C   UNL A   1      41.855  30.088  36.066  1.00  0.00     0.031 C 
ATOM     58  C   UNL A   1      44.676  26.516  32.037  1.00  0.00     0.029 A 
ATOM     59  C   UNL A   1      43.792  27.407  32.625  1.00  0.00     0.049 A 
ATOM     60  H   UNL A   1      42.187  28.456  31.742  1.00  0.00     0.167 HD
ATOM     61  C   UNL A   1      42.870  28.767  34.487  1.00  0.00     0.074 A 
ATOM     62  C   UNL A   1      42.818  29.198  35.871  1.00  0.00     0.031 C 
ATOM     63  C   UNL A   1      43.733  27.842  34.000  1.00  0.00     0.037 A 
BRANCH  50  64
ATOM     64  C   UNL A   1      42.986  26.632  27.966  1.00  0.00     0.064 A 
ATOM     65  C   UNL A   1      43.876  27.195  27.041  1.00  0.00     0.173 A 
ATOM     66  C   UNL A   1      42.467  25.357  27.692  1.00  0.00     0.173 A 
ATOM     67  F   UNL A   1      44.375  28.423  27.244  1.00  0.00    -0.203 F 
ATOM     68  C   UNL A   1      44.198  26.524  25.864  1.00  0.00     0.198 A 
ATOM     69  C   UNL A   1      42.815  24.678  26.529  1.00  0.00     0.198 A 
ATOM     70  F   UNL A   1      41.606  24.778  28.543  1.00  0.00    -0.203 F 
ATOM     71  F   UNL A   1      44.994  27.109  24.957  1.00  0.00    -0.200 F 
ATOM     72  C   UNL A   1      43.670  25.266  25.610  1.00  0.00     0.200 A 
ATOM     73  F   UNL A   1      42.306  23.461  26.289  1.00  0.00    -0.200 F 
ATOM     74  F   UNL A   1      43.970  24.629  24.470  1.00  0.00    -0.200 F 
ENDBRANCH  50  64
BRANCH  51  75
ATOM     75  C   UNL A   1      39.739  32.088  35.652  1.00  0.00     0.064 A 
ATOM     76  C   UNL A   1      40.329  33.327  35.934  1.00  0.00     0.173 A 
ATOM     77  C   UNL A   1      38.701  31.658  36.495  1.00  0.00     0.173 A 
ATOM     78  F   UNL A   1      41.348  33.769  35.185  1.00  0.00    -0.203 F 
ATOM     79  C   UNL A   1      39.903  34.099  37.015  1.00  0.00     0.198 A 
ATOM     80  C   UNL A   1      38.255  32.443  37.555  1.00  0.00     0.198 A 
ATOM     81  F   UNL A   1      38.120  30.468  36.288  1.00  0.00    -0.203 F 
ATOM     82  F   UNL A   1      40.515  35.259  37.290  1.00  0.00    -0.200 F 
ATOM     83  C   UNL A   1      38.861  33.661  37.819  1.00  0.00     0.200 A 
ATOM     84  F   UNL A   1      37.243  32.021  38.325  1.00  0.00    -0.200 F 
ATOM     85  F   UNL A   1      38.449  34.405  38.855  1.00  0.00    -0.200 F 
ENDBRANCH  51  75
BRANCH  63  86
ATOM     86  C   UNL A   1      44.725  27.258  34.961  1.00  0.00     0.064 A 
ATOM     87  C   UNL A   1      44.473  26.059  35.642  1.00  0.00     0.173 A 
ATOM     88  C   UNL A   1      45.962  27.887  35.168  1.00  0.00     0.173 A 
ATOM     89  F   UNL A   1      43.296  25.432  35.495  1.00  0.00    -0.203 F 
ATOM     90  C   UNL A   1      45.419  25.517  36.508  1.00  0.00     0.198 A 
ATOM     91  C   UNL A   1      46.917  27.326  36.011  1.00  0.00     0.198 A 
ATOM     92  F   UNL A   1      46.251  29.036  34.541  1.00  0.00    -0.203 F 
ATOM     93  F   UNL A   1      45.142  24.392  37.182  1.00  0.00    -0.200 F 
ATOM     94  C   UNL A   1      46.644  26.146  36.685  1.00  0.00     0.200 A 
ATOM     95  F   UNL A   1      48.104  27.929  36.171  1.00  0.00    -0.200 F 
ATOM     96  F   UNL A   1      47.558  25.616  37.508  1.00  0.00    -0.200 F 
ENDBRANCH  63  86
ENDBRANCH  37  38
ENDBRANCH  30  32
ENDBRANCH  29  30
ENDBRANCH  28  29
ENDBRANCH   1  28
TORSDOF 14
ENDMDL
MODEL 3
REMARK VINA RESULT:     -12.2      1.620      2.799
REMARK SMILES CC(C)c1ccc(-c2cnc([C@@H]3[NH2+][C@H](C(=O)OCCOC(=O)c4ccc(-c5c6nc(c(-c7c(F)c(F)c(F)c(F)c7F)c7ccc([nH]7)c(-c7c(F)c(F)c(F)c(F)c7F)c7nc(c(-c8c(F)c(F)c(F)c(F)c8F)c8ccc5[nH]8)C=C7)C=C6)cc4)C(C)(C)S3)s2)cc1
REMARK SMILES IDX 18 1 17 2 15 3 16 4 14 5 12 6 13 7 89 8 86 11 87 12 88 13
REMARK SMILES IDX 11 14 8 15 9 16 90 17 10 18 7 19 4 20 5 21 92 22 6 23 91 24
REMARK SMILES IDX 2 25 1 26 3 27 19 28 20 29 21 30 22 31 23 32 24 33 85 34
REMARK SMILES IDX 25 35 84 36 26 37 27 38 28 39 78 40 29 41 83 42 77 43 79 44
REMARK SMILES IDX 30 45 82 46 76 47 75 48 31 50 63 51 43 52 62 53 44 54 47 55
REMARK SMILES IDX 61 56 80 57 45 58 46 59 60 61 81 62 48 63 32 64 33 65 41 66
REMARK SMILES IDX 34 67 35 68 39 69 42 70 36 71 37 72 40 73 38 74 64 75 65 76
REMARK SMILES IDX 73 77 66 78 67 79 71 80 74 81 68 82 69 83 72 84 70 85 49 86
REMARK SMILES IDX 50 87 58 88 51 89 52 90 56 91 59 92 53 93 54 94 57 95 55 96
REMARK H PARENT 13 9 13 10 79 49 47 60
REMARK Flexibility Score: inf
ROOT
ATOM      1  C   UNL A   1      32.389  28.352  27.382  1.00  0.00     0.274 C 
ENDROOT
BRANCH   1   2
ATOM      2  O   UNL A   1      31.840  27.258  26.621  1.00  0.00    -0.458 OA
BRANCH   2   3
ATOM      3  C   UNL A   1      32.432  27.076  25.413  1.00  0.00     0.366 C 
ATOM      4  O   UNL A   1      33.627  27.292  25.210  1.00  0.00    -0.245 OA
BRANCH   3   5
ATOM      5  C   UNL A   1      31.482  26.608  24.280  1.00  0.00     0.310 C 
ATOM      6  C   UNL A   1      32.394  24.520  23.481  1.00  0.00     0.304 C 
ATOM      7  N   UNL A   1      32.289  25.959  23.182  1.00  0.00    -0.317 N 
ATOM      8  S   UNL A   1      30.729  24.050  24.067  1.00  0.00    -0.079 SA
ATOM      9  H   UNL A   1      31.823  26.093  22.285  1.00  0.00     0.348 HD
ATOM     10  H   UNL A   1      33.218  26.379  23.131  1.00  0.00     0.348 HD
ATOM     11  C   UNL A   1      30.212  25.751  24.526  1.00  0.00     0.079 C 
ATOM     12  C   UNL A   1      29.095  26.117  23.519  1.00  0.00     0.030 C 
ATOM     13  C   UNL A   1      29.572  25.829  25.918  1.00  0.00     0.030 C 
BRANCH   6  14
ATOM     14  C   UNL A   1      33.520  24.130  24.448  1.00  0.00     0.162 A 
ATOM     15  C   UNL A   1      35.675  23.420  25.433  1.00  0.00     0.055 A 
ATOM     16  C   UNL A   1      34.556  23.307  26.232  1.00  0.00     0.132 A 
ATOM     17  S   UNL A   1      35.195  24.257  23.995  1.00  0.00    -0.112 S 
ATOM     18  N   UNL A   1      33.349  23.665  25.668  1.00  0.00    -0.242 NA
BRANCH  15  19
ATOM     19  C   UNL A   1      37.029  22.878  25.692  1.00  0.00    -0.007 A 
ATOM     20  C   UNL A   1      39.612  21.694  26.173  1.00  0.00    -0.045 A 
ATOM     21  C   UNL A   1      39.326  23.033  26.508  1.00  0.00     0.004 A 
ATOM     22  C   UNL A   1      38.579  20.966  25.574  1.00  0.00     0.004 A 
ATOM     23  C   UNL A   1      38.065  23.618  26.263  1.00  0.00     0.010 A 
ATOM     24  C   UNL A   1      37.319  21.545  25.342  1.00  0.00     0.010 A 
BRANCH  20  25
ATOM     25  C   UNL A   1      40.953  21.061  26.559  1.00  0.00     0.013 C 
ATOM     26  C   UNL A   1      41.319  21.124  28.053  1.00  0.00     0.012 C 
ATOM     27  C   UNL A   1      41.098  19.600  26.109  1.00  0.00     0.012 C 
ENDBRANCH  20  25
ENDBRANCH  15  19
ENDBRANCH   6  14
ENDBRANCH   3   5
ENDBRANCH   2   3
ENDBRANCH   1   2
BRANCH   1  28
ATOM     28  C   UNL A   1      32.079  29.694  26.708  1.00  0.00     0.275 C 
BRANCH  28  29
ATOM     29  O   UNL A   1      33.302  30.406  26.416  1.00  0.00    -0.458 OA
BRANCH  29  30
ATOM     30  C   UNL A   1      33.579  31.497  27.166  1.00  0.00     0.338 C 
ATOM     31  O   UNL A   1      32.858  32.461  27.375  1.00  0.00    -0.246 OA
BRANCH  30  32
ATOM     32  C   UNL A   1      34.860  31.274  27.866  1.00  0.00     0.060 A 
ATOM     33  C   UNL A   1      35.037  30.027  28.454  1.00  0.00     0.016 A 
ATOM     34  C   UNL A   1      35.856  32.237  27.997  1.00  0.00     0.016 A 
ATOM     35  C   UNL A   1      36.212  29.696  29.126  1.00  0.00     0.010 A 
ATOM     36  C   UNL A   1      37.040  31.915  28.691  1.00  0.00     0.010 A 
ATOM     37  C   UNL A   1      37.231  30.637  29.251  1.00  0.00    -0.014 A 
BRANCH  37  38
ATOM     38  C   UNL A   1      38.444  30.293  30.039  1.00  0.00     0.031 A 
ATOM     39  C   UNL A   1      39.504  29.445  29.426  1.00  0.00     0.074 A 
ATOM     40  C   UNL A   1      38.684  30.829  31.250  1.00  0.00     0.049 A 
ATOM     41  N   UNL A   1      40.539  28.883  29.992  1.00  0.00    -0.248 NA
ATOM     42  C   UNL A   1      39.408  29.239  27.976  1.00  0.00     0.031 C 
ATOM     43  C   UNL A   1      37.878  31.872  31.849  1.00  0.00     0.029 A 
ATOM     44  N   UNL A   1      39.665  30.598  32.183  1.00  0.00    -0.354 N 
ATOM     45  C   UNL A   1      41.211  28.235  28.970  1.00  0.00     0.074 A 
ATOM     46  C   UNL A   1      40.474  28.486  27.748  1.00  0.00     0.031 C 
ATOM     47  C   UNL A   1      38.360  32.185  33.060  1.00  0.00     0.029 A 
ATOM     48  C   UNL A   1      39.472  31.291  33.357  1.00  0.00     0.049 A 
ATOM     49  H   UNL A   1      40.429  29.997  32.028  1.00  0.00     0.167 HD
ATOM     50  C   UNL A   1      42.332  27.482  29.062  1.00  0.00     0.037 A 
ATOM     51  C   UNL A   1      40.074  31.167  34.555  1.00  0.00     0.037 A 
ATOM     52  C   UNL A   1      43.036  27.231  30.292  1.00  0.00     0.049 A 
ATOM     53  C   UNL A   1      41.154  30.131  34.702  1.00  0.00     0.074 A 
ATOM     54  C   UNL A   1      44.124  26.407  30.514  1.00  0.00     0.029 A 
ATOM     55  N   UNL A   1      42.715  27.803  31.517  1.00  0.00    -0.354 N 
ATOM     56  N   UNL A   1      41.711  29.389  33.775  1.00  0.00    -0.248 NA
ATOM     57  C   UNL A   1      41.668  29.889  36.056  1.00  0.00     0.031 C 
ATOM     58  C   UNL A   1      44.422  26.434  31.881  1.00  0.00     0.029 A 
ATOM     59  C   UNL A   1      43.559  27.321  32.505  1.00  0.00     0.049 A 
ATOM     60  H   UNL A   1      41.993  28.458  31.662  1.00  0.00     0.167 HD
ATOM     61  C   UNL A   1      42.660  28.616  34.424  1.00  0.00     0.074 A 
ATOM     62  C   UNL A   1      42.607  28.981  35.826  1.00  0.00     0.031 C 
ATOM     63  C   UNL A   1      43.500  27.691  33.899  1.00  0.00     0.037 A 
BRANCH  50  64
ATOM     64  C   UNL A   1      42.774  26.794  27.808  1.00  0.00     0.064 A 
ATOM     65  C   UNL A   1      42.388  25.482  27.499  1.00  0.00     0.173 A 
ATOM     66  C   UNL A   1      43.649  27.449  26.929  1.00  0.00     0.173 A 
ATOM     67  F   UNL A   1      41.577  24.804  28.324  1.00  0.00    -0.203 F 
ATOM     68  C   UNL A   1      42.897  24.837  26.375  1.00  0.00     0.198 A 
ATOM     69  C   UNL A   1      44.131  26.811  25.791  1.00  0.00     0.198 A 
ATOM     70  F   UNL A   1      44.053  28.703  27.184  1.00  0.00    -0.203 F 
ATOM     71  F   UNL A   1      42.574  23.558  26.135  1.00  0.00    -0.200 F 
ATOM     72  C   UNL A   1      43.766  25.501  25.521  1.00  0.00     0.200 A 
ATOM     73  F   UNL A   1      44.967  27.458  24.967  1.00  0.00    -0.200 F 
ATOM     74  F   UNL A   1      44.266  24.873  24.449  1.00  0.00    -0.200 F 
ENDBRANCH  50  64
BRANCH  51  75
ATOM     75  C   UNL A   1      39.615  31.967  35.723  1.00  0.00     0.064 A 
ATOM     76  C   UNL A   1      40.234  33.176  36.066  1.00  0.00     0.173 A 
ATOM     77  C   UNL A   1      38.561  31.524  36.540  1.00  0.00     0.173 A 
ATOM     78  F   UNL A   1      41.269  33.627  35.344  1.00  0.00    -0.203 F 
ATOM     79  C   UNL A   1      39.821  33.907  37.180  1.00  0.00     0.198 A 
ATOM     80  C   UNL A   1      38.129  32.271  37.633  1.00  0.00     0.198 A 
ATOM     81  F   UNL A   1      37.952  30.361  36.275  1.00  0.00    -0.203 F 
ATOM     82  F   UNL A   1      40.459  35.038  37.512  1.00  0.00    -0.200 F 
ATOM     83  C   UNL A   1      38.763  33.459  37.957  1.00  0.00     0.200 A 
ATOM     84  F   UNL A   1      37.102  31.838  38.377  1.00  0.00    -0.200 F 
ATOM     85  F   UNL A   1      38.363  34.164  39.025  1.00  0.00    -0.200 F 
ENDBRANCH  51  75
BRANCH  63  86
ATOM     86  C   UNL A   1      44.466  27.032  34.838  1.00  0.00     0.064 A 
ATOM     87  C   UNL A   1      44.183  25.798  35.441  1.00  0.00     0.173 A 
ATOM     88  C   UNL A   1      45.709  27.626  35.103  1.00  0.00     0.173 A 
ATOM     89  F   UNL A   1      42.999  25.201  35.236  1.00  0.00    -0.203 F 
ATOM     90  C   UNL A   1      45.106  25.189  36.287  1.00  0.00     0.198 A 
ATOM     91  C   UNL A   1      46.641  26.999  35.926  1.00  0.00     0.198 A 
ATOM     92  F   UNL A   1      46.027  28.807  34.553  1.00  0.00    -0.203 F 
ATOM     93  F   UNL A   1      44.799  24.030  36.885  1.00  0.00    -0.200 F 
ATOM     94  C   UNL A   1      46.337  25.785  36.521  1.00  0.00     0.200 A 
ATOM     95  F   UNL A   1      47.834  27.571  36.142  1.00  0.00    -0.200 F 
ATOM     96  F   UNL A   1      47.228  25.190  37.325  1.00  0.00    -0.200 F 
ENDBRANCH  63  86
ENDBRANCH  37  38
ENDBRANCH  30  32
ENDBRANCH  29  30
ENDBRANCH  28  29
ENDBRANCH   1  28
TORSDOF 14
ENDMDL
