MODEL 1
REMARK VINA RESULT:     -11.8      0.000      0.000
REMARK SMILES Cc1nsc(N[C@H](C)c2cccc(Br)c2)c1C(=O)OCCOC(=O)c1ccc(-c2c3nc(c(-c4c(F)c(F)c(F)c(F)c4F)c4ccc([nH]4)c(-c4c(F)c(F)c(F)c(F)c4F)c4nc(c(-c5c(F)c(F)c(F)c(F)c5F)c5ccc2[nH]5)C=C4)C=C3)cc1
REMARK SMILES IDX 20 1 19 2 17 3 18 4 16 5 1 6 2 7 3 8 4 9 5 10 6 11 7 13 8 14
REMARK SMILES IDX 9 15 10 16 15 17 11 18 13 19 12 20 14 21 21 22 22 23 23 24
REMARK SMILES IDX 24 25 25 26 26 27 87 28 27 29 86 30 28 31 29 32 30 33 80 34
REMARK SMILES IDX 31 35 85 36 79 37 81 38 32 39 84 40 78 41 77 42 33 44 65 45
REMARK SMILES IDX 45 46 64 47 46 48 49 49 63 50 82 51 47 52 48 53 62 55 83 56
REMARK SMILES IDX 50 57 34 58 35 59 43 60 36 61 37 62 41 63 44 64 38 65 39 66
REMARK SMILES IDX 42 67 40 68 66 69 67 70 75 71 68 72 69 73 73 74 76 75 70 76
REMARK SMILES IDX 71 77 74 78 72 79 51 80 52 81 60 82 53 83 54 84 58 85 61 86
REMARK SMILES IDX 55 87 56 88 59 89 57 90
REMARK H PARENT 6 12 81 43 49 54
REMARK Flexibility Score: inf
ROOT
ATOM      1  C   UNL A   1      33.381  33.878  28.192  1.00  0.00     0.275 C 
ENDROOT
BRANCH   1   2
ATOM      2  O   UNL A   1      33.265  34.078  29.611  1.00  0.00    -0.458 OA
BRANCH   2   3
ATOM      3  C   UNL A   1      33.582  35.313  30.102  1.00  0.00     0.343 C 
ATOM      4  O   UNL A   1      33.446  36.352  29.463  1.00  0.00    -0.246 OA
BRANCH   3   5
ATOM      5  C   UNL A   1      33.980  35.276  31.508  1.00  0.00     0.117 A 
ATOM      6  C   UNL A   1      33.382  37.735  32.226  1.00  0.00     0.069 C 
ATOM      7  C   UNL A   1      33.964  36.379  32.444  1.00  0.00     0.068 A 
ATOM      8  N   UNL A   1      34.540  36.151  33.623  1.00  0.00    -0.195 NA
ATOM      9  S   UNL A   1      35.166  34.630  33.620  1.00  0.00    -0.018 S 
ATOM     10  C   UNL A   1      34.499  34.128  32.118  1.00  0.00     0.124 A 
BRANCH  10  11
ATOM     11  N   UNL A   1      34.450  32.855  31.615  1.00  0.00    -0.368 N 
ATOM     12  H   UNL A   1      33.549  32.478  31.493  1.00  0.00     0.162 HD
BRANCH  11  13
ATOM     13  C   UNL A   1      35.561  31.981  31.238  1.00  0.00     0.107 C 
ATOM     14  C   UNL A   1      35.975  31.203  32.501  1.00  0.00     0.036 C 
BRANCH  13  15
ATOM     15  C   UNL A   1      36.810  32.607  30.639  1.00  0.00    -0.025 A 
ATOM     16  C   UNL A   1      36.795  33.610  29.662  1.00  0.00     0.006 A 
ATOM     17  C   UNL A   1      38.062  32.201  31.149  1.00  0.00     0.021 A 
ATOM     18  C   UNL A   1      37.990  34.107  29.128  1.00  0.00     0.002 A 
ATOM     19  C   UNL A   1      39.248  32.740  30.653  1.00  0.00     0.018 A 
ATOM     20  C   UNL A   1      39.219  33.672  29.622  1.00  0.00     0.016 A 
ATOM     21  Br  UNL A   1      40.903  32.208  31.399  1.00  0.00    -0.051 Br
ENDBRANCH  13  15
ENDBRANCH  11  13
ENDBRANCH  10  11
ENDBRANCH   3   5
ENDBRANCH   2   3
ENDBRANCH   1   2
BRANCH   1  22
ATOM     22  C   UNL A   1      33.442  32.387  27.865  1.00  0.00     0.275 C 
BRANCH  22  23
ATOM     23  O   UNL A   1      34.786  31.933  27.657  1.00  0.00    -0.458 OA
BRANCH  23  24
ATOM     24  C   UNL A   1      34.924  30.590  27.567  1.00  0.00     0.338 C 
ATOM     25  O   UNL A   1      34.093  29.790  27.182  1.00  0.00    -0.246 OA
BRANCH  24  26
ATOM     26  C   UNL A   1      36.218  30.181  28.129  1.00  0.00     0.060 A 
ATOM     27  C   UNL A   1      37.374  30.453  27.393  1.00  0.00     0.016 A 
ATOM     28  C   UNL A   1      36.261  29.377  29.275  1.00  0.00     0.016 A 
ATOM     29  C   UNL A   1      38.567  29.853  27.765  1.00  0.00     0.010 A 
ATOM     30  C   UNL A   1      37.456  28.785  29.649  1.00  0.00     0.010 A 
ATOM     31  C   UNL A   1      38.595  28.982  28.863  1.00  0.00    -0.014 A 
BRANCH  31  32
ATOM     32  C   UNL A   1      39.865  28.338  29.197  1.00  0.00     0.031 A 
ATOM     33  C   UNL A   1      40.213  28.325  30.643  1.00  0.00     0.074 A 
ATOM     34  C   UNL A   1      40.621  27.683  28.293  1.00  0.00     0.049 A 
ATOM     35  N   UNL A   1      41.316  28.703  31.204  1.00  0.00    -0.248 NA
ATOM     36  C   UNL A   1      39.178  27.881  31.592  1.00  0.00     0.031 C 
ATOM     37  C   UNL A   1      40.269  27.387  26.900  1.00  0.00     0.029 A 
ATOM     38  N   UNL A   1      41.824  27.047  28.454  1.00  0.00    -0.354 N 
ATOM     39  C   UNL A   1      41.178  28.400  32.556  1.00  0.00     0.074 A 
ATOM     40  C   UNL A   1      39.812  27.994  32.758  1.00  0.00     0.031 C 
ATOM     41  C   UNL A   1      41.118  26.459  26.414  1.00  0.00     0.029 A 
ATOM     42  C   UNL A   1      42.150  26.200  27.405  1.00  0.00     0.049 A 
ATOM     43  H   UNL A   1      42.403  27.178  29.240  1.00  0.00     0.167 HD
ATOM     44  C   UNL A   1      42.258  28.286  33.372  1.00  0.00     0.037 A 
ATOM     45  C   UNL A   1      43.165  25.308  27.343  1.00  0.00     0.037 A 
ATOM     46  C   UNL A   1      43.426  28.916  32.826  1.00  0.00     0.049 A 
ATOM     47  C   UNL A   1      44.215  25.696  28.309  1.00  0.00     0.074 A 
ATOM     48  C   UNL A   1      43.942  30.190  32.766  1.00  0.00     0.029 A 
ATOM     49  N   UNL A   1      44.136  28.146  31.949  1.00  0.00    -0.354 N 
ATOM     50  N   UNL A   1      44.953  26.763  28.187  1.00  0.00    -0.248 NA
ATOM     51  C   UNL A   1      44.301  25.022  29.602  1.00  0.00     0.031 C 
ATOM     52  C   UNL A   1      44.889  30.195  31.700  1.00  0.00     0.029 A 
ATOM     53  C   UNL A   1      44.915  28.924  31.132  1.00  0.00     0.049 A 
ATOM     54  H   UNL A   1      44.094  27.163  31.908  1.00  0.00     0.167 HD
ATOM     55  C   UNL A   1      45.253  27.117  29.487  1.00  0.00     0.074 A 
ATOM     56  C   UNL A   1      45.002  25.929  30.286  1.00  0.00     0.031 C 
ATOM     57  C   UNL A   1      45.339  28.427  29.847  1.00  0.00     0.037 A 
BRANCH  44  58
ATOM     58  C   UNL A   1      42.380  27.243  34.457  1.00  0.00     0.064 A 
ATOM     59  C   UNL A   1      42.847  25.954  34.133  1.00  0.00     0.173 A 
ATOM     60  C   UNL A   1      41.749  27.368  35.714  1.00  0.00     0.173 A 
ATOM     61  F   UNL A   1      43.433  25.716  32.950  1.00  0.00    -0.203 F 
ATOM     62  C   UNL A   1      42.649  24.863  34.985  1.00  0.00     0.198 A 
ATOM     63  C   UNL A   1      41.599  26.289  36.582  1.00  0.00     0.198 A 
ATOM     64  F   UNL A   1      41.156  28.507  36.096  1.00  0.00    -0.203 F 
ATOM     65  F   UNL A   1      43.012  23.635  34.592  1.00  0.00    -0.200 F 
ATOM     66  C   UNL A   1      42.023  25.031  36.207  1.00  0.00     0.200 A 
ATOM     67  F   UNL A   1      40.966  26.465  37.751  1.00  0.00    -0.200 F 
ATOM     68  F   UNL A   1      41.784  23.979  37.001  1.00  0.00    -0.200 F 
ENDBRANCH  44  58
BRANCH  45  69
ATOM     69  C   UNL A   1      43.215  24.046  26.574  1.00  0.00     0.064 A 
ATOM     70  C   UNL A   1      43.931  23.943  25.374  1.00  0.00     0.173 A 
ATOM     71  C   UNL A   1      42.740  22.843  27.132  1.00  0.00     0.173 A 
ATOM     72  F   UNL A   1      44.457  25.036  24.803  1.00  0.00    -0.203 F 
ATOM     73  C   UNL A   1      44.167  22.703  24.770  1.00  0.00     0.198 A 
ATOM     74  C   UNL A   1      42.963  21.610  26.523  1.00  0.00     0.198 A 
ATOM     75  F   UNL A   1      42.121  22.835  28.322  1.00  0.00    -0.203 F 
ATOM     76  F   UNL A   1      44.902  22.635  23.651  1.00  0.00    -0.200 F 
ATOM     77  C   UNL A   1      43.688  21.539  25.348  1.00  0.00     0.200 A 
ATOM     78  F   UNL A   1      42.522  20.488  27.111  1.00  0.00    -0.200 F 
ATOM     79  F   UNL A   1      43.955  20.347  24.796  1.00  0.00    -0.200 F 
ENDBRANCH  45  69
BRANCH  57  80
ATOM     80  C   UNL A   1      45.665  29.404  28.765  1.00  0.00     0.064 A 
ATOM     81  C   UNL A   1      46.972  29.682  28.336  1.00  0.00     0.173 A 
ATOM     82  C   UNL A   1      44.611  30.061  28.119  1.00  0.00     0.173 A 
ATOM     83  F   UNL A   1      48.019  29.029  28.857  1.00  0.00    -0.203 F 
ATOM     84  C   UNL A   1      47.213  30.626  27.341  1.00  0.00     0.198 A 
ATOM     85  C   UNL A   1      44.853  30.977  27.101  1.00  0.00     0.198 A 
ATOM     86  F   UNL A   1      43.341  29.794  28.462  1.00  0.00    -0.203 F 
ATOM     87  F   UNL A   1      48.471  30.904  26.969  1.00  0.00    -0.200 F 
ATOM     88  C   UNL A   1      46.154  31.271  26.724  1.00  0.00     0.200 A 
ATOM     89  F   UNL A   1      43.825  31.570  26.480  1.00  0.00    -0.200 F 
ATOM     90  F   UNL A   1      46.385  32.166  25.752  1.00  0.00    -0.200 F 
ENDBRANCH  57  80
ENDBRANCH  31  32
ENDBRANCH  24  26
ENDBRANCH  23  24
ENDBRANCH  22  23
ENDBRANCH   1  22
TORSDOF 14
ENDMDL
MODEL 2
REMARK VINA RESULT:     -11.7      3.598      5.393
REMARK SMILES Cc1nsc(N[C@H](C)c2cccc(Br)c2)c1C(=O)OCCOC(=O)c1ccc(-c2c3nc(c(-c4c(F)c(F)c(F)c(F)c4F)c4ccc([nH]4)c(-c4c(F)c(F)c(F)c(F)c4F)c4nc(c(-c5c(F)c(F)c(F)c(F)c5F)c5ccc2[nH]5)C=C4)C=C3)cc1
REMARK SMILES IDX 20 1 19 2 17 3 18 4 16 5 1 6 2 7 3 8 4 9 5 10 6 11 7 13 8 14
REMARK SMILES IDX 9 15 10 16 15 17 11 18 13 19 12 20 14 21 21 22 22 23 23 24
REMARK SMILES IDX 24 25 25 26 26 27 87 28 27 29 86 30 28 31 29 32 30 33 80 34
REMARK SMILES IDX 31 35 85 36 79 37 81 38 32 39 84 40 78 41 77 42 33 44 65 45
REMARK SMILES IDX 45 46 64 47 46 48 49 49 63 50 82 51 47 52 48 53 62 55 83 56
REMARK SMILES IDX 50 57 34 58 35 59 43 60 36 61 37 62 41 63 44 64 38 65 39 66
REMARK SMILES IDX 42 67 40 68 66 69 67 70 75 71 68 72 69 73 73 74 76 75 70 76
REMARK SMILES IDX 71 77 74 78 72 79 51 80 52 81 60 82 53 83 54 84 58 85 61 86
REMARK SMILES IDX 55 87 56 88 59 89 57 90
REMARK H PARENT 6 12 81 43 49 54
REMARK Flexibility Score: inf
ROOT
ATOM      1  C   UNL A   1      33.732  29.844  26.448  1.00  0.00     0.275 C 
ENDROOT
BRANCH   1   2
ATOM      2  O   UNL A   1      32.337  29.804  26.107  1.00  0.00    -0.458 OA
BRANCH   2   3
ATOM      3  C   UNL A   1      31.754  28.575  25.978  1.00  0.00     0.343 C 
ATOM      4  O   UNL A   1      31.377  27.899  26.931  1.00  0.00    -0.246 OA
BRANCH   3   5
ATOM      5  C   UNL A   1      31.513  28.208  24.584  1.00  0.00     0.117 A 
ATOM      6  C   UNL A   1      29.910  30.164  23.857  1.00  0.00     0.069 C 
ATOM      7  C   UNL A   1      30.629  28.872  23.652  1.00  0.00     0.068 A 
ATOM      8  N   UNL A   1      30.436  28.252  22.489  1.00  0.00    -0.195 NA
ATOM      9  S   UNL A   1      31.263  26.830  22.504  1.00  0.00    -0.018 S 
ATOM     10  C   UNL A   1      32.097  27.085  23.985  1.00  0.00     0.124 A 
BRANCH  10  11
ATOM     11  N   UNL A   1      33.147  26.360  24.481  1.00  0.00    -0.368 N 
ATOM     12  H   UNL A   1      33.955  26.876  24.705  1.00  0.00     0.162 HD
BRANCH  11  13
ATOM     13  C   UNL A   1      33.226  24.919  24.721  1.00  0.00     0.107 C 
ATOM     14  C   UNL A   1      32.851  24.683  26.196  1.00  0.00     0.036 C 
BRANCH  13  15
ATOM     15  C   UNL A   1      34.541  24.206  24.449  1.00  0.00    -0.025 A 
ATOM     16  C   UNL A   1      34.822  23.497  23.274  1.00  0.00     0.006 A 
ATOM     17  C   UNL A   1      35.568  24.323  25.410  1.00  0.00     0.021 A 
ATOM     18  C   UNL A   1      36.043  22.830  23.115  1.00  0.00     0.002 A 
ATOM     19  C   UNL A   1      36.802  23.703  25.222  1.00  0.00     0.018 A 
ATOM     20  C   UNL A   1      37.035  22.931  24.089  1.00  0.00     0.016 A 
ATOM     21  Br  UNL A   1      38.169  23.929  26.509  1.00  0.00    -0.051 Br
ENDBRANCH  13  15
ENDBRANCH  11  13
ENDBRANCH  10  11
ENDBRANCH   3   5
ENDBRANCH   2   3
ENDBRANCH   1   2
BRANCH   1  22
ATOM     22  C   UNL A   1      34.002  30.951  27.466  1.00  0.00     0.275 C 
BRANCH  22  23
ATOM     23  O   UNL A   1      35.404  31.156  27.685  1.00  0.00    -0.458 OA
BRANCH  23  24
ATOM     24  C   UNL A   1      35.731  31.564  28.933  1.00  0.00     0.338 C 
ATOM     25  O   UNL A   1      35.265  32.508  29.542  1.00  0.00    -0.246 OA
BRANCH  24  26
ATOM     26  C   UNL A   1      36.852  30.765  29.445  1.00  0.00     0.060 A 
ATOM     27  C   UNL A   1      38.129  31.331  29.426  1.00  0.00     0.016 A 
ATOM     28  C   UNL A   1      36.663  29.415  29.762  1.00  0.00     0.016 A 
ATOM     29  C   UNL A   1      39.230  30.520  29.651  1.00  0.00     0.010 A 
ATOM     30  C   UNL A   1      37.763  28.607  29.995  1.00  0.00     0.010 A 
ATOM     31  C   UNL A   1      39.047  29.150  29.887  1.00  0.00    -0.014 A 
BRANCH  31  32
ATOM     32  C   UNL A   1      40.237  28.321  30.079  1.00  0.00     0.031 A 
ATOM     33  C   UNL A   1      40.751  28.258  31.474  1.00  0.00     0.074 A 
ATOM     34  C   UNL A   1      40.771  27.557  29.105  1.00  0.00     0.049 A 
ATOM     35  N   UNL A   1      41.959  28.466  31.891  1.00  0.00    -0.248 NA
ATOM     36  C   UNL A   1      39.785  27.978  32.548  1.00  0.00     0.031 C 
ATOM     37  C   UNL A   1      40.212  27.315  27.771  1.00  0.00     0.029 A 
ATOM     38  N   UNL A   1      41.875  26.746  29.134  1.00  0.00    -0.354 N 
ATOM     39  C   UNL A   1      41.942  28.190  33.255  1.00  0.00     0.074 A 
ATOM     40  C   UNL A   1      40.565  27.996  33.627  1.00  0.00     0.031 C 
ATOM     41  C   UNL A   1      40.847  26.269  27.206  1.00  0.00     0.029 A 
ATOM     42  C   UNL A   1      41.940  25.858  28.071  1.00  0.00     0.049 A 
ATOM     43  H   UNL A   1      42.558  26.790  29.842  1.00  0.00     0.167 HD
ATOM     44  C   UNL A   1      43.084  27.915  33.938  1.00  0.00     0.037 A 
ATOM     45  C   UNL A   1      42.794  24.822  27.906  1.00  0.00     0.037 A 
ATOM     46  C   UNL A   1      44.258  28.359  33.244  1.00  0.00     0.049 A 
ATOM     47  C   UNL A   1      44.000  25.049  28.732  1.00  0.00     0.074 A 
ATOM     48  C   UNL A   1      44.948  29.541  33.097  1.00  0.00     0.029 A 
ATOM     49  N   UNL A   1      44.733  27.489  32.304  1.00  0.00    -0.354 N 
ATOM     50  N   UNL A   1      44.870  25.991  28.501  1.00  0.00    -0.248 NA
ATOM     51  C   UNL A   1      44.140  24.372  30.018  1.00  0.00     0.031 C 
ATOM     52  C   UNL A   1      45.749  29.399  31.925  1.00  0.00     0.029 A 
ATOM     53  C   UNL A   1      45.515  28.138  31.385  1.00  0.00     0.049 A 
ATOM     54  H   UNL A   1      44.539  26.524  32.288  1.00  0.00     0.167 HD
ATOM     55  C   UNL A   1      45.375  26.298  29.748  1.00  0.00     0.074 A 
ATOM     56  C   UNL A   1      45.047  25.163  30.595  1.00  0.00     0.031 C 
ATOM     57  C   UNL A   1      45.700  27.580  30.068  1.00  0.00     0.037 A 
BRANCH  44  58
ATOM     58  C   UNL A   1      43.178  26.868  35.022  1.00  0.00     0.064 A 
ATOM     59  C   UNL A   1      43.404  27.263  36.355  1.00  0.00     0.173 A 
ATOM     60  C   UNL A   1      43.381  25.497  34.747  1.00  0.00     0.173 A 
ATOM     61  F   UNL A   1      43.272  28.548  36.718  1.00  0.00    -0.203 F 
ATOM     62  C   UNL A   1      43.852  26.361  37.325  1.00  0.00     0.198 A 
ATOM     63  C   UNL A   1      43.778  24.592  35.729  1.00  0.00     0.198 A 
ATOM     64  F   UNL A   1      43.315  25.010  33.501  1.00  0.00    -0.203 F 
ATOM     65  F   UNL A   1      44.160  26.801  38.553  1.00  0.00    -0.200 F 
ATOM     66  C   UNL A   1      44.041  25.028  37.011  1.00  0.00     0.200 A 
ATOM     67  F   UNL A   1      43.981  23.308  35.399  1.00  0.00    -0.200 F 
ATOM     68  F   UNL A   1      44.520  24.173  37.924  1.00  0.00    -0.200 F 
ENDBRANCH  44  58
BRANCH  45  69
ATOM     69  C   UNL A   1      42.560  23.566  27.162  1.00  0.00     0.064 A 
ATOM     70  C   UNL A   1      43.357  23.197  26.070  1.00  0.00     0.173 A 
ATOM     71  C   UNL A   1      41.682  22.585  27.664  1.00  0.00     0.173 A 
ATOM     72  F   UNL A   1      44.252  24.057  25.564  1.00  0.00    -0.203 F 
ATOM     73  C   UNL A   1      43.285  21.915  25.514  1.00  0.00     0.198 A 
ATOM     74  C   UNL A   1      41.601  21.313  27.101  1.00  0.00     0.198 A 
ATOM     75  F   UNL A   1      40.946  22.818  28.760  1.00  0.00    -0.203 F 
ATOM     76  F   UNL A   1      44.099  21.579  24.505  1.00  0.00    -0.200 F 
ATOM     77  C   UNL A   1      42.411  20.974  26.034  1.00  0.00     0.200 A 
ATOM     78  F   UNL A   1      40.774  20.401  27.635  1.00  0.00    -0.200 F 
ATOM     79  F   UNL A   1      42.377  19.731  25.533  1.00  0.00    -0.200 F 
ENDBRANCH  45  69
BRANCH  57  80
ATOM     80  C   UNL A   1      46.035  28.494  28.935  1.00  0.00     0.064 A 
ATOM     81  C   UNL A   1      47.316  28.595  28.370  1.00  0.00     0.173 A 
ATOM     82  C   UNL A   1      45.014  29.275  28.383  1.00  0.00     0.173 A 
ATOM     83  F   UNL A   1      48.319  27.817  28.799  1.00  0.00    -0.203 F 
ATOM     84  C   UNL A   1      47.572  29.488  27.333  1.00  0.00     0.198 A 
ATOM     85  C   UNL A   1      45.265  30.141  27.324  1.00  0.00     0.198 A 
ATOM     86  F   UNL A   1      43.762  29.180  28.859  1.00  0.00    -0.203 F 
ATOM     87  F   UNL A   1      48.811  29.596  26.830  1.00  0.00    -0.200 F 
ATOM     88  C   UNL A   1      46.547  30.259  26.810  1.00  0.00     0.200 A 
ATOM     89  F   UNL A   1      44.263  30.856  26.795  1.00  0.00    -0.200 F 
ATOM     90  F   UNL A   1      46.789  31.106  25.799  1.00  0.00    -0.200 F 
ENDBRANCH  57  80
ENDBRANCH  31  32
ENDBRANCH  24  26
ENDBRANCH  23  24
ENDBRANCH  22  23
ENDBRANCH   1  22
TORSDOF 14
ENDMDL
MODEL 3
REMARK VINA RESULT:     -11.7      4.669      9.976
REMARK SMILES Cc1nsc(N[C@H](C)c2cccc(Br)c2)c1C(=O)OCCOC(=O)c1ccc(-c2c3nc(c(-c4c(F)c(F)c(F)c(F)c4F)c4ccc([nH]4)c(-c4c(F)c(F)c(F)c(F)c4F)c4nc(c(-c5c(F)c(F)c(F)c(F)c5F)c5ccc2[nH]5)C=C4)C=C3)cc1
REMARK SMILES IDX 20 1 19 2 17 3 18 4 16 5 1 6 2 7 3 8 4 9 5 10 6 11 7 13 8 14
REMARK SMILES IDX 9 15 10 16 15 17 11 18 13 19 12 20 14 21 21 22 22 23 23 24
REMARK SMILES IDX 24 25 25 26 26 27 87 28 27 29 86 30 28 31 29 32 30 33 80 34
REMARK SMILES IDX 31 35 85 36 79 37 81 38 32 39 84 40 78 41 77 42 33 44 65 45
REMARK SMILES IDX 45 46 64 47 46 48 49 49 63 50 82 51 47 52 48 53 62 55 83 56
REMARK SMILES IDX 50 57 34 58 35 59 43 60 36 61 37 62 41 63 44 64 38 65 39 66
REMARK SMILES IDX 42 67 40 68 66 69 67 70 75 71 68 72 69 73 73 74 76 75 70 76
REMARK SMILES IDX 71 77 74 78 72 79 51 80 52 81 60 82 53 83 54 84 58 85 61 86
REMARK SMILES IDX 55 87 56 88 59 89 57 90
REMARK H PARENT 6 12 81 43 49 54
REMARK Flexibility Score: inf
ROOT
ATOM      1  C   UNL A   1      36.009  21.754  24.696  1.00  0.00     0.275 C 
ENDROOT
BRANCH   1   2
ATOM      2  O   UNL A   1      35.312  22.989  24.458  1.00  0.00    -0.458 OA
BRANCH   2   3
ATOM      3  C   UNL A   1      34.109  22.920  23.813  1.00  0.00     0.343 C 
ATOM      4  O   UNL A   1      33.995  22.892  22.591  1.00  0.00    -0.246 OA
BRANCH   3   5
ATOM      5  C   UNL A   1      32.985  22.758  24.733  1.00  0.00     0.117 A 
ATOM      6  C   UNL A   1      32.535  20.179  24.468  1.00  0.00     0.069 C 
ATOM      7  C   UNL A   1      32.227  21.549  24.973  1.00  0.00     0.068 A 
ATOM      8  N   UNL A   1      31.134  21.687  25.721  1.00  0.00    -0.195 NA
ATOM      9  S   UNL A   1      30.953  23.275  26.108  1.00  0.00    -0.018 S 
ATOM     10  C   UNL A   1      32.456  23.820  25.476  1.00  0.00     0.124 A 
BRANCH  10  11
ATOM     11  N   UNL A   1      33.047  25.039  25.676  1.00  0.00    -0.368 N 
ATOM     12  H   UNL A   1      33.775  25.057  26.338  1.00  0.00     0.162 HD
BRANCH  11  13
ATOM     13  C   UNL A   1      32.738  26.317  25.035  1.00  0.00     0.107 C 
ATOM     14  C   UNL A   1      33.698  26.471  23.841  1.00  0.00     0.036 C 
BRANCH  13  15
ATOM     15  C   UNL A   1      32.813  27.587  25.867  1.00  0.00    -0.025 A 
ATOM     16  C   UNL A   1      31.696  28.324  26.279  1.00  0.00     0.006 A 
ATOM     17  C   UNL A   1      34.084  28.011  26.312  1.00  0.00     0.021 A 
ATOM     18  C   UNL A   1      31.851  29.509  27.010  1.00  0.00     0.002 A 
ATOM     19  C   UNL A   1      34.227  29.162  27.086  1.00  0.00     0.018 A 
ATOM     20  C   UNL A   1      33.117  29.930  27.414  1.00  0.00     0.016 A 
ATOM     21  Br  UNL A   1      35.942  29.667  27.704  1.00  0.00    -0.051 Br
ENDBRANCH  13  15
ENDBRANCH  11  13
ENDBRANCH  10  11
ENDBRANCH   3   5
ENDBRANCH   2   3
ENDBRANCH   1   2
BRANCH   1  22
ATOM     22  C   UNL A   1      37.515  21.996  24.769  1.00  0.00     0.275 C 
BRANCH  22  23
ATOM     23  O   UNL A   1      37.989  22.071  26.120  1.00  0.00    -0.458 OA
BRANCH  23  24
ATOM     24  C   UNL A   1      39.329  22.200  26.247  1.00  0.00     0.338 C 
ATOM     25  O   UNL A   1      40.182  21.439  25.831  1.00  0.00    -0.246 OA
BRANCH  24  26
ATOM     26  C   UNL A   1      39.645  23.362  27.089  1.00  0.00     0.060 A 
ATOM     27  C   UNL A   1      38.821  24.486  26.998  1.00  0.00     0.016 A 
ATOM     28  C   UNL A   1      40.843  23.397  27.813  1.00  0.00     0.016 A 
ATOM     29  C   UNL A   1      39.239  25.676  27.573  1.00  0.00     0.010 A 
ATOM     30  C   UNL A   1      41.254  24.584  28.393  1.00  0.00     0.010 A 
ATOM     31  C   UNL A   1      40.478  25.735  28.228  1.00  0.00    -0.014 A 
BRANCH  31  32
ATOM     32  C   UNL A   1      40.900  27.019  28.785  1.00  0.00     0.031 A 
ATOM     33  C   UNL A   1      42.191  27.546  28.265  1.00  0.00     0.074 A 
ATOM     34  C   UNL A   1      40.132  27.754  29.615  1.00  0.00     0.049 A 
ATOM     35  N   UNL A   1      43.214  27.965  28.939  1.00  0.00    -0.248 NA
ATOM     36  C   UNL A   1      42.386  27.562  26.806  1.00  0.00     0.031 C 
ATOM     37  C   UNL A   1      38.739  27.486  29.991  1.00  0.00     0.029 A 
ATOM     38  N   UNL A   1      40.394  28.956  30.217  1.00  0.00    -0.354 N 
ATOM     39  C   UNL A   1      44.119  28.442  27.996  1.00  0.00     0.074 A 
ATOM     40  C   UNL A   1      43.609  28.078  26.701  1.00  0.00     0.031 C 
ATOM     41  C   UNL A   1      38.216  28.586  30.569  1.00  0.00     0.029 A 
ATOM     42  C   UNL A   1      39.266  29.579  30.727  1.00  0.00     0.049 A 
ATOM     43  H   UNL A   1      41.298  29.341  30.281  1.00  0.00     0.167 HD
ATOM     44  C   UNL A   1      45.112  29.305  28.339  1.00  0.00     0.037 A 
ATOM     45  C   UNL A   1      39.161  30.837  31.216  1.00  0.00     0.037 A 
ATOM     46  C   UNL A   1      45.377  29.303  29.749  1.00  0.00     0.049 A 
ATOM     47  C   UNL A   1      40.498  31.310  31.634  1.00  0.00     0.074 A 
ATOM     48  C   UNL A   1      46.105  28.536  30.630  1.00  0.00     0.029 A 
ATOM     49  N   UNL A   1      44.561  30.111  30.487  1.00  0.00    -0.354 N 
ATOM     50  N   UNL A   1      41.158  30.818  32.644  1.00  0.00    -0.248 NA
ATOM     51  C   UNL A   1      41.263  32.196  30.761  1.00  0.00     0.031 C 
ATOM     52  C   UNL A   1      45.579  28.803  31.929  1.00  0.00     0.029 A 
ATOM     53  C   UNL A   1      44.537  29.717  31.800  1.00  0.00     0.049 A 
ATOM     54  H   UNL A   1      44.055  30.875  30.126  1.00  0.00     0.167 HD
ATOM     55  C   UNL A   1      42.483  30.988  32.298  1.00  0.00     0.074 A 
ATOM     56  C   UNL A   1      42.489  31.996  31.251  1.00  0.00     0.031 C 
ATOM     57  C   UNL A   1      43.414  30.057  32.639  1.00  0.00     0.037 A 
BRANCH  44  58
ATOM     58  C   UNL A   1      45.550  30.462  27.473  1.00  0.00     0.064 A 
ATOM     59  C   UNL A   1      46.922  30.676  27.240  1.00  0.00     0.173 A 
ATOM     60  C   UNL A   1      44.697  31.539  27.146  1.00  0.00     0.173 A 
ATOM     61  F   UNL A   1      47.824  29.731  27.546  1.00  0.00    -0.203 F 
ATOM     62  C   UNL A   1      47.407  31.899  26.765  1.00  0.00     0.198 A 
ATOM     63  C   UNL A   1      45.179  32.738  26.624  1.00  0.00     0.198 A 
ATOM     64  F   UNL A   1      43.388  31.513  27.426  1.00  0.00    -0.203 F 
ATOM     65  F   UNL A   1      48.727  32.099  26.661  1.00  0.00    -0.200 F 
ATOM     66  C   UNL A   1      46.535  32.929  26.460  1.00  0.00     0.200 A 
ATOM     67  F   UNL A   1      44.321  33.734  26.359  1.00  0.00    -0.200 F 
ATOM     68  F   UNL A   1      47.000  34.118  26.055  1.00  0.00    -0.200 F 
ENDBRANCH  44  58
BRANCH  45  69
ATOM     69  C   UNL A   1      37.969  31.711  31.217  1.00  0.00     0.064 A 
ATOM     70  C   UNL A   1      37.479  32.290  30.038  1.00  0.00     0.173 A 
ATOM     71  C   UNL A   1      37.147  31.807  32.357  1.00  0.00     0.173 A 
ATOM     72  F   UNL A   1      38.179  32.200  28.899  1.00  0.00    -0.203 F 
ATOM     73  C   UNL A   1      36.232  32.924  30.000  1.00  0.00     0.198 A 
ATOM     74  C   UNL A   1      35.911  32.451  32.322  1.00  0.00     0.198 A 
ATOM     75  F   UNL A   1      37.492  31.207  33.505  1.00  0.00    -0.203 F 
ATOM     76  F   UNL A   1      35.771  33.420  28.844  1.00  0.00    -0.200 F 
ATOM     77  C   UNL A   1      35.449  32.999  31.140  1.00  0.00     0.200 A 
ATOM     78  F   UNL A   1      35.149  32.487  33.425  1.00  0.00    -0.200 F 
ATOM     79  F   UNL A   1      34.234  33.563  31.093  1.00  0.00    -0.200 F 
ENDBRANCH  45  69
BRANCH  57  80
ATOM     80  C   UNL A   1      43.107  29.196  33.820  1.00  0.00     0.064 A 
ATOM     81  C   UNL A   1      42.332  28.028  33.750  1.00  0.00     0.173 A 
ATOM     82  C   UNL A   1      43.641  29.553  35.063  1.00  0.00     0.173 A 
ATOM     83  F   UNL A   1      41.858  27.587  32.578  1.00  0.00    -0.203 F 
ATOM     84  C   UNL A   1      42.056  27.283  34.894  1.00  0.00     0.198 A 
ATOM     85  C   UNL A   1      43.393  28.788  36.198  1.00  0.00     0.198 A 
ATOM     86  F   UNL A   1      44.426  30.637  35.172  1.00  0.00    -0.203 F 
ATOM     87  F   UNL A   1      41.284  26.189  34.814  1.00  0.00    -0.200 F 
ATOM     88  C   UNL A   1      42.588  27.663  36.116  1.00  0.00     0.200 A 
ATOM     89  F   UNL A   1      43.940  29.136  37.370  1.00  0.00    -0.200 F 
ATOM     90  F   UNL A   1      42.338  26.935  37.215  1.00  0.00    -0.200 F 
ENDBRANCH  57  80
ENDBRANCH  31  32
ENDBRANCH  24  26
ENDBRANCH  23  24
ENDBRANCH  22  23
ENDBRANCH   1  22
TORSDOF 14
ENDMDL
