MODEL 1
REMARK VINA RESULT:     -11.7      0.000      0.000
REMARK SMILES C[NH2+][C@](C)(C(=O)OCCOC(=O)c1ccc(-c2c3nc(c(-c4c(F)c(F)c(F)c(F)c4F)c4ccc([nH]4)c(-c4c(F)c(F)c(F)c(F)c4F)c4nc(c(-c5c(F)c(F)c(F)c(F)c5F)c5ccc2[nH]5)C=C4)C=C3)cc1)c1cccc(Cl)c1
REMARK SMILES IDX 9 1 8 2 7 3 5 4 6 5 3 6 4 7 2 8 1 9 76 12 77 13 82 14 78 15
REMARK SMILES IDX 80 16 79 17 81 18 10 19 11 20 12 21 13 22 14 23 75 24 15 25
REMARK SMILES IDX 74 26 16 27 17 28 18 29 68 30 19 31 73 32 67 33 69 34 20 35
REMARK SMILES IDX 72 36 66 37 65 38 21 40 53 41 33 42 52 43 34 44 37 45 51 46
REMARK SMILES IDX 70 47 35 48 36 49 50 51 71 52 38 53 22 54 23 55 31 56 24 57
REMARK SMILES IDX 25 58 29 59 32 60 26 61 27 62 30 63 28 64 54 65 55 66 63 67
REMARK SMILES IDX 56 68 57 69 61 70 64 71 58 72 59 73 62 74 60 75 39 76 40 77
REMARK SMILES IDX 48 78 41 79 42 80 46 81 49 82 43 83 44 84 47 85 45 86
REMARK H PARENT 2 10 2 11 69 39 37 50
REMARK Flexibility Score: inf
ROOT
ATOM      1  C   UNL A   1      31.772  29.893  25.843  1.00  0.00     0.275 C 
ENDROOT
BRANCH   1   2
ATOM      2  C   UNL A   1      31.674  28.387  26.067  1.00  0.00     0.274 C 
BRANCH   2   3
ATOM      3  O   UNL A   1      32.428  27.667  25.072  1.00  0.00    -0.457 OA
BRANCH   3   4
ATOM      4  C   UNL A   1      31.716  26.926  24.167  1.00  0.00     0.372 C 
ATOM      5  O   UNL A   1      31.272  25.813  24.428  1.00  0.00    -0.244 OA
BRANCH   4   6
ATOM      6  C   UNL A   1      31.644  27.642  22.749  1.00  0.00     0.216 C 
ATOM      7  C   UNL A   1      32.883  28.558  22.571  1.00  0.00     0.098 C 
BRANCH   6   8
ATOM      8  N   UNL A   1      31.623  26.609  21.668  1.00  0.00    -0.331 N 
ATOM      9  C   UNL A   1      32.892  25.950  21.401  1.00  0.00     0.332 C 
ATOM     10  H   UNL A   1      30.947  25.893  21.932  1.00  0.00     0.347 HD
ATOM     11  H   UNL A   1      31.383  27.108  20.812  1.00  0.00     0.347 HD
ENDBRANCH   6   8
BRANCH   6  12
ATOM     12  C   UNL A   1      30.319  28.452  22.584  1.00  0.00     0.025 A 
ATOM     13  C   UNL A   1      30.324  29.728  21.977  1.00  0.00     0.011 A 
ATOM     14  C   UNL A   1      29.085  28.006  23.099  1.00  0.00     0.031 A 
ATOM     15  C   UNL A   1      29.153  30.479  21.820  1.00  0.00     0.002 A 
ATOM     16  C   UNL A   1      27.921  28.773  22.966  1.00  0.00     0.041 A 
ATOM     17  C   UNL A   1      27.946  29.999  22.313  1.00  0.00     0.020 A 
ATOM     18  Cl  UNL A   1      26.441  28.196  23.635  1.00  0.00    -0.084 Cl
ENDBRANCH   6  12
ENDBRANCH   4   6
ENDBRANCH   3   4
ENDBRANCH   2   3
ENDBRANCH   1   2
BRANCH   1  19
ATOM     19  O   UNL A   1      33.133  30.328  26.002  1.00  0.00    -0.458 OA
BRANCH  19  20
ATOM     20  C   UNL A   1      33.348  31.244  26.970  1.00  0.00     0.338 C 
ATOM     21  O   UNL A   1      32.595  32.124  27.357  1.00  0.00    -0.246 OA
BRANCH  20  22
ATOM     22  C   UNL A   1      34.664  30.996  27.566  1.00  0.00     0.060 A 
ATOM     23  C   UNL A   1      35.002  29.690  27.921  1.00  0.00     0.016 A 
ATOM     24  C   UNL A   1      35.517  32.056  27.867  1.00  0.00     0.016 A 
ATOM     25  C   UNL A   1      36.179  29.438  28.616  1.00  0.00     0.010 A 
ATOM     26  C   UNL A   1      36.724  31.794  28.521  1.00  0.00     0.010 A 
ATOM     27  C   UNL A   1      37.055  30.485  28.921  1.00  0.00    -0.014 A 
BRANCH  27  28
ATOM     28  C   UNL A   1      38.277  30.238  29.727  1.00  0.00     0.031 A 
ATOM     29  C   UNL A   1      39.375  29.393  29.151  1.00  0.00     0.074 A 
ATOM     30  C   UNL A   1      38.423  30.770  30.955  1.00  0.00     0.049 A 
ATOM     31  N   UNL A   1      40.387  28.822  29.751  1.00  0.00    -0.248 NA
ATOM     32  C   UNL A   1      39.320  29.154  27.700  1.00  0.00     0.031 C 
ATOM     33  C   UNL A   1      37.489  31.693  31.597  1.00  0.00     0.029 A 
ATOM     34  N   UNL A   1      39.421  30.603  31.885  1.00  0.00    -0.354 N 
ATOM     35  C   UNL A   1      41.047  28.101  28.767  1.00  0.00     0.074 A 
ATOM     36  C   UNL A   1      40.340  28.326  27.525  1.00  0.00     0.031 C 
ATOM     37  C   UNL A   1      37.966  32.027  32.808  1.00  0.00     0.029 A 
ATOM     38  C   UNL A   1      39.189  31.271  33.062  1.00  0.00     0.049 A 
ATOM     39  H   UNL A   1      40.223  30.058  31.722  1.00  0.00     0.167 HD
ATOM     40  C   UNL A   1      42.136  27.306  28.900  1.00  0.00     0.037 A 
ATOM     41  C   UNL A   1      39.857  31.233  34.231  1.00  0.00     0.037 A 
ATOM     42  C   UNL A   1      42.863  27.134  30.130  1.00  0.00     0.049 A 
ATOM     43  C   UNL A   1      41.040  30.315  34.371  1.00  0.00     0.074 A 
ATOM     44  C   UNL A   1      43.955  26.323  30.384  1.00  0.00     0.029 A 
ATOM     45  N   UNL A   1      42.581  27.808  31.308  1.00  0.00    -0.354 N 
ATOM     46  N   UNL A   1      41.589  29.532  33.475  1.00  0.00    -0.248 NA
ATOM     47  C   UNL A   1      41.677  30.248  35.696  1.00  0.00     0.031 C 
ATOM     48  C   UNL A   1      44.323  26.495  31.723  1.00  0.00     0.029 A 
ATOM     49  C   UNL A   1      43.480  27.435  32.292  1.00  0.00     0.049 A 
ATOM     50  H   UNL A   1      41.850  28.458  31.426  1.00  0.00     0.167 HD
ATOM     51  C   UNL A   1      42.633  28.884  34.121  1.00  0.00     0.074 A 
ATOM     52  C   UNL A   1      42.654  29.378  35.482  1.00  0.00     0.031 C 
ATOM     53  C   UNL A   1      43.489  27.953  33.635  1.00  0.00     0.037 A 
BRANCH  40  54
ATOM     54  C   UNL A   1      42.569  26.521  27.701  1.00  0.00     0.064 A 
ATOM     55  C   UNL A   1      43.562  26.985  26.828  1.00  0.00     0.173 A 
ATOM     56  C   UNL A   1      41.992  25.269  27.440  1.00  0.00     0.173 A 
ATOM     57  F   UNL A   1      44.129  28.184  27.026  1.00  0.00    -0.203 F 
ATOM     58  C   UNL A   1      43.949  26.230  25.724  1.00  0.00     0.198 A 
ATOM     59  C   UNL A   1      42.398  24.507  26.348  1.00  0.00     0.198 A 
ATOM     60  F   UNL A   1      41.039  24.782  28.248  1.00  0.00    -0.203 F 
ATOM     61  F   UNL A   1      44.873  26.707  24.878  1.00  0.00    -0.200 F 
ATOM     62  C   UNL A   1      43.371  24.990  25.488  1.00  0.00     0.200 A 
ATOM     63  F   UNL A   1      41.844  23.306  26.129  1.00  0.00    -0.200 F 
ATOM     64  F   UNL A   1      43.749  24.263  24.427  1.00  0.00    -0.200 F 
ENDBRANCH  40  54
BRANCH  41  65
ATOM     65  C   UNL A   1      39.383  32.047  35.380  1.00  0.00     0.064 A 
ATOM     66  C   UNL A   1      38.509  31.506  36.333  1.00  0.00     0.173 A 
ATOM     67  C   UNL A   1      39.795  33.377  35.552  1.00  0.00     0.173 A 
ATOM     68  F   UNL A   1      38.063  30.249  36.195  1.00  0.00    -0.203 F 
ATOM     69  C   UNL A   1      38.064  32.266  37.414  1.00  0.00     0.198 A 
ATOM     70  C   UNL A   1      39.373  34.126  36.647  1.00  0.00     0.198 A 
ATOM     71  F   UNL A   1      40.625  33.943  34.663  1.00  0.00    -0.203 F 
ATOM     72  F   UNL A   1      37.203  31.737  38.293  1.00  0.00    -0.200 F 
ATOM     73  C   UNL A   1      38.504  33.573  37.574  1.00  0.00     0.200 A 
ATOM     74  F   UNL A   1      39.808  35.383  36.804  1.00  0.00    -0.200 F 
ATOM     75  F   UNL A   1      38.084  34.299  38.619  1.00  0.00    -0.200 F 
ENDBRANCH  41  65
BRANCH  53  76
ATOM     76  C   UNL A   1      44.538  27.429  34.567  1.00  0.00     0.064 A 
ATOM     77  C   UNL A   1      45.766  28.086  34.722  1.00  0.00     0.173 A 
ATOM     78  C   UNL A   1      44.286  26.299  35.356  1.00  0.00     0.173 A 
ATOM     79  F   UNL A   1      46.055  29.163  33.976  1.00  0.00    -0.203 F 
ATOM     80  C   UNL A   1      46.710  27.624  35.634  1.00  0.00     0.198 A 
ATOM     81  C   UNL A   1      45.225  25.850  36.280  1.00  0.00     0.198 A 
ATOM     82  F   UNL A   1      43.122  25.641  35.243  1.00  0.00    -0.203 F 
ATOM     83  F   UNL A   1      47.888  28.252  35.754  1.00  0.00    -0.200 F 
ATOM     84  C   UNL A   1      46.436  26.512  36.417  1.00  0.00     0.200 A 
ATOM     85  F   UNL A   1      44.956  24.780  37.040  1.00  0.00    -0.200 F 
ATOM     86  F   UNL A   1      47.343  26.074  37.302  1.00  0.00    -0.200 F 
ENDBRANCH  53  76
ENDBRANCH  27  28
ENDBRANCH  20  22
ENDBRANCH  19  20
ENDBRANCH   1  19
TORSDOF 13
ENDMDL
MODEL 2
REMARK VINA RESULT:     -11.6      3.840      5.680
REMARK SMILES C[NH2+][C@](C)(C(=O)OCCOC(=O)c1ccc(-c2c3nc(c(-c4c(F)c(F)c(F)c(F)c4F)c4ccc([nH]4)c(-c4c(F)c(F)c(F)c(F)c4F)c4nc(c(-c5c(F)c(F)c(F)c(F)c5F)c5ccc2[nH]5)C=C4)C=C3)cc1)c1cccc(Cl)c1
REMARK SMILES IDX 9 1 8 2 7 3 5 4 6 5 3 6 4 7 2 8 1 9 76 12 77 13 82 14 78 15
REMARK SMILES IDX 80 16 79 17 81 18 10 19 11 20 12 21 13 22 14 23 75 24 15 25
REMARK SMILES IDX 74 26 16 27 17 28 18 29 68 30 19 31 73 32 67 33 69 34 20 35
REMARK SMILES IDX 72 36 66 37 65 38 21 40 53 41 33 42 52 43 34 44 37 45 51 46
REMARK SMILES IDX 70 47 35 48 36 49 50 51 71 52 38 53 22 54 23 55 31 56 24 57
REMARK SMILES IDX 25 58 29 59 32 60 26 61 27 62 30 63 28 64 54 65 55 66 63 67
REMARK SMILES IDX 56 68 57 69 61 70 64 71 58 72 59 73 62 74 60 75 39 76 40 77
REMARK SMILES IDX 48 78 41 79 42 80 46 81 49 82 43 83 44 84 47 85 45 86
REMARK H PARENT 2 10 2 11 69 39 37 50
REMARK Flexibility Score: inf
ROOT
ATOM      1  C   UNL A   1      32.993  33.754  27.999  1.00  0.00     0.275 C 
ENDROOT
BRANCH   1   2
ATOM      2  C   UNL A   1      33.246  35.079  28.714  1.00  0.00     0.274 C 
BRANCH   2   3
ATOM      3  O   UNL A   1      32.732  35.045  30.060  1.00  0.00    -0.457 OA
BRANCH   3   4
ATOM      4  C   UNL A   1      33.051  36.099  30.874  1.00  0.00     0.372 C 
ATOM      5  O   UNL A   1      33.278  37.223  30.440  1.00  0.00    -0.244 OA
BRANCH   4   6
ATOM      6  C   UNL A   1      33.184  35.649  32.393  1.00  0.00     0.216 C 
ATOM      7  C   UNL A   1      33.606  36.867  33.256  1.00  0.00     0.098 C 
BRANCH   6   8
ATOM      8  N   UNL A   1      31.871  35.122  32.875  1.00  0.00    -0.331 N 
ATOM      9  C   UNL A   1      30.776  36.078  32.896  1.00  0.00     0.332 C 
ATOM     10  H   UNL A   1      31.601  34.349  32.267  1.00  0.00     0.347 HD
ATOM     11  H   UNL A   1      32.021  34.850  33.847  1.00  0.00     0.347 HD
ENDBRANCH   6   8
BRANCH   6  12
ATOM     12  C   UNL A   1      34.197  34.472  32.554  1.00  0.00     0.025 A 
ATOM     13  C   UNL A   1      34.210  33.399  31.636  1.00  0.00     0.011 A 
ATOM     14  C   UNL A   1      35.079  34.371  33.650  1.00  0.00     0.031 A 
ATOM     15  C   UNL A   1      35.103  32.328  31.757  1.00  0.00     0.002 A 
ATOM     16  C   UNL A   1      35.952  33.284  33.784  1.00  0.00     0.041 A 
ATOM     17  C   UNL A   1      35.980  32.272  32.834  1.00  0.00     0.020 A 
ATOM     18  Cl  UNL A   1      36.992  33.193  35.154  1.00  0.00    -0.084 Cl
ENDBRANCH   6  12
ENDBRANCH   4   6
ENDBRANCH   3   4
ENDBRANCH   2   3
ENDBRANCH   1   2
BRANCH   1  19
ATOM     19  O   UNL A   1      34.242  33.149  27.624  1.00  0.00    -0.458 OA
BRANCH  19  20
ATOM     20  C   UNL A   1      34.271  31.799  27.649  1.00  0.00     0.338 C 
ATOM     21  O   UNL A   1      33.394  31.020  27.313  1.00  0.00    -0.246 OA
BRANCH  20  22
ATOM     22  C   UNL A   1      35.594  31.368  28.111  1.00  0.00     0.060 A 
ATOM     23  C   UNL A   1      35.772  30.035  28.478  1.00  0.00     0.016 A 
ATOM     24  C   UNL A   1      36.622  32.294  28.277  1.00  0.00     0.016 A 
ATOM     25  C   UNL A   1      36.969  29.622  29.054  1.00  0.00     0.010 A 
ATOM     26  C   UNL A   1      37.842  31.866  28.810  1.00  0.00     0.010 A 
ATOM     27  C   UNL A   1      38.018  30.532  29.223  1.00  0.00    -0.014 A 
BRANCH  27  28
ATOM     28  C   UNL A   1      39.272  30.121  29.903  1.00  0.00     0.031 A 
ATOM     29  C   UNL A   1      40.142  29.078  29.266  1.00  0.00     0.074 A 
ATOM     30  C   UNL A   1      39.648  30.677  31.070  1.00  0.00     0.049 A 
ATOM     31  N   UNL A   1      41.113  28.373  29.787  1.00  0.00    -0.248 NA
ATOM     32  C   UNL A   1      39.875  28.783  27.849  1.00  0.00     0.031 C 
ATOM     33  C   UNL A   1      38.960  31.773  31.749  1.00  0.00     0.029 A 
ATOM     34  N   UNL A   1      40.710  30.389  31.892  1.00  0.00    -0.354 N 
ATOM     35  C   UNL A   1      41.525  27.505  28.786  1.00  0.00     0.074 A 
ATOM     36  C   UNL A   1      40.720  27.789  27.617  1.00  0.00     0.031 C 
ATOM     37  C   UNL A   1      39.626  32.078  32.874  1.00  0.00     0.029 A 
ATOM     38  C   UNL A   1      40.732  31.140  33.041  1.00  0.00     0.049 A 
ATOM     39  H   UNL A   1      41.389  29.709  31.678  1.00  0.00     0.167 HD
ATOM     40  C   UNL A   1      42.479  26.546  28.850  1.00  0.00     0.037 A 
ATOM     41  C   UNL A   1      41.521  31.045  34.129  1.00  0.00     0.037 A 
ATOM     42  C   UNL A   1      43.311  26.312  30.000  1.00  0.00     0.049 A 
ATOM     43  C   UNL A   1      42.549  29.949  34.198  1.00  0.00     0.074 A 
ATOM     44  C   UNL A   1      44.280  25.342  30.185  1.00  0.00     0.029 A 
ATOM     45  N   UNL A   1      43.285  27.079  31.155  1.00  0.00    -0.354 N 
ATOM     46  N   UNL A   1      42.852  29.043  33.300  1.00  0.00    -0.248 NA
ATOM     47  C   UNL A   1      43.320  29.838  35.445  1.00  0.00     0.031 C 
ATOM     48  C   UNL A   1      44.830  25.512  31.460  1.00  0.00     0.029 A 
ATOM     49  C   UNL A   1      44.223  26.606  32.056  1.00  0.00     0.049 A 
ATOM     50  H   UNL A   1      42.689  27.846  31.310  1.00  0.00     0.167 HD
ATOM     51  C   UNL A   1      43.847  28.260  33.868  1.00  0.00     0.074 A 
ATOM     52  C   UNL A   1      44.111  28.807  35.183  1.00  0.00     0.031 C 
ATOM     53  C   UNL A   1      44.477  27.177  33.353  1.00  0.00     0.037 A 
BRANCH  40  54
ATOM     54  C   UNL A   1      42.633  25.645  27.664  1.00  0.00     0.064 A 
ATOM     55  C   UNL A   1      43.595  25.877  26.673  1.00  0.00     0.173 A 
ATOM     56  C   UNL A   1      41.813  24.513  27.536  1.00  0.00     0.173 A 
ATOM     57  F   UNL A   1      44.389  26.956  26.742  1.00  0.00    -0.203 F 
ATOM     58  C   UNL A   1      43.719  25.017  25.585  1.00  0.00     0.198 A 
ATOM     59  C   UNL A   1      41.955  23.643  26.459  1.00  0.00     0.198 A 
ATOM     60  F   UNL A   1      40.878  24.247  28.461  1.00  0.00    -0.203 F 
ATOM     61  F   UNL A   1      44.620  25.277  24.626  1.00  0.00    -0.200 F 
ATOM     62  C   UNL A   1      42.904  23.899  25.482  1.00  0.00     0.200 A 
ATOM     63  F   UNL A   1      41.172  22.559  26.367  1.00  0.00    -0.200 F 
ATOM     64  F   UNL A   1      43.029  23.070  24.436  1.00  0.00    -0.200 F 
ENDBRANCH  40  54
BRANCH  41  65
ATOM     65  C   UNL A   1      41.326  31.980  35.268  1.00  0.00     0.064 A 
ATOM     66  C   UNL A   1      40.297  31.777  36.197  1.00  0.00     0.173 A 
ATOM     67  C   UNL A   1      42.163  33.090  35.452  1.00  0.00     0.173 A 
ATOM     68  F   UNL A   1      39.452  30.747  36.046  1.00  0.00    -0.203 F 
ATOM     69  C   UNL A   1      40.113  32.651  37.268  1.00  0.00     0.198 A 
ATOM     70  C   UNL A   1      41.996  33.947  36.537  1.00  0.00     0.198 A 
ATOM     71  F   UNL A   1      43.158  33.333  34.585  1.00  0.00    -0.203 F 
ATOM     72  F   UNL A   1      39.102  32.454  38.124  1.00  0.00    -0.200 F 
ATOM     73  C   UNL A   1      40.968  33.729  37.442  1.00  0.00     0.200 A 
ATOM     74  F   UNL A   1      42.831  34.980  36.708  1.00  0.00    -0.200 F 
ATOM     75  F   UNL A   1      40.797  34.563  38.477  1.00  0.00    -0.200 F 
ENDBRANCH  41  65
BRANCH  53  76
ATOM     76  C   UNL A   1      45.532  26.529  34.195  1.00  0.00     0.064 A 
ATOM     77  C   UNL A   1      46.854  26.992  34.189  1.00  0.00     0.173 A 
ATOM     78  C   UNL A   1      45.201  25.478  35.062  1.00  0.00     0.173 A 
ATOM     79  F   UNL A   1      47.218  27.987  33.365  1.00  0.00    -0.203 F 
ATOM     80  C   UNL A   1      47.813  26.420  35.020  1.00  0.00     0.198 A 
ATOM     81  C   UNL A   1      46.159  24.920  35.904  1.00  0.00     0.198 A 
ATOM     82  F   UNL A   1      43.946  25.005  35.102  1.00  0.00    -0.203 F 
ATOM     83  F   UNL A   1      49.078  26.862  34.985  1.00  0.00    -0.200 F 
ATOM     84  C   UNL A   1      47.463  25.390  35.881  1.00  0.00     0.200 A 
ATOM     85  F   UNL A   1      45.817  23.930  36.740  1.00  0.00    -0.200 F 
ATOM     86  F   UNL A   1      48.385  24.847  36.688  1.00  0.00    -0.200 F 
ENDBRANCH  53  76
ENDBRANCH  27  28
ENDBRANCH  20  22
ENDBRANCH  19  20
ENDBRANCH   1  19
TORSDOF 13
ENDMDL
MODEL 3
REMARK VINA RESULT:     -11.6      0.763      1.502
REMARK SMILES C[NH2+][C@](C)(C(=O)OCCOC(=O)c1ccc(-c2c3nc(c(-c4c(F)c(F)c(F)c(F)c4F)c4ccc([nH]4)c(-c4c(F)c(F)c(F)c(F)c4F)c4nc(c(-c5c(F)c(F)c(F)c(F)c5F)c5ccc2[nH]5)C=C4)C=C3)cc1)c1cccc(Cl)c1
REMARK SMILES IDX 9 1 8 2 7 3 5 4 6 5 3 6 4 7 2 8 1 9 76 12 77 13 82 14 78 15
REMARK SMILES IDX 80 16 79 17 81 18 10 19 11 20 12 21 13 22 14 23 75 24 15 25
REMARK SMILES IDX 74 26 16 27 17 28 18 29 68 30 19 31 73 32 67 33 69 34 20 35
REMARK SMILES IDX 72 36 66 37 65 38 21 40 53 41 33 42 52 43 34 44 37 45 51 46
REMARK SMILES IDX 70 47 35 48 36 49 50 51 71 52 38 53 22 54 23 55 31 56 24 57
REMARK SMILES IDX 25 58 29 59 32 60 26 61 27 62 30 63 28 64 54 65 55 66 63 67
REMARK SMILES IDX 56 68 57 69 61 70 64 71 58 72 59 73 62 74 60 75 39 76 40 77
REMARK SMILES IDX 48 78 41 79 42 80 46 81 49 82 43 83 44 84 47 85 45 86
REMARK H PARENT 2 10 2 11 69 39 37 50
REMARK Flexibility Score: inf
ROOT
ATOM      1  C   UNL A   1      31.766  29.635  26.330  1.00  0.00     0.275 C 
ENDROOT
BRANCH   1   2
ATOM      2  C   UNL A   1      31.766  28.296  27.062  1.00  0.00     0.274 C 
BRANCH   2   3
ATOM      3  O   UNL A   1      32.229  27.237  26.200  1.00  0.00    -0.457 OA
BRANCH   3   4
ATOM      4  C   UNL A   1      31.362  26.203  25.964  1.00  0.00     0.372 C 
ATOM      5  O   UNL A   1      30.850  25.551  26.867  1.00  0.00    -0.244 OA
BRANCH   4   6
ATOM      6  C   UNL A   1      31.206  25.912  24.409  1.00  0.00     0.216 C 
ATOM      7  C   UNL A   1      32.600  25.609  23.799  1.00  0.00     0.098 C 
BRANCH   6   8
ATOM      8  N   UNL A   1      30.304  24.737  24.208  1.00  0.00    -0.331 N 
ATOM      9  C   UNL A   1      30.891  23.602  23.514  1.00  0.00     0.332 C 
ATOM     10  H   UNL A   1      29.996  24.417  25.127  1.00  0.00     0.347 HD
ATOM     11  H   UNL A   1      29.546  25.067  23.611  1.00  0.00     0.347 HD
ENDBRANCH   6   8
BRANCH   6  12
ATOM     12  C   UNL A   1      30.518  27.103  23.670  1.00  0.00     0.025 A 
ATOM     13  C   UNL A   1      31.287  28.062  22.973  1.00  0.00     0.011 A 
ATOM     14  C   UNL A   1      29.128  27.335  23.727  1.00  0.00     0.031 A 
ATOM     15  C   UNL A   1      30.698  29.143  22.306  1.00  0.00     0.002 A 
ATOM     16  C   UNL A   1      28.546  28.433  23.083  1.00  0.00     0.041 A 
ATOM     17  C   UNL A   1      29.322  29.327  22.358  1.00  0.00     0.020 A 
ATOM     18  Cl  UNL A   1      26.846  28.687  23.205  1.00  0.00    -0.084 Cl
ENDBRANCH   6  12
ENDBRANCH   4   6
ENDBRANCH   3   4
ENDBRANCH   2   3
ENDBRANCH   1   2
BRANCH   1  19
ATOM     19  O   UNL A   1      33.110  30.134  26.214  1.00  0.00    -0.458 OA
BRANCH  19  20
ATOM     20  C   UNL A   1      33.422  31.174  27.017  1.00  0.00     0.338 C 
ATOM     21  O   UNL A   1      32.741  32.153  27.281  1.00  0.00    -0.246 OA
BRANCH  20  22
ATOM     22  C   UNL A   1      34.742  30.931  27.606  1.00  0.00     0.060 A 
ATOM     23  C   UNL A   1      35.090  29.627  27.954  1.00  0.00     0.016 A 
ATOM     24  C   UNL A   1      35.590  31.997  27.906  1.00  0.00     0.016 A 
ATOM     25  C   UNL A   1      36.272  29.379  28.643  1.00  0.00     0.010 A 
ATOM     26  C   UNL A   1      36.801  31.740  28.553  1.00  0.00     0.010 A 
ATOM     27  C   UNL A   1      37.143  30.431  28.947  1.00  0.00    -0.014 A 
BRANCH  27  28
ATOM     28  C   UNL A   1      38.370  30.190  29.746  1.00  0.00     0.031 A 
ATOM     29  C   UNL A   1      39.469  29.350  29.163  1.00  0.00     0.074 A 
ATOM     30  C   UNL A   1      38.521  30.721  30.974  1.00  0.00     0.049 A 
ATOM     31  N   UNL A   1      40.487  28.783  29.757  1.00  0.00    -0.248 NA
ATOM     32  C   UNL A   1      39.407  29.111  27.712  1.00  0.00     0.031 C 
ATOM     33  C   UNL A   1      37.586  31.639  31.622  1.00  0.00     0.029 A 
ATOM     34  N   UNL A   1      39.524  30.558  31.897  1.00  0.00    -0.354 N 
ATOM     35  C   UNL A   1      41.145  28.065  28.769  1.00  0.00     0.074 A 
ATOM     36  C   UNL A   1      40.429  28.288  27.531  1.00  0.00     0.031 C 
ATOM     37  C   UNL A   1      38.068  31.974  32.829  1.00  0.00     0.029 A 
ATOM     38  C   UNL A   1      39.296  31.224  33.076  1.00  0.00     0.049 A 
ATOM     39  H   UNL A   1      40.328  30.016  31.730  1.00  0.00     0.167 HD
ATOM     40  C   UNL A   1      42.238  27.275  28.895  1.00  0.00     0.037 A 
ATOM     41  C   UNL A   1      39.971  31.188  34.242  1.00  0.00     0.037 A 
ATOM     42  C   UNL A   1      42.972  27.105  30.121  1.00  0.00     0.049 A 
ATOM     43  C   UNL A   1      41.159  30.275  34.375  1.00  0.00     0.074 A 
ATOM     44  C   UNL A   1      44.069  26.300  30.368  1.00  0.00     0.029 A 
ATOM     45  N   UNL A   1      42.694  27.778  31.301  1.00  0.00    -0.354 N 
ATOM     46  N   UNL A   1      41.706  29.495  33.475  1.00  0.00    -0.248 NA
ATOM     47  C   UNL A   1      41.803  30.210  35.695  1.00  0.00     0.031 C 
ATOM     48  C   UNL A   1      44.445  26.472  31.705  1.00  0.00     0.029 A 
ATOM     49  C   UNL A   1      43.600  27.408  32.280  1.00  0.00     0.049 A 
ATOM     50  H   UNL A   1      41.961  28.424  31.424  1.00  0.00     0.167 HD
ATOM     51  C   UNL A   1      42.757  28.852  34.114  1.00  0.00     0.074 A 
ATOM     52  C   UNL A   1      42.783  29.345  35.476  1.00  0.00     0.031 C 
ATOM     53  C   UNL A   1      43.614  27.925  33.623  1.00  0.00     0.037 A 
BRANCH  40  54
ATOM     54  C   UNL A   1      42.668  26.493  27.693  1.00  0.00     0.064 A 
ATOM     55  C   UNL A   1      43.643  26.969  26.807  1.00  0.00     0.173 A 
ATOM     56  C   UNL A   1      42.106  25.232  27.442  1.00  0.00     0.173 A 
ATOM     57  F   UNL A   1      44.195  28.176  26.995  1.00  0.00    -0.203 F 
ATOM     58  C   UNL A   1      44.028  26.216  25.700  1.00  0.00     0.198 A 
ATOM     59  C   UNL A   1      42.509  24.473  26.348  1.00  0.00     0.198 A 
ATOM     60  F   UNL A   1      41.169  24.734  28.263  1.00  0.00    -0.203 F 
ATOM     61  F   UNL A   1      44.935  26.703  24.842  1.00  0.00    -0.200 F 
ATOM     62  C   UNL A   1      43.465  24.967  25.475  1.00  0.00     0.200 A 
ATOM     63  F   UNL A   1      41.970  23.264  26.138  1.00  0.00    -0.200 F 
ATOM     64  F   UNL A   1      43.841  24.242  24.412  1.00  0.00    -0.200 F 
ENDBRANCH  40  54
BRANCH  41  65
ATOM     65  C   UNL A   1      39.499  31.999  35.394  1.00  0.00     0.064 A 
ATOM     66  C   UNL A   1      39.960  33.308  35.588  1.00  0.00     0.173 A 
ATOM     67  C   UNL A   1      38.579  31.486  36.320  1.00  0.00     0.173 A 
ATOM     68  F   UNL A   1      40.864  33.832  34.748  1.00  0.00    -0.203 F 
ATOM     69  C   UNL A   1      39.517  34.073  36.667  1.00  0.00     0.198 A 
ATOM     70  C   UNL A   1      38.116  32.261  37.380  1.00  0.00     0.198 A 
ATOM     71  F   UNL A   1      38.114  30.235  36.182  1.00  0.00    -0.203 F 
ATOM     72  F   UNL A   1      39.998  35.310  36.850  1.00  0.00    -0.200 F 
ATOM     73  C   UNL A   1      38.589  33.552  37.556  1.00  0.00     0.200 A 
ATOM     74  F   UNL A   1      37.211  31.757  38.231  1.00  0.00    -0.200 F 
ATOM     75  F   UNL A   1      38.156  34.292  38.586  1.00  0.00    -0.200 F 
ENDBRANCH  41  65
BRANCH  53  76
ATOM     76  C   UNL A   1      44.670  27.405  34.548  1.00  0.00     0.064 A 
ATOM     77  C   UNL A   1      45.898  28.066  34.694  1.00  0.00     0.173 A 
ATOM     78  C   UNL A   1      44.427  26.276  35.341  1.00  0.00     0.173 A 
ATOM     79  F   UNL A   1      46.180  29.142  33.945  1.00  0.00    -0.203 F 
ATOM     80  C   UNL A   1      46.850  27.607  35.601  1.00  0.00     0.198 A 
ATOM     81  C   UNL A   1      45.373  25.831  36.259  1.00  0.00     0.198 A 
ATOM     82  F   UNL A   1      43.264  25.615  35.237  1.00  0.00    -0.203 F 
ATOM     83  F   UNL A   1      48.027  28.239  35.711  1.00  0.00    -0.200 F 
ATOM     84  C   UNL A   1      46.583  26.495  36.387  1.00  0.00     0.200 A 
ATOM     85  F   UNL A   1      45.112  24.761  37.023  1.00  0.00    -0.200 F 
ATOM     86  F   UNL A   1      47.497  26.061  37.267  1.00  0.00    -0.200 F 
ENDBRANCH  53  76
ENDBRANCH  27  28
ENDBRANCH  20  22
ENDBRANCH  19  20
ENDBRANCH   1  19
TORSDOF 13
ENDMDL
