MODEL 1
REMARK VINA RESULT:     -13.4      0.000      0.000
REMARK SMILES Cn1c(C[NH+]2CCC3(CC2)NC(=O)C[C@@H]3C(=O)OCCOC(=O)c2ccc(-c3c4nc(c(-c5c(F)c(F)c(F)c(F)c5F)c5ccc([nH]5)c(-c5c(F)c(F)c(F)c(F)c5F)c5nc(c(-c6c(F)c(F)c(F)c(F)c6F)c6ccc3[nH]6)C=C5)C=C4)cc2)nc2ccccc21
REMARK SMILES IDX 19 1 18 2 16 3 17 4 15 5 5 6 6 7 10 8 7 10 9 11 8 12 11 13
REMARK SMILES IDX 12 14 14 16 13 17 4 18 3 19 1 20 2 21 93 22 87 23 88 24
REMARK SMILES IDX 92 25 89 26 91 27 90 28 20 29 21 30 22 31 23 32 24 33 25 34
REMARK SMILES IDX 86 35 26 36 85 37 27 38 28 39 29 40 79 41 30 42 84 43 78 44
REMARK SMILES IDX 80 45 31 46 83 47 77 48 76 49 32 51 64 52 44 53 63 54 45 55
REMARK SMILES IDX 48 56 62 57 81 58 46 59 47 60 61 62 82 63 49 64 33 65 34 66
REMARK SMILES IDX 42 67 35 68 36 69 40 70 43 71 37 72 38 73 41 74 39 75 65 76
REMARK SMILES IDX 66 77 74 78 67 79 68 80 72 81 75 82 69 83 70 84 73 85 71 86
REMARK SMILES IDX 50 87 51 88 59 89 52 90 53 91 57 92 60 93 54 94 55 95 58 96
REMARK SMILES IDX 56 97
REMARK H PARENT 5 9 11 15 80 50 48 61
REMARK Flexibility Score: inf
ROOT
ATOM      1  C   UNL A   1      31.224  31.494  26.149  1.00  0.00     0.274 C 
ENDROOT
BRANCH   1   2
ATOM      2  O   UNL A   1      32.224  30.465  25.992  1.00  0.00    -0.462 OA
BRANCH   2   3
ATOM      3  C   UNL A   1      31.778  29.193  26.054  1.00  0.00     0.311 C 
ATOM      4  O   UNL A   1      31.450  28.634  27.095  1.00  0.00    -0.252 OA
BRANCH   3   5
ATOM      5  C   UNL A   1      31.744  28.469  24.723  1.00  0.00     0.134 C 
ATOM      6  N   UNL A   1      30.975  24.786  26.501  1.00  0.00    -0.328 N 
ATOM      7  C   UNL A   1      32.203  25.499  26.782  1.00  0.00     0.265 C 
ATOM      8  C   UNL A   1      30.034  25.578  25.721  1.00  0.00     0.265 C 
ATOM      9  H   UNL A   1      30.514  24.675  27.404  1.00  0.00     0.348 HD
ATOM     10  C   UNL A   1      32.848  26.231  25.603  1.00  0.00     0.091 C 
ATOM     11  C   UNL A   1      30.578  26.185  24.433  1.00  0.00     0.091 C 
ATOM     12  C   UNL A   1      31.921  26.923  24.586  1.00  0.00     0.064 C 
ATOM     13  N   UNL A   1      32.616  26.851  23.295  1.00  0.00    -0.349 N 
ATOM     14  C   UNL A   1      33.250  27.999  22.909  1.00  0.00     0.221 C 
ATOM     15  H   UNL A   1      32.624  26.034  22.745  1.00  0.00     0.164 HD
ATOM     16  C   UNL A   1      32.859  29.088  23.851  1.00  0.00     0.117 C 
ATOM     17  O   UNL A   1      34.029  28.100  21.977  1.00  0.00    -0.275 OA
BRANCH   6  18
ATOM     18  C   UNL A   1      31.117  23.368  26.145  1.00  0.00     0.339 C 
BRANCH  18  19
ATOM     19  C   UNL A   1      32.441  22.983  25.560  1.00  0.00     0.165 A 
ATOM     20  C   UNL A   1      33.594  22.159  27.670  1.00  0.00     0.152 C 
ATOM     21  N   UNL A   1      33.523  22.498  26.268  1.00  0.00    -0.326 N 
ATOM     22  C   UNL A   1      34.620  22.524  25.433  1.00  0.00     0.068 A 
ATOM     23  N   UNL A   1      32.761  23.139  24.289  1.00  0.00    -0.227 NA
ATOM     24  C   UNL A   1      34.107  22.939  24.210  1.00  0.00     0.089 A 
ATOM     25  C   UNL A   1      35.982  22.269  25.625  1.00  0.00     0.028 A 
ATOM     26  C   UNL A   1      34.968  23.149  23.126  1.00  0.00     0.030 A 
ATOM     27  C   UNL A   1      36.834  22.512  24.542  1.00  0.00     0.002 A 
ATOM     28  C   UNL A   1      36.339  22.953  23.313  1.00  0.00     0.002 A 
ENDBRANCH  18  19
ENDBRANCH   6  18
ENDBRANCH   3   5
ENDBRANCH   2   3
ENDBRANCH   1   2
BRANCH   1  29
ATOM     29  C   UNL A   1      31.811  32.715  26.875  1.00  0.00     0.275 C 
BRANCH  29  30
ATOM     30  O   UNL A   1      32.826  32.401  27.855  1.00  0.00    -0.458 OA
BRANCH  30  31
ATOM     31  C   UNL A   1      33.862  33.264  27.951  1.00  0.00     0.338 C 
ATOM     32  O   UNL A   1      33.855  34.451  27.705  1.00  0.00    -0.246 OA
BRANCH  31  33
ATOM     33  C   UNL A   1      35.090  32.496  28.239  1.00  0.00     0.060 A 
ATOM     34  C   UNL A   1      36.263  33.220  28.460  1.00  0.00     0.016 A 
ATOM     35  C   UNL A   1      35.097  31.104  28.327  1.00  0.00     0.016 A 
ATOM     36  C   UNL A   1      37.452  32.559  28.751  1.00  0.00     0.010 A 
ATOM     37  C   UNL A   1      36.258  30.453  28.765  1.00  0.00     0.010 A 
ATOM     38  C   UNL A   1      37.431  31.184  29.027  1.00  0.00    -0.014 A 
BRANCH  38  39
ATOM     39  C   UNL A   1      38.546  30.595  29.823  1.00  0.00     0.031 A 
ATOM     40  C   UNL A   1      39.492  29.579  29.261  1.00  0.00     0.074 A 
ATOM     41  C   UNL A   1      38.669  30.985  31.110  1.00  0.00     0.049 A 
ATOM     42  N   UNL A   1      40.463  28.934  29.859  1.00  0.00    -0.248 NA
ATOM     43  C   UNL A   1      39.327  29.233  27.845  1.00  0.00     0.031 C 
ATOM     44  C   UNL A   1      37.806  31.965  31.776  1.00  0.00     0.029 A 
ATOM     45  N   UNL A   1      39.566  30.629  32.084  1.00  0.00    -0.354 N 
ATOM     46  C   UNL A   1      41.020  28.099  28.900  1.00  0.00     0.074 A 
ATOM     47  C   UNL A   1      40.265  28.309  27.680  1.00  0.00     0.031 C 
ATOM     48  C   UNL A   1      38.252  32.180  33.019  1.00  0.00     0.029 A 
ATOM     49  C   UNL A   1      39.364  31.279  33.277  1.00  0.00     0.049 A 
ATOM     50  H   UNL A   1      40.284  29.970  31.941  1.00  0.00     0.167 HD
ATOM     51  C   UNL A   1      42.060  27.240  29.032  1.00  0.00     0.037 A 
ATOM     52  C   UNL A   1      39.973  31.143  34.468  1.00  0.00     0.037 A 
ATOM     53  C   UNL A   1      42.787  27.027  30.261  1.00  0.00     0.049 A 
ATOM     54  C   UNL A   1      41.065  30.128  34.607  1.00  0.00     0.074 A 
ATOM     55  C   UNL A   1      43.857  26.179  30.498  1.00  0.00     0.029 A 
ATOM     56  N   UNL A   1      42.512  27.659  31.466  1.00  0.00    -0.354 N 
ATOM     57  N   UNL A   1      41.581  29.344  33.693  1.00  0.00    -0.248 NA
ATOM     58  C   UNL A   1      41.641  29.961  35.945  1.00  0.00     0.031 C 
ATOM     59  C   UNL A   1      44.187  26.255  31.856  1.00  0.00     0.029 A 
ATOM     60  C   UNL A   1      43.365  27.195  32.457  1.00  0.00     0.049 A 
ATOM     61  H   UNL A   1      41.811  28.340  31.599  1.00  0.00     0.167 HD
ATOM     62  C   UNL A   1      42.552  28.596  34.338  1.00  0.00     0.074 A 
ATOM     63  C   UNL A   1      42.565  29.036  35.720  1.00  0.00     0.031 C 
ATOM     64  C   UNL A   1      43.356  27.632  33.832  1.00  0.00     0.037 A 
BRANCH  51  65
ATOM     65  C   UNL A   1      42.442  26.426  27.827  1.00  0.00     0.064 A 
ATOM     66  C   UNL A   1      43.450  26.838  26.942  1.00  0.00     0.173 A 
ATOM     67  C   UNL A   1      41.797  25.207  27.561  1.00  0.00     0.173 A 
ATOM     68  F   UNL A   1      44.086  28.002  27.140  1.00  0.00    -0.203 F 
ATOM     69  C   UNL A   1      43.773  26.079  25.819  1.00  0.00     0.198 A 
ATOM     70  C   UNL A   1      42.142  24.437  26.453  1.00  0.00     0.198 A 
ATOM     71  F   UNL A   1      40.828  24.762  28.376  1.00  0.00    -0.203 F 
ATOM     72  F   UNL A   1      44.698  26.522  24.956  1.00  0.00    -0.200 F 
ATOM     73  C   UNL A   1      43.122  24.878  25.578  1.00  0.00     0.200 A 
ATOM     74  F   UNL A   1      41.516  23.274  26.225  1.00  0.00    -0.200 F 
ATOM     75  F   UNL A   1      43.428  24.154  24.492  1.00  0.00    -0.200 F 
ENDBRANCH  51  65
BRANCH  52  76
ATOM     76  C   UNL A   1      39.528  31.976  35.616  1.00  0.00     0.064 A 
ATOM     77  C   UNL A   1      40.077  33.246  35.841  1.00  0.00     0.173 A 
ATOM     78  C   UNL A   1      38.513  31.541  36.483  1.00  0.00     0.173 A 
ATOM     79  F   UNL A   1      41.067  33.695  35.055  1.00  0.00    -0.203 F 
ATOM     80  C   UNL A   1      39.625  34.048  36.887  1.00  0.00     0.198 A 
ATOM     81  C   UNL A   1      38.040  32.358  37.506  1.00  0.00     0.198 A 
ATOM     82  F   UNL A   1      37.952  30.336  36.308  1.00  0.00    -0.203 F 
ATOM     83  F   UNL A   1      40.187  35.246  37.099  1.00  0.00    -0.200 F 
ATOM     84  C   UNL A   1      38.599  33.609  37.710  1.00  0.00     0.200 A 
ATOM     85  F   UNL A   1      37.035  31.936  38.285  1.00  0.00    -0.200 F 
ATOM     86  F   UNL A   1      38.153  34.389  38.703  1.00  0.00    -0.200 F 
ENDBRANCH  52  76
BRANCH  64  87
ATOM     87  C   UNL A   1      44.334  27.002  34.780  1.00  0.00     0.064 A 
ATOM     88  C   UNL A   1      44.034  25.814  35.462  1.00  0.00     0.173 A 
ATOM     89  C   UNL A   1      45.589  27.589  35.000  1.00  0.00     0.173 A 
ATOM     90  F   UNL A   1      42.839  25.226  35.303  1.00  0.00    -0.203 F 
ATOM     91  C   UNL A   1      44.946  25.249  36.350  1.00  0.00     0.198 A 
ATOM     92  C   UNL A   1      46.509  27.007  35.866  1.00  0.00     0.198 A 
ATOM     93  F   UNL A   1      45.923  28.725  34.370  1.00  0.00    -0.203 F 
ATOM     94  F   UNL A   1      44.619  24.142  37.031  1.00  0.00    -0.200 F 
ATOM     95  C   UNL A   1      46.185  25.843  36.545  1.00  0.00     0.200 A 
ATOM     96  F   UNL A   1      47.710  27.575  36.045  1.00  0.00    -0.200 F 
ATOM     97  F   UNL A   1      47.064  25.296  37.398  1.00  0.00    -0.200 F 
ENDBRANCH  64  87
ENDBRANCH  38  39
ENDBRANCH  31  33
ENDBRANCH  30  31
ENDBRANCH  29  30
ENDBRANCH   1  29
TORSDOF 13
ENDMDL
MODEL 2
REMARK VINA RESULT:     -13.3      1.658      2.212
REMARK SMILES Cn1c(C[NH+]2CCC3(CC2)NC(=O)C[C@@H]3C(=O)OCCOC(=O)c2ccc(-c3c4nc(c(-c5c(F)c(F)c(F)c(F)c5F)c5ccc([nH]5)c(-c5c(F)c(F)c(F)c(F)c5F)c5nc(c(-c6c(F)c(F)c(F)c(F)c6F)c6ccc3[nH]6)C=C5)C=C4)cc2)nc2ccccc21
REMARK SMILES IDX 19 1 18 2 16 3 17 4 15 5 5 6 6 7 10 8 7 10 9 11 8 12 11 13
REMARK SMILES IDX 12 14 14 16 13 17 4 18 3 19 1 20 2 21 93 22 87 23 88 24
REMARK SMILES IDX 92 25 89 26 91 27 90 28 20 29 21 30 22 31 23 32 24 33 25 34
REMARK SMILES IDX 86 35 26 36 85 37 27 38 28 39 29 40 79 41 30 42 84 43 78 44
REMARK SMILES IDX 80 45 31 46 83 47 77 48 76 49 32 51 64 52 44 53 63 54 45 55
REMARK SMILES IDX 48 56 62 57 81 58 46 59 47 60 61 62 82 63 49 64 33 65 34 66
REMARK SMILES IDX 42 67 35 68 36 69 40 70 43 71 37 72 38 73 41 74 39 75 65 76
REMARK SMILES IDX 66 77 74 78 67 79 68 80 72 81 75 82 69 83 70 84 73 85 71 86
REMARK SMILES IDX 50 87 51 88 59 89 52 90 53 91 57 92 60 93 54 94 55 95 58 96
REMARK SMILES IDX 56 97
REMARK H PARENT 5 9 11 15 80 50 48 61
REMARK Flexibility Score: inf
ROOT
ATOM      1  C   UNL A   1      31.778  29.381  27.279  1.00  0.00     0.274 C 
ENDROOT
BRANCH   1   2
ATOM      2  O   UNL A   1      31.973  28.508  26.145  1.00  0.00    -0.462 OA
BRANCH   2   3
ATOM      3  C   UNL A   1      31.297  27.340  26.176  1.00  0.00     0.311 C 
ATOM      4  O   UNL A   1      31.223  26.620  27.165  1.00  0.00    -0.252 OA
BRANCH   3   5
ATOM      5  C   UNL A   1      30.651  26.950  24.861  1.00  0.00     0.134 C 
ATOM      6  N   UNL A   1      32.873  23.444  24.563  1.00  0.00    -0.328 N 
ATOM      7  C   UNL A   1      33.528  24.734  24.567  1.00  0.00     0.265 C 
ATOM      8  C   UNL A   1      31.448  23.538  24.857  1.00  0.00     0.265 C 
ATOM      9  H   UNL A   1      33.256  22.943  25.365  1.00  0.00     0.348 HD
ATOM     10  C   UNL A   1      32.819  25.858  23.807  1.00  0.00     0.091 C 
ATOM     11  C   UNL A   1      30.654  24.518  24.001  1.00  0.00     0.091 C 
ATOM     12  C   UNL A   1      31.281  25.917  23.873  1.00  0.00     0.064 C 
ATOM     13  N   UNL A   1      30.846  26.483  22.589  1.00  0.00    -0.349 N 
ATOM     14  C   UNL A   1      30.509  27.808  22.619  1.00  0.00     0.221 C 
ATOM     15  H   UNL A   1      30.799  25.946  21.765  1.00  0.00     0.164 HD
ATOM     16  C   UNL A   1      30.483  28.251  24.044  1.00  0.00     0.117 C 
ATOM     17  O   UNL A   1      30.303  28.509  21.645  1.00  0.00    -0.275 OA
BRANCH   6  18
ATOM     18  C   UNL A   1      33.279  22.514  23.501  1.00  0.00     0.339 C 
BRANCH  18  19
ATOM     19  C   UNL A   1      33.351  21.073  23.902  1.00  0.00     0.165 A 
ATOM     20  C   UNL A   1      35.562  21.110  25.155  1.00  0.00     0.152 C 
ATOM     21  N   UNL A   1      34.392  20.481  24.589  1.00  0.00    -0.326 N 
ATOM     22  C   UNL A   1      34.215  19.114  24.527  1.00  0.00     0.068 A 
ATOM     23  N   UNL A   1      32.449  20.169  23.572  1.00  0.00    -0.227 NA
ATOM     24  C   UNL A   1      32.997  18.958  23.876  1.00  0.00     0.089 A 
ATOM     25  C   UNL A   1      34.993  18.024  24.929  1.00  0.00     0.028 A 
ATOM     26  C   UNL A   1      32.527  17.675  23.571  1.00  0.00     0.030 A 
ATOM     27  C   UNL A   1      34.526  16.750  24.592  1.00  0.00     0.002 A 
ATOM     28  C   UNL A   1      33.317  16.574  23.916  1.00  0.00     0.002 A 
ENDBRANCH  18  19
ENDBRANCH   6  18
ENDBRANCH   3   5
ENDBRANCH   2   3
ENDBRANCH   1   2
BRANCH   1  29
ATOM     29  C   UNL A   1      31.910  30.854  26.858  1.00  0.00     0.275 C 
BRANCH  29  30
ATOM     30  O   UNL A   1      33.269  31.295  26.636  1.00  0.00    -0.458 OA
BRANCH  30  31
ATOM     31  C   UNL A   1      33.839  32.017  27.626  1.00  0.00     0.338 C 
ATOM     32  O   UNL A   1      33.449  33.067  28.089  1.00  0.00    -0.246 OA
BRANCH  31  33
ATOM     33  C   UNL A   1      35.148  31.416  27.955  1.00  0.00     0.060 A 
ATOM     34  C   UNL A   1      36.195  32.286  28.263  1.00  0.00     0.016 A 
ATOM     35  C   UNL A   1      35.345  30.035  27.997  1.00  0.00     0.016 A 
ATOM     36  C   UNL A   1      37.449  31.784  28.598  1.00  0.00     0.010 A 
ATOM     37  C   UNL A   1      36.563  29.534  28.477  1.00  0.00     0.010 A 
ATOM     38  C   UNL A   1      37.607  30.409  28.827  1.00  0.00    -0.014 A 
BRANCH  38  39
ATOM     39  C   UNL A   1      38.753  29.949  29.662  1.00  0.00     0.031 A 
ATOM     40  C   UNL A   1      39.767  28.961  29.172  1.00  0.00     0.074 A 
ATOM     41  C   UNL A   1      38.842  30.432  30.920  1.00  0.00     0.049 A 
ATOM     42  N   UNL A   1      40.773  28.422  29.814  1.00  0.00    -0.248 NA
ATOM     43  C   UNL A   1      39.633  28.512  27.782  1.00  0.00     0.031 C 
ATOM     44  C   UNL A   1      37.913  31.396  31.517  1.00  0.00     0.029 A 
ATOM     45  N   UNL A   1      39.754  30.200  31.918  1.00  0.00    -0.354 N 
ATOM     46  C   UNL A   1      41.389  27.564  28.914  1.00  0.00     0.074 A 
ATOM     47  C   UNL A   1      40.630  27.641  27.681  1.00  0.00     0.031 C 
ATOM     48  C   UNL A   1      38.337  31.722  32.744  1.00  0.00     0.029 A 
ATOM     49  C   UNL A   1      39.503  30.915  33.064  1.00  0.00     0.049 A 
ATOM     50  H   UNL A   1      40.515  29.582  31.822  1.00  0.00     0.167 HD
ATOM     51  C   UNL A   1      42.483  26.785  29.106  1.00  0.00     0.037 A 
ATOM     52  C   UNL A   1      40.112  30.899  34.263  1.00  0.00     0.037 A 
ATOM     53  C   UNL A   1      43.214  26.702  30.348  1.00  0.00     0.049 A 
ATOM     54  C   UNL A   1      41.266  29.969  34.472  1.00  0.00     0.074 A 
ATOM     55  C   UNL A   1      44.335  25.943  30.644  1.00  0.00     0.029 A 
ATOM     56  N   UNL A   1      42.890  27.395  31.507  1.00  0.00    -0.354 N 
ATOM     57  N   UNL A   1      41.838  29.161  33.614  1.00  0.00    -0.248 NA
ATOM     58  C   UNL A   1      41.844  29.929  35.820  1.00  0.00     0.031 C 
ATOM     59  C   UNL A   1      44.651  26.132  31.994  1.00  0.00     0.029 A 
ATOM     60  C   UNL A   1      43.765  27.054  32.529  1.00  0.00     0.049 A 
ATOM     61  H   UNL A   1      42.146  28.035  31.593  1.00  0.00     0.167 HD
ATOM     62  C   UNL A   1      42.851  28.522  34.310  1.00  0.00     0.074 A 
ATOM     63  C   UNL A   1      42.827  29.053  35.659  1.00  0.00     0.031 C 
ATOM     64  C   UNL A   1      43.720  27.581  33.871  1.00  0.00     0.037 A 
BRANCH  51  65
ATOM     65  C   UNL A   1      42.924  25.919  27.959  1.00  0.00     0.064 A 
ATOM     66  C   UNL A   1      43.847  26.368  27.002  1.00  0.00     0.173 A 
ATOM     67  C   UNL A   1      42.425  24.613  27.823  1.00  0.00     0.173 A 
ATOM     68  F   UNL A   1      44.342  27.612  27.075  1.00  0.00    -0.203 F 
ATOM     69  C   UNL A   1      44.226  25.556  25.935  1.00  0.00     0.198 A 
ATOM     70  C   UNL A   1      42.827  23.794  26.771  1.00  0.00     0.198 A 
ATOM     71  F   UNL A   1      41.543  24.130  28.711  1.00  0.00    -0.203 F 
ATOM     72  F   UNL A   1      45.063  26.028  25.001  1.00  0.00    -0.200 F 
ATOM     73  C   UNL A   1      43.719  24.270  25.822  1.00  0.00     0.200 A 
ATOM     74  F   UNL A   1      42.341  22.550  26.667  1.00  0.00    -0.200 F 
ATOM     75  F   UNL A   1      44.078  23.494  24.789  1.00  0.00    -0.200 F 
ENDBRANCH  51  65
BRANCH  52  76
ATOM     76  C   UNL A   1      39.607  31.776  35.352  1.00  0.00     0.064 A 
ATOM     77  C   UNL A   1      40.061  33.094  35.485  1.00  0.00     0.173 A 
ATOM     78  C   UNL A   1      38.624  31.330  36.251  1.00  0.00     0.173 A 
ATOM     79  F   UNL A   1      41.017  33.558  34.665  1.00  0.00    -0.203 F 
ATOM     80  C   UNL A   1      39.552  33.934  36.473  1.00  0.00     0.198 A 
ATOM     81  C   UNL A   1      38.092  32.180  37.216  1.00  0.00     0.198 A 
ATOM     82  F   UNL A   1      38.153  30.078  36.164  1.00  0.00    -0.203 F 
ATOM     83  F   UNL A   1      40.025  35.181  36.598  1.00  0.00    -0.200 F 
ATOM     84  C   UNL A   1      38.559  33.480  37.330  1.00  0.00     0.200 A 
ATOM     85  F   UNL A   1      37.120  31.743  38.028  1.00  0.00    -0.200 F 
ATOM     86  F   UNL A   1      38.057  34.294  38.267  1.00  0.00    -0.200 F 
ENDBRANCH  52  76
BRANCH  64  87
ATOM     87  C   UNL A   1      44.730  27.081  34.862  1.00  0.00     0.064 A 
ATOM     88  C   UNL A   1      45.959  27.730  35.048  1.00  0.00     0.173 A 
ATOM     89  C   UNL A   1      44.459  25.947  35.642  1.00  0.00     0.173 A 
ATOM     90  F   UNL A   1      46.275  28.805  34.311  1.00  0.00    -0.203 F 
ATOM     91  C   UNL A   1      46.893  27.245  35.961  1.00  0.00     0.198 A 
ATOM     92  C   UNL A   1      45.381  25.482  36.574  1.00  0.00     0.198 A 
ATOM     93  F   UNL A   1      43.297  25.293  35.501  1.00  0.00    -0.203 F 
ATOM     94  F   UNL A   1      48.082  27.850  36.086  1.00  0.00    -0.200 F 
ATOM     95  C   UNL A   1      46.599  26.126  36.728  1.00  0.00     0.200 A 
ATOM     96  F   UNL A   1      45.092  24.408  37.321  1.00  0.00    -0.200 F 
ATOM     97  F   UNL A   1      47.497  25.663  37.609  1.00  0.00    -0.200 F 
ENDBRANCH  64  87
ENDBRANCH  38  39
ENDBRANCH  31  33
ENDBRANCH  30  31
ENDBRANCH  29  30
ENDBRANCH   1  29
TORSDOF 13
ENDMDL
MODEL 3
REMARK VINA RESULT:     -13.3      1.627      2.149
REMARK SMILES Cn1c(C[NH+]2CCC3(CC2)NC(=O)C[C@@H]3C(=O)OCCOC(=O)c2ccc(-c3c4nc(c(-c5c(F)c(F)c(F)c(F)c5F)c5ccc([nH]5)c(-c5c(F)c(F)c(F)c(F)c5F)c5nc(c(-c6c(F)c(F)c(F)c(F)c6F)c6ccc3[nH]6)C=C5)C=C4)cc2)nc2ccccc21
REMARK SMILES IDX 19 1 18 2 16 3 17 4 15 5 5 6 6 7 10 8 7 10 9 11 8 12 11 13
REMARK SMILES IDX 12 14 14 16 13 17 4 18 3 19 1 20 2 21 93 22 87 23 88 24
REMARK SMILES IDX 92 25 89 26 91 27 90 28 20 29 21 30 22 31 23 32 24 33 25 34
REMARK SMILES IDX 86 35 26 36 85 37 27 38 28 39 29 40 79 41 30 42 84 43 78 44
REMARK SMILES IDX 80 45 31 46 83 47 77 48 76 49 32 51 64 52 44 53 63 54 45 55
REMARK SMILES IDX 48 56 62 57 81 58 46 59 47 60 61 62 82 63 49 64 33 65 34 66
REMARK SMILES IDX 42 67 35 68 36 69 40 70 43 71 37 72 38 73 41 74 39 75 65 76
REMARK SMILES IDX 66 77 74 78 67 79 68 80 72 81 75 82 69 83 70 84 73 85 71 86
REMARK SMILES IDX 50 87 51 88 59 89 52 90 53 91 57 92 60 93 54 94 55 95 58 96
REMARK SMILES IDX 56 97
REMARK H PARENT 5 9 11 15 80 50 48 61
REMARK Flexibility Score: inf
ROOT
ATOM      1  C   UNL A   1      31.779  29.490  27.261  1.00  0.00     0.274 C 
ENDROOT
BRANCH   1   2
ATOM      2  O   UNL A   1      32.001  28.663  26.098  1.00  0.00    -0.462 OA
BRANCH   2   3
ATOM      3  C   UNL A   1      31.329  27.493  26.068  1.00  0.00     0.311 C 
ATOM      4  O   UNL A   1      31.321  26.686  26.991  1.00  0.00    -0.252 OA
BRANCH   3   5
ATOM      5  C   UNL A   1      30.595  27.219  24.770  1.00  0.00     0.134 C 
ATOM      6  N   UNL A   1      32.442  23.524  24.259  1.00  0.00    -0.328 N 
ATOM      7  C   UNL A   1      33.223  24.742  24.279  1.00  0.00     0.265 C 
ATOM      8  C   UNL A   1      31.047  23.747  24.617  1.00  0.00     0.265 C 
ATOM      9  H   UNL A   1      32.805  22.958  25.027  1.00  0.00     0.348 HD
ATOM     10  C   UNL A   1      32.600  25.958  23.588  1.00  0.00     0.091 C 
ATOM     11  C   UNL A   1      30.321  24.832  23.829  1.00  0.00     0.091 C 
ATOM     12  C   UNL A   1      31.080  26.166  23.721  1.00  0.00     0.064 C 
ATOM     13  N   UNL A   1      30.654  26.820  22.478  1.00  0.00    -0.349 N 
ATOM     14  C   UNL A   1      30.452  28.170  22.567  1.00  0.00     0.221 C 
ATOM     15  H   UNL A   1      30.521  26.322  21.639  1.00  0.00     0.164 HD
ATOM     16  C   UNL A   1      30.527  28.559  24.005  1.00  0.00     0.117 C 
ATOM     17  O   UNL A   1      30.279  28.924  21.626  1.00  0.00    -0.275 OA
BRANCH   6  18
ATOM     18  C   UNL A   1      32.712  22.600  23.150  1.00  0.00     0.339 C 
BRANCH  18  19
ATOM     19  C   UNL A   1      32.898  21.166  23.541  1.00  0.00     0.165 A 
ATOM     20  C   UNL A   1      34.921  21.419  25.059  1.00  0.00     0.152 C 
ATOM     21  N   UNL A   1      33.909  20.677  24.346  1.00  0.00    -0.326 N 
ATOM     22  C   UNL A   1      33.899  19.301  24.246  1.00  0.00     0.068 A 
ATOM     23  N   UNL A   1      32.153  20.175  23.091  1.00  0.00    -0.227 NA
ATOM     24  C   UNL A   1      32.796  19.026  23.447  1.00  0.00     0.089 A 
ATOM     25  C   UNL A   1      34.742  18.296  24.730  1.00  0.00     0.028 A 
ATOM     26  C   UNL A   1      32.517  17.706  23.071  1.00  0.00     0.030 A 
ATOM     27  C   UNL A   1      34.469  16.986  24.322  1.00  0.00     0.002 A 
ATOM     28  C   UNL A   1      33.380  16.693  23.499  1.00  0.00     0.002 A 
ENDBRANCH  18  19
ENDBRANCH   6  18
ENDBRANCH   3   5
ENDBRANCH   2   3
ENDBRANCH   1   2
BRANCH   1  29
ATOM     29  C   UNL A   1      31.786  30.979  26.877  1.00  0.00     0.275 C 
BRANCH  29  30
ATOM     30  O   UNL A   1      33.098  31.526  26.620  1.00  0.00    -0.458 OA
BRANCH  30  31
ATOM     31  C   UNL A   1      33.665  32.234  27.623  1.00  0.00     0.338 C 
ATOM     32  O   UNL A   1      33.269  33.273  28.105  1.00  0.00    -0.246 OA
BRANCH  31  33
ATOM     33  C   UNL A   1      34.976  31.633  27.942  1.00  0.00     0.060 A 
ATOM     34  C   UNL A   1      36.011  32.500  28.298  1.00  0.00     0.016 A 
ATOM     35  C   UNL A   1      35.189  30.254  27.929  1.00  0.00     0.016 A 
ATOM     36  C   UNL A   1      37.267  31.999  28.626  1.00  0.00     0.010 A 
ATOM     37  C   UNL A   1      36.407  29.747  28.401  1.00  0.00     0.010 A 
ATOM     38  C   UNL A   1      37.437  30.617  28.799  1.00  0.00    -0.014 A 
BRANCH  38  39
ATOM     39  C   UNL A   1      38.579  30.135  29.628  1.00  0.00     0.031 A 
ATOM     40  C   UNL A   1      39.591  29.155  29.118  1.00  0.00     0.074 A 
ATOM     41  C   UNL A   1      38.665  30.589  30.896  1.00  0.00     0.049 A 
ATOM     42  N   UNL A   1      40.594  28.599  29.752  1.00  0.00    -0.248 NA
ATOM     43  C   UNL A   1      39.461  28.737  27.718  1.00  0.00     0.031 C 
ATOM     44  C   UNL A   1      37.737  31.542  31.512  1.00  0.00     0.029 A 
ATOM     45  N   UNL A   1      39.574  30.333  31.892  1.00  0.00    -0.354 N 
ATOM     46  C   UNL A   1      41.210  27.759  28.835  1.00  0.00     0.074 A 
ATOM     47  C   UNL A   1      40.456  27.866  27.602  1.00  0.00     0.031 C 
ATOM     48  C   UNL A   1      38.158  31.840  32.747  1.00  0.00     0.029 A 
ATOM     49  C   UNL A   1      39.321  31.022  33.053  1.00  0.00     0.049 A 
ATOM     50  H   UNL A   1      40.332  29.714  31.784  1.00  0.00     0.167 HD
ATOM     51  C   UNL A   1      42.301  26.972  29.013  1.00  0.00     0.037 A 
ATOM     52  C   UNL A   1      39.925  30.977  34.253  1.00  0.00     0.037 A 
ATOM     53  C   UNL A   1      43.028  26.859  30.255  1.00  0.00     0.049 A 
ATOM     54  C   UNL A   1      41.076  30.039  34.445  1.00  0.00     0.074 A 
ATOM     55  C   UNL A   1      44.145  26.091  30.537  1.00  0.00     0.029 A 
ATOM     56  N   UNL A   1      42.702  27.527  31.429  1.00  0.00    -0.354 N 
ATOM     57  N   UNL A   1      41.648  29.249  33.570  1.00  0.00    -0.248 NA
ATOM     58  C   UNL A   1      41.649  29.967  35.793  1.00  0.00     0.031 C 
ATOM     59  C   UNL A   1      44.457  26.248  31.892  1.00  0.00     0.029 A 
ATOM     60  C   UNL A   1      43.573  27.161  32.445  1.00  0.00     0.049 A 
ATOM     61  H   UNL A   1      41.960  28.168  31.526  1.00  0.00     0.167 HD
ATOM     62  C   UNL A   1      42.657  28.591  34.256  1.00  0.00     0.074 A 
ATOM     63  C   UNL A   1      42.630  29.092  35.616  1.00  0.00     0.031 C 
ATOM     64  C   UNL A   1      43.525  27.657  33.798  1.00  0.00     0.037 A 
BRANCH  51  65
ATOM     65  C   UNL A   1      42.743  26.131  27.848  1.00  0.00     0.064 A 
ATOM     66  C   UNL A   1      43.736  26.562  26.955  1.00  0.00     0.173 A 
ATOM     67  C   UNL A   1      42.173  24.866  27.630  1.00  0.00     0.173 A 
ATOM     68  F   UNL A   1      44.302  27.769  27.108  1.00  0.00    -0.203 F 
ATOM     69  C   UNL A   1      44.116  25.775  25.870  1.00  0.00     0.198 A 
ATOM     70  C   UNL A   1      42.575  24.070  26.560  1.00  0.00     0.198 A 
ATOM     71  F   UNL A   1      41.222  24.401  28.454  1.00  0.00    -0.203 F 
ATOM     72  F   UNL A   1      45.024  26.234  24.997  1.00  0.00    -0.200 F 
ATOM     73  C   UNL A   1      43.538  24.530  25.675  1.00  0.00     0.200 A 
ATOM     74  F   UNL A   1      42.020  22.864  26.377  1.00  0.00    -0.200 F 
ATOM     75  F   UNL A   1      43.899  23.778  24.625  1.00  0.00    -0.200 F 
ENDBRANCH  51  65
BRANCH  52  76
ATOM     76  C   UNL A   1      39.419  31.831  35.360  1.00  0.00     0.064 A 
ATOM     77  C   UNL A   1      38.520  31.326  36.307  1.00  0.00     0.173 A 
ATOM     78  C   UNL A   1      39.862  33.154  35.521  1.00  0.00     0.173 A 
ATOM     79  F   UNL A   1      38.049  30.075  36.182  1.00  0.00    -0.203 F 
ATOM     80  C   UNL A   1      38.084  32.109  37.374  1.00  0.00     0.198 A 
ATOM     81  C   UNL A   1      39.452  33.925  36.605  1.00  0.00     0.198 A 
ATOM     82  F   UNL A   1      40.726  33.684  34.643  1.00  0.00    -0.203 F 
ATOM     83  F   UNL A   1      37.201  31.612  38.250  1.00  0.00    -0.200 F 
ATOM     84  C   UNL A   1      38.560  33.403  37.529  1.00  0.00     0.200 A 
ATOM     85  F   UNL A   1      39.930  35.166  36.760  1.00  0.00    -0.200 F 
ATOM     86  F   UNL A   1      38.155  34.149  38.565  1.00  0.00    -0.200 F 
ENDBRANCH  52  76
BRANCH  64  87
ATOM     87  C   UNL A   1      44.530  27.132  34.781  1.00  0.00     0.064 A 
ATOM     88  C   UNL A   1      44.282  25.980  35.540  1.00  0.00     0.173 A 
ATOM     89  C   UNL A   1      45.760  27.784  34.955  1.00  0.00     0.173 A 
ATOM     90  F   UNL A   1      43.112  25.334  35.426  1.00  0.00    -0.203 F 
ATOM     91  C   UNL A   1      45.219  25.513  36.459  1.00  0.00     0.198 A 
ATOM     92  C   UNL A   1      46.706  27.299  35.852  1.00  0.00     0.198 A 
ATOM     93  F   UNL A   1      46.044  28.889  34.251  1.00  0.00    -0.203 F 
ATOM     94  F   UNL A   1      44.941  24.440  37.211  1.00  0.00    -0.200 F 
ATOM     95  C   UNL A   1      46.433  26.169  36.608  1.00  0.00     0.200 A 
ATOM     96  F   UNL A   1      47.882  27.927  35.988  1.00  0.00    -0.200 F 
ATOM     97  F   UNL A   1      47.335  25.717  37.490  1.00  0.00    -0.200 F 
ENDBRANCH  64  87
ENDBRANCH  38  39
ENDBRANCH  31  33
ENDBRANCH  30  31
ENDBRANCH  29  30
ENDBRANCH   1  29
TORSDOF 13
ENDMDL
