MODEL 1
REMARK VINA RESULT:     -11.6      0.000      0.000
REMARK SMILES CN(C[C@@H]1CCC[N@H+]1C)C(=O)N[C@H]1COC[C@]1(C)C(=O)OCCOC(=O)c1ccc(-c2c3nc(c(-c4c(F)c(F)c(F)c(F)c4F)c4ccc([nH]4)c(-c4c(F)c(F)c(F)c(F)c4F)c4nc(c(-c5c(F)c(F)c(F)c(F)c5F)c5ccc2[nH]5)C=C4)C=C3)cc1
REMARK SMILES IDX 22 1 21 2 19 3 20 4 17 5 13 6 14 7 15 8 16 9 18 10 12 11
REMARK SMILES IDX 10 12 11 13 2 15 1 16 3 17 4 18 5 19 8 20 6 21 7 22 9 23
REMARK SMILES IDX 23 25 24 26 25 27 26 28 27 29 28 30 89 31 29 32 88 33 30 34
REMARK SMILES IDX 31 35 32 36 82 37 33 38 87 39 81 40 83 41 34 42 86 43 80 44
REMARK SMILES IDX 79 45 35 47 67 48 47 49 66 50 48 51 51 52 65 53 84 54 49 55
REMARK SMILES IDX 50 56 64 58 85 59 52 60 36 61 37 62 45 63 38 64 39 65 43 66
REMARK SMILES IDX 46 67 40 68 41 69 44 70 42 71 68 72 69 73 77 74 70 75 71 76
REMARK SMILES IDX 75 77 78 78 72 79 73 80 76 81 74 82 53 83 54 84 62 85 55 86
REMARK SMILES IDX 56 87 60 88 63 89 57 90 58 91 61 92 59 93
REMARK H PARENT 12 14 8 24 83 46 51 57
REMARK Flexibility Score: inf
ROOT
ATOM      1  C   UNL A   1      30.969  31.161  25.466  1.00  0.00     0.274 C 
ENDROOT
BRANCH   1   2
ATOM      2  O   UNL A   1      31.778  29.964  25.518  1.00  0.00    -0.462 OA
BRANCH   2   3
ATOM      3  C   UNL A   1      31.517  29.016  24.574  1.00  0.00     0.316 C 
ATOM      4  O   UNL A   1      30.398  28.769  24.142  1.00  0.00    -0.251 OA
BRANCH   3   5
ATOM      5  C   UNL A   1      32.764  28.205  24.232  1.00  0.00     0.111 C 
ATOM      6  C   UNL A   1      32.592  26.708  24.514  1.00  0.00     0.129 C 
ATOM      7  C   UNL A   1      33.039  26.558  25.969  1.00  0.00     0.186 C 
ATOM      8  O   UNL A   1      33.840  27.690  26.311  1.00  0.00    -0.378 OA
ATOM      9  C   UNL A   1      33.903  28.573  25.182  1.00  0.00     0.181 C 
ATOM     10  C   UNL A   1      33.116  28.580  22.788  1.00  0.00     0.028 C 
BRANCH   6  11
ATOM     11  N   UNL A   1      33.442  25.880  23.650  1.00  0.00    -0.332 N 
ATOM     12  C   UNL A   1      33.961  24.641  23.660  1.00  0.00     0.317 C 
ATOM     13  O   UNL A   1      34.491  24.312  22.595  1.00  0.00    -0.249 OA
ATOM     14  H   UNL A   1      33.705  26.369  22.838  1.00  0.00     0.165 HD
BRANCH  12  15
ATOM     15  N   UNL A   1      33.935  23.814  24.747  1.00  0.00    -0.322 N 
ATOM     16  C   UNL A   1      32.777  22.938  24.882  1.00  0.00     0.149 C 
BRANCH  15  17
ATOM     17  C   UNL A   1      34.989  23.561  25.727  1.00  0.00     0.185 C 
BRANCH  17  18
ATOM     18  C   UNL A   1      36.246  22.790  25.226  1.00  0.00     0.203 C 
ATOM     19  C   UNL A   1      36.039  21.312  24.876  1.00  0.00     0.073 C 
ATOM     20  N   UNL A   1      37.371  22.709  26.186  1.00  0.00    -0.333 N 
ATOM     21  C   UNL A   1      37.415  20.669  24.993  1.00  0.00     0.068 C 
ATOM     22  C   UNL A   1      38.306  21.742  25.593  1.00  0.00     0.262 C 
ATOM     23  C   UNL A   1      38.042  23.988  26.405  1.00  0.00     0.333 C 
ATOM     24  H   UNL A   1      37.029  22.432  27.106  1.00  0.00     0.348 HD
ENDBRANCH  17  18
ENDBRANCH  15  17
ENDBRANCH  12  15
ENDBRANCH   6  11
ENDBRANCH   3   5
ENDBRANCH   2   3
ENDBRANCH   1   2
BRANCH   1  25
ATOM     25  C   UNL A   1      31.340  32.122  26.589  1.00  0.00     0.275 C 
BRANCH  25  26
ATOM     26  O   UNL A   1      32.570  31.691  27.194  1.00  0.00    -0.458 OA
BRANCH  26  27
ATOM     27  C   UNL A   1      33.406  32.668  27.590  1.00  0.00     0.338 C 
ATOM     28  O   UNL A   1      33.157  33.860  27.728  1.00  0.00    -0.246 OA
BRANCH  27  29
ATOM     29  C   UNL A   1      34.709  32.086  27.936  1.00  0.00     0.060 A 
ATOM     30  C   UNL A   1      34.781  30.717  28.181  1.00  0.00     0.016 A 
ATOM     31  C   UNL A   1      35.809  32.906  28.183  1.00  0.00     0.016 A 
ATOM     32  C   UNL A   1      35.911  30.173  28.779  1.00  0.00     0.010 A 
ATOM     33  C   UNL A   1      36.979  32.343  28.703  1.00  0.00     0.010 A 
ATOM     34  C   UNL A   1      37.022  30.982  29.055  1.00  0.00    -0.014 A 
BRANCH  34  35
ATOM     35  C   UNL A   1      38.172  30.415  29.806  1.00  0.00     0.031 A 
ATOM     36  C   UNL A   1      38.339  30.731  31.268  1.00  0.00     0.074 A 
ATOM     37  C   UNL A   1      39.024  29.559  29.211  1.00  0.00     0.049 A 
ATOM     38  N   UNL A   1      39.329  30.437  32.073  1.00  0.00    -0.248 NA
ATOM     39  C   UNL A   1      37.253  31.489  31.910  1.00  0.00     0.031 C 
ATOM     40  C   UNL A   1      38.945  29.113  27.819  1.00  0.00     0.029 A 
ATOM     41  N   UNL A   1      40.108  28.885  29.714  1.00  0.00    -0.354 N 
ATOM     42  C   UNL A   1      39.018  31.028  33.289  1.00  0.00     0.074 A 
ATOM     43  C   UNL A   1      37.738  31.685  33.127  1.00  0.00     0.031 C 
ATOM     44  C   UNL A   1      39.900  28.197  27.597  1.00  0.00     0.029 A 
ATOM     45  C   UNL A   1      40.697  28.038  28.810  1.00  0.00     0.049 A 
ATOM     46  H   UNL A   1      40.434  28.998  30.637  1.00  0.00     0.167 HD
ATOM     47  C   UNL A   1      39.741  31.033  34.433  1.00  0.00     0.037 A 
ATOM     48  C   UNL A   1      41.768  27.231  28.940  1.00  0.00     0.037 A 
ATOM     49  C   UNL A   1      40.976  30.321  34.619  1.00  0.00     0.049 A 
ATOM     50  C   UNL A   1      42.523  27.210  30.237  1.00  0.00     0.074 A 
ATOM     51  C   UNL A   1      41.806  30.298  35.726  1.00  0.00     0.029 A 
ATOM     52  N   UNL A   1      41.539  29.474  33.679  1.00  0.00    -0.354 N 
ATOM     53  N   UNL A   1      42.282  27.868  31.344  1.00  0.00    -0.248 NA
ATOM     54  C   UNL A   1      43.713  26.349  30.296  1.00  0.00     0.031 C 
ATOM     55  C   UNL A   1      42.873  29.433  35.456  1.00  0.00     0.029 A 
ATOM     56  C   UNL A   1      42.696  28.907  34.186  1.00  0.00     0.049 A 
ATOM     57  H   UNL A   1      41.170  29.299  32.782  1.00  0.00     0.167 HD
ATOM     58  C   UNL A   1      43.291  27.512  32.225  1.00  0.00     0.074 A 
ATOM     59  C   UNL A   1      44.132  26.553  31.537  1.00  0.00     0.031 C 
ATOM     60  C   UNL A   1      43.513  27.953  33.486  1.00  0.00     0.037 A 
BRANCH  47  61
ATOM     61  C   UNL A   1      39.228  31.870  35.564  1.00  0.00     0.064 A 
ATOM     62  C   UNL A   1      38.360  31.353  36.533  1.00  0.00     0.173 A 
ATOM     63  C   UNL A   1      39.634  33.208  35.684  1.00  0.00     0.173 A 
ATOM     64  F   UNL A   1      37.931  30.085  36.447  1.00  0.00    -0.203 F 
ATOM     65  C   UNL A   1      37.903  32.151  37.579  1.00  0.00     0.198 A 
ATOM     66  C   UNL A   1      39.188  33.998  36.739  1.00  0.00     0.198 A 
ATOM     67  F   UNL A   1      40.463  33.748  34.777  1.00  0.00    -0.203 F 
ATOM     68  F   UNL A   1      37.045  31.649  38.478  1.00  0.00    -0.200 F 
ATOM     69  C   UNL A   1      38.320  33.471  37.683  1.00  0.00     0.200 A 
ATOM     70  F   UNL A   1      39.594  35.271  36.840  1.00  0.00    -0.200 F 
ATOM     71  F   UNL A   1      37.877  34.237  38.690  1.00  0.00    -0.200 F 
ENDBRANCH  47  61
BRANCH  48  72
ATOM     72  C   UNL A   1      42.191  26.382  27.800  1.00  0.00     0.064 A 
ATOM     73  C   UNL A   1      43.191  26.816  26.919  1.00  0.00     0.173 A 
ATOM     74  C   UNL A   1      41.617  25.124  27.575  1.00  0.00     0.173 A 
ATOM     75  F   UNL A   1      43.751  28.022  27.082  1.00  0.00    -0.203 F 
ATOM     76  C   UNL A   1      43.596  26.021  25.848  1.00  0.00     0.198 A 
ATOM     77  C   UNL A   1      42.037  24.322  26.516  1.00  0.00     0.198 A 
ATOM     78  F   UNL A   1      40.655  24.670  28.391  1.00  0.00    -0.203 F 
ATOM     79  F   UNL A   1      44.533  26.470  25.001  1.00  0.00    -0.200 F 
ATOM     80  C   UNL A   1      43.024  24.773  25.652  1.00  0.00     0.200 A 
ATOM     81  F   UNL A   1      41.486  23.115  26.334  1.00  0.00    -0.200 F 
ATOM     82  F   UNL A   1      43.417  24.008  24.625  1.00  0.00    -0.200 F 
ENDBRANCH  48  72
BRANCH  60  83
ATOM     83  C   UNL A   1      44.708  27.402  34.199  1.00  0.00     0.064 A 
ATOM     84  C   UNL A   1      44.638  26.187  34.894  1.00  0.00     0.173 A 
ATOM     85  C   UNL A   1      45.936  28.076  34.158  1.00  0.00     0.173 A 
ATOM     86  F   UNL A   1      43.478  25.518  34.967  1.00  0.00    -0.203 F 
ATOM     87  C   UNL A   1      45.757  25.670  35.538  1.00  0.00     0.198 A 
ATOM     88  C   UNL A   1      47.056  27.550  34.793  1.00  0.00     0.198 A 
ATOM     89  F   UNL A   1      46.047  29.242  33.505  1.00  0.00    -0.203 F 
ATOM     90  F   UNL A   1      45.664  24.521  36.220  1.00  0.00    -0.200 F 
ATOM     91  C   UNL A   1      46.966  26.349  35.484  1.00  0.00     0.200 A 
ATOM     92  F   UNL A   1      48.225  28.204  34.741  1.00  0.00    -0.200 F 
ATOM     93  F   UNL A   1      48.043  25.851  36.106  1.00  0.00    -0.200 F 
ENDBRANCH  60  83
ENDBRANCH  34  35
ENDBRANCH  27  29
ENDBRANCH  26  27
ENDBRANCH  25  26
ENDBRANCH   1  25
TORSDOF 15
ENDMDL
MODEL 2
REMARK VINA RESULT:     -11.6      1.390      2.292
REMARK SMILES CN(C[C@@H]1CCC[N@H+]1C)C(=O)N[C@H]1COC[C@]1(C)C(=O)OCCOC(=O)c1ccc(-c2c3nc(c(-c4c(F)c(F)c(F)c(F)c4F)c4ccc([nH]4)c(-c4c(F)c(F)c(F)c(F)c4F)c4nc(c(-c5c(F)c(F)c(F)c(F)c5F)c5ccc2[nH]5)C=C4)C=C3)cc1
REMARK SMILES IDX 22 1 21 2 19 3 20 4 17 5 13 6 14 7 15 8 16 9 18 10 12 11
REMARK SMILES IDX 10 12 11 13 2 15 1 16 3 17 4 18 5 19 8 20 6 21 7 22 9 23
REMARK SMILES IDX 23 25 24 26 25 27 26 28 27 29 28 30 89 31 29 32 88 33 30 34
REMARK SMILES IDX 31 35 32 36 82 37 33 38 87 39 81 40 83 41 34 42 86 43 80 44
REMARK SMILES IDX 79 45 35 47 67 48 47 49 66 50 48 51 51 52 65 53 84 54 49 55
REMARK SMILES IDX 50 56 64 58 85 59 52 60 36 61 37 62 45 63 38 64 39 65 43 66
REMARK SMILES IDX 46 67 40 68 41 69 44 70 42 71 68 72 69 73 77 74 70 75 71 76
REMARK SMILES IDX 75 77 78 78 72 79 73 80 76 81 74 82 53 83 54 84 62 85 55 86
REMARK SMILES IDX 56 87 60 88 63 89 57 90 58 91 61 92 59 93
REMARK H PARENT 12 14 8 24 83 46 51 57
REMARK Flexibility Score: inf
ROOT
ATOM      1  C   UNL A   1      31.073  31.759  26.147  1.00  0.00     0.274 C 
ENDROOT
BRANCH   1   2
ATOM      2  O   UNL A   1      31.784  30.591  26.615  1.00  0.00    -0.462 OA
BRANCH   2   3
ATOM      3  C   UNL A   1      32.035  29.623  25.688  1.00  0.00     0.316 C 
ATOM      4  O   UNL A   1      31.661  29.678  24.523  1.00  0.00    -0.251 OA
BRANCH   3   5
ATOM      5  C   UNL A   1      32.707  28.405  26.315  1.00  0.00     0.111 C 
ATOM      6  C   UNL A   1      32.463  27.119  25.518  1.00  0.00     0.129 C 
ATOM      7  C   UNL A   1      31.169  26.562  26.114  1.00  0.00     0.186 C 
ATOM      8  O   UNL A   1      30.981  27.150  27.403  1.00  0.00    -0.378 OA
ATOM      9  C   UNL A   1      32.047  28.075  27.653  1.00  0.00     0.181 C 
ATOM     10  C   UNL A   1      34.175  28.802  26.515  1.00  0.00     0.028 C 
BRANCH   6  11
ATOM     11  N   UNL A   1      33.546  26.144  25.694  1.00  0.00    -0.332 N 
ATOM     12  C   UNL A   1      33.936  24.982  25.142  1.00  0.00     0.317 C 
ATOM     13  O   UNL A   1      35.049  24.600  25.517  1.00  0.00    -0.249 OA
ATOM     14  H   UNL A   1      34.155  26.417  26.417  1.00  0.00     0.165 HD
BRANCH  12  15
ATOM     15  N   UNL A   1      33.176  24.264  24.264  1.00  0.00    -0.322 N 
ATOM     16  C   UNL A   1      33.405  24.503  22.843  1.00  0.00     0.149 C 
BRANCH  15  17
ATOM     17  C   UNL A   1      32.262  23.158  24.541  1.00  0.00     0.185 C 
BRANCH  17  18
ATOM     18  C   UNL A   1      32.873  21.725  24.549  1.00  0.00     0.203 C 
ATOM     19  C   UNL A   1      32.331  20.752  23.498  1.00  0.00     0.073 C 
ATOM     20  N   UNL A   1      32.670  20.951  25.797  1.00  0.00    -0.333 N 
ATOM     21  C   UNL A   1      32.605  19.359  24.052  1.00  0.00     0.068 C 
ATOM     22  C   UNL A   1      33.100  19.585  25.468  1.00  0.00     0.262 C 
ATOM     23  C   UNL A   1      33.437  21.463  26.929  1.00  0.00     0.333 C 
ATOM     24  H   UNL A   1      31.695  21.011  26.092  1.00  0.00     0.348 HD
ENDBRANCH  17  18
ENDBRANCH  15  17
ENDBRANCH  12  15
ENDBRANCH   6  11
ENDBRANCH   3   5
ENDBRANCH   2   3
ENDBRANCH   1   2
BRANCH   1  25
ATOM     25  C   UNL A   1      31.763  33.039  26.605  1.00  0.00     0.275 C 
BRANCH  25  26
ATOM     26  O   UNL A   1      32.604  32.747  27.733  1.00  0.00    -0.458 OA
BRANCH  26  27
ATOM     27  C   UNL A   1      33.581  33.637  27.985  1.00  0.00     0.338 C 
ATOM     28  O   UNL A   1      33.491  34.858  28.032  1.00  0.00    -0.246 OA
BRANCH  27  29
ATOM     29  C   UNL A   1      34.826  32.922  28.295  1.00  0.00     0.060 A 
ATOM     30  C   UNL A   1      34.752  31.567  28.611  1.00  0.00     0.016 A 
ATOM     31  C   UNL A   1      36.026  33.616  28.439  1.00  0.00     0.016 A 
ATOM     32  C   UNL A   1      35.845  30.923  29.180  1.00  0.00     0.010 A 
ATOM     33  C   UNL A   1      37.151  32.944  28.929  1.00  0.00     0.010 A 
ATOM     34  C   UNL A   1      37.056  31.606  29.353  1.00  0.00    -0.014 A 
BRANCH  34  35
ATOM     35  C   UNL A   1      38.173  30.945  30.075  1.00  0.00     0.031 A 
ATOM     36  C   UNL A   1      38.346  31.170  31.553  1.00  0.00     0.074 A 
ATOM     37  C   UNL A   1      38.988  30.084  29.435  1.00  0.00     0.049 A 
ATOM     38  N   UNL A   1      39.317  30.784  32.343  1.00  0.00    -0.248 NA
ATOM     39  C   UNL A   1      37.293  31.941  32.234  1.00  0.00     0.031 C 
ATOM     40  C   UNL A   1      38.896  29.722  28.020  1.00  0.00     0.029 A 
ATOM     41  N   UNL A   1      40.036  29.332  29.902  1.00  0.00    -0.354 N 
ATOM     42  C   UNL A   1      39.027  31.320  33.590  1.00  0.00     0.074 A 
ATOM     43  C   UNL A   1      37.780  32.044  33.462  1.00  0.00     0.031 C 
ATOM     44  C   UNL A   1      39.808  28.776  27.749  1.00  0.00     0.029 A 
ATOM     45  C   UNL A   1      40.590  28.511  28.953  1.00  0.00     0.049 A 
ATOM     46  H   UNL A   1      40.361  29.378  30.831  1.00  0.00     0.167 HD
ATOM     47  C   UNL A   1      39.742  31.226  34.735  1.00  0.00     0.037 A 
ATOM     48  C   UNL A   1      41.621  27.649  29.041  1.00  0.00     0.037 A 
ATOM     49  C   UNL A   1      40.941  30.447  34.883  1.00  0.00     0.049 A 
ATOM     50  C   UNL A   1      42.367  27.519  30.338  1.00  0.00     0.074 A 
ATOM     51  C   UNL A   1      41.763  30.322  35.991  1.00  0.00     0.029 A 
ATOM     52  N   UNL A   1      41.470  29.628  33.899  1.00  0.00    -0.354 N 
ATOM     53  N   UNL A   1      42.150  28.124  31.479  1.00  0.00    -0.248 NA
ATOM     54  C   UNL A   1      43.515  26.601  30.351  1.00  0.00     0.031 C 
ATOM     55  C   UNL A   1      42.790  29.424  35.675  1.00  0.00     0.029 A 
ATOM     56  C   UNL A   1      42.596  28.980  34.376  1.00  0.00     0.049 A 
ATOM     57  H   UNL A   1      41.098  29.522  32.992  1.00  0.00     0.167 HD
ATOM     58  C   UNL A   1      43.136  27.671  32.342  1.00  0.00     0.074 A 
ATOM     59  C   UNL A   1      43.936  26.715  31.603  1.00  0.00     0.031 C 
ATOM     60  C   UNL A   1      43.371  28.029  33.627  1.00  0.00     0.037 A 
BRANCH  47  61
ATOM     61  C   UNL A   1      39.263  32.020  35.910  1.00  0.00     0.064 A 
ATOM     62  C   UNL A   1      39.691  33.334  36.139  1.00  0.00     0.173 A 
ATOM     63  C   UNL A   1      38.343  31.457  36.807  1.00  0.00     0.173 A 
ATOM     64  F   UNL A   1      40.584  33.905  35.318  1.00  0.00    -0.203 F 
ATOM     65  C   UNL A   1      39.225  34.054  37.236  1.00  0.00     0.198 A 
ATOM     66  C   UNL A   1      37.867  32.185  37.893  1.00  0.00     0.198 A 
ATOM     67  F   UNL A   1      37.907  30.200  36.629  1.00  0.00    -0.203 F 
ATOM     68  F   UNL A   1      39.672  35.297  37.459  1.00  0.00    -0.200 F 
ATOM     69  C   UNL A   1      38.311  33.481  38.110  1.00  0.00     0.200 A 
ATOM     70  F   UNL A   1      36.982  31.631  38.734  1.00  0.00    -0.200 F 
ATOM     71  F   UNL A   1      37.865  34.175  39.166  1.00  0.00    -0.200 F 
ENDBRANCH  47  61
BRANCH  48  72
ATOM     72  C   UNL A   1      42.011  26.846  27.856  1.00  0.00     0.064 A 
ATOM     73  C   UNL A   1      42.985  27.316  26.965  1.00  0.00     0.173 A 
ATOM     74  C   UNL A   1      41.429  25.598  27.597  1.00  0.00     0.173 A 
ATOM     75  F   UNL A   1      43.551  28.515  27.161  1.00  0.00    -0.203 F 
ATOM     76  C   UNL A   1      43.359  26.565  25.851  1.00  0.00     0.198 A 
ATOM     77  C   UNL A   1      41.818  24.840  26.496  1.00  0.00     0.198 A 
ATOM     78  F   UNL A   1      40.491  25.111  28.422  1.00  0.00    -0.203 F 
ATOM     79  F   UNL A   1      44.271  27.048  24.996  1.00  0.00    -0.200 F 
ATOM     80  C   UNL A   1      42.780  25.326  25.622  1.00  0.00     0.200 A 
ATOM     81  F   UNL A   1      41.261  23.641  26.280  1.00  0.00    -0.200 F 
ATOM     82  F   UNL A   1      43.143  24.603  24.554  1.00  0.00    -0.200 F 
ENDBRANCH  48  72
BRANCH  60  83
ATOM     83  C   UNL A   1      44.535  27.384  34.311  1.00  0.00     0.064 A 
ATOM     84  C   UNL A   1      45.784  28.016  34.362  1.00  0.00     0.173 A 
ATOM     85  C   UNL A   1      44.390  26.143  34.946  1.00  0.00     0.173 A 
ATOM     86  F   UNL A   1      45.967  29.198  33.755  1.00  0.00    -0.203 F 
ATOM     87  C   UNL A   1      46.857  27.420  35.017  1.00  0.00     0.198 A 
ATOM     88  C   UNL A   1      45.463  25.556  35.611  1.00  0.00     0.198 A 
ATOM     89  F   UNL A   1      43.212  25.503  34.921  1.00  0.00    -0.203 F 
ATOM     90  F   UNL A   1      48.052  28.028  35.031  1.00  0.00    -0.200 F 
ATOM     91  C   UNL A   1      46.695  26.193  35.644  1.00  0.00     0.200 A 
ATOM     92  F   UNL A   1      45.307  24.371  36.217  1.00  0.00    -0.200 F 
ATOM     93  F   UNL A   1      47.730  25.620  36.272  1.00  0.00    -0.200 F 
ENDBRANCH  60  83
ENDBRANCH  34  35
ENDBRANCH  27  29
ENDBRANCH  26  27
ENDBRANCH  25  26
ENDBRANCH   1  25
TORSDOF 15
ENDMDL
MODEL 3
REMARK VINA RESULT:     -11.6      1.407      7.634
REMARK SMILES CN(C[C@@H]1CCC[N@H+]1C)C(=O)N[C@H]1COC[C@]1(C)C(=O)OCCOC(=O)c1ccc(-c2c3nc(c(-c4c(F)c(F)c(F)c(F)c4F)c4ccc([nH]4)c(-c4c(F)c(F)c(F)c(F)c4F)c4nc(c(-c5c(F)c(F)c(F)c(F)c5F)c5ccc2[nH]5)C=C4)C=C3)cc1
REMARK SMILES IDX 22 1 21 2 19 3 20 4 17 5 13 6 14 7 15 8 16 9 18 10 12 11
REMARK SMILES IDX 10 12 11 13 2 15 1 16 3 17 4 18 5 19 8 20 6 21 7 22 9 23
REMARK SMILES IDX 23 25 24 26 25 27 26 28 27 29 28 30 89 31 29 32 88 33 30 34
REMARK SMILES IDX 31 35 32 36 82 37 33 38 87 39 81 40 83 41 34 42 86 43 80 44
REMARK SMILES IDX 79 45 35 47 67 48 47 49 66 50 48 51 51 52 65 53 84 54 49 55
REMARK SMILES IDX 50 56 64 58 85 59 52 60 36 61 37 62 45 63 38 64 39 65 43 66
REMARK SMILES IDX 46 67 40 68 41 69 44 70 42 71 68 72 69 73 77 74 70 75 71 76
REMARK SMILES IDX 75 77 78 78 72 79 73 80 76 81 74 82 53 83 54 84 62 85 55 86
REMARK SMILES IDX 56 87 60 88 63 89 57 90 58 91 61 92 59 93
REMARK H PARENT 12 14 8 24 83 46 51 57
REMARK Flexibility Score: inf
ROOT
ATOM      1  C   UNL A   1      32.741  29.700  24.750  1.00  0.00     0.274 C 
ENDROOT
BRANCH   1   2
ATOM      2  O   UNL A   1      32.117  28.561  24.116  1.00  0.00    -0.462 OA
BRANCH   2   3
ATOM      3  C   UNL A   1      32.583  27.333  24.485  1.00  0.00     0.316 C 
ATOM      4  O   UNL A   1      33.692  26.905  24.193  1.00  0.00    -0.251 OA
BRANCH   3   5
ATOM      5  C   UNL A   1      31.502  26.507  25.177  1.00  0.00     0.111 C 
ATOM      6  C   UNL A   1      31.565  25.021  24.807  1.00  0.00     0.129 C 
ATOM      7  C   UNL A   1      30.679  24.918  23.564  1.00  0.00     0.186 C 
ATOM      8  O   UNL A   1      29.819  26.059  23.531  1.00  0.00    -0.378 OA
ATOM      9  C   UNL A   1      30.123  26.903  24.649  1.00  0.00     0.181 C 
ATOM     10  C   UNL A   1      31.627  26.833  26.671  1.00  0.00     0.028 C 
BRANCH   6  11
ATOM     11  N   UNL A   1      31.026  24.163  25.868  1.00  0.00    -0.332 N 
ATOM     12  C   UNL A   1      31.495  23.284  26.770  1.00  0.00     0.317 C 
ATOM     13  O   UNL A   1      30.656  22.924  27.601  1.00  0.00    -0.249 OA
ATOM     14  H   UNL A   1      30.049  24.256  25.938  1.00  0.00     0.165 HD
BRANCH  12  15
ATOM     15  N   UNL A   1      32.774  22.804  26.770  1.00  0.00    -0.322 N 
ATOM     16  C   UNL A   1      33.264  22.232  28.019  1.00  0.00     0.149 C 
BRANCH  15  17
ATOM     17  C   UNL A   1      33.684  22.633  25.640  1.00  0.00     0.185 C 
BRANCH  17  18
ATOM     18  C   UNL A   1      33.601  21.283  24.867  1.00  0.00     0.203 C 
ATOM     19  C   UNL A   1      32.253  20.557  24.916  1.00  0.00     0.073 C 
ATOM     20  N   UNL A   1      34.523  20.221  25.335  1.00  0.00    -0.333 N 
ATOM     21  C   UNL A   1      32.568  19.093  24.635  1.00  0.00     0.068 C 
ATOM     22  C   UNL A   1      34.082  19.004  24.637  1.00  0.00     0.262 C 
ATOM     23  C   UNL A   1      35.925  20.495  25.034  1.00  0.00     0.333 C 
ATOM     24  H   UNL A   1      34.482  20.144  26.352  1.00  0.00     0.348 HD
ENDBRANCH  17  18
ENDBRANCH  15  17
ENDBRANCH  12  15
ENDBRANCH   6  11
ENDBRANCH   3   5
ENDBRANCH   2   3
ENDBRANCH   1   2
BRANCH   1  25
ATOM     25  C   UNL A   1      31.782  30.377  25.723  1.00  0.00     0.275 C 
BRANCH  25  26
ATOM     26  O   UNL A   1      32.403  30.467  27.015  1.00  0.00    -0.458 OA
BRANCH  26  27
ATOM     27  C   UNL A   1      33.107  31.588  27.254  1.00  0.00     0.338 C 
ATOM     28  O   UNL A   1      32.714  32.748  27.200  1.00  0.00    -0.246 OA
BRANCH  27  29
ATOM     29  C   UNL A   1      34.462  31.231  27.693  1.00  0.00     0.060 A 
ATOM     30  C   UNL A   1      34.738  29.895  27.977  1.00  0.00     0.016 A 
ATOM     31  C   UNL A   1      35.398  32.222  27.983  1.00  0.00     0.016 A 
ATOM     32  C   UNL A   1      35.901  29.552  28.656  1.00  0.00     0.010 A 
ATOM     33  C   UNL A   1      36.609  31.865  28.587  1.00  0.00     0.010 A 
ATOM     34  C   UNL A   1      36.847  30.534  28.976  1.00  0.00    -0.014 A 
BRANCH  34  35
ATOM     35  C   UNL A   1      38.024  30.174  29.810  1.00  0.00     0.031 A 
ATOM     36  C   UNL A   1      39.142  29.362  29.213  1.00  0.00     0.074 A 
ATOM     37  C   UNL A   1      38.135  30.631  31.071  1.00  0.00     0.049 A 
ATOM     38  N   UNL A   1      40.194  28.845  29.797  1.00  0.00    -0.248 NA
ATOM     39  C   UNL A   1      39.063  29.085  27.770  1.00  0.00     0.031 C 
ATOM     40  C   UNL A   1      37.159  31.480  31.755  1.00  0.00     0.029 A 
ATOM     41  N   UNL A   1      39.139  30.470  31.993  1.00  0.00    -0.354 N 
ATOM     42  C   UNL A   1      40.860  28.130  28.812  1.00  0.00     0.074 A 
ATOM     43  C   UNL A   1      40.108  28.292  27.586  1.00  0.00     0.031 C 
ATOM     44  C   UNL A   1      37.639  31.814  32.964  1.00  0.00     0.029 A 
ATOM     45  C   UNL A   1      38.924  31.151  33.165  1.00  0.00     0.049 A 
ATOM     46  H   UNL A   1      39.938  29.918  31.830  1.00  0.00     0.167 HD
ATOM     47  C   UNL A   1      41.992  27.395  28.923  1.00  0.00     0.037 A 
ATOM     48  C   UNL A   1      39.674  31.225  34.280  1.00  0.00     0.037 A 
ATOM     49  C   UNL A   1      42.781  27.292  30.120  1.00  0.00     0.049 A 
ATOM     50  C   UNL A   1      40.955  30.445  34.362  1.00  0.00     0.074 A 
ATOM     51  C   UNL A   1      43.920  26.539  30.347  1.00  0.00     0.029 A 
ATOM     52  N   UNL A   1      42.530  27.998  31.285  1.00  0.00    -0.354 N 
ATOM     53  N   UNL A   1      41.513  29.677  33.460  1.00  0.00    -0.248 NA
ATOM     54  C   UNL A   1      41.699  30.526  35.628  1.00  0.00     0.031 C 
ATOM     55  C   UNL A   1      44.359  26.791  31.652  1.00  0.00     0.029 A 
ATOM     56  C   UNL A   1      43.502  27.714  32.230  1.00  0.00     0.049 A 
ATOM     57  H   UNL A   1      41.773  28.614  31.422  1.00  0.00     0.167 HD
ATOM     58  C   UNL A   1      42.664  29.176  34.048  1.00  0.00     0.074 A 
ATOM     59  C   UNL A   1      42.744  29.750  35.375  1.00  0.00     0.031 C 
ATOM     60  C   UNL A   1      43.565  28.301  33.540  1.00  0.00     0.037 A 
BRANCH  47  61
ATOM     61  C   UNL A   1      42.420  26.610  27.722  1.00  0.00     0.064 A 
ATOM     62  C   UNL A   1      43.358  27.108  26.809  1.00  0.00     0.173 A 
ATOM     63  C   UNL A   1      41.893  25.329  27.499  1.00  0.00     0.173 A 
ATOM     64  F   UNL A   1      43.873  28.335  26.972  1.00  0.00    -0.203 F 
ATOM     65  C   UNL A   1      43.744  26.355  25.703  1.00  0.00     0.198 A 
ATOM     66  C   UNL A   1      42.294  24.573  26.402  1.00  0.00     0.198 A 
ATOM     67  F   UNL A   1      40.989  24.812  28.346  1.00  0.00    -0.203 F 
ATOM     68  F   UNL A   1      44.616  26.862  24.820  1.00  0.00    -0.200 F 
ATOM     69  C   UNL A   1      43.215  25.088  25.502  1.00  0.00     0.200 A 
ATOM     70  F   UNL A   1      41.784  23.348  26.211  1.00  0.00    -0.200 F 
ATOM     71  F   UNL A   1      43.588  24.365  24.436  1.00  0.00    -0.200 F 
ENDBRANCH  47  61
BRANCH  48  72
ATOM     72  C   UNL A   1      39.223  32.067  35.416  1.00  0.00     0.064 A 
ATOM     73  C   UNL A   1      38.429  31.525  36.435  1.00  0.00     0.173 A 
ATOM     74  C   UNL A   1      39.582  33.418  35.509  1.00  0.00     0.173 A 
ATOM     75  F   UNL A   1      38.042  30.243  36.374  1.00  0.00    -0.203 F 
ATOM     76  C   UNL A   1      38.005  32.310  37.506  1.00  0.00     0.198 A 
ATOM     77  C   UNL A   1      39.175  34.195  36.590  1.00  0.00     0.198 A 
ATOM     78  F   UNL A   1      40.339  33.979  34.555  1.00  0.00    -0.203 F 
ATOM     79  F   UNL A   1      37.221  31.778  38.454  1.00  0.00    -0.200 F 
ATOM     80  C   UNL A   1      38.383  33.642  37.586  1.00  0.00     0.200 A 
ATOM     81  F   UNL A   1      39.547  35.480  36.667  1.00  0.00    -0.200 F 
ATOM     82  F   UNL A   1      37.979  34.394  38.618  1.00  0.00    -0.200 F 
ENDBRANCH  48  72
BRANCH  60  83
ATOM     83  C   UNL A   1      44.711  27.918  34.422  1.00  0.00     0.064 A 
ATOM     84  C   UNL A   1      44.630  26.804  35.269  1.00  0.00     0.173 A 
ATOM     85  C   UNL A   1      45.908  28.648  34.396  1.00  0.00     0.173 A 
ATOM     86  F   UNL A   1      43.499  26.086  35.333  1.00  0.00    -0.203 F 
ATOM     87  C   UNL A   1      45.706  26.440  36.072  1.00  0.00     0.198 A 
ATOM     88  C   UNL A   1      46.986  28.274  35.192  1.00  0.00     0.198 A 
ATOM     89  F   UNL A   1      46.028  29.721  33.601  1.00  0.00    -0.203 F 
ATOM     90  F   UNL A   1      45.600  25.388  36.895  1.00  0.00    -0.200 F 
ATOM     91  C   UNL A   1      46.884  27.172  36.030  1.00  0.00     0.200 A 
ATOM     92  F   UNL A   1      48.124  28.980  35.151  1.00  0.00    -0.200 F 
ATOM     93  F   UNL A   1      47.919  26.822  36.806  1.00  0.00    -0.200 F 
ENDBRANCH  60  83
ENDBRANCH  34  35
ENDBRANCH  27  29
ENDBRANCH  26  27
ENDBRANCH  25  26
ENDBRANCH   1  25
TORSDOF 15
ENDMDL
