MODEL 1
REMARK VINA RESULT:     -13.5      0.000      0.000
REMARK SMILES C[C@@H](C(=O)OCCOC(=O)c1ccc(-c2c3nc(c(-c4c(F)c(F)c(F)c(F)c4F)c4ccc([nH]4)c(-c4c(F)c(F)c(F)c(F)c4F)c4nc(c(-c5c(F)c(F)c(F)c(F)c5F)c5ccc2[nH]5)C=C4)C=C3)cc1)c1ccc2c3cc(Cl)ccc3n(C(=O)c3cocn3)c2c1
REMARK SMILES IDX 6 1 5 2 3 3 4 4 2 5 1 6 74 7 75 8 94 9 76 10 93 11 77 12
REMARK SMILES IDX 85 13 78 14 84 15 79 16 83 17 80 18 82 19 81 20 86 21 87 22
REMARK SMILES IDX 88 23 89 24 92 25 90 26 91 27 7 28 8 29 9 30 10 31 11 32
REMARK SMILES IDX 12 33 73 34 13 35 72 36 14 37 15 38 16 39 66 40 17 41 71 42
REMARK SMILES IDX 65 43 67 44 18 45 70 46 64 47 63 48 19 50 51 51 31 52 50 53
REMARK SMILES IDX 32 54 35 55 49 56 68 57 33 58 34 59 48 61 69 62 36 63 20 64
REMARK SMILES IDX 21 65 29 66 22 67 23 68 27 69 30 70 24 71 25 72 28 73 26 74
REMARK SMILES IDX 52 75 53 76 61 77 54 78 55 79 59 80 62 81 56 82 57 83 60 84
REMARK SMILES IDX 58 85 37 86 38 87 46 88 39 89 40 90 44 91 47 92 41 93 42 94
REMARK SMILES IDX 45 95 43 96
REMARK H PARENT 67 49 35 60
REMARK Flexibility Score: inf
ROOT
ATOM      1  C   UNL A   1      31.382  29.350  24.145  1.00  0.00     0.274 C 
ENDROOT
BRANCH   1   2
ATOM      2  O   UNL A   1      30.304  28.393  24.048  1.00  0.00    -0.462 OA
BRANCH   2   3
ATOM      3  C   UNL A   1      30.497  27.344  23.199  1.00  0.00     0.313 C 
ATOM      4  O   UNL A   1      30.695  27.494  21.999  1.00  0.00    -0.252 OA
BRANCH   3   5
ATOM      5  C   UNL A   1      30.349  25.966  23.889  1.00  0.00     0.126 C 
ATOM      6  C   UNL A   1      29.234  25.992  24.947  1.00  0.00     0.025 C 
BRANCH   5   7
ATOM      7  C   UNL A   1      31.686  25.391  24.403  1.00  0.00    -0.032 A 
ATOM      8  C   UNL A   1      32.769  26.195  24.776  1.00  0.00     0.005 A 
ATOM      9  C   UNL A   1      31.850  23.992  24.490  1.00  0.00     0.032 A 
ATOM     10  C   UNL A   1      33.990  25.640  25.193  1.00  0.00     0.011 A 
ATOM     11  C   UNL A   1      33.128  23.440  24.740  1.00  0.00     0.058 A 
ATOM     12  C   UNL A   1      34.182  24.245  25.146  1.00  0.00     0.008 A 
ATOM     13  N   UNL A   1      33.621  22.134  24.535  1.00  0.00    -0.274 N 
ATOM     14  C   UNL A   1      35.299  23.400  25.385  1.00  0.00     0.009 A 
ATOM     15  C   UNL A   1      34.955  22.098  24.984  1.00  0.00     0.057 A 
ATOM     16  C   UNL A   1      36.613  23.677  25.828  1.00  0.00     0.031 A 
ATOM     17  C   UNL A   1      35.947  21.096  24.955  1.00  0.00     0.029 A 
ATOM     18  C   UNL A   1      37.571  22.668  25.828  1.00  0.00     0.041 A 
ATOM     19  C   UNL A   1      37.247  21.396  25.388  1.00  0.00     0.023 A 
ATOM     20  Cl  UNL A   1      39.177  23.019  26.333  1.00  0.00    -0.084 Cl
BRANCH  13  21
ATOM     21  C   UNL A   1      32.910  21.156  23.772  1.00  0.00     0.284 C 
ATOM     22  O   UNL A   1      32.510  21.542  22.676  1.00  0.00    -0.266 OA
BRANCH  21  23
ATOM     23  C   UNL A   1      32.641  19.768  24.134  1.00  0.00     0.167 A 
ATOM     24  C   UNL A   1      32.505  18.645  23.350  1.00  0.00     0.231 A 
ATOM     25  N   UNL A   1      32.619  19.366  25.468  1.00  0.00    -0.211 NA
ATOM     26  O   UNL A   1      32.375  17.556  24.166  1.00  0.00    -0.451 OA
ATOM     27  C   UNL A   1      32.499  18.064  25.421  1.00  0.00     0.308 A 
ENDBRANCH  21  23
ENDBRANCH  13  21
ENDBRANCH   5   7
ENDBRANCH   3   5
ENDBRANCH   2   3
ENDBRANCH   1   2
BRANCH   1  28
ATOM     28  C   UNL A   1      31.604  29.772  25.596  1.00  0.00     0.275 C 
BRANCH  28  29
ATOM     29  O   UNL A   1      32.989  30.088  25.828  1.00  0.00    -0.458 OA
BRANCH  29  30
ATOM     30  C   UNL A   1      33.224  31.026  26.774  1.00  0.00     0.338 C 
ATOM     31  O   UNL A   1      32.491  31.930  27.132  1.00  0.00    -0.246 OA
BRANCH  30  32
ATOM     32  C   UNL A   1      34.523  30.756  27.404  1.00  0.00     0.060 A 
ATOM     33  C   UNL A   1      34.837  29.436  27.695  1.00  0.00     0.016 A 
ATOM     34  C   UNL A   1      35.362  31.789  27.830  1.00  0.00     0.016 A 
ATOM     35  C   UNL A   1      35.961  29.149  28.461  1.00  0.00     0.010 A 
ATOM     36  C   UNL A   1      36.526  31.486  28.555  1.00  0.00     0.010 A 
ATOM     37  C   UNL A   1      36.822  30.159  28.900  1.00  0.00    -0.014 A 
BRANCH  37  38
ATOM     38  C   UNL A   1      37.958  29.774  29.783  1.00  0.00     0.031 A 
ATOM     39  C   UNL A   1      39.150  29.065  29.205  1.00  0.00     0.074 A 
ATOM     40  C   UNL A   1      37.990  30.179  31.069  1.00  0.00     0.049 A 
ATOM     41  N   UNL A   1      40.230  28.632  29.807  1.00  0.00    -0.248 NA
ATOM     42  C   UNL A   1      39.125  28.807  27.758  1.00  0.00     0.031 C 
ATOM     43  C   UNL A   1      36.947  30.963  31.727  1.00  0.00     0.029 A 
ATOM     44  N   UNL A   1      38.960  30.040  32.035  1.00  0.00    -0.354 N 
ATOM     45  C   UNL A   1      40.971  27.980  28.829  1.00  0.00     0.074 A 
ATOM     46  C   UNL A   1      40.241  28.113  27.587  1.00  0.00     0.031 C 
ATOM     47  C   UNL A   1      37.371  31.312  32.952  1.00  0.00     0.029 A 
ATOM     48  C   UNL A   1      38.690  30.735  33.190  1.00  0.00     0.049 A 
ATOM     49  H   UNL A   1      39.769  29.494  31.911  1.00  0.00     0.167 HD
ATOM     50  C   UNL A   1      42.136  27.303  28.969  1.00  0.00     0.037 A 
ATOM     51  C   UNL A   1      39.435  30.905  34.302  1.00  0.00     0.037 A 
ATOM     52  C   UNL A   1      42.887  27.219  30.194  1.00  0.00     0.049 A 
ATOM     53  C   UNL A   1      40.744  30.169  34.422  1.00  0.00     0.074 A 
ATOM     54  C   UNL A   1      44.041  26.500  30.454  1.00  0.00     0.029 A 
ATOM     55  N   UNL A   1      42.570  27.899  31.360  1.00  0.00    -0.354 N 
ATOM     56  N   UNL A   1      41.395  29.479  33.519  1.00  0.00    -0.248 NA
ATOM     57  C   UNL A   1      41.403  30.208  35.738  1.00  0.00     0.031 C 
ATOM     58  C   UNL A   1      44.398  26.711  31.790  1.00  0.00     0.029 A 
ATOM     59  C   UNL A   1      43.494  27.601  32.348  1.00  0.00     0.049 A 
ATOM     60  H   UNL A   1      41.802  28.506  31.469  1.00  0.00     0.167 HD
ATOM     61  C   UNL A   1      42.527  28.989  34.158  1.00  0.00     0.074 A 
ATOM     62  C   UNL A   1      42.510  29.517  35.505  1.00  0.00     0.031 C 
ATOM     63  C   UNL A   1      43.474  28.143  33.683  1.00  0.00     0.037 A 
BRANCH  50  64
ATOM     64  C   UNL A   1      42.616  26.510  27.790  1.00  0.00     0.064 A 
ATOM     65  C   UNL A   1      42.234  25.180  27.567  1.00  0.00     0.173 A 
ATOM     66  C   UNL A   1      43.469  27.115  26.853  1.00  0.00     0.173 A 
ATOM     67  F   UNL A   1      41.438  24.551  28.444  1.00  0.00    -0.203 F 
ATOM     68  C   UNL A   1      42.707  24.479  26.460  1.00  0.00     0.198 A 
ATOM     69  C   UNL A   1      43.917  26.420  25.734  1.00  0.00     0.198 A 
ATOM     70  F   UNL A   1      43.864  28.387  27.020  1.00  0.00    -0.203 F 
ATOM     71  F   UNL A   1      42.368  23.194  26.288  1.00  0.00    -0.200 F 
ATOM     72  C   UNL A   1      43.542  25.101  25.542  1.00  0.00     0.200 A 
ATOM     73  F   UNL A   1      44.716  27.027  24.845  1.00  0.00    -0.200 F 
ATOM     74  F   UNL A   1      43.992  24.424  24.476  1.00  0.00    -0.200 F 
ENDBRANCH  50  64
BRANCH  51  75
ATOM     75  C   UNL A   1      39.000  31.836  35.380  1.00  0.00     0.064 A 
ATOM     76  C   UNL A   1      39.352  33.194  35.320  1.00  0.00     0.173 A 
ATOM     77  C   UNL A   1      38.261  31.410  36.493  1.00  0.00     0.173 A 
ATOM     78  F   UNL A   1      40.069  33.652  34.283  1.00  0.00    -0.203 F 
ATOM     79  C   UNL A   1      39.002  34.081  36.336  1.00  0.00     0.198 A 
ATOM     80  C   UNL A   1      37.875  32.306  37.488  1.00  0.00     0.198 A 
ATOM     81  F   UNL A   1      37.903  30.124  36.610  1.00  0.00    -0.203 F 
ATOM     82  F   UNL A   1      39.400  35.358  36.274  1.00  0.00    -0.200 F 
ATOM     83  C   UNL A   1      38.255  33.637  37.416  1.00  0.00     0.200 A 
ATOM     84  F   UNL A   1      37.130  31.880  38.517  1.00  0.00    -0.200 F 
ATOM     85  F   UNL A   1      37.905  34.490  38.388  1.00  0.00    -0.200 F 
ENDBRANCH  51  75
BRANCH  63  86
ATOM     86  C   UNL A   1      44.566  27.724  34.624  1.00  0.00     0.064 A 
ATOM     87  C   UNL A   1      44.438  26.577  35.424  1.00  0.00     0.173 A 
ATOM     88  C   UNL A   1      45.774  28.436  34.688  1.00  0.00     0.173 A 
ATOM     89  F   UNL A   1      43.300  25.866  35.407  1.00  0.00    -0.203 F 
ATOM     90  C   UNL A   1      45.468  26.173  36.269  1.00  0.00     0.198 A 
ATOM     91  C   UNL A   1      46.813  28.013  35.513  1.00  0.00     0.198 A 
ATOM     92  F   UNL A   1      45.951  29.534  33.938  1.00  0.00    -0.203 F 
ATOM     93  F   UNL A   1      45.305  25.099  37.054  1.00  0.00    -0.200 F 
ATOM     94  C   UNL A   1      46.657  26.886  36.306  1.00  0.00     0.200 A 
ATOM     95  F   UNL A   1      47.966  28.694  35.539  1.00  0.00    -0.200 F 
ATOM     96  F   UNL A   1      47.651  26.490  37.114  1.00  0.00    -0.200 F 
ENDBRANCH  63  86
ENDBRANCH  37  38
ENDBRANCH  30  32
ENDBRANCH  29  30
ENDBRANCH  28  29
ENDBRANCH   1  28
TORSDOF 14
ENDMDL
MODEL 2
REMARK VINA RESULT:     -13.3      4.202      9.865
REMARK SMILES C[C@@H](C(=O)OCCOC(=O)c1ccc(-c2c3nc(c(-c4c(F)c(F)c(F)c(F)c4F)c4ccc([nH]4)c(-c4c(F)c(F)c(F)c(F)c4F)c4nc(c(-c5c(F)c(F)c(F)c(F)c5F)c5ccc2[nH]5)C=C4)C=C3)cc1)c1ccc2c3cc(Cl)ccc3n(C(=O)c3cocn3)c2c1
REMARK SMILES IDX 6 1 5 2 3 3 4 4 2 5 1 6 74 7 75 8 94 9 76 10 93 11 77 12
REMARK SMILES IDX 85 13 78 14 84 15 79 16 83 17 80 18 82 19 81 20 86 21 87 22
REMARK SMILES IDX 88 23 89 24 92 25 90 26 91 27 7 28 8 29 9 30 10 31 11 32
REMARK SMILES IDX 12 33 73 34 13 35 72 36 14 37 15 38 16 39 66 40 17 41 71 42
REMARK SMILES IDX 65 43 67 44 18 45 70 46 64 47 63 48 19 50 51 51 31 52 50 53
REMARK SMILES IDX 32 54 35 55 49 56 68 57 33 58 34 59 48 61 69 62 36 63 20 64
REMARK SMILES IDX 21 65 29 66 22 67 23 68 27 69 30 70 24 71 25 72 28 73 26 74
REMARK SMILES IDX 52 75 53 76 61 77 54 78 55 79 59 80 62 81 56 82 57 83 60 84
REMARK SMILES IDX 58 85 37 86 38 87 46 88 39 89 40 90 44 91 47 92 41 93 42 94
REMARK SMILES IDX 45 95 43 96
REMARK H PARENT 67 49 35 60
REMARK Flexibility Score: inf
ROOT
ATOM      1  C   UNL A   1      34.875  20.842  25.357  1.00  0.00     0.274 C 
ENDROOT
BRANCH   1   2
ATOM      2  O   UNL A   1      34.084  21.175  24.196  1.00  0.00    -0.462 OA
BRANCH   2   3
ATOM      3  C   UNL A   1      32.849  21.704  24.431  1.00  0.00     0.313 C 
ATOM      4  O   UNL A   1      32.092  21.258  25.284  1.00  0.00    -0.252 OA
BRANCH   3   5
ATOM      5  C   UNL A   1      32.483  22.851  23.457  1.00  0.00     0.126 C 
ATOM      6  C   UNL A   1      33.069  22.599  22.059  1.00  0.00     0.025 C 
BRANCH   5   7
ATOM      7  C   UNL A   1      32.787  24.255  24.021  1.00  0.00    -0.032 A 
ATOM      8  C   UNL A   1      33.794  24.497  24.963  1.00  0.00     0.005 A 
ATOM      9  C   UNL A   1      32.013  25.355  23.594  1.00  0.00     0.032 A 
ATOM     10  C   UNL A   1      34.014  25.778  25.493  1.00  0.00     0.011 A 
ATOM     11  C   UNL A   1      32.121  26.600  24.256  1.00  0.00     0.058 A 
ATOM     12  C   UNL A   1      33.148  26.838  25.158  1.00  0.00     0.008 A 
ATOM     13  N   UNL A   1      31.253  27.713  24.268  1.00  0.00    -0.274 N 
ATOM     14  C   UNL A   1      33.031  28.185  25.594  1.00  0.00     0.009 A 
ATOM     15  C   UNL A   1      31.845  28.716  25.059  1.00  0.00     0.057 A 
ATOM     16  C   UNL A   1      33.809  28.958  26.486  1.00  0.00     0.031 A 
ATOM     17  C   UNL A   1      31.403  29.988  25.479  1.00  0.00     0.029 A 
ATOM     18  C   UNL A   1      33.377  30.225  26.862  1.00  0.00     0.041 A 
ATOM     19  C   UNL A   1      32.184  30.732  26.375  1.00  0.00     0.023 A 
ATOM     20  Cl  UNL A   1      34.309  31.148  27.977  1.00  0.00    -0.084 Cl
BRANCH  13  21
ATOM     21  C   UNL A   1      29.921  27.653  23.753  1.00  0.00     0.284 C 
ATOM     22  O   UNL A   1      29.269  26.674  24.110  1.00  0.00    -0.266 OA
BRANCH  21  23
ATOM     23  C   UNL A   1      29.255  28.625  22.892  1.00  0.00     0.167 A 
ATOM     24  C   UNL A   1      27.942  29.036  22.848  1.00  0.00     0.231 A 
ATOM     25  N   UNL A   1      29.984  29.421  22.011  1.00  0.00    -0.211 NA
ATOM     26  O   UNL A   1      27.834  30.054  21.943  1.00  0.00    -0.451 OA
ATOM     27  C   UNL A   1      29.109  30.258  21.517  1.00  0.00     0.308 A 
ENDBRANCH  21  23
ENDBRANCH  13  21
ENDBRANCH   5   7
ENDBRANCH   3   5
ENDBRANCH   2   3
ENDBRANCH   1   2
BRANCH   1  28
ATOM     28  C   UNL A   1      36.358  20.767  25.001  1.00  0.00     0.275 C 
BRANCH  28  29
ATOM     29  O   UNL A   1      37.108  21.748  25.739  1.00  0.00    -0.458 OA
BRANCH  29  30
ATOM     30  C   UNL A   1      38.414  21.457  25.938  1.00  0.00     0.338 C 
ATOM     31  O   UNL A   1      38.997  20.418  25.688  1.00  0.00    -0.246 OA
BRANCH  30  32
ATOM     32  C   UNL A   1      39.098  22.648  26.460  1.00  0.00     0.060 A 
ATOM     33  C   UNL A   1      38.569  23.889  26.134  1.00  0.00     0.016 A 
ATOM     34  C   UNL A   1      40.315  22.558  27.139  1.00  0.00     0.016 A 
ATOM     35  C   UNL A   1      39.282  25.043  26.438  1.00  0.00     0.010 A 
ATOM     36  C   UNL A   1      41.003  23.731  27.493  1.00  0.00     0.010 A 
ATOM     37  C   UNL A   1      40.501  24.988  27.121  1.00  0.00    -0.014 A 
BRANCH  37  38
ATOM     38  C   UNL A   1      41.240  26.263  27.335  1.00  0.00     0.031 A 
ATOM     39  C   UNL A   1      40.710  27.282  28.304  1.00  0.00     0.074 A 
ATOM     40  C   UNL A   1      42.452  26.452  26.775  1.00  0.00     0.049 A 
ATOM     41  N   UNL A   1      41.195  28.457  28.620  1.00  0.00    -0.248 NA
ATOM     42  C   UNL A   1      39.470  26.935  29.012  1.00  0.00     0.031 C 
ATOM     43  C   UNL A   1      43.129  25.498  25.899  1.00  0.00     0.029 A 
ATOM     44  N   UNL A   1      43.356  27.481  26.904  1.00  0.00    -0.354 N 
ATOM     45  C   UNL A   1      40.278  29.021  29.497  1.00  0.00     0.074 A 
ATOM     46  C   UNL A   1      39.231  28.042  29.700  1.00  0.00     0.031 C 
ATOM     47  C   UNL A   1      44.369  25.942  25.646  1.00  0.00     0.029 A 
ATOM     48  C   UNL A   1      44.563  27.235  26.294  1.00  0.00     0.049 A 
ATOM     49  H   UNL A   1      43.157  28.315  27.388  1.00  0.00     0.167 HD
ATOM     50  C   UNL A   1      40.293  30.257  30.051  1.00  0.00     0.037 A 
ATOM     51  C   UNL A   1      45.700  27.960  26.282  1.00  0.00     0.037 A 
ATOM     52  C   UNL A   1      41.363  31.207  29.890  1.00  0.00     0.049 A 
ATOM     53  C   UNL A   1      45.706  29.318  26.935  1.00  0.00     0.074 A 
ATOM     54  C   UNL A   1      41.440  32.509  30.353  1.00  0.00     0.029 A 
ATOM     55  N   UNL A   1      42.555  30.947  29.233  1.00  0.00    -0.354 N 
ATOM     56  N   UNL A   1      44.796  29.881  27.690  1.00  0.00    -0.248 NA
ATOM     57  C   UNL A   1      46.892  30.157  26.697  1.00  0.00     0.031 C 
ATOM     58  C   UNL A   1      42.662  33.051  29.939  1.00  0.00     0.029 A 
ATOM     59  C   UNL A   1      43.367  32.070  29.261  1.00  0.00     0.049 A 
ATOM     60  H   UNL A   1      42.791  30.089  28.811  1.00  0.00     0.167 HD
ATOM     61  C   UNL A   1      45.287  31.142  28.002  1.00  0.00     0.074 A 
ATOM     62  C   UNL A   1      46.607  31.236  27.414  1.00  0.00     0.031 C 
ATOM     63  C   UNL A   1      44.683  32.147  28.682  1.00  0.00     0.037 A 
BRANCH  50  64
ATOM     64  C   UNL A   1      39.068  30.692  30.797  1.00  0.00     0.064 A 
ATOM     65  C   UNL A   1      37.999  31.353  30.177  1.00  0.00     0.173 A 
ATOM     66  C   UNL A   1      38.963  30.417  32.171  1.00  0.00     0.173 A 
ATOM     67  F   UNL A   1      38.060  31.658  28.873  1.00  0.00    -0.203 F 
ATOM     68  C   UNL A   1      36.880  31.744  30.910  1.00  0.00     0.198 A 
ATOM     69  C   UNL A   1      37.832  30.783  32.894  1.00  0.00     0.198 A 
ATOM     70  F   UNL A   1      39.958  29.785  32.812  1.00  0.00    -0.203 F 
ATOM     71  F   UNL A   1      35.889  32.416  30.309  1.00  0.00    -0.200 F 
ATOM     72  C   UNL A   1      36.795  31.453  32.265  1.00  0.00     0.200 A 
ATOM     73  F   UNL A   1      37.749  30.492  34.199  1.00  0.00    -0.200 F 
ATOM     74  F   UNL A   1      35.716  31.826  32.966  1.00  0.00    -0.200 F 
ENDBRANCH  50  64
BRANCH  51  75
ATOM     75  C   UNL A   1      46.947  27.418  25.675  1.00  0.00     0.064 A 
ATOM     76  C   UNL A   1      47.886  26.748  26.476  1.00  0.00     0.173 A 
ATOM     77  C   UNL A   1      47.252  27.569  24.315  1.00  0.00     0.173 A 
ATOM     78  F   UNL A   1      47.650  26.586  27.787  1.00  0.00    -0.203 F 
ATOM     79  C   UNL A   1      49.084  26.271  25.948  1.00  0.00     0.198 A 
ATOM     80  C   UNL A   1      48.431  27.055  23.778  1.00  0.00     0.198 A 
ATOM     81  F   UNL A   1      46.399  28.207  23.500  1.00  0.00    -0.203 F 
ATOM     82  F   UNL A   1      49.981  25.685  26.750  1.00  0.00    -0.200 F 
ATOM     83  C   UNL A   1      49.351  26.418  24.596  1.00  0.00     0.200 A 
ATOM     84  F   UNL A   1      48.675  27.174  22.466  1.00  0.00    -0.200 F 
ATOM     85  F   UNL A   1      50.496  25.949  24.082  1.00  0.00    -0.200 F 
ENDBRANCH  51  75
BRANCH  63  86
ATOM     86  C   UNL A   1      45.432  33.441  28.819  1.00  0.00     0.064 A 
ATOM     87  C   UNL A   1      45.299  34.464  27.867  1.00  0.00     0.173 A 
ATOM     88  C   UNL A   1      46.244  33.688  29.937  1.00  0.00     0.173 A 
ATOM     89  F   UNL A   1      44.543  34.276  26.775  1.00  0.00    -0.203 F 
ATOM     90  C   UNL A   1      45.969  35.676  28.017  1.00  0.00     0.198 A 
ATOM     91  C   UNL A   1      46.889  34.911  30.099  1.00  0.00     0.198 A 
ATOM     92  F   UNL A   1      46.399  32.747  30.881  1.00  0.00    -0.203 F 
ATOM     93  F   UNL A   1      45.859  36.621  27.074  1.00  0.00    -0.200 F 
ATOM     94  C   UNL A   1      46.756  35.901  29.137  1.00  0.00     0.200 A 
ATOM     95  F   UNL A   1      47.639  35.133  31.187  1.00  0.00    -0.200 F 
ATOM     96  F   UNL A   1      47.392  37.072  29.284  1.00  0.00    -0.200 F 
ENDBRANCH  63  86
ENDBRANCH  37  38
ENDBRANCH  30  32
ENDBRANCH  29  30
ENDBRANCH  28  29
ENDBRANCH   1  28
TORSDOF 14
ENDMDL
MODEL 3
REMARK VINA RESULT:     -13.0      4.362      9.998
REMARK SMILES C[C@@H](C(=O)OCCOC(=O)c1ccc(-c2c3nc(c(-c4c(F)c(F)c(F)c(F)c4F)c4ccc([nH]4)c(-c4c(F)c(F)c(F)c(F)c4F)c4nc(c(-c5c(F)c(F)c(F)c(F)c5F)c5ccc2[nH]5)C=C4)C=C3)cc1)c1ccc2c3cc(Cl)ccc3n(C(=O)c3cocn3)c2c1
REMARK SMILES IDX 6 1 5 2 3 3 4 4 2 5 1 6 74 7 75 8 94 9 76 10 93 11 77 12
REMARK SMILES IDX 85 13 78 14 84 15 79 16 83 17 80 18 82 19 81 20 86 21 87 22
REMARK SMILES IDX 88 23 89 24 92 25 90 26 91 27 7 28 8 29 9 30 10 31 11 32
REMARK SMILES IDX 12 33 73 34 13 35 72 36 14 37 15 38 16 39 66 40 17 41 71 42
REMARK SMILES IDX 65 43 67 44 18 45 70 46 64 47 63 48 19 50 51 51 31 52 50 53
REMARK SMILES IDX 32 54 35 55 49 56 68 57 33 58 34 59 48 61 69 62 36 63 20 64
REMARK SMILES IDX 21 65 29 66 22 67 23 68 27 69 30 70 24 71 25 72 28 73 26 74
REMARK SMILES IDX 52 75 53 76 61 77 54 78 55 79 59 80 62 81 56 82 57 83 60 84
REMARK SMILES IDX 58 85 37 86 38 87 46 88 39 89 40 90 44 91 47 92 41 93 42 94
REMARK SMILES IDX 45 95 43 96
REMARK H PARENT 67 49 35 60
REMARK Flexibility Score: inf
ROOT
ATOM      1  C   UNL A   1      35.857  22.536  24.070  1.00  0.00     0.274 C 
ENDROOT
BRANCH   1   2
ATOM      2  O   UNL A   1      34.511  22.037  23.914  1.00  0.00    -0.462 OA
BRANCH   2   3
ATOM      3  C   UNL A   1      33.816  21.790  25.060  1.00  0.00     0.313 C 
ATOM      4  O   UNL A   1      33.255  20.722  25.275  1.00  0.00    -0.252 OA
BRANCH   3   5
ATOM      5  C   UNL A   1      33.740  23.016  26.003  1.00  0.00     0.126 C 
ATOM      6  C   UNL A   1      33.614  22.580  27.471  1.00  0.00     0.025 C 
BRANCH   5   7
ATOM      7  C   UNL A   1      32.691  24.061  25.567  1.00  0.00    -0.032 A 
ATOM      8  C   UNL A   1      31.523  23.725  24.872  1.00  0.00     0.005 A 
ATOM      9  C   UNL A   1      32.911  25.425  25.856  1.00  0.00     0.032 A 
ATOM     10  C   UNL A   1      30.611  24.704  24.447  1.00  0.00     0.011 A 
ATOM     11  C   UNL A   1      32.085  26.416  25.276  1.00  0.00     0.058 A 
ATOM     12  C   UNL A   1      30.910  26.069  24.625  1.00  0.00     0.008 A 
ATOM     13  N   UNL A   1      32.289  27.803  25.116  1.00  0.00    -0.274 N 
ATOM     14  C   UNL A   1      30.274  27.274  24.220  1.00  0.00     0.009 A 
ATOM     15  C   UNL A   1      31.140  28.343  24.507  1.00  0.00     0.057 A 
ATOM     16  C   UNL A   1      29.056  27.515  23.544  1.00  0.00     0.031 A 
ATOM     17  C   UNL A   1      30.820  29.636  24.046  1.00  0.00     0.029 A 
ATOM     18  C   UNL A   1      28.738  28.804  23.128  1.00  0.00     0.041 A 
ATOM     19  C   UNL A   1      29.613  29.851  23.366  1.00  0.00     0.023 A 
ATOM     20  Cl  UNL A   1      27.273  29.087  22.273  1.00  0.00    -0.084 Cl
BRANCH  13  21
ATOM     21  C   UNL A   1      33.559  28.423  25.330  1.00  0.00     0.284 C 
ATOM     22  O   UNL A   1      34.404  28.186  24.469  1.00  0.00    -0.266 OA
BRANCH  21  23
ATOM     23  C   UNL A   1      33.943  29.311  26.422  1.00  0.00     0.167 A 
ATOM     24  C   UNL A   1      35.066  29.322  27.219  1.00  0.00     0.231 A 
ATOM     25  N   UNL A   1      33.192  30.445  26.722  1.00  0.00    -0.211 NA
ATOM     26  O   UNL A   1      35.018  30.425  28.024  1.00  0.00    -0.451 OA
ATOM     27  C   UNL A   1      33.887  31.073  27.635  1.00  0.00     0.308 A 
ENDBRANCH  21  23
ENDBRANCH  13  21
ENDBRANCH   5   7
ENDBRANCH   3   5
ENDBRANCH   2   3
ENDBRANCH   1   2
BRANCH   1  28
ATOM     28  C   UNL A   1      36.801  21.421  24.514  1.00  0.00     0.275 C 
BRANCH  28  29
ATOM     29  O   UNL A   1      37.311  21.681  25.835  1.00  0.00    -0.458 OA
BRANCH  29  30
ATOM     30  C   UNL A   1      38.630  21.440  26.012  1.00  0.00     0.338 C 
ATOM     31  O   UNL A   1      39.247  20.423  25.750  1.00  0.00    -0.246 OA
BRANCH  30  32
ATOM     32  C   UNL A   1      39.277  22.656  26.522  1.00  0.00     0.060 A 
ATOM     33  C   UNL A   1      38.750  23.878  26.131  1.00  0.00     0.016 A 
ATOM     34  C   UNL A   1      40.462  22.603  27.259  1.00  0.00     0.016 A 
ATOM     35  C   UNL A   1      39.437  25.050  26.427  1.00  0.00     0.010 A 
ATOM     36  C   UNL A   1      41.121  23.795  27.603  1.00  0.00     0.010 A 
ATOM     37  C   UNL A   1      40.624  25.032  27.166  1.00  0.00    -0.014 A 
BRANCH  37  38
ATOM     38  C   UNL A   1      41.340  26.323  27.370  1.00  0.00     0.031 A 
ATOM     39  C   UNL A   1      40.788  27.342  28.327  1.00  0.00     0.074 A 
ATOM     40  C   UNL A   1      42.550  26.528  26.811  1.00  0.00     0.049 A 
ATOM     41  N   UNL A   1      41.251  28.528  28.632  1.00  0.00    -0.248 NA
ATOM     42  C   UNL A   1      39.552  26.980  29.034  1.00  0.00     0.031 C 
ATOM     43  C   UNL A   1      43.246  25.577  25.947  1.00  0.00     0.029 A 
ATOM     44  N   UNL A   1      43.434  27.575  26.934  1.00  0.00    -0.354 N 
ATOM     45  C   UNL A   1      40.320  29.085  29.500  1.00  0.00     0.074 A 
ATOM     46  C   UNL A   1      39.291  28.089  29.710  1.00  0.00     0.031 C 
ATOM     47  C   UNL A   1      44.480  26.041  25.694  1.00  0.00     0.029 A 
ATOM     48  C   UNL A   1      44.648  27.344  26.330  1.00  0.00     0.049 A 
ATOM     49  H   UNL A   1      43.219  28.410  27.408  1.00  0.00     0.167 HD
ATOM     50  C   UNL A   1      40.312  30.326  30.041  1.00  0.00     0.037 A 
ATOM     51  C   UNL A   1      45.772  28.088  26.314  1.00  0.00     0.037 A 
ATOM     52  C   UNL A   1      41.365  31.294  29.875  1.00  0.00     0.049 A 
ATOM     53  C   UNL A   1      45.751  29.453  26.953  1.00  0.00     0.074 A 
ATOM     54  C   UNL A   1      41.417  32.601  30.325  1.00  0.00     0.029 A 
ATOM     55  N   UNL A   1      42.564  31.048  29.224  1.00  0.00    -0.354 N 
ATOM     56  N   UNL A   1      44.828  30.007  27.699  1.00  0.00    -0.248 NA
ATOM     57  C   UNL A   1      46.923  30.311  26.711  1.00  0.00     0.031 C 
ATOM     58  C   UNL A   1      42.631  33.161  29.910  1.00  0.00     0.029 A 
ATOM     59  C   UNL A   1      43.355  32.186  29.244  1.00  0.00     0.049 A 
ATOM     60  H   UNL A   1      42.817  30.191  28.811  1.00  0.00     0.167 HD
ATOM     61  C   UNL A   1      45.296  31.280  28.001  1.00  0.00     0.074 A 
ATOM     62  C   UNL A   1      46.616  31.391  27.415  1.00  0.00     0.031 C 
ATOM     63  C   UNL A   1      44.672  32.281  28.668  1.00  0.00     0.037 A 
BRANCH  50  64
ATOM     64  C   UNL A   1      39.076  30.747  30.780  1.00  0.00     0.064 A 
ATOM     65  C   UNL A   1      37.986  31.356  30.144  1.00  0.00     0.173 A 
ATOM     66  C   UNL A   1      38.985  30.511  32.162  1.00  0.00     0.173 A 
ATOM     67  F   UNL A   1      38.033  31.622  28.831  1.00  0.00    -0.203 F 
ATOM     68  C   UNL A   1      36.858  31.734  30.870  1.00  0.00     0.198 A 
ATOM     69  C   UNL A   1      37.845  30.865  32.878  1.00  0.00     0.198 A 
ATOM     70  F   UNL A   1      40.001  29.930  32.818  1.00  0.00    -0.203 F 
ATOM     71  F   UNL A   1      35.845  32.357  30.253  1.00  0.00    -0.200 F 
ATOM     72  C   UNL A   1      36.787  31.483  32.233  1.00  0.00     0.200 A 
ATOM     73  F   UNL A   1      37.776  30.612  34.192  1.00  0.00    -0.200 F 
ATOM     74  F   UNL A   1      35.698  31.845  32.927  1.00  0.00    -0.200 F 
ENDBRANCH  50  64
BRANCH  51  75
ATOM     75  C   UNL A   1      47.031  27.564  25.716  1.00  0.00     0.064 A 
ATOM     76  C   UNL A   1      47.287  27.745  24.347  1.00  0.00     0.173 A 
ATOM     77  C   UNL A   1      47.985  26.859  26.463  1.00  0.00     0.173 A 
ATOM     78  F   UNL A   1      46.401  28.403  23.583  1.00  0.00    -0.203 F 
ATOM     79  C   UNL A   1      48.433  27.226  23.748  1.00  0.00     0.198 A 
ATOM     80  C   UNL A   1      49.151  26.376  25.871  1.00  0.00     0.198 A 
ATOM     81  F   UNL A   1      47.793  26.647  27.772  1.00  0.00    -0.203 F 
ATOM     82  F   UNL A   1      48.620  27.369  22.429  1.00  0.00    -0.200 F 
ATOM     83  C   UNL A   1      49.369  26.549  24.513  1.00  0.00     0.200 A 
ATOM     84  F   UNL A   1      50.067  25.746  26.619  1.00  0.00    -0.200 F 
ATOM     85  F   UNL A   1      50.478  26.059  23.942  1.00  0.00    -0.200 F 
ENDBRANCH  51  75
BRANCH  63  86
ATOM     86  C   UNL A   1      45.397  33.589  28.794  1.00  0.00     0.064 A 
ATOM     87  C   UNL A   1      46.247  33.850  29.881  1.00  0.00     0.173 A 
ATOM     88  C   UNL A   1      45.293  34.570  27.795  1.00  0.00     0.173 A 
ATOM     89  F   UNL A   1      46.376  32.949  30.867  1.00  0.00    -0.203 F 
ATOM     90  C   UNL A   1      46.945  35.051  29.975  1.00  0.00     0.198 A 
ATOM     91  C   UNL A   1      46.014  35.758  27.878  1.00  0.00     0.198 A 
ATOM     92  F   UNL A   1      44.501  34.368  26.731  1.00  0.00    -0.203 F 
ATOM     93  F   UNL A   1      47.717  35.293  31.043  1.00  0.00    -0.200 F 
ATOM     94  C   UNL A   1      46.834  36.000  28.969  1.00  0.00     0.200 A 
ATOM     95  F   UNL A   1      45.917  36.668  26.900  1.00  0.00    -0.200 F 
ATOM     96  F   UNL A   1      47.515  37.151  29.057  1.00  0.00    -0.200 F 
ENDBRANCH  63  86
ENDBRANCH  37  38
ENDBRANCH  30  32
ENDBRANCH  29  30
ENDBRANCH  28  29
ENDBRANCH   1  28
TORSDOF 14
ENDMDL
