MODEL 1
REMARK VINA RESULT:     -10.6      0.000      0.000
REMARK SMILES CN(CC(=O)OCCOC(=O)c1ccc(-c2c3nc(c(-c4c(F)c(F)c(F)c(F)c4F)c4ccc([nH]4)c(-c4c(F)c(F)c(F)c(F)c4F)c4nc(c(-c5c(F)c(F)c(F)c(F)c5F)c5ccc2[nH]5)C=C4)C=C3)cc1)C(=O)[C@@H]1CC[C@@H](C[NH3+])O1
REMARK SMILES IDX 6 1 4 2 5 3 3 4 2 5 1 6 75 7 76 8 77 9 78 10 83 11 79 12
REMARK SMILES IDX 80 13 81 14 82 15 7 19 8 20 9 21 10 22 11 23 12 24 13 25
REMARK SMILES IDX 74 26 14 27 73 28 15 29 16 30 17 31 67 32 18 33 72 34 66 35
REMARK SMILES IDX 68 36 19 37 71 38 65 39 64 40 20 42 52 43 32 44 51 45 33 46
REMARK SMILES IDX 36 47 50 48 69 49 34 50 35 51 49 53 70 54 37 55 21 56 22 57
REMARK SMILES IDX 30 58 23 59 24 60 28 61 31 62 25 63 26 64 29 65 27 66 53 67
REMARK SMILES IDX 54 68 62 69 55 70 56 71 60 72 63 73 57 74 58 75 61 76 59 77
REMARK SMILES IDX 38 78 39 79 47 80 40 81 41 82 45 83 48 84 42 85 43 86 46 87
REMARK SMILES IDX 44 88
REMARK H PARENT 82 16 82 17 82 18 68 41 36 52
REMARK Flexibility Score: inf
ROOT
ATOM      1  O   UNL A   1      33.006  28.942  24.825  1.00  0.00    -0.461 OA
ENDROOT
BRANCH   1   2
ATOM      2  C   UNL A   1      33.316  28.476  23.587  1.00  0.00     0.325 C 
ATOM      3  O   UNL A   1      34.356  28.724  22.985  1.00  0.00    -0.250 OA
BRANCH   2   4
ATOM      4  C   UNL A   1      32.191  27.672  22.938  1.00  0.00     0.241 C 
BRANCH   4   5
ATOM      5  N   UNL A   1      32.195  26.209  23.018  1.00  0.00    -0.332 N 
ATOM      6  C   UNL A   1      30.912  25.559  23.235  1.00  0.00     0.147 C 
BRANCH   5   7
ATOM      7  C   UNL A   1      33.246  25.379  22.616  1.00  0.00     0.251 C 
ATOM      8  O   UNL A   1      33.652  25.408  21.451  1.00  0.00    -0.272 OA
BRANCH   7   9
ATOM      9  C   UNL A   1      33.871  24.410  23.645  1.00  0.00     0.208 C 
ATOM     10  C   UNL A   1      34.406  25.113  24.878  1.00  0.00     0.045 C 
ATOM     11  O   UNL A   1      34.997  23.706  23.090  1.00  0.00    -0.359 OA
ATOM     12  C   UNL A   1      35.484  24.182  25.355  1.00  0.00     0.041 C 
ATOM     13  C   UNL A   1      36.021  23.553  24.087  1.00  0.00     0.174 C 
BRANCH  13  14
ATOM     14  C   UNL A   1      36.335  22.049  24.246  1.00  0.00     0.291 C 
BRANCH  14  15
ATOM     15  N   UNL A   1      35.353  21.364  25.093  1.00  0.00    -0.355 N 
ATOM     16  H   UNL A   1      35.733  21.253  26.033  1.00  0.00     0.344 HD
ATOM     17  H   UNL A   1      35.145  20.446  24.699  1.00  0.00     0.344 HD
ATOM     18  H   UNL A   1      34.497  21.917  25.136  1.00  0.00     0.344 HD
ENDBRANCH  14  15
ENDBRANCH  13  14
ENDBRANCH   7   9
ENDBRANCH   5   7
ENDBRANCH   4   5
ENDBRANCH   2   4
ENDBRANCH   1   2
BRANCH   1  19
ATOM     19  C   UNL A   1      31.643  29.382  24.996  1.00  0.00     0.274 C 
BRANCH  19  20
ATOM     20  C   UNL A   1      31.551  30.648  25.843  1.00  0.00     0.275 C 
BRANCH  20  21
ATOM     21  O   UNL A   1      32.351  30.519  27.033  1.00  0.00    -0.458 OA
BRANCH  21  22
ATOM     22  C   UNL A   1      33.143  31.580  27.300  1.00  0.00     0.338 C 
ATOM     23  O   UNL A   1      32.821  32.761  27.252  1.00  0.00    -0.246 OA
BRANCH  22  24
ATOM     24  C   UNL A   1      34.506  31.174  27.697  1.00  0.00     0.060 A 
ATOM     25  C   UNL A   1      34.843  29.843  27.962  1.00  0.00     0.016 A 
ATOM     26  C   UNL A   1      35.416  32.196  27.990  1.00  0.00     0.016 A 
ATOM     27  C   UNL A   1      36.043  29.557  28.631  1.00  0.00     0.010 A 
ATOM     28  C   UNL A   1      36.634  31.901  28.600  1.00  0.00     0.010 A 
ATOM     29  C   UNL A   1      36.940  30.586  28.978  1.00  0.00    -0.014 A 
BRANCH  29  30
ATOM     30  C   UNL A   1      38.194  30.333  29.741  1.00  0.00     0.031 A 
ATOM     31  C   UNL A   1      39.241  29.378  29.221  1.00  0.00     0.074 A 
ATOM     32  C   UNL A   1      38.372  30.906  30.944  1.00  0.00     0.049 A 
ATOM     33  N   UNL A   1      40.260  28.831  29.838  1.00  0.00    -0.248 NA
ATOM     34  C   UNL A   1      39.128  28.989  27.811  1.00  0.00     0.031 C 
ATOM     35  C   UNL A   1      37.470  31.875  31.562  1.00  0.00     0.029 A 
ATOM     36  N   UNL A   1      39.362  30.720  31.878  1.00  0.00    -0.354 N 
ATOM     37  C   UNL A   1      40.885  28.017  28.897  1.00  0.00     0.074 A 
ATOM     38  C   UNL A   1      40.139  28.143  27.666  1.00  0.00     0.031 C 
ATOM     39  C   UNL A   1      37.934  32.187  32.780  1.00  0.00     0.029 A 
ATOM     40  C   UNL A   1      39.119  31.379  33.056  1.00  0.00     0.049 A 
ATOM     41  H   UNL A   1      40.163  30.171  31.719  1.00  0.00     0.167 HD
ATOM     42  C   UNL A   1      41.978  27.231  29.049  1.00  0.00     0.037 A 
ATOM     43  C   UNL A   1      39.732  31.294  34.250  1.00  0.00     0.037 A 
ATOM     44  C   UNL A   1      42.727  27.111  30.273  1.00  0.00     0.049 A 
ATOM     45  C   UNL A   1      40.899  30.370  34.426  1.00  0.00     0.074 A 
ATOM     46  C   UNL A   1      43.845  26.335  30.531  1.00  0.00     0.029 A 
ATOM     47  N   UNL A   1      42.434  27.792  31.442  1.00  0.00    -0.354 N 
ATOM     48  N   UNL A   1      41.443  29.555  33.556  1.00  0.00    -0.248 NA
ATOM     49  C   UNL A   1      41.529  30.346  35.752  1.00  0.00     0.031 C 
ATOM     50  C   UNL A   1      44.214  26.529  31.867  1.00  0.00     0.029 A 
ATOM     51  C   UNL A   1      43.346  27.452  32.428  1.00  0.00     0.049 A 
ATOM     52  H   UNL A   1      41.688  28.424  31.556  1.00  0.00     0.167 HD
ATOM     53  C   UNL A   1      42.482  28.925  34.224  1.00  0.00     0.074 A 
ATOM     54  C   UNL A   1      42.500  29.461  35.570  1.00  0.00     0.031 C 
ATOM     55  C   UNL A   1      43.344  27.987  33.762  1.00  0.00     0.037 A 
BRANCH  42  56
ATOM     56  C   UNL A   1      42.430  26.415  27.874  1.00  0.00     0.064 A 
ATOM     57  C   UNL A   1      41.839  25.182  27.565  1.00  0.00     0.173 A 
ATOM     58  C   UNL A   1      43.405  26.916  26.997  1.00  0.00     0.173 A 
ATOM     59  F   UNL A   1      40.906  24.660  28.376  1.00  0.00    -0.203 F 
ATOM     60  C   UNL A   1      42.207  24.479  26.420  1.00  0.00     0.198 A 
ATOM     61  C   UNL A   1      43.757  26.219  25.843  1.00  0.00     0.198 A 
ATOM     62  F   UNL A   1      43.994  28.095  27.244  1.00  0.00    -0.203 F 
ATOM     63  F   UNL A   1      41.634  23.299  26.146  1.00  0.00    -0.200 F 
ATOM     64  C   UNL A   1      43.158  25.003  25.555  1.00  0.00     0.200 A 
ATOM     65  F   UNL A   1      44.665  26.735  25.002  1.00  0.00    -0.200 F 
ATOM     66  F   UNL A   1      43.493  24.337  24.441  1.00  0.00    -0.200 F 
ENDBRANCH  42  56
BRANCH  43  67
ATOM     67  C   UNL A   1      39.190  32.083  35.381  1.00  0.00     0.064 A 
ATOM     68  C   UNL A   1      38.365  31.491  36.343  1.00  0.00     0.173 A 
ATOM     69  C   UNL A   1      39.562  33.424  35.564  1.00  0.00     0.173 A 
ATOM     70  F   UNL A   1      37.972  30.218  36.196  1.00  0.00    -0.203 F 
ATOM     71  C   UNL A   1      37.940  32.210  37.458  1.00  0.00     0.198 A 
ATOM     72  C   UNL A   1      39.157  34.133  36.690  1.00  0.00     0.198 A 
ATOM     73  F   UNL A   1      40.358  34.028  34.670  1.00  0.00    -0.203 F 
ATOM     74  F   UNL A   1      37.144  31.626  38.364  1.00  0.00    -0.200 F 
ATOM     75  C   UNL A   1      38.347  33.525  37.637  1.00  0.00     0.200 A 
ATOM     76  F   UNL A   1      39.569  35.395  36.869  1.00  0.00    -0.200 F 
ATOM     77  F   UNL A   1      37.961  34.204  38.726  1.00  0.00    -0.200 F 
ENDBRANCH  43  67
BRANCH  55  78
ATOM     78  C   UNL A   1      44.393  27.500  34.713  1.00  0.00     0.064 A 
ATOM     79  C   UNL A   1      44.186  26.363  35.507  1.00  0.00     0.173 A 
ATOM     80  C   UNL A   1      45.624  28.165  34.814  1.00  0.00     0.173 A 
ATOM     81  F   UNL A   1      43.018  25.706  35.453  1.00  0.00    -0.203 F 
ATOM     82  C   UNL A   1      45.170  25.921  36.386  1.00  0.00     0.198 A 
ATOM     83  C   UNL A   1      46.612  27.708  35.680  1.00  0.00     0.198 A 
ATOM     84  F   UNL A   1      45.866  29.254  34.071  1.00  0.00    -0.203 F 
ATOM     85  F   UNL A   1      44.940  24.854  37.165  1.00  0.00    -0.200 F 
ATOM     86  C   UNL A   1      46.382  26.590  36.469  1.00  0.00     0.200 A 
ATOM     87  F   UNL A   1      47.784  28.353  35.757  1.00  0.00    -0.200 F 
ATOM     88  F   UNL A   1      47.327  26.164  37.319  1.00  0.00    -0.200 F 
ENDBRANCH  55  78
ENDBRANCH  29  30
ENDBRANCH  22  24
ENDBRANCH  21  22
ENDBRANCH  20  21
ENDBRANCH  19  20
ENDBRANCH   1  19
TORSDOF 16
ENDMDL
MODEL 2
REMARK VINA RESULT:     -10.5      1.644      3.619
REMARK SMILES CN(CC(=O)OCCOC(=O)c1ccc(-c2c3nc(c(-c4c(F)c(F)c(F)c(F)c4F)c4ccc([nH]4)c(-c4c(F)c(F)c(F)c(F)c4F)c4nc(c(-c5c(F)c(F)c(F)c(F)c5F)c5ccc2[nH]5)C=C4)C=C3)cc1)C(=O)[C@@H]1CC[C@@H](C[NH3+])O1
REMARK SMILES IDX 6 1 4 2 5 3 3 4 2 5 1 6 75 7 76 8 77 9 78 10 83 11 79 12
REMARK SMILES IDX 80 13 81 14 82 15 7 19 8 20 9 21 10 22 11 23 12 24 13 25
REMARK SMILES IDX 74 26 14 27 73 28 15 29 16 30 17 31 67 32 18 33 72 34 66 35
REMARK SMILES IDX 68 36 19 37 71 38 65 39 64 40 20 42 52 43 32 44 51 45 33 46
REMARK SMILES IDX 36 47 50 48 69 49 34 50 35 51 49 53 70 54 37 55 21 56 22 57
REMARK SMILES IDX 30 58 23 59 24 60 28 61 31 62 25 63 26 64 29 65 27 66 53 67
REMARK SMILES IDX 54 68 62 69 55 70 56 71 60 72 63 73 57 74 58 75 61 76 59 77
REMARK SMILES IDX 38 78 39 79 47 80 40 81 41 82 45 83 48 84 42 85 43 86 46 87
REMARK SMILES IDX 44 88
REMARK H PARENT 82 16 82 17 82 18 68 41 36 52
REMARK Flexibility Score: inf
ROOT
ATOM      1  O   UNL A   1      32.723  27.873  26.286  1.00  0.00    -0.461 OA
ENDROOT
BRANCH   1   2
ATOM      2  C   UNL A   1      32.588  26.797  25.468  1.00  0.00     0.325 C 
ATOM      3  O   UNL A   1      32.043  25.743  25.780  1.00  0.00    -0.250 OA
BRANCH   2   4
ATOM      4  C   UNL A   1      33.275  26.969  24.115  1.00  0.00     0.241 C 
BRANCH   4   5
ATOM      5  N   UNL A   1      32.720  27.892  23.122  1.00  0.00    -0.332 N 
ATOM      6  C   UNL A   1      33.659  28.778  22.451  1.00  0.00     0.147 C 
BRANCH   5   7
ATOM      7  C   UNL A   1      31.447  27.800  22.553  1.00  0.00     0.251 C 
ATOM      8  O   UNL A   1      31.167  26.862  21.800  1.00  0.00    -0.272 OA
BRANCH   7   9
ATOM      9  C   UNL A   1      30.407  28.901  22.861  1.00  0.00     0.208 C 
ATOM     10  C   UNL A   1      29.047  28.348  23.241  1.00  0.00     0.045 C 
ATOM     11  O   UNL A   1      30.170  29.737  21.713  1.00  0.00    -0.359 OA
ATOM     12  C   UNL A   1      28.111  29.451  22.841  1.00  0.00     0.041 C 
ATOM     13  C   UNL A   1      28.778  30.091  21.642  1.00  0.00     0.174 C 
BRANCH  13  14
ATOM     14  C   UNL A   1      28.659  31.630  21.635  1.00  0.00     0.291 C 
BRANCH  14  15
ATOM     15  N   UNL A   1      29.062  32.223  22.915  1.00  0.00    -0.355 N 
ATOM     16  H   UNL A   1      28.494  33.050  23.100  1.00  0.00     0.344 HD
ATOM     17  H   UNL A   1      30.046  32.490  22.871  1.00  0.00     0.344 HD
ATOM     18  H   UNL A   1      28.926  31.543  23.662  1.00  0.00     0.344 HD
ENDBRANCH  14  15
ENDBRANCH  13  14
ENDBRANCH   7   9
ENDBRANCH   5   7
ENDBRANCH   4   5
ENDBRANCH   2   4
ENDBRANCH   1   2
BRANCH   1  19
ATOM     19  C   UNL A   1      31.497  28.564  26.605  1.00  0.00     0.274 C 
BRANCH  19  20
ATOM     20  C   UNL A   1      31.754  29.954  27.178  1.00  0.00     0.275 C 
BRANCH  20  21
ATOM     21  O   UNL A   1      32.882  30.569  26.529  1.00  0.00    -0.458 OA
BRANCH  21  22
ATOM     22  C   UNL A   1      33.526  31.495  27.272  1.00  0.00     0.338 C 
ATOM     23  O   UNL A   1      33.077  32.570  27.648  1.00  0.00    -0.246 OA
BRANCH  22  24
ATOM     24  C   UNL A   1      34.895  31.070  27.631  1.00  0.00     0.060 A 
ATOM     25  C   UNL A   1      35.238  29.726  27.811  1.00  0.00     0.016 A 
ATOM     26  C   UNL A   1      35.804  32.075  27.978  1.00  0.00     0.016 A 
ATOM     27  C   UNL A   1      36.444  29.404  28.450  1.00  0.00     0.010 A 
ATOM     28  C   UNL A   1      37.028  31.747  28.558  1.00  0.00     0.010 A 
ATOM     29  C   UNL A   1      37.341  30.412  28.851  1.00  0.00    -0.014 A 
BRANCH  29  30
ATOM     30  C   UNL A   1      38.604  30.118  29.587  1.00  0.00     0.031 A 
ATOM     31  C   UNL A   1      39.608  29.132  29.042  1.00  0.00     0.074 A 
ATOM     32  C   UNL A   1      38.826  30.681  30.788  1.00  0.00     0.049 A 
ATOM     33  N   UNL A   1      40.623  28.551  29.635  1.00  0.00    -0.248 NA
ATOM     34  C   UNL A   1      39.452  28.751  27.634  1.00  0.00     0.031 C 
ATOM     35  C   UNL A   1      37.968  31.675  31.427  1.00  0.00     0.029 A 
ATOM     36  N   UNL A   1      39.829  30.461  31.699  1.00  0.00    -0.354 N 
ATOM     37  C   UNL A   1      41.201  27.722  28.679  1.00  0.00     0.074 A 
ATOM     38  C   UNL A   1      40.433  27.875  27.464  1.00  0.00     0.031 C 
ATOM     39  C   UNL A   1      38.468  31.969  32.636  1.00  0.00     0.029 A 
ATOM     40  C   UNL A   1      39.632  31.123  32.884  1.00  0.00     0.049 A 
ATOM     41  H   UNL A   1      40.609  29.888  31.521  1.00  0.00     0.167 HD
ATOM     42  C   UNL A   1      42.272  26.901  28.805  1.00  0.00     0.037 A 
ATOM     43  C   UNL A   1      40.268  31.015  34.064  1.00  0.00     0.037 A 
ATOM     44  C   UNL A   1      43.043  26.753  30.012  1.00  0.00     0.049 A 
ATOM     45  C   UNL A   1      41.409  30.054  34.212  1.00  0.00     0.074 A 
ATOM     46  C   UNL A   1      44.141  25.941  30.244  1.00  0.00     0.029 A 
ATOM     47  N   UNL A   1      42.797  27.439  31.189  1.00  0.00    -0.354 N 
ATOM     48  N   UNL A   1      41.908  29.225  33.329  1.00  0.00    -0.248 NA
ATOM     49  C   UNL A   1      42.067  30.007  35.524  1.00  0.00     0.031 C 
ATOM     50  C   UNL A   1      44.545  26.120  31.572  1.00  0.00     0.029 A 
ATOM     51  C   UNL A   1      43.719  27.068  32.154  1.00  0.00     0.049 A 
ATOM     52  H   UNL A   1      42.074  28.094  31.321  1.00  0.00     0.167 HD
ATOM     53  C   UNL A   1      42.940  28.561  33.972  1.00  0.00     0.074 A 
ATOM     54  C   UNL A   1      43.005  29.092  35.319  1.00  0.00     0.031 C 
ATOM     55  C   UNL A   1      43.763  27.598  33.489  1.00  0.00     0.037 A 
BRANCH  42  56
ATOM     56  C   UNL A   1      42.672  26.074  27.618  1.00  0.00     0.064 A 
ATOM     57  C   UNL A   1      43.667  26.501  26.728  1.00  0.00     0.173 A 
ATOM     58  C   UNL A   1      42.115  24.801  27.423  1.00  0.00     0.173 A 
ATOM     59  F   UNL A   1      44.225  27.712  26.871  1.00  0.00    -0.203 F 
ATOM     60  C   UNL A   1      44.091  25.681  25.684  1.00  0.00     0.198 A 
ATOM     61  C   UNL A   1      42.554  23.977  26.389  1.00  0.00     0.198 A 
ATOM     62  F   UNL A   1      41.165  24.344  28.252  1.00  0.00    -0.203 F 
ATOM     63  F   UNL A   1      45.040  26.110  24.840  1.00  0.00    -0.200 F 
ATOM     64  C   UNL A   1      43.542  24.418  25.521  1.00  0.00     0.200 A 
ATOM     65  F   UNL A   1      42.032  22.751  26.243  1.00  0.00    -0.200 F 
ATOM     66  F   UNL A   1      43.968  23.621  24.531  1.00  0.00    -0.200 F 
ENDBRANCH  42  56
BRANCH  43  67
ATOM     67  C   UNL A   1      39.776  31.817  35.208  1.00  0.00     0.064 A 
ATOM     68  C   UNL A   1      40.229  33.124  35.421  1.00  0.00     0.173 A 
ATOM     69  C   UNL A   1      38.776  31.318  36.058  1.00  0.00     0.173 A 
ATOM     70  F   UNL A   1      41.196  33.631  34.643  1.00  0.00    -0.203 F 
ATOM     71  C   UNL A   1      39.691  33.909  36.437  1.00  0.00     0.198 A 
ATOM     72  C   UNL A   1      38.222  32.113  37.056  1.00  0.00     0.198 A 
ATOM     73  F   UNL A   1      38.306  30.074  35.884  1.00  0.00    -0.203 F 
ATOM     74  F   UNL A   1      40.145  35.155  36.629  1.00  0.00    -0.200 F 
ATOM     75  C   UNL A   1      38.679  33.408  37.245  1.00  0.00     0.200 A 
ATOM     76  F   UNL A   1      37.231  31.633  37.820  1.00  0.00    -0.200 F 
ATOM     77  F   UNL A   1      38.142  34.177  38.202  1.00  0.00    -0.200 F 
ENDBRANCH  43  67
BRANCH  55  78
ATOM     78  C   UNL A   1      44.816  27.075  34.416  1.00  0.00     0.064 A 
ATOM     79  C   UNL A   1      46.069  27.694  34.520  1.00  0.00     0.173 A 
ATOM     80  C   UNL A   1      44.559  25.957  35.223  1.00  0.00     0.173 A 
ATOM     81  F   UNL A   1      46.362  28.756  33.756  1.00  0.00    -0.203 F 
ATOM     82  C   UNL A   1      47.038  27.198  35.386  1.00  0.00     0.198 A 
ATOM     83  C   UNL A   1      45.525  25.475  36.102  1.00  0.00     0.198 A 
ATOM     84  F   UNL A   1      43.373  25.335  35.159  1.00  0.00    -0.203 F 
ATOM     85  F   UNL A   1      48.245  27.779  35.444  1.00  0.00    -0.200 F 
ATOM     86  C   UNL A   1      46.765  26.092  36.178  1.00  0.00     0.200 A 
ATOM     87  F   UNL A   1      45.258  24.410  36.869  1.00  0.00    -0.200 F 
ATOM     88  F   UNL A   1      47.701  25.613  37.009  1.00  0.00    -0.200 F 
ENDBRANCH  55  78
ENDBRANCH  29  30
ENDBRANCH  22  24
ENDBRANCH  21  22
ENDBRANCH  20  21
ENDBRANCH  19  20
ENDBRANCH   1  19
TORSDOF 16
ENDMDL
MODEL 3
REMARK VINA RESULT:     -10.4      4.235      9.821
REMARK SMILES CN(CC(=O)OCCOC(=O)c1ccc(-c2c3nc(c(-c4c(F)c(F)c(F)c(F)c4F)c4ccc([nH]4)c(-c4c(F)c(F)c(F)c(F)c4F)c4nc(c(-c5c(F)c(F)c(F)c(F)c5F)c5ccc2[nH]5)C=C4)C=C3)cc1)C(=O)[C@@H]1CC[C@@H](C[NH3+])O1
REMARK SMILES IDX 6 1 4 2 5 3 3 4 2 5 1 6 75 7 76 8 77 9 78 10 83 11 79 12
REMARK SMILES IDX 80 13 81 14 82 15 7 19 8 20 9 21 10 22 11 23 12 24 13 25
REMARK SMILES IDX 74 26 14 27 73 28 15 29 16 30 17 31 67 32 18 33 72 34 66 35
REMARK SMILES IDX 68 36 19 37 71 38 65 39 64 40 20 42 52 43 32 44 51 45 33 46
REMARK SMILES IDX 36 47 50 48 69 49 34 50 35 51 49 53 70 54 37 55 21 56 22 57
REMARK SMILES IDX 30 58 23 59 24 60 28 61 31 62 25 63 26 64 29 65 27 66 53 67
REMARK SMILES IDX 54 68 62 69 55 70 56 71 60 72 63 73 57 74 58 75 61 76 59 77
REMARK SMILES IDX 38 78 39 79 47 80 40 81 41 82 45 83 48 84 42 85 43 86 46 87
REMARK SMILES IDX 44 88
REMARK H PARENT 82 16 82 17 82 18 68 41 36 52
REMARK Flexibility Score: inf
ROOT
ATOM      1  O   UNL A   1      35.434  22.313  26.007  1.00  0.00    -0.461 OA
ENDROOT
BRANCH   1   2
ATOM      2  C   UNL A   1      34.855  23.376  25.391  1.00  0.00     0.325 C 
ATOM      3  O   UNL A   1      35.414  24.444  25.163  1.00  0.00    -0.250 OA
BRANCH   2   4
ATOM      4  C   UNL A   1      33.374  23.169  25.080  1.00  0.00     0.241 C 
BRANCH   4   5
ATOM      5  N   UNL A   1      32.797  23.726  23.854  1.00  0.00    -0.332 N 
ATOM      6  C   UNL A   1      33.200  23.110  22.599  1.00  0.00     0.147 C 
BRANCH   5   7
ATOM      7  C   UNL A   1      31.692  24.580  23.794  1.00  0.00     0.251 C 
ATOM      8  O   UNL A   1      30.599  24.158  23.406  1.00  0.00    -0.272 OA
BRANCH   7   9
ATOM      9  C   UNL A   1      31.867  26.062  24.196  1.00  0.00     0.208 C 
ATOM     10  C   UNL A   1      33.204  26.640  23.775  1.00  0.00     0.045 C 
ATOM     11  O   UNL A   1      31.813  26.231  25.624  1.00  0.00    -0.359 OA
ATOM     12  C   UNL A   1      33.428  27.736  24.776  1.00  0.00     0.041 C 
ATOM     13  C   UNL A   1      32.759  27.232  26.037  1.00  0.00     0.174 C 
BRANCH  13  14
ATOM     14  C   UNL A   1      32.004  28.339  26.804  1.00  0.00     0.291 C 
BRANCH  14  15
ATOM     15  N   UNL A   1      31.382  27.836  28.034  1.00  0.00    -0.355 N 
ATOM     16  H   UNL A   1      32.043  27.918  28.807  1.00  0.00     0.344 HD
ATOM     17  H   UNL A   1      31.126  26.856  27.909  1.00  0.00     0.344 HD
ATOM     18  H   UNL A   1      30.547  28.383  28.240  1.00  0.00     0.344 HD
ENDBRANCH  14  15
ENDBRANCH  13  14
ENDBRANCH   7   9
ENDBRANCH   5   7
ENDBRANCH   4   5
ENDBRANCH   2   4
ENDBRANCH   1   2
BRANCH   1  19
ATOM     19  C   UNL A   1      35.307  21.054  25.315  1.00  0.00     0.274 C 
BRANCH  19  20
ATOM     20  C   UNL A   1      36.662  20.404  25.052  1.00  0.00     0.275 C 
BRANCH  20  21
ATOM     21  O   UNL A   1      37.691  21.405  24.945  1.00  0.00    -0.458 OA
BRANCH  21  22
ATOM     22  C   UNL A   1      38.778  21.185  25.716  1.00  0.00     0.338 C 
ATOM     23  O   UNL A   1      39.379  20.125  25.845  1.00  0.00    -0.246 OA
BRANCH  22  24
ATOM     24  C   UNL A   1      39.219  22.405  26.421  1.00  0.00     0.060 A 
ATOM     25  C   UNL A   1      38.687  23.667  26.137  1.00  0.00     0.016 A 
ATOM     26  C   UNL A   1      40.337  22.290  27.256  1.00  0.00     0.016 A 
ATOM     27  C   UNL A   1      39.352  24.813  26.597  1.00  0.00     0.010 A 
ATOM     28  C   UNL A   1      40.958  23.430  27.761  1.00  0.00     0.010 A 
ATOM     29  C   UNL A   1      40.509  24.707  27.394  1.00  0.00    -0.014 A 
BRANCH  29  30
ATOM     30  C   UNL A   1      41.280  25.897  27.853  1.00  0.00     0.031 A 
ATOM     31  C   UNL A   1      40.610  27.004  28.630  1.00  0.00     0.074 A 
ATOM     32  C   UNL A   1      42.574  26.027  27.513  1.00  0.00     0.049 A 
ATOM     33  N   UNL A   1      41.028  28.218  28.892  1.00  0.00    -0.248 NA
ATOM     34  C   UNL A   1      39.290  26.701  29.194  1.00  0.00     0.031 C 
ATOM     35  C   UNL A   1      43.365  25.030  26.797  1.00  0.00     0.029 A 
ATOM     36  N   UNL A   1      43.438  27.079  27.696  1.00  0.00    -0.354 N 
ATOM     37  C   UNL A   1      40.011  28.824  29.624  1.00  0.00     0.074 A 
ATOM     38  C   UNL A   1      38.956  27.846  29.773  1.00  0.00     0.031 C 
ATOM     39  C   UNL A   1      44.594  25.521  26.582  1.00  0.00     0.029 A 
ATOM     40  C   UNL A   1      44.647  26.894  27.075  1.00  0.00     0.049 A 
ATOM     41  H   UNL A   1      43.214  27.882  28.219  1.00  0.00     0.167 HD
ATOM     42  C   UNL A   1      39.958  30.083  30.122  1.00  0.00     0.037 A 
ATOM     43  C   UNL A   1      45.660  27.751  26.858  1.00  0.00     0.037 A 
ATOM     44  C   UNL A   1      41.011  31.055  29.982  1.00  0.00     0.049 A 
ATOM     45  C   UNL A   1      45.563  29.162  27.354  1.00  0.00     0.074 A 
ATOM     46  C   UNL A   1      41.051  32.361  30.443  1.00  0.00     0.029 A 
ATOM     47  N   UNL A   1      42.213  30.822  29.334  1.00  0.00    -0.354 N 
ATOM     48  N   UNL A   1      44.576  29.748  27.984  1.00  0.00    -0.248 NA
ATOM     49  C   UNL A   1      46.717  30.034  27.098  1.00  0.00     0.031 C 
ATOM     50  C   UNL A   1      42.270  32.926  30.052  1.00  0.00     0.029 A 
ATOM     51  C   UNL A   1      43.001  31.960  29.378  1.00  0.00     0.049 A 
ATOM     52  H   UNL A   1      42.469  29.974  28.906  1.00  0.00     0.167 HD
ATOM     53  C   UNL A   1      44.987  31.053  28.206  1.00  0.00     0.074 A 
ATOM     54  C   UNL A   1      46.322  31.172  27.653  1.00  0.00     0.031 C 
ATOM     55  C   UNL A   1      44.320  32.063  28.816  1.00  0.00     0.037 A 
BRANCH  42  56
ATOM     56  C   UNL A   1      38.715  30.504  30.849  1.00  0.00     0.064 A 
ATOM     57  C   UNL A   1      38.621  30.431  32.245  1.00  0.00     0.173 A 
ATOM     58  C   UNL A   1      37.641  31.070  30.145  1.00  0.00     0.173 A 
ATOM     59  F   UNL A   1      39.620  29.892  32.961  1.00  0.00    -0.203 F 
ATOM     60  C   UNL A   1      37.496  30.910  32.913  1.00  0.00     0.198 A 
ATOM     61  C   UNL A   1      36.525  31.565  30.817  1.00  0.00     0.198 A 
ATOM     62  F   UNL A   1      37.686  31.170  28.809  1.00  0.00    -0.203 F 
ATOM     63  F   UNL A   1      37.423  30.825  34.249  1.00  0.00    -0.200 F 
ATOM     64  C   UNL A   1      36.454  31.485  32.199  1.00  0.00     0.200 A 
ATOM     65  F   UNL A   1      35.527  32.134  30.126  1.00  0.00    -0.200 F 
ATOM     66  F   UNL A   1      35.382  31.968  32.844  1.00  0.00    -0.200 F 
ENDBRANCH  42  56
BRANCH  43  67
ATOM     67  C   UNL A   1      46.828  27.282  26.077  1.00  0.00     0.064 A 
ATOM     68  C   UNL A   1      46.936  27.552  24.708  1.00  0.00     0.173 A 
ATOM     69  C   UNL A   1      47.899  26.630  26.708  1.00  0.00     0.173 A 
ATOM     70  F   UNL A   1      45.927  28.157  24.064  1.00  0.00    -0.203 F 
ATOM     71  C   UNL A   1      48.081  27.198  23.999  1.00  0.00     0.198 A 
ATOM     72  C   UNL A   1      49.053  26.299  26.003  1.00  0.00     0.198 A 
ATOM     73  F   UNL A   1      47.842  26.360  28.020  1.00  0.00    -0.203 F 
ATOM     74  F   UNL A   1      48.160  27.459  22.687  1.00  0.00    -0.200 F 
ATOM     75  C   UNL A   1      49.142  26.584  24.649  1.00  0.00     0.200 A 
ATOM     76  F   UNL A   1      50.083  25.726  26.639  1.00  0.00    -0.200 F 
ATOM     77  F   UNL A   1      50.255  26.272  23.971  1.00  0.00    -0.200 F 
ENDBRANCH  43  67
BRANCH  55  78
ATOM     78  C   UNL A   1      45.032  33.375  28.936  1.00  0.00     0.064 A 
ATOM     79  C   UNL A   1      44.872  34.382  27.975  1.00  0.00     0.173 A 
ATOM     80  C   UNL A   1      45.865  33.632  30.035  1.00  0.00     0.173 A 
ATOM     81  F   UNL A   1      44.097  34.173  26.900  1.00  0.00    -0.203 F 
ATOM     82  C   UNL A   1      45.539  35.597  28.099  1.00  0.00     0.198 A 
ATOM     83  C   UNL A   1      46.515  34.855  30.165  1.00  0.00     0.198 A 
ATOM     84  F   UNL A   1      46.044  32.698  30.980  1.00  0.00    -0.203 F 
ATOM     85  F   UNL A   1      45.404  36.535  27.151  1.00  0.00    -0.200 F 
ATOM     86  C   UNL A   1      46.357  35.834  29.195  1.00  0.00     0.200 A 
ATOM     87  F   UNL A   1      47.301  35.085  31.226  1.00  0.00    -0.200 F 
ATOM     88  F   UNL A   1      47.001  37.004  29.311  1.00  0.00    -0.200 F 
ENDBRANCH  55  78
ENDBRANCH  29  30
ENDBRANCH  22  24
ENDBRANCH  21  22
ENDBRANCH  20  21
ENDBRANCH  19  20
ENDBRANCH   1  19
TORSDOF 16
ENDMDL
