MODEL 1
REMARK VINA RESULT:     -11.7      0.000      0.000
REMARK SMILES CO[C@H]1CCC[C@H]1NC(=O)N[C@](C)(C(=O)OCCOC(=O)c1ccc(-c2c3nc(c(-c4c(F)c(F)c(F)c(F)c4F)c4ccc([nH]4)c(-c4c(F)c(F)c(F)c(F)c4F)c4nc(c(-c5c(F)c(F)c(F)c(F)c5F)c5ccc2[nH]5)C=C4)C=C3)cc1)C(F)(F)F
REMARK SMILES IDX 17 1 16 2 14 3 15 4 12 5 13 6 11 7 8 8 9 9 10 11 7 13 3 14
REMARK SMILES IDX 4 15 5 16 6 17 2 18 1 19 85 20 86 21 87 22 88 23 18 24 19 25
REMARK SMILES IDX 20 26 21 27 22 28 23 29 84 30 24 31 83 32 25 33 26 34 27 35
REMARK SMILES IDX 77 36 28 37 82 38 76 39 78 40 29 41 81 42 75 43 74 44 30 46
REMARK SMILES IDX 62 47 42 48 61 49 43 50 46 51 60 52 79 53 44 54 45 55 59 57
REMARK SMILES IDX 80 58 47 59 31 60 32 61 40 62 33 63 34 64 38 65 41 66 35 67
REMARK SMILES IDX 36 68 39 69 37 70 63 71 64 72 72 73 65 74 66 75 70 76 73 77
REMARK SMILES IDX 67 78 68 79 71 80 69 81 48 82 49 83 57 84 50 85 51 86 55 87
REMARK SMILES IDX 58 88 52 89 53 90 56 91 54 92
REMARK H PARENT 8 10 11 12 78 45 46 56
REMARK Flexibility Score: inf
ROOT
ATOM      1  C   UNL A   1      31.290  30.789  25.465  1.00  0.00     0.274 C 
ENDROOT
BRANCH   1   2
ATOM      2  O   UNL A   1      31.386  29.369  25.747  1.00  0.00    -0.460 OA
BRANCH   2   3
ATOM      3  C   UNL A   1      32.201  28.670  24.911  1.00  0.00     0.341 C 
ATOM      4  O   UNL A   1      32.903  29.258  24.105  1.00  0.00    -0.249 OA
BRANCH   3   5
ATOM      5  C   UNL A   1      32.031  27.148  24.941  1.00  0.00     0.232 C 
ATOM      6  C   UNL A   1      30.768  26.825  25.782  1.00  0.00     0.058 C 
BRANCH   5   7
ATOM      7  N   UNL A   1      31.852  26.550  23.563  1.00  0.00    -0.315 N 
ATOM      8  N   UNL A   1      30.694  27.975  22.019  1.00  0.00    -0.333 N 
ATOM      9  C   UNL A   1      31.484  26.943  22.335  1.00  0.00     0.316 C 
ATOM     10  H   UNL A   1      30.777  28.269  21.082  1.00  0.00     0.165 HD
ATOM     11  O   UNL A   1      31.919  26.254  21.408  1.00  0.00    -0.249 OA
ATOM     12  H   UNL A   1      32.071  25.590  23.570  1.00  0.00     0.166 HD
BRANCH   8  13
ATOM     13  C   UNL A   1      29.746  28.737  22.787  1.00  0.00     0.112 C 
ATOM     14  C   UNL A   1      29.358  30.170  22.373  1.00  0.00     0.140 C 
ATOM     15  C   UNL A   1      28.256  30.438  23.416  1.00  0.00     0.034 C 
ATOM     16  C   UNL A   1      27.453  29.134  23.473  1.00  0.00     0.005 C 
ATOM     17  C   UNL A   1      28.384  28.055  22.914  1.00  0.00     0.028 C 
BRANCH  14  18
ATOM     18  O   UNL A   1      28.857  30.204  21.035  1.00  0.00    -0.379 OA
ATOM     19  C   UNL A   1      28.137  31.400  20.750  1.00  0.00     0.195 C 
ENDBRANCH  14  18
ENDBRANCH   8  13
ENDBRANCH   5   7
BRANCH   5  20
ATOM     20  C   UNL A   1      33.201  26.514  25.725  1.00  0.00     0.422 C 
ATOM     21  F   UNL A   1      32.785  25.464  26.475  1.00  0.00    -0.168 F 
ATOM     22  F   UNL A   1      34.130  26.011  24.869  1.00  0.00    -0.168 F 
ATOM     23  F   UNL A   1      33.860  27.353  26.547  1.00  0.00    -0.168 F 
ENDBRANCH   5  20
ENDBRANCH   3   5
ENDBRANCH   2   3
ENDBRANCH   1   2
BRANCH   1  24
ATOM     24  C   UNL A   1      31.625  31.791  26.593  1.00  0.00     0.275 C 
BRANCH  24  25
ATOM     25  O   UNL A   1      32.788  31.468  27.392  1.00  0.00    -0.458 OA
BRANCH  25  26
ATOM     26  C   UNL A   1      33.628  32.509  27.632  1.00  0.00     0.338 C 
ATOM     27  O   UNL A   1      33.315  33.689  27.670  1.00  0.00    -0.246 OA
BRANCH  26  28
ATOM     28  C   UNL A   1      34.974  32.053  28.062  1.00  0.00     0.060 A 
ATOM     29  C   UNL A   1      35.082  30.721  28.476  1.00  0.00     0.016 A 
ATOM     30  C   UNL A   1      36.071  32.898  28.207  1.00  0.00     0.016 A 
ATOM     31  C   UNL A   1      36.256  30.208  29.016  1.00  0.00     0.010 A 
ATOM     32  C   UNL A   1      37.249  32.401  28.798  1.00  0.00     0.010 A 
ATOM     33  C   UNL A   1      37.339  31.058  29.226  1.00  0.00    -0.014 A 
BRANCH  33  34
ATOM     34  C   UNL A   1      38.446  30.579  30.097  1.00  0.00     0.031 A 
ATOM     35  C   UNL A   1      39.463  29.641  29.507  1.00  0.00     0.074 A 
ATOM     36  C   UNL A   1      38.630  31.055  31.342  1.00  0.00     0.049 A 
ATOM     37  N   UNL A   1      40.453  29.009  30.085  1.00  0.00    -0.248 NA
ATOM     38  C   UNL A   1      39.353  29.393  28.061  1.00  0.00     0.031 C 
ATOM     39  C   UNL A   1      37.816  32.082  31.988  1.00  0.00     0.029 A 
ATOM     40  N   UNL A   1      39.580  30.737  32.285  1.00  0.00    -0.354 N 
ATOM     41  C   UNL A   1      41.058  28.262  29.082  1.00  0.00     0.074 A 
ATOM     42  C   UNL A   1      40.323  28.515  27.862  1.00  0.00     0.031 C 
ATOM     43  C   UNL A   1      38.294  32.302  33.225  1.00  0.00     0.029 A 
ATOM     44  C   UNL A   1      39.410  31.392  33.480  1.00  0.00     0.049 A 
ATOM     45  H   UNL A   1      40.311  30.100  32.120  1.00  0.00     0.167 HD
ATOM     46  C   UNL A   1      42.126  27.435  29.172  1.00  0.00     0.037 A 
ATOM     47  C   UNL A   1      40.056  31.243  34.655  1.00  0.00     0.037 A 
ATOM     48  C   UNL A   1      42.873  27.204  30.380  1.00  0.00     0.049 A 
ATOM     49  C   UNL A   1      41.171  30.230  34.764  1.00  0.00     0.074 A 
ATOM     50  C   UNL A   1      43.955  26.365  30.581  1.00  0.00     0.029 A 
ATOM     51  N   UNL A   1      42.619  27.825  31.594  1.00  0.00    -0.354 N 
ATOM     52  N   UNL A   1      41.693  29.467  33.834  1.00  0.00    -0.248 NA
ATOM     53  C   UNL A   1      41.776  30.049  36.092  1.00  0.00     0.031 C 
ATOM     54  C   UNL A   1      44.323  26.439  31.928  1.00  0.00     0.029 A 
ATOM     55  C   UNL A   1      43.508  27.369  32.554  1.00  0.00     0.049 A 
ATOM     56  H   UNL A   1      41.911  28.491  31.751  1.00  0.00     0.167 HD
ATOM     57  C   UNL A   1      42.703  28.740  34.455  1.00  0.00     0.074 A 
ATOM     58  C   UNL A   1      42.728  29.161  35.840  1.00  0.00     0.031 C 
ATOM     59  C   UNL A   1      43.533  27.807  33.926  1.00  0.00     0.037 A 
BRANCH  46  60
ATOM     60  C   UNL A   1      42.507  26.669  27.939  1.00  0.00     0.064 A 
ATOM     61  C   UNL A   1      43.444  27.155  27.016  1.00  0.00     0.173 A 
ATOM     62  C   UNL A   1      41.918  25.420  27.681  1.00  0.00     0.173 A 
ATOM     63  F   UNL A   1      44.021  28.351  27.206  1.00  0.00    -0.203 F 
ATOM     64  C   UNL A   1      43.753  26.435  25.864  1.00  0.00     0.198 A 
ATOM     65  C   UNL A   1      42.253  24.690  26.545  1.00  0.00     0.198 A 
ATOM     66  F   UNL A   1      41.017  24.909  28.534  1.00  0.00    -0.203 F 
ATOM     67  F   UNL A   1      44.607  26.945  24.966  1.00  0.00    -0.200 F 
ATOM     68  C   UNL A   1      43.161  25.201  25.633  1.00  0.00     0.200 A 
ATOM     69  F   UNL A   1      41.688  23.494  26.330  1.00  0.00    -0.200 F 
ATOM     70  F   UNL A   1      43.459  24.511  24.523  1.00  0.00    -0.200 F 
ENDBRANCH  46  60
BRANCH  47  71
ATOM     71  C   UNL A   1      39.636  32.029  35.847  1.00  0.00     0.064 A 
ATOM     72  C   UNL A   1      38.577  31.606  36.663  1.00  0.00     0.173 A 
ATOM     73  C   UNL A   1      40.256  33.246  36.169  1.00  0.00     0.173 A 
ATOM     74  F   UNL A   1      37.927  30.467  36.379  1.00  0.00    -0.203 F 
ATOM     75  C   UNL A   1      38.146  32.376  37.742  1.00  0.00     0.198 A 
ATOM     76  C   UNL A   1      39.846  33.999  37.267  1.00  0.00     0.198 A 
ATOM     77  F   UNL A   1      41.267  33.706  35.416  1.00  0.00    -0.203 F 
ATOM     78  F   UNL A   1      37.096  31.974  38.472  1.00  0.00    -0.200 F 
ATOM     79  C   UNL A   1      38.784  33.568  38.048  1.00  0.00     0.200 A 
ATOM     80  F   UNL A   1      40.473  35.145  37.562  1.00  0.00    -0.200 F 
ATOM     81  F   UNL A   1      38.370  34.308  39.085  1.00  0.00    -0.200 F 
ENDBRANCH  47  71
BRANCH  59  82
ATOM     82  C   UNL A   1      44.571  27.207  34.831  1.00  0.00     0.064 A 
ATOM     83  C   UNL A   1      45.818  27.815  35.032  1.00  0.00     0.173 A 
ATOM     84  C   UNL A   1      44.292  26.033  35.549  1.00  0.00     0.173 A 
ATOM     85  F   UNL A   1      46.141  28.931  34.360  1.00  0.00    -0.203 F 
ATOM     86  C   UNL A   1      46.756  27.259  35.899  1.00  0.00     0.198 A 
ATOM     87  C   UNL A   1      45.219  25.497  36.438  1.00  0.00     0.198 A 
ATOM     88  F   UNL A   1      43.110  25.415  35.400  1.00  0.00    -0.203 F 
ATOM     89  F   UNL A   1      47.958  27.834  36.040  1.00  0.00    -0.200 F 
ATOM     90  C   UNL A   1      46.452  26.106  36.607  1.00  0.00     0.200 A 
ATOM     91  F   UNL A   1      44.917  24.392  37.134  1.00  0.00    -0.200 F 
ATOM     92  F   UNL A   1      47.352  25.578  37.449  1.00  0.00    -0.200 F 
ENDBRANCH  59  82
ENDBRANCH  33  34
ENDBRANCH  26  28
ENDBRANCH  25  26
ENDBRANCH  24  25
ENDBRANCH   1  24
TORSDOF 15
ENDMDL
MODEL 2
REMARK VINA RESULT:     -11.7      5.477     10.605
REMARK SMILES CO[C@H]1CCC[C@H]1NC(=O)N[C@](C)(C(=O)OCCOC(=O)c1ccc(-c2c3nc(c(-c4c(F)c(F)c(F)c(F)c4F)c4ccc([nH]4)c(-c4c(F)c(F)c(F)c(F)c4F)c4nc(c(-c5c(F)c(F)c(F)c(F)c5F)c5ccc2[nH]5)C=C4)C=C3)cc1)C(F)(F)F
REMARK SMILES IDX 17 1 16 2 14 3 15 4 12 5 13 6 11 7 8 8 9 9 10 11 7 13 3 14
REMARK SMILES IDX 4 15 5 16 6 17 2 18 1 19 85 20 86 21 87 22 88 23 18 24 19 25
REMARK SMILES IDX 20 26 21 27 22 28 23 29 84 30 24 31 83 32 25 33 26 34 27 35
REMARK SMILES IDX 77 36 28 37 82 38 76 39 78 40 29 41 81 42 75 43 74 44 30 46
REMARK SMILES IDX 62 47 42 48 61 49 43 50 46 51 60 52 79 53 44 54 45 55 59 57
REMARK SMILES IDX 80 58 47 59 31 60 32 61 40 62 33 63 34 64 38 65 41 66 35 67
REMARK SMILES IDX 36 68 39 69 37 70 63 71 64 72 72 73 65 74 66 75 70 76 73 77
REMARK SMILES IDX 67 78 68 79 71 80 69 81 48 82 49 83 57 84 50 85 51 86 55 87
REMARK SMILES IDX 58 88 52 89 53 90 56 91 54 92
REMARK H PARENT 8 10 11 12 78 45 46 56
REMARK Flexibility Score: inf
ROOT
ATOM      1  C   UNL A   1      36.529  20.037  25.015  1.00  0.00     0.274 C 
ENDROOT
BRANCH   1   2
ATOM      2  O   UNL A   1      35.722  21.078  24.406  1.00  0.00    -0.460 OA
BRANCH   2   3
ATOM      3  C   UNL A   1      34.995  21.827  25.280  1.00  0.00     0.341 C 
ATOM      4  O   UNL A   1      34.944  21.518  26.459  1.00  0.00    -0.249 OA
BRANCH   3   5
ATOM      5  C   UNL A   1      34.139  22.931  24.650  1.00  0.00     0.232 C 
ATOM      6  C   UNL A   1      34.306  22.845  23.110  1.00  0.00     0.058 C 
BRANCH   5   7
ATOM      7  N   UNL A   1      32.669  22.792  24.979  1.00  0.00    -0.315 N 
ATOM      8  N   UNL A   1      31.967  20.537  25.402  1.00  0.00    -0.333 N 
ATOM      9  C   UNL A   1      31.828  21.866  25.462  1.00  0.00     0.316 C 
ATOM     10  H   UNL A   1      31.410  20.047  26.049  1.00  0.00     0.165 HD
ATOM     11  O   UNL A   1      30.812  22.308  26.006  1.00  0.00    -0.249 OA
ATOM     12  H   UNL A   1      32.188  23.628  24.781  1.00  0.00     0.166 HD
BRANCH   8  13
ATOM     13  C   UNL A   1      32.776  19.687  24.568  1.00  0.00     0.112 C 
ATOM     14  C   UNL A   1      33.234  18.300  25.058  1.00  0.00     0.140 C 
ATOM     15  C   UNL A   1      33.913  17.796  23.770  1.00  0.00     0.034 C 
ATOM     16  C   UNL A   1      32.968  18.224  22.642  1.00  0.00     0.005 C 
ATOM     17  C   UNL A   1      32.123  19.359  23.226  1.00  0.00     0.028 C 
BRANCH  14  18
ATOM     18  O   UNL A   1      32.119  17.489  25.435  1.00  0.00    -0.379 OA
ATOM     19  C   UNL A   1      32.488  16.139  25.703  1.00  0.00     0.195 C 
ENDBRANCH  14  18
ENDBRANCH   8  13
ENDBRANCH   5   7
BRANCH   5  20
ATOM     20  C   UNL A   1      34.714  24.312  25.034  1.00  0.00     0.422 C 
ATOM     21  F   UNL A   1      34.200  24.755  26.207  1.00  0.00    -0.168 F 
ATOM     22  F   UNL A   1      36.058  24.230  25.226  1.00  0.00    -0.168 F 
ATOM     23  F   UNL A   1      34.522  25.285  24.123  1.00  0.00    -0.168 F 
ENDBRANCH   5  20
ENDBRANCH   3   5
ENDBRANCH   2   3
ENDBRANCH   1   2
BRANCH   1  24
ATOM     24  C   UNL A   1      38.068  20.183  24.985  1.00  0.00     0.275 C 
BRANCH  24  25
ATOM     25  O   UNL A   1      38.597  21.381  25.602  1.00  0.00    -0.458 OA
BRANCH  25  26
ATOM     26  C   UNL A   1      39.676  21.186  26.404  1.00  0.00     0.338 C 
ATOM     27  O   UNL A   1      40.314  20.150  26.508  1.00  0.00    -0.246 OA
BRANCH  26  28
ATOM     28  C   UNL A   1      40.155  22.453  27.015  1.00  0.00     0.060 A 
ATOM     29  C   UNL A   1      39.671  23.640  26.454  1.00  0.00     0.016 A 
ATOM     30  C   UNL A   1      41.142  22.518  27.993  1.00  0.00     0.016 A 
ATOM     31  C   UNL A   1      40.136  24.888  26.854  1.00  0.00     0.010 A 
ATOM     32  C   UNL A   1      41.654  23.776  28.371  1.00  0.00     0.010 A 
ATOM     33  C   UNL A   1      41.168  24.966  27.785  1.00  0.00    -0.014 A 
BRANCH  33  34
ATOM     34  C   UNL A   1      41.869  26.268  27.946  1.00  0.00     0.031 A 
ATOM     35  C   UNL A   1      41.193  27.347  28.747  1.00  0.00     0.074 A 
ATOM     36  C   UNL A   1      43.127  26.460  27.509  1.00  0.00     0.049 A 
ATOM     37  N   UNL A   1      41.548  28.592  28.943  1.00  0.00    -0.248 NA
ATOM     38  C   UNL A   1      39.948  26.963  29.430  1.00  0.00     0.031 C 
ATOM     39  C   UNL A   1      43.961  25.455  26.856  1.00  0.00     0.029 A 
ATOM     40  N   UNL A   1      43.927  27.578  27.563  1.00  0.00    -0.354 N 
ATOM     41  C   UNL A   1      40.554  29.145  29.740  1.00  0.00     0.074 A 
ATOM     42  C   UNL A   1      39.580  28.106  29.987  1.00  0.00     0.031 C 
ATOM     43  C   UNL A   1      45.153  26.003  26.559  1.00  0.00     0.029 A 
ATOM     44  C   UNL A   1      45.145  27.413  26.949  1.00  0.00     0.049 A 
ATOM     45  H   UNL A   1      43.653  28.416  28.000  1.00  0.00     0.167 HD
ATOM     46  C   UNL A   1      40.460  30.409  30.217  1.00  0.00     0.037 A 
ATOM     47  C   UNL A   1      46.120  28.309  26.696  1.00  0.00     0.037 A 
ATOM     48  C   UNL A   1      41.444  31.436  29.993  1.00  0.00     0.049 A 
ATOM     49  C   UNL A   1      45.943  29.743  27.136  1.00  0.00     0.074 A 
ATOM     50  C   UNL A   1      41.427  32.754  30.412  1.00  0.00     0.029 A 
ATOM     51  N   UNL A   1      42.628  31.252  29.294  1.00  0.00    -0.354 N 
ATOM     52  N   UNL A   1      44.966  30.284  27.823  1.00  0.00    -0.248 NA
ATOM     53  C   UNL A   1      46.999  30.691  26.752  1.00  0.00     0.031 C 
ATOM     54  C   UNL A   1      42.577  33.383  29.923  1.00  0.00     0.029 A 
ATOM     55  C   UNL A   1      43.338  32.441  29.248  1.00  0.00     0.049 A 
ATOM     56  H   UNL A   1      42.920  30.404  28.889  1.00  0.00     0.167 HD
ATOM     57  C   UNL A   1      45.303  31.625  27.979  1.00  0.00     0.074 A 
ATOM     58  C   UNL A   1      46.581  31.812  27.324  1.00  0.00     0.031 C 
ATOM     59  C   UNL A   1      44.616  32.611  28.606  1.00  0.00     0.037 A 
BRANCH  46  60
ATOM     60  C   UNL A   1      39.215  30.766  30.975  1.00  0.00     0.064 A 
ATOM     61  C   UNL A   1      39.129  30.647  32.369  1.00  0.00     0.173 A 
ATOM     62  C   UNL A   1      38.087  31.237  30.285  1.00  0.00     0.173 A 
ATOM     63  F   UNL A   1      40.171  30.184  33.074  1.00  0.00    -0.203 F 
ATOM     64  C   UNL A   1      37.948  30.955  33.041  1.00  0.00     0.198 A 
ATOM     65  C   UNL A   1      36.919  31.574  30.963  1.00  0.00     0.198 A 
ATOM     66  F   UNL A   1      38.118  31.371  28.950  1.00  0.00    -0.203 F 
ATOM     67  F   UNL A   1      37.868  30.778  34.368  1.00  0.00    -0.200 F 
ATOM     68  C   UNL A   1      36.847  31.423  32.338  1.00  0.00     0.200 A 
ATOM     69  F   UNL A   1      35.861  32.036  30.282  1.00  0.00    -0.200 F 
ATOM     70  F   UNL A   1      35.711  31.718  32.986  1.00  0.00    -0.200 F 
ENDBRANCH  46  60
BRANCH  47  71
ATOM     71  C   UNL A   1      47.335  27.901  25.938  1.00  0.00     0.064 A 
ATOM     72  C   UNL A   1      47.319  27.785  24.541  1.00  0.00     0.173 A 
ATOM     73  C   UNL A   1      48.527  27.573  26.602  1.00  0.00     0.173 A 
ATOM     74  F   UNL A   1      46.194  28.052  23.861  1.00  0.00    -0.203 F 
ATOM     75  C   UNL A   1      48.441  27.343  23.841  1.00  0.00     0.198 A 
ATOM     76  C   UNL A   1      49.658  27.162  25.899  1.00  0.00     0.198 A 
ATOM     77  F   UNL A   1      48.597  27.654  27.939  1.00  0.00    -0.203 F 
ATOM     78  F   UNL A   1      48.379  27.189  22.511  1.00  0.00    -0.200 F 
ATOM     79  C   UNL A   1      49.611  27.038  24.519  1.00  0.00     0.200 A 
ATOM     80  F   UNL A   1      50.788  26.877  26.559  1.00  0.00    -0.200 F 
ATOM     81  F   UNL A   1      50.688  26.612  23.845  1.00  0.00    -0.200 F 
ENDBRANCH  47  71
BRANCH  59  82
ATOM     82  C   UNL A   1      45.247  33.974  28.658  1.00  0.00     0.064 A 
ATOM     83  C   UNL A   1      46.163  34.328  29.658  1.00  0.00     0.173 A 
ATOM     84  C   UNL A   1      44.970  34.921  27.659  1.00  0.00     0.173 A 
ATOM     85  F   UNL A   1      46.453  33.465  30.644  1.00  0.00    -0.203 F 
ATOM     86  C   UNL A   1      46.761  35.586  29.670  1.00  0.00     0.198 A 
ATOM     87  C   UNL A   1      45.592  36.167  27.657  1.00  0.00     0.198 A 
ATOM     88  F   UNL A   1      44.107  34.631  26.673  1.00  0.00    -0.203 F 
ATOM     89  F   UNL A   1      47.598  35.918  30.662  1.00  0.00    -0.200 F 
ATOM     90  C   UNL A   1      46.481  36.500  28.666  1.00  0.00     0.200 A 
ATOM     91  F   UNL A   1      45.333  37.042  26.675  1.00  0.00    -0.200 F 
ATOM     92  F   UNL A   1      47.065  37.707  28.674  1.00  0.00    -0.200 F 
ENDBRANCH  59  82
ENDBRANCH  33  34
ENDBRANCH  26  28
ENDBRANCH  25  26
ENDBRANCH  24  25
ENDBRANCH   1  24
TORSDOF 15
ENDMDL
MODEL 3
REMARK VINA RESULT:     -11.6      5.416      8.175
REMARK SMILES CO[C@H]1CCC[C@H]1NC(=O)N[C@](C)(C(=O)OCCOC(=O)c1ccc(-c2c3nc(c(-c4c(F)c(F)c(F)c(F)c4F)c4ccc([nH]4)c(-c4c(F)c(F)c(F)c(F)c4F)c4nc(c(-c5c(F)c(F)c(F)c(F)c5F)c5ccc2[nH]5)C=C4)C=C3)cc1)C(F)(F)F
REMARK SMILES IDX 17 1 16 2 14 3 15 4 12 5 13 6 11 7 8 8 9 9 10 11 7 13 3 14
REMARK SMILES IDX 4 15 5 16 6 17 2 18 1 19 85 20 86 21 87 22 88 23 18 24 19 25
REMARK SMILES IDX 20 26 21 27 22 28 23 29 84 30 24 31 83 32 25 33 26 34 27 35
REMARK SMILES IDX 77 36 28 37 82 38 76 39 78 40 29 41 81 42 75 43 74 44 30 46
REMARK SMILES IDX 62 47 42 48 61 49 43 50 46 51 60 52 79 53 44 54 45 55 59 57
REMARK SMILES IDX 80 58 47 59 31 60 32 61 40 62 33 63 34 64 38 65 41 66 35 67
REMARK SMILES IDX 36 68 39 69 37 70 63 71 64 72 72 73 65 74 66 75 70 76 73 77
REMARK SMILES IDX 67 78 68 79 71 80 69 81 48 82 49 83 57 84 50 85 51 86 55 87
REMARK SMILES IDX 58 88 52 89 53 90 56 91 54 92
REMARK H PARENT 8 10 11 12 78 45 46 56
REMARK Flexibility Score: inf
ROOT
ATOM      1  C   UNL A   1      36.514  19.942  25.003  1.00  0.00     0.274 C 
ENDROOT
BRANCH   1   2
ATOM      2  O   UNL A   1      35.856  21.104  24.434  1.00  0.00    -0.460 OA
BRANCH   2   3
ATOM      3  C   UNL A   1      35.067  21.799  25.298  1.00  0.00     0.341 C 
ATOM      4  O   UNL A   1      34.988  21.457  26.467  1.00  0.00    -0.249 OA
BRANCH   3   5
ATOM      5  C   UNL A   1      34.187  22.881  24.665  1.00  0.00     0.232 C 
ATOM      6  C   UNL A   1      34.312  22.757  23.123  1.00  0.00     0.058 C 
BRANCH   5   7
ATOM      7  N   UNL A   1      32.727  22.743  25.038  1.00  0.00    -0.315 N 
ATOM      8  N   UNL A   1      32.031  20.484  25.448  1.00  0.00    -0.333 N 
ATOM      9  C   UNL A   1      31.899  21.812  25.533  1.00  0.00     0.316 C 
ATOM     10  H   UNL A   1      31.492  19.986  26.106  1.00  0.00     0.165 HD
ATOM     11  O   UNL A   1      30.901  22.249  26.115  1.00  0.00    -0.249 OA
ATOM     12  H   UNL A   1      32.244  23.583  24.867  1.00  0.00     0.166 HD
BRANCH   8  13
ATOM     13  C   UNL A   1      32.809  19.643  24.577  1.00  0.00     0.112 C 
ATOM     14  C   UNL A   1      33.253  18.236  25.021  1.00  0.00     0.140 C 
ATOM     15  C   UNL A   1      33.900  17.756  23.707  1.00  0.00     0.034 C 
ATOM     16  C   UNL A   1      32.942  18.231  22.609  1.00  0.00     0.005 C 
ATOM     17  C   UNL A   1      32.126  19.363  23.239  1.00  0.00     0.028 C 
BRANCH  14  18
ATOM     18  O   UNL A   1      32.132  17.434  25.396  1.00  0.00    -0.379 OA
ATOM     19  C   UNL A   1      32.487  16.077  25.645  1.00  0.00     0.195 C 
ENDBRANCH  14  18
ENDBRANCH   8  13
ENDBRANCH   5   7
BRANCH   5  20
ATOM     20  C   UNL A   1      34.764  24.275  24.998  1.00  0.00     0.422 C 
ATOM     21  F   UNL A   1      34.496  25.170  24.016  1.00  0.00    -0.168 F 
ATOM     22  F   UNL A   1      34.183  24.774  26.122  1.00  0.00    -0.168 F 
ATOM     23  F   UNL A   1      36.093  24.307  25.214  1.00  0.00    -0.168 F 
ENDBRANCH   5  20
ENDBRANCH   3   5
ENDBRANCH   2   3
ENDBRANCH   1   2
BRANCH   1  24
ATOM     24  C   UNL A   1      38.059  19.893  25.000  1.00  0.00     0.275 C 
BRANCH  24  25
ATOM     25  O   UNL A   1      38.726  21.112  25.405  1.00  0.00    -0.458 OA
BRANCH  25  26
ATOM     26  C   UNL A   1      39.736  20.946  26.298  1.00  0.00     0.338 C 
ATOM     27  O   UNL A   1      40.413  19.939  26.436  1.00  0.00    -0.246 OA
BRANCH  26  28
ATOM     28  C   UNL A   1      40.093  22.216  26.981  1.00  0.00     0.060 A 
ATOM     29  C   UNL A   1      39.435  23.370  26.542  1.00  0.00     0.016 A 
ATOM     30  C   UNL A   1      41.122  22.335  27.910  1.00  0.00     0.016 A 
ATOM     31  C   UNL A   1      39.767  24.634  27.014  1.00  0.00     0.010 A 
ATOM     32  C   UNL A   1      41.499  23.617  28.358  1.00  0.00     0.010 A 
ATOM     33  C   UNL A   1      40.837  24.775  27.894  1.00  0.00    -0.014 A 
BRANCH  33  34
ATOM     34  C   UNL A   1      41.382  26.140  28.121  1.00  0.00     0.031 A 
ATOM     35  C   UNL A   1      42.759  26.454  27.602  1.00  0.00     0.074 A 
ATOM     36  C   UNL A   1      40.640  27.125  28.659  1.00  0.00     0.049 A 
ATOM     37  N   UNL A   1      43.490  27.528  27.762  1.00  0.00    -0.248 NA
ATOM     38  C   UNL A   1      43.392  25.413  26.777  1.00  0.00     0.031 C 
ATOM     39  C   UNL A   1      39.241  27.008  29.064  1.00  0.00     0.029 A 
ATOM     40  N   UNL A   1      40.965  28.430  28.946  1.00  0.00    -0.354 N 
ATOM     41  C   UNL A   1      44.679  27.276  27.090  1.00  0.00     0.074 A 
ATOM     42  C   UNL A   1      44.576  25.949  26.525  1.00  0.00     0.031 C 
ATOM     43  C   UNL A   1      38.830  28.190  29.558  1.00  0.00     0.029 A 
ATOM     44  C   UNL A   1      39.952  29.128  29.557  1.00  0.00     0.049 A 
ATOM     45  H   UNL A   1      41.840  28.826  28.733  1.00  0.00     0.167 HD
ATOM     46  C   UNL A   1      45.763  28.079  26.962  1.00  0.00     0.037 A 
ATOM     47  C   UNL A   1      39.946  30.368  30.089  1.00  0.00     0.037 A 
ATOM     48  C   UNL A   1      45.854  29.410  27.501  1.00  0.00     0.049 A 
ATOM     49  C   UNL A   1      41.204  31.202  30.036  1.00  0.00     0.074 A 
ATOM     50  C   UNL A   1      46.918  30.293  27.447  1.00  0.00     0.029 A 
ATOM     51  N   UNL A   1      44.835  30.053  28.187  1.00  0.00    -0.354 N 
ATOM     52  N   UNL A   1      42.354  30.934  29.468  1.00  0.00    -0.248 NA
ATOM     53  C   UNL A   1      41.163  32.508  30.713  1.00  0.00     0.031 C 
ATOM     54  C   UNL A   1      46.562  31.451  28.145  1.00  0.00     0.029 A 
ATOM     55  C   UNL A   1      45.254  31.313  28.584  1.00  0.00     0.049 A 
ATOM     56  H   UNL A   1      43.945  29.671  28.367  1.00  0.00     0.167 HD
ATOM     57  C   UNL A   1      43.162  32.044  29.692  1.00  0.00     0.074 A 
ATOM     58  C   UNL A   1      42.366  32.995  30.439  1.00  0.00     0.031 C 
ATOM     59  C   UNL A   1      44.447  32.256  29.314  1.00  0.00     0.037 A 
BRANCH  46  60
ATOM     60  C   UNL A   1      46.960  27.507  26.261  1.00  0.00     0.064 A 
ATOM     61  C   UNL A   1      47.992  26.856  26.954  1.00  0.00     0.173 A 
ATOM     62  C   UNL A   1      47.072  27.615  24.866  1.00  0.00     0.173 A 
ATOM     63  F   UNL A   1      47.942  26.744  28.289  1.00  0.00    -0.203 F 
ATOM     64  C   UNL A   1      49.106  26.364  26.279  1.00  0.00     0.198 A 
ATOM     65  C   UNL A   1      48.173  27.094  24.192  1.00  0.00     0.198 A 
ATOM     66  F   UNL A   1      46.112  28.226  24.155  1.00  0.00    -0.203 F 
ATOM     67  F   UNL A   1      50.109  25.798  26.966  1.00  0.00    -0.200 F 
ATOM     68  C   UNL A   1      49.193  26.479  24.898  1.00  0.00     0.200 A 
ATOM     69  F   UNL A   1      48.248  27.197  22.858  1.00  0.00    -0.200 F 
ATOM     70  F   UNL A   1      50.267  26.006  24.251  1.00  0.00    -0.200 F 
ENDBRANCH  46  60
BRANCH  47  71
ATOM     71  C   UNL A   1      38.729  30.884  30.773  1.00  0.00     0.064 A 
ATOM     72  C   UNL A   1      38.566  30.763  32.160  1.00  0.00     0.173 A 
ATOM     73  C   UNL A   1      37.682  31.470  30.045  1.00  0.00     0.173 A 
ATOM     74  F   UNL A   1      39.521  30.179  32.899  1.00  0.00    -0.203 F 
ATOM     75  C   UNL A   1      37.398  31.193  32.789  1.00  0.00     0.198 A 
ATOM     76  C   UNL A   1      36.529  31.929  30.679  1.00  0.00     0.198 A 
ATOM     77  F   UNL A   1      37.779  31.601  28.714  1.00  0.00    -0.203 F 
ATOM     78  F   UNL A   1      37.246  31.015  34.108  1.00  0.00    -0.200 F 
ATOM     79  C   UNL A   1      36.383  31.781  32.049  1.00  0.00     0.200 A 
ATOM     80  F   UNL A   1      35.556  32.504  29.959  1.00  0.00    -0.200 F 
ATOM     81  F   UNL A   1      35.261  32.193  32.654  1.00  0.00    -0.200 F 
ENDBRANCH  47  71
BRANCH  59  82
ATOM     82  C   UNL A   1      45.064  33.582  29.659  1.00  0.00     0.064 A 
ATOM     83  C   UNL A   1      44.954  34.693  28.810  1.00  0.00     0.173 A 
ATOM     84  C   UNL A   1      45.729  33.757  30.883  1.00  0.00     0.173 A 
ATOM     85  F   UNL A   1      44.340  34.577  27.623  1.00  0.00    -0.203 F 
ATOM     86  C   UNL A   1      45.506  35.922  29.163  1.00  0.00     0.198 A 
ATOM     87  C   UNL A   1      46.253  34.994  31.246  1.00  0.00     0.198 A 
ATOM     88  F   UNL A   1      45.855  32.729  31.737  1.00  0.00    -0.203 F 
ATOM     89  F   UNL A   1      45.428  36.957  28.315  1.00  0.00    -0.200 F 
ATOM     90  C   UNL A   1      46.147  36.073  30.383  1.00  0.00     0.200 A 
ATOM     91  F   UNL A   1      46.857  35.143  32.433  1.00  0.00    -0.200 F 
ATOM     92  F   UNL A   1      46.669  37.260  30.725  1.00  0.00    -0.200 F 
ENDBRANCH  59  82
ENDBRANCH  33  34
ENDBRANCH  26  28
ENDBRANCH  25  26
ENDBRANCH  24  25
ENDBRANCH   1  24
TORSDOF 15
ENDMDL
