MODEL 1
REMARK VINA RESULT:     -10.9      0.000      0.000
REMARK SMILES CCS(=O)(=O)N1CCC[C@@H](C(=O)OCCOC(=O)c2ccc(-c3c4nc(c(-c5c(F)c(F)c(F)c(F)c5F)c5ccc([nH]5)c(-c5c(F)c(F)c(F)c(F)c5F)c5nc(c(-c6c(F)c(F)c(F)c(F)c6F)c6ccc3[nH]6)C=C5)C=C4)cc2)C1
REMARK SMILES IDX 14 1 13 2 11 3 12 4 10 5 6 6 7 7 82 8 8 9 9 10 3 11 4 12
REMARK SMILES IDX 5 13 2 14 1 15 15 16 16 17 17 18 18 19 19 20 20 21 81 22
REMARK SMILES IDX 21 23 80 24 22 25 23 26 24 27 74 28 25 29 79 30 73 31 75 32
REMARK SMILES IDX 26 33 78 34 72 35 71 36 27 38 59 39 39 40 58 41 40 42 43 43
REMARK SMILES IDX 57 44 76 45 41 46 42 47 56 49 77 50 44 51 28 52 29 53 37 54
REMARK SMILES IDX 30 55 31 56 35 57 38 58 32 59 33 60 36 61 34 62 60 63 61 64
REMARK SMILES IDX 69 65 62 66 63 67 67 68 70 69 64 70 65 71 68 72 66 73 45 74
REMARK SMILES IDX 46 75 54 76 47 77 48 78 52 79 55 80 49 81 50 82 53 83 51 84
REMARK H PARENT 75 37 43 48
REMARK Flexibility Score: inf
ROOT
ATOM      1  C   UNL A   1      42.363  20.107  26.056  1.00  0.00     0.274 C 
ENDROOT
BRANCH   1   2
ATOM      2  O   UNL A   1      41.193  20.623  26.727  1.00  0.00    -0.462 OA
BRANCH   2   3
ATOM      3  C   UNL A   1      40.005  20.413  26.104  1.00  0.00     0.310 C 
ATOM      4  O   UNL A   1      39.559  19.311  25.804  1.00  0.00    -0.252 OA
BRANCH   3   5
ATOM      5  C   UNL A   1      39.288  21.696  25.739  1.00  0.00     0.114 C 
ATOM      6  N   UNL A   1      37.219  22.814  24.912  1.00  0.00    -0.201 NA
ATOM      7  C   UNL A   1      37.214  23.700  26.115  1.00  0.00     0.102 C 
ATOM      8  C   UNL A   1      37.853  21.484  25.253  1.00  0.00     0.117 C 
ATOM      9  C   UNL A   1      38.650  23.973  26.548  1.00  0.00     0.018 C 
ATOM     10  C   UNL A   1      39.355  22.671  26.911  1.00  0.00     0.018 C 
BRANCH   6  11
ATOM     11  S   UNL A   1      35.692  22.632  24.148  1.00  0.00     0.213 S 
ATOM     12  O   UNL A   1      35.149  21.350  24.546  1.00  0.00    -0.212 OA
ATOM     13  O   UNL A   1      35.863  22.959  22.747  1.00  0.00    -0.212 OA
BRANCH  11  14
ATOM     14  C   UNL A   1      34.685  23.946  24.831  1.00  0.00     0.151 C 
ATOM     15  C   UNL A   1      33.626  24.515  23.915  1.00  0.00     0.022 C 
ENDBRANCH  11  14
ENDBRANCH   6  11
ENDBRANCH   3   5
ENDBRANCH   2   3
ENDBRANCH   1   2
BRANCH   1  16
ATOM     16  C   UNL A   1      43.378  21.206  25.721  1.00  0.00     0.275 C 
BRANCH  16  17
ATOM     17  O   UNL A   1      42.743  22.390  25.207  1.00  0.00    -0.458 OA
BRANCH  17  18
ATOM     18  C   UNL A   1      43.511  23.504  25.249  1.00  0.00     0.338 C 
ATOM     19  O   UNL A   1      44.463  23.764  24.535  1.00  0.00    -0.246 OA
BRANCH  18  20
ATOM     20  C   UNL A   1      42.949  24.467  26.207  1.00  0.00     0.060 A 
ATOM     21  C   UNL A   1      43.196  25.828  26.000  1.00  0.00     0.016 A 
ATOM     22  C   UNL A   1      42.257  24.035  27.339  1.00  0.00     0.016 A 
ATOM     23  C   UNL A   1      42.756  26.770  26.926  1.00  0.00     0.010 A 
ATOM     24  C   UNL A   1      41.825  24.977  28.274  1.00  0.00     0.010 A 
ATOM     25  C   UNL A   1      42.084  26.346  28.077  1.00  0.00    -0.014 A 
BRANCH  25  26
ATOM     26  C   UNL A   1      41.728  27.321  29.132  1.00  0.00     0.031 A 
ATOM     27  C   UNL A   1      42.532  27.350  30.398  1.00  0.00     0.074 A 
ATOM     28  C   UNL A   1      40.696  28.165  28.958  1.00  0.00     0.049 A 
ATOM     29  N   UNL A   1      42.301  27.992  31.514  1.00  0.00    -0.248 NA
ATOM     30  C   UNL A   1      43.763  26.544  30.407  1.00  0.00     0.031 C 
ATOM     31  C   UNL A   1      39.894  28.278  27.742  1.00  0.00     0.029 A 
ATOM     32  N   UNL A   1      40.137  29.077  29.817  1.00  0.00    -0.354 N 
ATOM     33  C   UNL A   1      43.344  27.651  32.364  1.00  0.00     0.074 A 
ATOM     34  C   UNL A   1      44.203  26.739  31.642  1.00  0.00     0.031 C 
ATOM     35  C   UNL A   1      38.932  29.196  27.938  1.00  0.00     0.029 A 
ATOM     36  C   UNL A   1      39.021  29.692  29.309  1.00  0.00     0.049 A 
ATOM     37  H   UNL A   1      40.501  29.270  30.712  1.00  0.00     0.167 HD
ATOM     38  C   UNL A   1      43.558  28.066  33.635  1.00  0.00     0.037 A 
ATOM     39  C   UNL A   1      38.149  30.529  29.903  1.00  0.00     0.037 A 
ATOM     40  C   UNL A   1      42.698  28.978  34.341  1.00  0.00     0.049 A 
ATOM     41  C   UNL A   1      38.362  30.908  31.345  1.00  0.00     0.074 A 
ATOM     42  C   UNL A   1      42.807  29.441  35.641  1.00  0.00     0.029 A 
ATOM     43  N   UNL A   1      41.567  29.569  33.800  1.00  0.00    -0.354 N 
ATOM     44  N   UNL A   1      39.328  30.557  32.159  1.00  0.00    -0.248 NA
ATOM     45  C   UNL A   1      37.358  31.793  31.954  1.00  0.00     0.031 C 
ATOM     46  C   UNL A   1      41.724  30.287  35.896  1.00  0.00     0.029 A 
ATOM     47  C   UNL A   1      40.965  30.388  34.741  1.00  0.00     0.049 A 
ATOM     48  H   UNL A   1      41.239  29.429  32.882  1.00  0.00     0.167 HD
ATOM     49  C   UNL A   1      39.071  31.206  33.360  1.00  0.00     0.074 A 
ATOM     50  C   UNL A   1      37.859  31.973  33.169  1.00  0.00     0.031 C 
ATOM     51  C   UNL A   1      39.777  31.170  34.517  1.00  0.00     0.037 A 
BRANCH  38  52
ATOM     52  C   UNL A   1      44.753  27.513  34.352  1.00  0.00     0.064 A 
ATOM     53  C   UNL A   1      45.979  28.194  34.375  1.00  0.00     0.173 A 
ATOM     54  C   UNL A   1      44.661  26.302  35.054  1.00  0.00     0.173 A 
ATOM     55  F   UNL A   1      46.122  29.349  33.707  1.00  0.00    -0.203 F 
ATOM     56  C   UNL A   1      47.075  27.673  35.058  1.00  0.00     0.198 A 
ATOM     57  C   UNL A   1      45.751  25.796  35.757  1.00  0.00     0.198 A 
ATOM     58  F   UNL A   1      43.510  25.612  35.065  1.00  0.00    -0.203 F 
ATOM     59  F   UNL A   1      48.247  28.322  35.035  1.00  0.00    -0.200 F 
ATOM     60  C   UNL A   1      46.958  26.479  35.754  1.00  0.00     0.200 A 
ATOM     61  F   UNL A   1      45.634  24.648  36.438  1.00  0.00    -0.200 F 
ATOM     62  F   UNL A   1      48.012  25.982  36.417  1.00  0.00    -0.200 F 
ENDBRANCH  38  52
BRANCH  39  63
ATOM     63  C   UNL A   1      36.978  31.046  29.148  1.00  0.00     0.064 A 
ATOM     64  C   UNL A   1      36.935  32.377  28.707  1.00  0.00     0.173 A 
ATOM     65  C   UNL A   1      35.868  30.233  28.874  1.00  0.00     0.173 A 
ATOM     66  F   UNL A   1      37.960  33.201  28.970  1.00  0.00    -0.203 F 
ATOM     67  C   UNL A   1      35.819  32.878  28.040  1.00  0.00     0.198 A 
ATOM     68  C   UNL A   1      34.766  30.727  28.181  1.00  0.00     0.198 A 
ATOM     69  F   UNL A   1      35.858  28.953  29.277  1.00  0.00    -0.203 F 
ATOM     70  F   UNL A   1      35.784  34.166  27.675  1.00  0.00    -0.200 F 
ATOM     71  C   UNL A   1      34.738  32.052  27.773  1.00  0.00     0.200 A 
ATOM     72  F   UNL A   1      33.727  29.923  27.917  1.00  0.00    -0.200 F 
ATOM     73  F   UNL A   1      33.665  32.536  27.132  1.00  0.00    -0.200 F 
ENDBRANCH  39  63
BRANCH  51  74
ATOM     74  C   UNL A   1      39.301  32.038  35.643  1.00  0.00     0.064 A 
ATOM     75  C   UNL A   1      38.405  31.565  36.612  1.00  0.00     0.173 A 
ATOM     76  C   UNL A   1      39.796  33.342  35.783  1.00  0.00     0.173 A 
ATOM     77  F   UNL A   1      37.892  30.330  36.512  1.00  0.00    -0.203 F 
ATOM     78  C   UNL A   1      38.010  32.375  37.674  1.00  0.00     0.198 A 
ATOM     79  C   UNL A   1      39.420  34.140  36.859  1.00  0.00     0.198 A 
ATOM     80  F   UNL A   1      40.661  33.837  34.884  1.00  0.00    -0.203 F 
ATOM     81  F   UNL A   1      37.126  31.917  38.570  1.00  0.00    -0.200 F 
ATOM     82  C   UNL A   1      38.524  33.657  37.801  1.00  0.00     0.200 A 
ATOM     83  F   UNL A   1      39.927  35.374  36.987  1.00  0.00    -0.200 F 
ATOM     84  F   UNL A   1      38.151  34.431  38.830  1.00  0.00    -0.200 F 
ENDBRANCH  51  74
ENDBRANCH  25  26
ENDBRANCH  18  20
ENDBRANCH  17  18
ENDBRANCH  16  17
ENDBRANCH   1  16
TORSDOF 13
ENDMDL
MODEL 2
REMARK VINA RESULT:     -10.7      4.414      9.454
REMARK SMILES CCS(=O)(=O)N1CCC[C@@H](C(=O)OCCOC(=O)c2ccc(-c3c4nc(c(-c5c(F)c(F)c(F)c(F)c5F)c5ccc([nH]5)c(-c5c(F)c(F)c(F)c(F)c5F)c5nc(c(-c6c(F)c(F)c(F)c(F)c6F)c6ccc3[nH]6)C=C5)C=C4)cc2)C1
REMARK SMILES IDX 14 1 13 2 11 3 12 4 10 5 6 6 7 7 82 8 8 9 9 10 3 11 4 12
REMARK SMILES IDX 5 13 2 14 1 15 15 16 16 17 17 18 18 19 19 20 20 21 81 22
REMARK SMILES IDX 21 23 80 24 22 25 23 26 24 27 74 28 25 29 79 30 73 31 75 32
REMARK SMILES IDX 26 33 78 34 72 35 71 36 27 38 59 39 39 40 58 41 40 42 43 43
REMARK SMILES IDX 57 44 76 45 41 46 42 47 56 49 77 50 44 51 28 52 29 53 37 54
REMARK SMILES IDX 30 55 31 56 35 57 38 58 32 59 33 60 36 61 34 62 60 63 61 64
REMARK SMILES IDX 69 65 62 66 63 67 67 68 70 69 64 70 65 71 68 72 66 73 45 74
REMARK SMILES IDX 46 75 54 76 47 77 48 78 52 79 55 80 49 81 50 82 53 83 51 84
REMARK H PARENT 75 37 43 48
REMARK Flexibility Score: inf
ROOT
ATOM      1  C   UNL A   1      32.449  31.857  27.210  1.00  0.00     0.274 C 
ENDROOT
BRANCH   1   2
ATOM      2  O   UNL A   1      31.748  31.157  26.159  1.00  0.00    -0.462 OA
BRANCH   2   3
ATOM      3  C   UNL A   1      32.303  29.990  25.744  1.00  0.00     0.310 C 
ATOM      4  O   UNL A   1      33.449  29.632  25.998  1.00  0.00    -0.252 OA
BRANCH   3   5
ATOM      5  C   UNL A   1      31.385  29.175  24.859  1.00  0.00     0.114 C 
ATOM      6  N   UNL A   1      29.452  29.113  23.285  1.00  0.00    -0.201 NA
ATOM      7  C   UNL A   1      30.293  28.401  22.277  1.00  0.00     0.102 C 
ATOM      8  C   UNL A   1      30.320  30.008  24.142  1.00  0.00     0.117 C 
ATOM      9  C   UNL A   1      31.301  27.511  22.995  1.00  0.00     0.018 C 
ATOM     10  C   UNL A   1      32.217  28.349  23.881  1.00  0.00     0.018 C 
BRANCH   6  11
ATOM     11  S   UNL A   1      28.100  29.947  22.633  1.00  0.00     0.213 S 
ATOM     12  O   UNL A   1      26.905  29.382  23.223  1.00  0.00    -0.212 OA
ATOM     13  O   UNL A   1      28.265  29.989  21.194  1.00  0.00    -0.212 OA
BRANCH  11  14
ATOM     14  C   UNL A   1      28.300  31.638  23.190  1.00  0.00     0.151 C 
ATOM     15  C   UNL A   1      28.531  32.670  22.110  1.00  0.00     0.022 C 
ENDBRANCH  11  14
ENDBRANCH   6  11
ENDBRANCH   3   5
ENDBRANCH   2   3
ENDBRANCH   1   2
BRANCH   1  16
ATOM     16  C   UNL A   1      32.312  33.379  27.092  1.00  0.00     0.275 C 
BRANCH  16  17
ATOM     17  O   UNL A   1      32.558  34.044  28.345  1.00  0.00    -0.458 OA
BRANCH  17  18
ATOM     18  C   UNL A   1      33.749  34.684  28.417  1.00  0.00     0.338 C 
ATOM     19  O   UNL A   1      33.954  35.871  28.243  1.00  0.00    -0.246 OA
BRANCH  18  20
ATOM     20  C   UNL A   1      34.789  33.758  28.890  1.00  0.00     0.060 A 
ATOM     21  C   UNL A   1      34.419  32.745  29.781  1.00  0.00     0.016 A 
ATOM     22  C   UNL A   1      36.125  33.931  28.528  1.00  0.00     0.016 A 
ATOM     23  C   UNL A   1      35.382  31.898  30.320  1.00  0.00     0.010 A 
ATOM     24  C   UNL A   1      37.094  33.089  29.076  1.00  0.00     0.010 A 
ATOM     25  C   UNL A   1      36.728  32.078  29.984  1.00  0.00    -0.014 A 
BRANCH  25  26
ATOM     26  C   UNL A   1      37.776  31.274  30.651  1.00  0.00     0.031 A 
ATOM     27  C   UNL A   1      38.081  31.530  32.097  1.00  0.00     0.074 A 
ATOM     28  C   UNL A   1      38.446  30.330  29.967  1.00  0.00     0.049 A 
ATOM     29  N   UNL A   1      39.061  31.072  32.832  1.00  0.00    -0.248 NA
ATOM     30  C   UNL A   1      37.156  32.424  32.810  1.00  0.00     0.031 C 
ATOM     31  C   UNL A   1      38.183  29.944  28.582  1.00  0.00     0.029 A 
ATOM     32  N   UNL A   1      39.500  29.537  30.344  1.00  0.00    -0.354 N 
ATOM     33  C   UNL A   1      38.884  31.639  34.087  1.00  0.00     0.074 A 
ATOM     34  C   UNL A   1      37.710  32.482  34.013  1.00  0.00     0.031 C 
ATOM     35  C   UNL A   1      39.065  28.998  28.219  1.00  0.00     0.029 A 
ATOM     36  C   UNL A   1      39.985  28.753  29.327  1.00  0.00     0.049 A 
ATOM     37  H   UNL A   1      39.873  29.532  31.256  1.00  0.00     0.167 HD
ATOM     38  C   UNL A   1      39.639  31.468  35.198  1.00  0.00     0.037 A 
ATOM     39  C   UNL A   1      41.073  27.962  29.289  1.00  0.00     0.037 A 
ATOM     40  C   UNL A   1      40.802  30.624  35.260  1.00  0.00     0.049 A 
ATOM     41  C   UNL A   1      41.946  27.856  30.512  1.00  0.00     0.074 A 
ATOM     42  C   UNL A   1      41.655  30.402  36.327  1.00  0.00     0.029 A 
ATOM     43  N   UNL A   1      41.273  29.856  34.204  1.00  0.00    -0.354 N 
ATOM     44  N   UNL A   1      41.798  28.420  31.687  1.00  0.00    -0.248 NA
ATOM     45  C   UNL A   1      43.143  27.009  30.402  1.00  0.00     0.031 C 
ATOM     46  C   UNL A   1      42.660  29.526  35.907  1.00  0.00     0.029 A 
ATOM     47  C   UNL A   1      42.408  29.165  34.593  1.00  0.00     0.049 A 
ATOM     48  H   UNL A   1      40.862  29.809  33.311  1.00  0.00     0.167 HD
ATOM     49  C   UNL A   1      42.856  27.968  32.464  1.00  0.00     0.074 A 
ATOM     50  C   UNL A   1      43.639  27.083  31.630  1.00  0.00     0.031 C 
ATOM     51  C   UNL A   1      43.152  28.261  33.755  1.00  0.00     0.037 A 
BRANCH  38  52
ATOM     52  C   UNL A   1      39.247  32.232  36.426  1.00  0.00     0.064 A 
ATOM     53  C   UNL A   1      39.822  33.474  36.735  1.00  0.00     0.173 A 
ATOM     54  C   UNL A   1      38.260  31.733  37.288  1.00  0.00     0.173 A 
ATOM     55  F   UNL A   1      40.781  33.988  35.950  1.00  0.00    -0.203 F 
ATOM     56  C   UNL A   1      39.436  34.178  37.873  1.00  0.00     0.198 A 
ATOM     57  C   UNL A   1      37.858  32.451  38.411  1.00  0.00     0.198 A 
ATOM     58  F   UNL A   1      37.677  30.551  37.036  1.00  0.00    -0.203 F 
ATOM     59  F   UNL A   1      40.025  35.345  38.169  1.00  0.00    -0.200 F 
ATOM     60  C   UNL A   1      38.450  33.670  38.705  1.00  0.00     0.200 A 
ATOM     61  F   UNL A   1      36.897  31.964  39.208  1.00  0.00    -0.200 F 
ATOM     62  F   UNL A   1      38.074  34.353  39.796  1.00  0.00    -0.200 F 
ENDBRANCH  38  52
BRANCH  39  63
ATOM     63  C   UNL A   1      41.420  27.228  28.044  1.00  0.00     0.064 A 
ATOM     64  C   UNL A   1      41.031  25.893  27.863  1.00  0.00     0.173 A 
ATOM     65  C   UNL A   1      42.168  27.833  27.023  1.00  0.00     0.173 A 
ATOM     66  F   UNL A   1      40.338  25.262  28.823  1.00  0.00    -0.203 F 
ATOM     67  C   UNL A   1      41.394  25.188  26.718  1.00  0.00     0.198 A 
ATOM     68  C   UNL A   1      42.505  27.136  25.866  1.00  0.00     0.198 A 
ATOM     69  F   UNL A   1      42.569  29.107  27.150  1.00  0.00    -0.203 F 
ATOM     70  F   UNL A   1      41.052  23.898  26.593  1.00  0.00    -0.200 F 
ATOM     71  C   UNL A   1      42.126  25.810  25.718  1.00  0.00     0.200 A 
ATOM     72  F   UNL A   1      43.204  27.744  24.899  1.00  0.00    -0.200 F 
ATOM     73  F   UNL A   1      42.475  25.129  24.618  1.00  0.00    -0.200 F 
ENDBRANCH  39  63
BRANCH  51  74
ATOM     74  C   UNL A   1      44.329  27.564  34.368  1.00  0.00     0.064 A 
ATOM     75  C   UNL A   1      45.600  28.153  34.404  1.00  0.00     0.173 A 
ATOM     76  C   UNL A   1      44.165  26.312  34.979  1.00  0.00     0.173 A 
ATOM     77  F   UNL A   1      45.811  29.342  33.820  1.00  0.00    -0.203 F 
ATOM     78  C   UNL A   1      46.670  27.505  35.018  1.00  0.00     0.198 A 
ATOM     79  C   UNL A   1      45.229  25.679  35.614  1.00  0.00     0.198 A 
ATOM     80  F   UNL A   1      42.965  25.710  34.975  1.00  0.00    -0.203 F 
ATOM     81  F   UNL A   1      47.885  28.069  35.012  1.00  0.00    -0.200 F 
ATOM     82  C   UNL A   1      46.481  26.274  35.629  1.00  0.00     0.200 A 
ATOM     83  F   UNL A   1      45.041  24.495  36.214  1.00  0.00    -0.200 F 
ATOM     84  F   UNL A   1      47.509  25.658  36.229  1.00  0.00    -0.200 F 
ENDBRANCH  51  74
ENDBRANCH  25  26
ENDBRANCH  18  20
ENDBRANCH  17  18
ENDBRANCH  16  17
ENDBRANCH   1  16
TORSDOF 13
ENDMDL
MODEL 3
REMARK VINA RESULT:     -10.6      3.702      8.519
REMARK SMILES CCS(=O)(=O)N1CCC[C@@H](C(=O)OCCOC(=O)c2ccc(-c3c4nc(c(-c5c(F)c(F)c(F)c(F)c5F)c5ccc([nH]5)c(-c5c(F)c(F)c(F)c(F)c5F)c5nc(c(-c6c(F)c(F)c(F)c(F)c6F)c6ccc3[nH]6)C=C5)C=C4)cc2)C1
REMARK SMILES IDX 14 1 13 2 11 3 12 4 10 5 6 6 7 7 82 8 8 9 9 10 3 11 4 12
REMARK SMILES IDX 5 13 2 14 1 15 15 16 16 17 17 18 18 19 19 20 20 21 81 22
REMARK SMILES IDX 21 23 80 24 22 25 23 26 24 27 74 28 25 29 79 30 73 31 75 32
REMARK SMILES IDX 26 33 78 34 72 35 71 36 27 38 59 39 39 40 58 41 40 42 43 43
REMARK SMILES IDX 57 44 76 45 41 46 42 47 56 49 77 50 44 51 28 52 29 53 37 54
REMARK SMILES IDX 30 55 31 56 35 57 38 58 32 59 33 60 36 61 34 62 60 63 61 64
REMARK SMILES IDX 69 65 62 66 63 67 67 68 70 69 64 70 65 71 68 72 66 73 45 74
REMARK SMILES IDX 46 75 54 76 47 77 48 78 52 79 55 80 49 81 50 82 53 83 51 84
REMARK H PARENT 75 37 43 48
REMARK Flexibility Score: inf
ROOT
ATOM      1  C   UNL A   1      31.082  29.796  24.649  1.00  0.00     0.274 C 
ENDROOT
BRANCH   1   2
ATOM      2  O   UNL A   1      31.860  29.213  23.581  1.00  0.00    -0.462 OA
BRANCH   2   3
ATOM      3  C   UNL A   1      31.267  28.205  22.891  1.00  0.00     0.310 C 
ATOM      4  O   UNL A   1      30.274  28.333  22.183  1.00  0.00    -0.252 OA
BRANCH   3   5
ATOM      5  C   UNL A   1      31.915  26.858  23.131  1.00  0.00     0.114 C 
ATOM      6  N   UNL A   1      32.027  24.762  24.476  1.00  0.00    -0.201 NA
ATOM      7  C   UNL A   1      31.884  23.951  23.229  1.00  0.00     0.102 C 
ATOM      8  C   UNL A   1      31.320  26.089  24.313  1.00  0.00     0.117 C 
ATOM      9  C   UNL A   1      32.548  24.685  22.069  1.00  0.00     0.018 C 
ATOM     10  C   UNL A   1      31.884  26.039  21.843  1.00  0.00     0.018 C 
BRANCH   6  11
ATOM     11  S   UNL A   1      31.564  23.950  25.917  1.00  0.00     0.213 S 
ATOM     12  O   UNL A   1      30.806  22.776  25.539  1.00  0.00    -0.212 OA
ATOM     13  O   UNL A   1      30.999  24.938  26.813  1.00  0.00    -0.212 OA
BRANCH  11  14
ATOM     14  C   UNL A   1      33.111  23.447  26.669  1.00  0.00     0.151 C 
ATOM     15  C   UNL A   1      34.369  23.928  25.984  1.00  0.00     0.022 C 
ENDBRANCH  11  14
ENDBRANCH   6  11
ENDBRANCH   3   5
ENDBRANCH   2   3
ENDBRANCH   1   2
BRANCH   1  16
ATOM     16  C   UNL A   1      31.752  29.630  26.018  1.00  0.00     0.275 C 
BRANCH  16  17
ATOM     17  O   UNL A   1      33.106  30.118  26.020  1.00  0.00    -0.458 OA
BRANCH  17  18
ATOM     18  C   UNL A   1      33.361  31.066  26.952  1.00  0.00     0.338 C 
ATOM     19  O   UNL A   1      32.595  31.923  27.354  1.00  0.00    -0.246 OA
BRANCH  18  20
ATOM     20  C   UNL A   1      34.686  30.842  27.548  1.00  0.00     0.060 A 
ATOM     21  C   UNL A   1      35.040  29.535  27.903  1.00  0.00     0.016 A 
ATOM     22  C   UNL A   1      35.538  31.909  27.832  1.00  0.00     0.016 A 
ATOM     23  C   UNL A   1      36.248  29.286  28.546  1.00  0.00     0.010 A 
ATOM     24  C   UNL A   1      36.745  31.662  28.488  1.00  0.00     0.010 A 
ATOM     25  C   UNL A   1      37.098  30.351  28.859  1.00  0.00    -0.014 A 
BRANCH  25  26
ATOM     26  C   UNL A   1      38.321  30.117  29.659  1.00  0.00     0.031 A 
ATOM     27  C   UNL A   1      39.391  29.221  29.110  1.00  0.00     0.074 A 
ATOM     28  C   UNL A   1      38.465  30.696  30.864  1.00  0.00     0.049 A 
ATOM     29  N   UNL A   1      40.456  28.742  29.698  1.00  0.00    -0.248 NA
ATOM     30  C   UNL A   1      39.239  28.810  27.705  1.00  0.00     0.031 C 
ATOM     31  C   UNL A   1      37.527  31.643  31.464  1.00  0.00     0.029 A 
ATOM     32  N   UNL A   1      39.454  30.557  31.805  1.00  0.00    -0.354 N 
ATOM     33  C   UNL A   1      41.089  27.956  28.745  1.00  0.00     0.074 A 
ATOM     34  C   UNL A   1      40.286  28.013  27.543  1.00  0.00     0.031 C 
ATOM     35  C   UNL A   1      37.977  31.987  32.682  1.00  0.00     0.029 A 
ATOM     36  C   UNL A   1      39.202  31.245  32.966  1.00  0.00     0.049 A 
ATOM     37  H   UNL A   1      40.264  30.016  31.662  1.00  0.00     0.167 HD
ATOM     38  C   UNL A   1      42.238  27.250  28.870  1.00  0.00     0.037 A 
ATOM     39  C   UNL A   1      39.868  31.239  34.136  1.00  0.00     0.037 A 
ATOM     40  C   UNL A   1      43.030  27.205  30.070  1.00  0.00     0.049 A 
ATOM     41  C   UNL A   1      41.096  30.378  34.277  1.00  0.00     0.074 A 
ATOM     42  C   UNL A   1      44.195  26.499  30.312  1.00  0.00     0.029 A 
ATOM     43  N   UNL A   1      42.735  27.902  31.232  1.00  0.00    -0.354 N 
ATOM     44  N   UNL A   1      41.673  29.607  33.387  1.00  0.00    -0.248 NA
ATOM     45  C   UNL A   1      41.761  30.379  35.588  1.00  0.00     0.031 C 
ATOM     46  C   UNL A   1      44.588  26.743  31.631  1.00  0.00     0.029 A 
ATOM     47  C   UNL A   1      43.693  27.638  32.197  1.00  0.00     0.049 A 
ATOM     48  H   UNL A   1      41.961  28.497  31.354  1.00  0.00     0.167 HD
ATOM     49  C   UNL A   1      42.786  29.064  34.016  1.00  0.00     0.074 A 
ATOM     50  C   UNL A   1      42.805  29.594  35.362  1.00  0.00     0.031 C 
ATOM     51  C   UNL A   1      43.711  28.205  33.521  1.00  0.00     0.037 A 
BRANCH  38  52
ATOM     52  C   UNL A   1      42.689  26.447  27.688  1.00  0.00     0.064 A 
ATOM     53  C   UNL A   1      43.613  26.953  26.762  1.00  0.00     0.173 A 
ATOM     54  C   UNL A   1      42.215  25.140  27.496  1.00  0.00     0.173 A 
ATOM     55  F   UNL A   1      44.084  28.203  26.894  1.00  0.00    -0.203 F 
ATOM     56  C   UNL A   1      44.032  26.188  25.677  1.00  0.00     0.198 A 
ATOM     57  C   UNL A   1      42.656  24.368  26.424  1.00  0.00     0.198 A 
ATOM     58  F   UNL A   1      41.331  24.608  28.354  1.00  0.00    -0.203 F 
ATOM     59  F   UNL A   1      44.887  26.705  24.784  1.00  0.00    -0.200 F 
ATOM     60  C   UNL A   1      43.559  24.895  25.513  1.00  0.00     0.200 A 
ATOM     61  F   UNL A   1      42.206  23.115  26.273  1.00  0.00    -0.200 F 
ATOM     62  F   UNL A   1      43.969  24.156  24.472  1.00  0.00    -0.200 F 
ENDBRANCH  38  52
BRANCH  39  63
ATOM     63  C   UNL A   1      39.376  32.052  35.279  1.00  0.00     0.064 A 
ATOM     64  C   UNL A   1      38.549  31.488  36.260  1.00  0.00     0.173 A 
ATOM     65  C   UNL A   1      39.699  33.412  35.401  1.00  0.00     0.173 A 
ATOM     66  F   UNL A   1      38.190  30.198  36.172  1.00  0.00    -0.203 F 
ATOM     67  C   UNL A   1      38.047  32.258  37.308  1.00  0.00     0.198 A 
ATOM     68  C   UNL A   1      39.221  34.173  36.465  1.00  0.00     0.198 A 
ATOM     69  F   UNL A   1      40.484  34.001  34.486  1.00  0.00    -0.203 F 
ATOM     70  F   UNL A   1      37.218  31.706  38.203  1.00  0.00    -0.200 F 
ATOM     71  C   UNL A   1      38.388  33.598  37.413  1.00  0.00     0.200 A 
ATOM     72  F   UNL A   1      39.559  35.465  36.567  1.00  0.00    -0.200 F 
ATOM     73  F   UNL A   1      37.903  34.338  38.420  1.00  0.00    -0.200 F 
ENDBRANCH  39  63
BRANCH  51  74
ATOM     74  C   UNL A   1      44.859  27.838  34.412  1.00  0.00     0.064 A 
ATOM     75  C   UNL A   1      44.822  26.707  35.238  1.00  0.00     0.173 A 
ATOM     76  C   UNL A   1      46.036  28.602  34.392  1.00  0.00     0.173 A 
ATOM     77  F   UNL A   1      43.713  25.954  35.303  1.00  0.00    -0.203 F 
ATOM     78  C   UNL A   1      45.918  26.362  36.025  1.00  0.00     0.198 A 
ATOM     79  C   UNL A   1      47.138  28.240  35.159  1.00  0.00     0.198 A 
ATOM     80  F   UNL A   1      46.121  29.691  33.612  1.00  0.00    -0.203 F 
ATOM     81  F   UNL A   1      45.850  25.296  36.834  1.00  0.00    -0.200 F 
ATOM     82  C   UNL A   1      47.077  27.122  35.978  1.00  0.00     0.200 A 
ATOM     83  F   UNL A   1      48.261  28.970  35.103  1.00  0.00    -0.200 F 
ATOM     84  F   UNL A   1      48.135  26.782  36.728  1.00  0.00    -0.200 F 
ENDBRANCH  51  74
ENDBRANCH  25  26
ENDBRANCH  18  20
ENDBRANCH  17  18
ENDBRANCH  16  17
ENDBRANCH   1  16
TORSDOF 13
ENDMDL
