MODEL 1
REMARK VINA RESULT:     -12.3      0.000      0.000
REMARK SMILES NS(=O)(=O)c1ccc(C#Cc2cc(Cl)cc3c2O[C@H](C(F)(F)F)C(C(=O)OCCOC(=O)c2ccc(-c4c5nc(c(-c6c(F)c(F)c(F)c(F)c6F)c6ccc([nH]6)c(-c6c(F)c(F)c(F)c(F)c6F)c6nc(c(-c7c(F)c(F)c(F)c(F)c7F)c7ccc4[nH]7)C=C6)C=C5)cc2)=C3)cc1
REMARK SMILES IDX 28 1 27 2 25 3 26 4 24 5 11 6 12 7 17 8 13 9 16 10 18 11
REMARK SMILES IDX 14 12 15 13 96 14 19 15 10 16 9 17 8 18 5 19 6 20 98 21 7 22
REMARK SMILES IDX 97 23 2 24 3 25 4 26 1 27 20 30 21 31 22 32 23 33 29 34
REMARK SMILES IDX 30 35 31 36 32 37 33 38 34 39 95 40 35 41 94 42 36 43 37 44
REMARK SMILES IDX 38 45 88 46 39 47 93 48 87 49 89 50 40 51 92 52 86 53 85 54
REMARK SMILES IDX 41 56 73 57 53 58 72 59 54 60 57 61 71 62 90 63 55 64 56 65
REMARK SMILES IDX 70 67 91 68 58 69 42 70 43 71 51 72 44 73 45 74 49 75 52 76
REMARK SMILES IDX 46 77 47 78 50 79 48 80 74 81 75 82 83 83 76 84 77 85 81 86
REMARK SMILES IDX 84 87 78 88 79 89 82 90 80 91 59 92 60 93 68 94 61 95 62 96
REMARK SMILES IDX 66 97 69 98 63 99 64 100 67 101 65 102
REMARK H PARENT 1 28 1 29 89 55 57 66
REMARK Flexibility Score: inf
ROOT
ATOM      1  C   UNL A   1      36.871  19.674  24.988  1.00  0.00     0.275 C 
ENDROOT
BRANCH   1   2
ATOM      2  O   UNL A   1      36.079  20.745  24.424  1.00  0.00    -0.459 OA
BRANCH   2   3
ATOM      3  C   UNL A   1      34.891  20.982  25.027  1.00  0.00     0.338 C 
ATOM      4  O   UNL A   1      34.291  20.223  25.772  1.00  0.00    -0.246 OA
BRANCH   3   5
ATOM      5  C   UNL A   1      34.395  22.336  24.697  1.00  0.00     0.087 C 
ATOM      6  C   UNL A   1      33.299  26.224  23.592  1.00  0.00     0.069 A 
ATOM      7  C   UNL A   1      32.838  26.472  22.293  1.00  0.00     0.041 A 
ATOM      8  C   UNL A   1      33.639  24.929  24.000  1.00  0.00     0.143 A 
ATOM      9  C   UNL A   1      32.679  25.413  21.407  1.00  0.00     0.043 A 
ATOM     10  C   UNL A   1      33.485  23.884  23.096  1.00  0.00     0.020 A 
ATOM     11  O   UNL A   1      34.090  24.739  25.282  1.00  0.00    -0.474 OA
ATOM     12  Cl  UNL A   1      32.107  25.702  19.811  1.00  0.00    -0.084 Cl
ATOM     13  C   UNL A   1      32.988  24.118  21.806  1.00  0.00     0.032 A 
ATOM     14  C   UNL A   1      33.867  22.548  23.487  1.00  0.00     0.027 C 
ATOM     15  C   UNL A   1      34.651  23.451  25.667  1.00  0.00     0.316 C 
BRANCH   6  16
ATOM     16  C   UNL A   1      33.420  27.316  24.496  1.00  0.00    -0.058 C 
ATOM     17  C   UNL A   1      33.501  28.274  25.213  1.00  0.00    -0.062 C 
BRANCH  17  18
ATOM     18  C   UNL A   1      33.543  29.441  26.023  1.00  0.00     0.025 A 
ATOM     19  C   UNL A   1      33.688  31.792  27.482  1.00  0.00     0.082 A 
ATOM     20  C   UNL A   1      34.790  30.932  27.451  1.00  0.00     0.023 A 
ATOM     21  C   UNL A   1      32.502  31.465  26.818  1.00  0.00     0.023 A 
ATOM     22  C   UNL A   1      34.715  29.752  26.716  1.00  0.00     0.018 A 
ATOM     23  C   UNL A   1      32.433  30.283  26.084  1.00  0.00     0.018 A 
BRANCH  19  24
ATOM     24  S   UNL A   1      33.875  33.334  28.321  1.00  0.00     0.238 S 
ATOM     25  O   UNL A   1      34.999  34.028  27.738  1.00  0.00    -0.207 OA
ATOM     26  O   UNL A   1      33.748  33.099  29.740  1.00  0.00    -0.207 OA
BRANCH  24  27
ATOM     27  N   UNL A   1      32.519  34.225  27.886  1.00  0.00    -0.225 NA
ATOM     28  H   UNL A   1      32.045  34.554  28.726  1.00  0.00     0.137 HD
ATOM     29  H   UNL A   1      31.886  33.638  27.344  1.00  0.00     0.137 HD
ENDBRANCH  24  27
ENDBRANCH  19  24
ENDBRANCH  17  18
ENDBRANCH   6  16
BRANCH  15  30
ATOM     30  C   UNL A   1      36.162  23.606  25.909  1.00  0.00     0.430 C 
ATOM     31  F   UNL A   1      36.867  23.481  24.761  1.00  0.00    -0.167 F 
ATOM     32  F   UNL A   1      36.462  24.826  26.417  1.00  0.00    -0.167 F 
ATOM     33  F   UNL A   1      36.631  22.682  26.781  1.00  0.00    -0.167 F 
ENDBRANCH  15  30
ENDBRANCH   3   5
ENDBRANCH   2   3
ENDBRANCH   1   2
BRANCH   1  34
ATOM     34  C   UNL A   1      38.372  19.953  24.860  1.00  0.00     0.275 C 
BRANCH  34  35
ATOM     35  O   UNL A   1      38.773  21.052  25.700  1.00  0.00    -0.458 OA
BRANCH  35  36
ATOM     36  C   UNL A   1      39.855  20.806  26.470  1.00  0.00     0.338 C 
ATOM     37  O   UNL A   1      40.439  19.747  26.621  1.00  0.00    -0.246 OA
BRANCH  36  38
ATOM     38  C   UNL A   1      40.372  22.068  27.004  1.00  0.00     0.060 A 
ATOM     39  C   UNL A   1      41.391  22.123  27.941  1.00  0.00     0.016 A 
ATOM     40  C   UNL A   1      39.923  23.234  26.404  1.00  0.00     0.016 A 
ATOM     41  C   UNL A   1      41.928  23.372  28.272  1.00  0.00     0.010 A 
ATOM     42  C   UNL A   1      40.593  24.432  26.572  1.00  0.00     0.010 A 
ATOM     43  C   UNL A   1      41.563  24.539  27.564  1.00  0.00    -0.014 A 
BRANCH  43  44
ATOM     44  C   UNL A   1      42.153  25.870  27.876  1.00  0.00     0.031 A 
ATOM     45  C   UNL A   1      43.499  26.277  27.314  1.00  0.00     0.074 A 
ATOM     46  C   UNL A   1      41.478  26.715  28.680  1.00  0.00     0.049 A 
ATOM     47  N   UNL A   1      44.123  27.424  27.420  1.00  0.00    -0.248 NA
ATOM     48  C   UNL A   1      44.268  25.262  26.571  1.00  0.00     0.031 C 
ATOM     49  C   UNL A   1      40.227  26.401  29.370  1.00  0.00     0.029 A 
ATOM     50  N   UNL A   1      41.728  28.019  29.027  1.00  0.00    -0.354 N 
ATOM     51  C   UNL A   1      45.338  27.260  26.764  1.00  0.00     0.074 A 
ATOM     52  C   UNL A   1      45.420  25.879  26.359  1.00  0.00     0.031 C 
ATOM     53  C   UNL A   1      39.764  27.507  29.969  1.00  0.00     0.029 A 
ATOM     54  C   UNL A   1      40.715  28.593  29.757  1.00  0.00     0.049 A 
ATOM     55  H   UNL A   1      42.552  28.496  28.777  1.00  0.00     0.167 HD
ATOM     56  C   UNL A   1      46.276  28.189  26.466  1.00  0.00     0.037 A 
ATOM     57  C   UNL A   1      40.559  29.859  30.190  1.00  0.00     0.037 A 
ATOM     58  C   UNL A   1      46.172  29.572  26.837  1.00  0.00     0.049 A 
ATOM     59  C   UNL A   1      41.615  30.875  29.852  1.00  0.00     0.074 A 
ATOM     60  C   UNL A   1      47.033  30.611  26.537  1.00  0.00     0.029 A 
ATOM     61  N   UNL A   1      45.139  30.108  27.592  1.00  0.00    -0.354 N 
ATOM     62  N   UNL A   1      42.706  30.728  29.140  1.00  0.00    -0.248 NA
ATOM     63  C   UNL A   1      41.419  32.233  30.376  1.00  0.00     0.031 C 
ATOM     64  C   UNL A   1      46.553  31.764  27.162  1.00  0.00     0.029 A 
ATOM     65  C   UNL A   1      45.358  31.458  27.796  1.00  0.00     0.049 A 
ATOM     66  H   UNL A   1      44.365  29.603  27.932  1.00  0.00     0.167 HD
ATOM     67  C   UNL A   1      43.318  31.973  29.116  1.00  0.00     0.074 A 
ATOM     68  C   UNL A   1      42.461  32.872  29.862  1.00  0.00     0.031 C 
ATOM     69  C   UNL A   1      44.488  32.337  28.538  1.00  0.00     0.037 A 
BRANCH  56  70
ATOM     70  C   UNL A   1      47.474  27.752  25.667  1.00  0.00     0.064 A 
ATOM     71  C   UNL A   1      47.454  27.741  24.262  1.00  0.00     0.173 A 
ATOM     72  C   UNL A   1      48.674  27.401  26.303  1.00  0.00     0.173 A 
ATOM     73  F   UNL A   1      46.331  28.058  23.599  1.00  0.00    -0.203 F 
ATOM     74  C   UNL A   1      48.578  27.371  23.528  1.00  0.00     0.198 A 
ATOM     75  C   UNL A   1      49.809  27.069  25.566  1.00  0.00     0.198 A 
ATOM     76  F   UNL A   1      48.755  27.401  27.642  1.00  0.00    -0.203 F 
ATOM     77  F   UNL A   1      48.517  27.323  22.190  1.00  0.00    -0.200 F 
ATOM     78  C   UNL A   1      49.757  27.047  24.180  1.00  0.00     0.200 A 
ATOM     79  F   UNL A   1      50.954  26.776  26.197  1.00  0.00    -0.200 F 
ATOM     80  F   UNL A   1      50.845  26.712  23.472  1.00  0.00    -0.200 F 
ENDBRANCH  56  70
BRANCH  57  81
ATOM     81  C   UNL A   1      39.325  30.234  30.930  1.00  0.00     0.064 A 
ATOM     82  C   UNL A   1      39.252  30.095  32.323  1.00  0.00     0.173 A 
ATOM     83  C   UNL A   1      38.215  30.784  30.272  1.00  0.00     0.173 A 
ATOM     84  F   UNL A   1      40.282  29.563  32.999  1.00  0.00    -0.203 F 
ATOM     85  C   UNL A   1      38.115  30.485  33.029  1.00  0.00     0.198 A 
ATOM     86  C   UNL A   1      37.092  31.204  30.981  1.00  0.00     0.198 A 
ATOM     87  F   UNL A   1      38.236  30.948  28.942  1.00  0.00    -0.203 F 
ATOM     88  F   UNL A   1      38.061  30.313  34.356  1.00  0.00    -0.200 F 
ATOM     89  C   UNL A   1      37.040  31.050  32.358  1.00  0.00     0.200 A 
ATOM     90  F   UNL A   1      36.066  31.771  30.333  1.00  0.00    -0.200 F 
ATOM     91  F   UNL A   1      35.956  31.445  33.040  1.00  0.00    -0.200 F 
ENDBRANCH  57  81
BRANCH  69  92
ATOM     92  C   UNL A   1      44.920  33.768  28.676  1.00  0.00     0.064 A 
ATOM     93  C   UNL A   1      44.505  34.746  27.761  1.00  0.00     0.173 A 
ATOM     94  C   UNL A   1      45.667  34.181  29.789  1.00  0.00     0.173 A 
ATOM     95  F   UNL A   1      43.797  34.399  26.675  1.00  0.00    -0.203 F 
ATOM     96  C   UNL A   1      44.836  36.084  27.948  1.00  0.00     0.198 A 
ATOM     97  C   UNL A   1      45.964  35.526  29.993  1.00  0.00     0.198 A 
ATOM     98  F   UNL A   1      46.077  33.285  30.701  1.00  0.00    -0.203 F 
ATOM     99  F   UNL A   1      44.460  36.998  27.042  1.00  0.00    -0.200 F 
ATOM    100  C   UNL A   1      45.552  36.475  29.070  1.00  0.00     0.200 A 
ATOM    101  F   UNL A   1      46.635  35.903  31.089  1.00  0.00    -0.200 F 
ATOM    102  F   UNL A   1      45.845  37.768  29.262  1.00  0.00    -0.200 F 
ENDBRANCH  69  92
ENDBRANCH  43  44
ENDBRANCH  36  38
ENDBRANCH  35  36
ENDBRANCH  34  35
ENDBRANCH   1  34
TORSDOF 16
ENDMDL
MODEL 2
REMARK VINA RESULT:     -12.0      5.047      9.740
REMARK SMILES NS(=O)(=O)c1ccc(C#Cc2cc(Cl)cc3c2O[C@H](C(F)(F)F)C(C(=O)OCCOC(=O)c2ccc(-c4c5nc(c(-c6c(F)c(F)c(F)c(F)c6F)c6ccc([nH]6)c(-c6c(F)c(F)c(F)c(F)c6F)c6nc(c(-c7c(F)c(F)c(F)c(F)c7F)c7ccc4[nH]7)C=C6)C=C5)cc2)=C3)cc1
REMARK SMILES IDX 28 1 27 2 25 3 26 4 24 5 11 6 12 7 17 8 13 9 16 10 18 11
REMARK SMILES IDX 14 12 15 13 96 14 19 15 10 16 9 17 8 18 5 19 6 20 98 21 7 22
REMARK SMILES IDX 97 23 2 24 3 25 4 26 1 27 20 30 21 31 22 32 23 33 29 34
REMARK SMILES IDX 30 35 31 36 32 37 33 38 34 39 95 40 35 41 94 42 36 43 37 44
REMARK SMILES IDX 38 45 88 46 39 47 93 48 87 49 89 50 40 51 92 52 86 53 85 54
REMARK SMILES IDX 41 56 73 57 53 58 72 59 54 60 57 61 71 62 90 63 55 64 56 65
REMARK SMILES IDX 70 67 91 68 58 69 42 70 43 71 51 72 44 73 45 74 49 75 52 76
REMARK SMILES IDX 46 77 47 78 50 79 48 80 74 81 75 82 83 83 76 84 77 85 81 86
REMARK SMILES IDX 84 87 78 88 79 89 82 90 80 91 59 92 60 93 68 94 61 95 62 96
REMARK SMILES IDX 66 97 69 98 63 99 64 100 67 101 65 102
REMARK H PARENT 1 28 1 29 89 55 57 66
REMARK Flexibility Score: inf
ROOT
ATOM      1  C   UNL A   1      35.303  34.139  34.684  1.00  0.00     0.275 C 
ENDROOT
BRANCH   1   2
ATOM      2  O   UNL A   1      35.012  33.507  33.416  1.00  0.00    -0.459 OA
BRANCH   2   3
ATOM      3  C   UNL A   1      35.720  33.958  32.354  1.00  0.00     0.338 C 
ATOM      4  O   UNL A   1      36.183  35.079  32.215  1.00  0.00    -0.246 OA
BRANCH   3   5
ATOM      5  C   UNL A   1      35.909  32.885  31.354  1.00  0.00     0.087 C 
ATOM      6  C   UNL A   1      36.589  30.091  28.309  1.00  0.00     0.069 A 
ATOM      7  C   UNL A   1      37.874  29.566  28.124  1.00  0.00     0.041 A 
ATOM      8  C   UNL A   1      36.325  31.000  29.341  1.00  0.00     0.143 A 
ATOM      9  C   UNL A   1      38.894  29.920  28.999  1.00  0.00     0.043 A 
ATOM     10  C   UNL A   1      37.360  31.352  30.198  1.00  0.00     0.020 A 
ATOM     11  O   UNL A   1      35.051  31.489  29.477  1.00  0.00    -0.474 OA
ATOM     12  Cl  UNL A   1      40.474  29.277  28.788  1.00  0.00    -0.084 Cl
ATOM     13  C   UNL A   1      38.641  30.801  30.044  1.00  0.00     0.032 A 
ATOM     14  C   UNL A   1      37.116  32.317  31.244  1.00  0.00     0.027 C 
ATOM     15  C   UNL A   1      34.794  32.589  30.396  1.00  0.00     0.316 C 
BRANCH   6  16
ATOM     16  C   UNL A   1      35.550  29.688  27.425  1.00  0.00    -0.058 C 
ATOM     17  C   UNL A   1      34.656  29.408  26.676  1.00  0.00    -0.062 C 
BRANCH  17  18
ATOM     18  C   UNL A   1      33.602  29.144  25.760  1.00  0.00     0.025 A 
ATOM     19  C   UNL A   1      31.598  28.749  23.888  1.00  0.00     0.082 A 
ATOM     20  C   UNL A   1      31.398  29.662  24.928  1.00  0.00     0.023 A 
ATOM     21  C   UNL A   1      32.779  28.005  23.801  1.00  0.00     0.023 A 
ATOM     22  C   UNL A   1      32.407  29.860  25.866  1.00  0.00     0.018 A 
ATOM     23  C   UNL A   1      33.785  28.208  24.743  1.00  0.00     0.018 A 
BRANCH  19  24
ATOM     24  S   UNL A   1      30.343  28.626  22.653  1.00  0.00     0.238 S 
ATOM     25  O   UNL A   1      29.084  28.993  23.256  1.00  0.00    -0.207 OA
ATOM     26  O   UNL A   1      30.537  27.394  21.926  1.00  0.00    -0.207 OA
BRANCH  24  27
ATOM     27  N   UNL A   1      30.695  29.855  21.562  1.00  0.00    -0.225 NA
ATOM     28  H   UNL A   1      31.322  30.529  22.000  1.00  0.00     0.137 HD
ATOM     29  H   UNL A   1      29.833  30.322  21.286  1.00  0.00     0.137 HD
ENDBRANCH  24  27
ENDBRANCH  19  24
ENDBRANCH  17  18
ENDBRANCH   6  16
BRANCH  15  30
ATOM     30  C   UNL A   1      34.439  33.852  29.592  1.00  0.00     0.430 C 
ATOM     31  F   UNL A   1      33.725  33.555  28.483  1.00  0.00    -0.167 F 
ATOM     32  F   UNL A   1      33.681  34.709  30.322  1.00  0.00    -0.167 F 
ATOM     33  F   UNL A   1      35.543  34.530  29.201  1.00  0.00    -0.167 F 
ENDBRANCH  15  30
ENDBRANCH   3   5
ENDBRANCH   2   3
ENDBRANCH   1   2
BRANCH   1  34
ATOM     34  C   UNL A   1      36.662  33.698  35.238  1.00  0.00     0.275 C 
BRANCH  34  35
ATOM     35  O   UNL A   1      36.893  32.297  34.999  1.00  0.00    -0.458 OA
BRANCH  35  36
ATOM     36  C   UNL A   1      37.701  31.698  35.900  1.00  0.00     0.338 C 
ATOM     37  O   UNL A   1      37.551  31.630  37.108  1.00  0.00    -0.246 OA
BRANCH  36  38
ATOM     38  C   UNL A   1      38.753  30.957  35.199  1.00  0.00     0.060 A 
ATOM     39  C   UNL A   1      38.523  30.261  34.024  1.00  0.00     0.016 A 
ATOM     40  C   UNL A   1      40.049  31.120  35.663  1.00  0.00     0.016 A 
ATOM     41  C   UNL A   1      39.618  29.720  33.343  1.00  0.00     0.010 A 
ATOM     42  C   UNL A   1      41.138  30.772  34.884  1.00  0.00     0.010 A 
ATOM     43  C   UNL A   1      40.944  30.001  33.743  1.00  0.00    -0.014 A 
BRANCH  43  44
ATOM     44  C   UNL A   1      42.122  29.465  33.006  1.00  0.00     0.031 A 
ATOM     45  C   UNL A   1      42.716  30.217  31.834  1.00  0.00     0.074 A 
ATOM     46  C   UNL A   1      42.656  28.288  33.389  1.00  0.00     0.049 A 
ATOM     47  N   UNL A   1      43.786  29.936  31.132  1.00  0.00    -0.248 NA
ATOM     48  C   UNL A   1      42.005  31.417  31.356  1.00  0.00     0.031 C 
ATOM     49  C   UNL A   1      42.111  27.416  34.430  1.00  0.00     0.029 A 
ATOM     50  N   UNL A   1      43.789  27.637  32.973  1.00  0.00    -0.354 N 
ATOM     51  C   UNL A   1      43.864  30.915  30.147  1.00  0.00     0.074 A 
ATOM     52  C   UNL A   1      42.683  31.732  30.265  1.00  0.00     0.031 C 
ATOM     53  C   UNL A   1      42.962  26.403  34.645  1.00  0.00     0.029 A 
ATOM     54  C   UNL A   1      44.081  26.519  33.716  1.00  0.00     0.049 A 
ATOM     55  H   UNL A   1      44.340  27.941  32.215  1.00  0.00     0.167 HD
ATOM     56  C   UNL A   1      44.861  31.154  29.264  1.00  0.00     0.037 A 
ATOM     57  C   UNL A   1      45.142  25.692  33.670  1.00  0.00     0.037 A 
ATOM     58  C   UNL A   1      46.055  30.360  29.176  1.00  0.00     0.049 A 
ATOM     59  C   UNL A   1      46.236  25.972  32.678  1.00  0.00     0.074 A 
ATOM     60  C   UNL A   1      47.155  30.547  28.360  1.00  0.00     0.029 A 
ATOM     61  N   UNL A   1      46.301  29.226  29.936  1.00  0.00    -0.354 N 
ATOM     62  N   UNL A   1      46.346  26.963  31.827  1.00  0.00    -0.248 NA
ATOM     63  C   UNL A   1      47.356  25.022  32.641  1.00  0.00     0.031 C 
ATOM     64  C   UNL A   1      48.041  29.491  28.583  1.00  0.00     0.029 A 
ATOM     65  C   UNL A   1      47.524  28.682  29.584  1.00  0.00     0.049 A 
ATOM     66  H   UNL A   1      45.697  28.862  30.623  1.00  0.00     0.167 HD
ATOM     67  C   UNL A   1      47.549  26.766  31.164  1.00  0.00     0.074 A 
ATOM     68  C   UNL A   1      48.148  25.576  31.733  1.00  0.00     0.031 C 
ATOM     69  C   UNL A   1      48.104  27.499  30.167  1.00  0.00     0.037 A 
BRANCH  56  70
ATOM     70  C   UNL A   1      44.726  32.343  28.351  1.00  0.00     0.064 A 
ATOM     71  C   UNL A   1      45.147  33.623  28.747  1.00  0.00     0.173 A 
ATOM     72  C   UNL A   1      44.230  32.195  27.047  1.00  0.00     0.173 A 
ATOM     73  F   UNL A   1      45.621  33.826  29.986  1.00  0.00    -0.203 F 
ATOM     74  C   UNL A   1      45.053  34.712  27.884  1.00  0.00     0.198 A 
ATOM     75  C   UNL A   1      44.174  33.279  26.172  1.00  0.00     0.198 A 
ATOM     76  F   UNL A   1      43.820  30.995  26.610  1.00  0.00    -0.203 F 
ATOM     77  F   UNL A   1      45.417  35.932  28.304  1.00  0.00    -0.200 F 
ATOM     78  C   UNL A   1      44.578  34.536  26.594  1.00  0.00     0.200 A 
ATOM     79  F   UNL A   1      43.733  33.104  24.919  1.00  0.00    -0.200 F 
ATOM     80  F   UNL A   1      44.507  35.581  25.756  1.00  0.00    -0.200 F 
ENDBRANCH  56  70
BRANCH  57  81
ATOM     81  C   UNL A   1      45.237  24.566  34.637  1.00  0.00     0.064 A 
ATOM     82  C   UNL A   1      44.846  23.270  34.272  1.00  0.00     0.173 A 
ATOM     83  C   UNL A   1      45.763  24.748  35.925  1.00  0.00     0.173 A 
ATOM     84  F   UNL A   1      44.324  23.044  33.058  1.00  0.00    -0.203 F 
ATOM     85  C   UNL A   1      44.973  22.201  35.159  1.00  0.00     0.198 A 
ATOM     86  C   UNL A   1      45.921  23.674  36.798  1.00  0.00     0.198 A 
ATOM     87  F   UNL A   1      46.161  25.965  36.321  1.00  0.00    -0.203 F 
ATOM     88  F   UNL A   1      44.564  20.979  34.794  1.00  0.00    -0.200 F 
ATOM     89  C   UNL A   1      45.520  22.403  36.417  1.00  0.00     0.200 A 
ATOM     90  F   UNL A   1      46.472  23.869  38.004  1.00  0.00    -0.200 F 
ATOM     91  F   UNL A   1      45.662  21.371  37.261  1.00  0.00    -0.200 F 
ENDBRANCH  57  81
BRANCH  69  92
ATOM     92  C   UNL A   1      49.428  27.048  29.624  1.00  0.00     0.064 A 
ATOM     93  C   UNL A   1      49.508  26.167  28.536  1.00  0.00     0.173 A 
ATOM     94  C   UNL A   1      50.623  27.584  30.127  1.00  0.00     0.173 A 
ATOM     95  F   UNL A   1      48.394  25.621  28.025  1.00  0.00    -0.203 F 
ATOM     96  C   UNL A   1      50.738  25.827  27.982  1.00  0.00     0.198 A 
ATOM     97  C   UNL A   1      51.849  27.271  29.547  1.00  0.00     0.198 A 
ATOM     98  F   UNL A   1      50.600  28.442  31.159  1.00  0.00    -0.203 F 
ATOM     99  F   UNL A   1      50.794  24.955  26.966  1.00  0.00    -0.200 F 
ATOM    100  C   UNL A   1      51.905  26.389  28.478  1.00  0.00     0.200 A 
ATOM    101  F   UNL A   1      52.972  27.833  30.012  1.00  0.00    -0.200 F 
ATOM    102  F   UNL A   1      53.086  26.081  27.924  1.00  0.00    -0.200 F 
ENDBRANCH  69  92
ENDBRANCH  43  44
ENDBRANCH  36  38
ENDBRANCH  35  36
ENDBRANCH  34  35
ENDBRANCH   1  34
TORSDOF 16
ENDMDL
MODEL 3
REMARK VINA RESULT:     -11.8      5.728     11.677
REMARK SMILES NS(=O)(=O)c1ccc(C#Cc2cc(Cl)cc3c2O[C@H](C(F)(F)F)C(C(=O)OCCOC(=O)c2ccc(-c4c5nc(c(-c6c(F)c(F)c(F)c(F)c6F)c6ccc([nH]6)c(-c6c(F)c(F)c(F)c(F)c6F)c6nc(c(-c7c(F)c(F)c(F)c(F)c7F)c7ccc4[nH]7)C=C6)C=C5)cc2)=C3)cc1
REMARK SMILES IDX 28 1 27 2 25 3 26 4 24 5 11 6 12 7 17 8 13 9 16 10 18 11
REMARK SMILES IDX 14 12 15 13 96 14 19 15 10 16 9 17 8 18 5 19 6 20 98 21 7 22
REMARK SMILES IDX 97 23 2 24 3 25 4 26 1 27 20 30 21 31 22 32 23 33 29 34
REMARK SMILES IDX 30 35 31 36 32 37 33 38 34 39 95 40 35 41 94 42 36 43 37 44
REMARK SMILES IDX 38 45 88 46 39 47 93 48 87 49 89 50 40 51 92 52 86 53 85 54
REMARK SMILES IDX 41 56 73 57 53 58 72 59 54 60 57 61 71 62 90 63 55 64 56 65
REMARK SMILES IDX 70 67 91 68 58 69 42 70 43 71 51 72 44 73 45 74 49 75 52 76
REMARK SMILES IDX 46 77 47 78 50 79 48 80 74 81 75 82 83 83 76 84 77 85 81 86
REMARK SMILES IDX 84 87 78 88 79 89 82 90 80 91 59 92 60 93 68 94 61 95 62 96
REMARK SMILES IDX 66 97 69 98 63 99 64 100 67 101 65 102
REMARK H PARENT 1 28 1 29 89 55 57 66
REMARK Flexibility Score: inf
ROOT
ATOM      1  C   UNL A   1      33.267  34.472  28.327  1.00  0.00     0.275 C 
ENDROOT
BRANCH   1   2
ATOM      2  O   UNL A   1      33.178  34.346  29.765  1.00  0.00    -0.459 OA
BRANCH   2   3
ATOM      3  C   UNL A   1      33.837  35.285  30.483  1.00  0.00     0.338 C 
ATOM      4  O   UNL A   1      33.653  36.491  30.441  1.00  0.00    -0.246 OA
BRANCH   3   5
ATOM      5  C   UNL A   1      34.822  34.658  31.391  1.00  0.00     0.087 C 
ATOM      6  C   UNL A   1      37.337  32.746  34.141  1.00  0.00     0.069 A 
ATOM      7  C   UNL A   1      37.582  31.373  34.017  1.00  0.00     0.041 A 
ATOM      8  C   UNL A   1      36.529  33.418  33.215  1.00  0.00     0.143 A 
ATOM      9  C   UNL A   1      37.048  30.673  32.942  1.00  0.00     0.043 A 
ATOM     10  C   UNL A   1      35.994  32.700  32.153  1.00  0.00     0.020 A 
ATOM     11  O   UNL A   1      36.315  34.763  33.382  1.00  0.00    -0.474 OA
ATOM     12  Cl  UNL A   1      37.347  28.988  32.775  1.00  0.00    -0.084 Cl
ATOM     13  C   UNL A   1      36.265  31.332  32.001  1.00  0.00     0.032 A 
ATOM     14  C   UNL A   1      35.126  33.368  31.212  1.00  0.00     0.027 C 
ATOM     15  C   UNL A   1      35.315  35.442  32.570  1.00  0.00     0.316 C 
BRANCH   6  16
ATOM     16  C   UNL A   1      37.922  33.452  35.228  1.00  0.00    -0.058 C 
ATOM     17  C   UNL A   1      38.372  34.022  36.183  1.00  0.00    -0.062 C 
BRANCH  17  18
ATOM     18  C   UNL A   1      38.881  34.642  37.356  1.00  0.00     0.025 A 
ATOM     19  C   UNL A   1      39.745  35.942  39.645  1.00  0.00     0.082 A 
ATOM     20  C   UNL A   1      40.057  36.476  38.390  1.00  0.00     0.023 A 
ATOM     21  C   UNL A   1      39.036  34.743  39.760  1.00  0.00     0.023 A 
ATOM     22  C   UNL A   1      39.620  35.821  37.242  1.00  0.00     0.018 A 
ATOM     23  C   UNL A   1      38.602  34.092  38.607  1.00  0.00     0.018 A 
BRANCH  19  24
ATOM     24  S   UNL A   1      40.211  36.873  41.070  1.00  0.00     0.238 S 
ATOM     25  O   UNL A   1      41.571  37.323  40.887  1.00  0.00    -0.207 OA
ATOM     26  O   UNL A   1      39.772  36.160  42.245  1.00  0.00    -0.207 OA
BRANCH  24  27
ATOM     27  N   UNL A   1      39.265  38.261  41.002  1.00  0.00    -0.225 NA
ATOM     28  H   UNL A   1      39.749  38.975  40.459  1.00  0.00     0.137 HD
ATOM     29  H   UNL A   1      39.098  38.605  41.946  1.00  0.00     0.137 HD
ENDBRANCH  24  27
ENDBRANCH  19  24
ENDBRANCH  17  18
ENDBRANCH   6  16
BRANCH  15  30
ATOM     30  C   UNL A   1      34.132  35.859  33.460  1.00  0.00     0.430 C 
ATOM     31  F   UNL A   1      34.407  35.682  34.773  1.00  0.00    -0.167 F 
ATOM     32  F   UNL A   1      33.829  37.171  33.301  1.00  0.00    -0.167 F 
ATOM     33  F   UNL A   1      33.013  35.153  33.176  1.00  0.00    -0.167 F 
ENDBRANCH  15  30
ENDBRANCH   3   5
ENDBRANCH   2   3
ENDBRANCH   1   2
BRANCH   1  34
ATOM     34  C   UNL A   1      33.374  33.104  27.645  1.00  0.00     0.275 C 
BRANCH  34  35
ATOM     35  O   UNL A   1      34.696  32.552  27.784  1.00  0.00    -0.458 OA
BRANCH  35  36
ATOM     36  C   UNL A   1      34.767  31.213  27.623  1.00  0.00     0.338 C 
ATOM     37  O   UNL A   1      34.065  30.507  26.920  1.00  0.00    -0.246 OA
BRANCH  36  38
ATOM     38  C   UNL A   1      35.958  30.700  28.305  1.00  0.00     0.060 A 
ATOM     39  C   UNL A   1      36.073  29.386  28.726  1.00  0.00     0.016 A 
ATOM     40  C   UNL A   1      37.059  31.542  28.362  1.00  0.00     0.016 A 
ATOM     41  C   UNL A   1      37.306  28.947  29.221  1.00  0.00     0.010 A 
ATOM     42  C   UNL A   1      38.320  31.053  28.648  1.00  0.00     0.010 A 
ATOM     43  C   UNL A   1      38.457  29.764  29.153  1.00  0.00    -0.014 A 
BRANCH  43  44
ATOM     44  C   UNL A   1      39.785  29.299  29.639  1.00  0.00     0.031 A 
ATOM     45  C   UNL A   1      40.474  29.986  30.799  1.00  0.00     0.074 A 
ATOM     46  C   UNL A   1      40.381  28.258  29.025  1.00  0.00     0.049 A 
ATOM     47  N   UNL A   1      41.593  29.664  31.400  1.00  0.00    -0.248 NA
ATOM     48  C   UNL A   1      39.859  31.214  31.334  1.00  0.00     0.031 C 
ATOM     49  C   UNL A   1      39.873  27.582  27.831  1.00  0.00     0.029 A 
ATOM     50  N   UNL A   1      41.522  27.564  29.337  1.00  0.00    -0.354 N 
ATOM     51  C   UNL A   1      41.802  30.641  32.368  1.00  0.00     0.074 A 
ATOM     52  C   UNL A   1      40.764  31.628  32.206  1.00  0.00     0.031 C 
ATOM     53  C   UNL A   1      40.636  26.511  27.574  1.00  0.00     0.029 A 
ATOM     54  C   UNL A   1      41.722  26.458  28.546  1.00  0.00     0.049 A 
ATOM     55  H   UNL A   1      42.138  27.832  30.057  1.00  0.00     0.167 HD
ATOM     56  C   UNL A   1      42.735  30.683  33.346  1.00  0.00     0.037 A 
ATOM     57  C   UNL A   1      42.662  25.496  28.611  1.00  0.00     0.037 A 
ATOM     58  C   UNL A   1      43.744  29.677  33.527  1.00  0.00     0.049 A 
ATOM     59  C   UNL A   1      43.694  25.563  29.702  1.00  0.00     0.074 A 
ATOM     60  C   UNL A   1      44.702  29.587  34.519  1.00  0.00     0.029 A 
ATOM     61  N   UNL A   1      43.922  28.582  32.693  1.00  0.00    -0.354 N 
ATOM     62  N   UNL A   1      43.814  26.436  30.673  1.00  0.00    -0.248 NA
ATOM     63  C   UNL A   1      44.719  24.512  29.710  1.00  0.00     0.031 C 
ATOM     64  C   UNL A   1      45.499  28.472  34.251  1.00  0.00     0.029 A 
ATOM     65  C   UNL A   1      44.997  27.830  33.130  1.00  0.00     0.049 A 
ATOM     66  H   UNL A   1      43.366  28.374  31.908  1.00  0.00     0.167 HD
ATOM     67  C   UNL A   1      44.915  26.034  31.416  1.00  0.00     0.074 A 
ATOM     68  C   UNL A   1      45.411  24.820  30.799  1.00  0.00     0.031 C 
ATOM     69  C   UNL A   1      45.471  26.620  32.504  1.00  0.00     0.037 A 
BRANCH  56  70
ATOM     70  C   UNL A   1      42.686  31.828  34.321  1.00  0.00     0.064 A 
ATOM     71  C   UNL A   1      42.023  31.714  35.555  1.00  0.00     0.173 A 
ATOM     72  C   UNL A   1      43.358  33.030  34.052  1.00  0.00     0.173 A 
ATOM     73  F   UNL A   1      41.356  30.591  35.862  1.00  0.00    -0.203 F 
ATOM     74  C   UNL A   1      42.014  32.765  36.468  1.00  0.00     0.198 A 
ATOM     75  C   UNL A   1      43.379  34.066  34.985  1.00  0.00     0.198 A 
ATOM     76  F   UNL A   1      44.014  33.195  32.894  1.00  0.00    -0.203 F 
ATOM     77  F   UNL A   1      41.333  32.646  37.616  1.00  0.00    -0.200 F 
ATOM     78  C   UNL A   1      42.700  33.935  36.187  1.00  0.00     0.200 A 
ATOM     79  F   UNL A   1      44.060  35.189  34.721  1.00  0.00    -0.200 F 
ATOM     80  F   UNL A   1      42.708  34.939  37.076  1.00  0.00    -0.200 F 
ENDBRANCH  56  70
BRANCH  57  81
ATOM     81  C   UNL A   1      42.621  24.364  27.647  1.00  0.00     0.064 A 
ATOM     82  C   UNL A   1      43.177  24.489  26.366  1.00  0.00     0.173 A 
ATOM     83  C   UNL A   1      42.071  23.122  27.998  1.00  0.00     0.173 A 
ATOM     84  F   UNL A   1      43.704  25.659  25.975  1.00  0.00    -0.203 F 
ATOM     85  C   UNL A   1      43.181  23.419  25.473  1.00  0.00     0.198 A 
ATOM     86  C   UNL A   1      42.105  22.043  27.118  1.00  0.00     0.198 A 
ATOM     87  F   UNL A   1      41.534  22.945  29.214  1.00  0.00    -0.203 F 
ATOM     88  F   UNL A   1      43.693  23.575  24.245  1.00  0.00    -0.200 F 
ATOM     89  C   UNL A   1      42.655  22.194  25.854  1.00  0.00     0.200 A 
ATOM     90  F   UNL A   1      41.617  20.855  27.498  1.00  0.00    -0.200 F 
ATOM     91  F   UNL A   1      42.678  21.159  25.003  1.00  0.00    -0.200 F 
ENDBRANCH  57  81
BRANCH  69  92
ATOM     92  C   UNL A   1      46.677  25.965  33.110  1.00  0.00     0.064 A 
ATOM     93  C   UNL A   1      46.551  24.971  34.091  1.00  0.00     0.173 A 
ATOM     94  C   UNL A   1      47.963  26.261  32.633  1.00  0.00     0.173 A 
ATOM     95  F   UNL A   1      45.343  24.660  34.586  1.00  0.00    -0.203 F 
ATOM     96  C   UNL A   1      47.670  24.306  34.581  1.00  0.00     0.198 A 
ATOM     97  C   UNL A   1      49.076  25.567  33.098  1.00  0.00     0.198 A 
ATOM     98  F   UNL A   1      48.136  27.195  31.685  1.00  0.00    -0.203 F 
ATOM     99  F   UNL A   1      47.531  23.385  35.544  1.00  0.00    -0.200 F 
ATOM    100  C   UNL A   1      48.929  24.595  34.075  1.00  0.00     0.200 A 
ATOM    101  F   UNL A   1      50.288  25.831  32.591  1.00  0.00    -0.200 F 
ATOM    102  F   UNL A   1      50.002  23.933  34.529  1.00  0.00    -0.200 F 
ENDBRANCH  69  92
ENDBRANCH  43  44
ENDBRANCH  36  38
ENDBRANCH  35  36
ENDBRANCH  34  35
ENDBRANCH   1  34
TORSDOF 16
ENDMDL
