MODEL 1
REMARK VINA RESULT:     -10.7      0.000      0.000
REMARK SMILES CC[C@H](Oc1ccc(C)nc1C[NH3+])C(=O)OCCOC(=O)c1ccc(-c2c3nc(c(-c4c(F)c(F)c(F)c(F)c4F)c4ccc([nH]4)c(-c4c(F)c(F)c(F)c(F)c4F)c4nc(c(-c5c(F)c(F)c(F)c(F)c5F)c5ccc2[nH]5)C=C4)C=C3)cc1
REMARK SMILES IDX 17 1 16 2 14 3 15 4 3 5 2 6 1 7 4 8 5 9 6 10 11 11 7 12
REMARK SMILES IDX 10 13 8 14 9 15 12 16 13 17 18 21 19 22 20 23 21 24 22 25
REMARK SMILES IDX 23 26 84 27 24 28 83 29 25 30 26 31 27 32 77 33 28 34 82 35
REMARK SMILES IDX 76 36 78 37 29 38 81 39 75 40 74 41 30 43 62 44 42 45 61 46
REMARK SMILES IDX 43 47 46 48 60 49 79 50 44 51 45 52 59 54 80 55 47 56 31 57
REMARK SMILES IDX 32 58 40 59 33 60 34 61 38 62 41 63 35 64 36 65 39 66 37 67
REMARK SMILES IDX 63 68 64 69 72 70 65 71 66 72 70 73 73 74 67 75 68 76 71 77
REMARK SMILES IDX 69 78 48 79 49 80 57 81 50 82 51 83 55 84 58 85 52 86 53 87
REMARK SMILES IDX 56 88 54 89
REMARK H PARENT 13 18 13 19 13 20 78 42 46 53
REMARK Flexibility Score: inf
ROOT
ATOM      1  C   UNL A   1      31.799  28.386  27.448  1.00  0.00     0.274 C 
ENDROOT
BRANCH   1   2
ATOM      2  O   UNL A   1      31.006  27.343  26.844  1.00  0.00    -0.459 OA
BRANCH   2   3
ATOM      3  C   UNL A   1      31.688  26.331  26.243  1.00  0.00     0.347 C 
ATOM      4  O   UNL A   1      32.910  26.230  26.220  1.00  0.00    -0.248 OA
BRANCH   3   5
ATOM      5  C   UNL A   1      30.770  25.314  25.545  1.00  0.00     0.282 C 
BRANCH   5   6
ATOM      6  C   UNL A   1      31.252  23.890  25.852  1.00  0.00     0.054 C 
ATOM      7  C   UNL A   1      30.292  23.076  26.710  1.00  0.00     0.008 C 
ENDBRANCH   5   6
BRANCH   5   8
ATOM      8  O   UNL A   1      30.670  25.485  24.139  1.00  0.00    -0.477 OA
BRANCH   8   9
ATOM      9  C   UNL A   1      30.122  26.598  23.571  1.00  0.00     0.147 A 
ATOM     10  C   UNL A   1      28.869  27.140  23.851  1.00  0.00     0.050 A 
ATOM     11  C   UNL A   1      30.905  27.270  22.617  1.00  0.00     0.136 A 
ATOM     12  C   UNL A   1      28.456  28.323  23.233  1.00  0.00     0.027 A 
ATOM     13  N   UNL A   1      30.506  28.427  22.009  1.00  0.00    -0.248 NA
ATOM     14  C   UNL A   1      29.303  28.945  22.331  1.00  0.00     0.038 A 
ATOM     15  C   UNL A   1      28.900  30.202  21.623  1.00  0.00     0.067 C 
BRANCH  11  16
ATOM     16  C   UNL A   1      32.232  26.703  22.145  1.00  0.00     0.320 C 
BRANCH  16  17
ATOM     17  N   UNL A   1      33.229  26.623  23.224  1.00  0.00    -0.352 N 
ATOM     18  H   UNL A   1      33.241  27.502  23.741  1.00  0.00     0.344 HD
ATOM     19  H   UNL A   1      34.151  26.451  22.823  1.00  0.00     0.344 HD
ATOM     20  H   UNL A   1      32.985  25.860  23.856  1.00  0.00     0.344 HD
ENDBRANCH  16  17
ENDBRANCH  11  16
ENDBRANCH   8   9
ENDBRANCH   5   8
ENDBRANCH   3   5
ENDBRANCH   2   3
ENDBRANCH   1   2
BRANCH   1  21
ATOM     21  C   UNL A   1      31.779  29.665  26.609  1.00  0.00     0.275 C 
BRANCH  21  22
ATOM     22  O   UNL A   1      33.117  30.118  26.338  1.00  0.00    -0.458 OA
BRANCH  22  23
ATOM     23  C   UNL A   1      33.497  31.211  27.036  1.00  0.00     0.338 C 
ATOM     24  O   UNL A   1      32.855  32.222  27.252  1.00  0.00    -0.246 OA
BRANCH  23  25
ATOM     25  C   UNL A   1      34.804  30.951  27.650  1.00  0.00     0.060 A 
ATOM     26  C   UNL A   1      35.125  29.629  27.956  1.00  0.00     0.016 A 
ATOM     27  C   UNL A   1      35.657  31.992  28.014  1.00  0.00     0.016 A 
ATOM     28  C   UNL A   1      36.275  29.335  28.678  1.00  0.00     0.010 A 
ATOM     29  C   UNL A   1      36.834  31.694  28.710  1.00  0.00     0.010 A 
ATOM     30  C   UNL A   1      37.136  30.367  29.067  1.00  0.00    -0.014 A 
BRANCH  30  31
ATOM     31  C   UNL A   1      38.322  30.055  29.901  1.00  0.00     0.031 A 
ATOM     32  C   UNL A   1      39.402  29.167  29.353  1.00  0.00     0.074 A 
ATOM     33  C   UNL A   1      38.445  30.593  31.126  1.00  0.00     0.049 A 
ATOM     34  N   UNL A   1      40.459  28.682  29.955  1.00  0.00    -0.248 NA
ATOM     35  C   UNL A   1      39.279  28.775  27.941  1.00  0.00     0.031 C 
ATOM     36  C   UNL A   1      37.491  31.517  31.742  1.00  0.00     0.029 A 
ATOM     37  N   UNL A   1      39.423  30.441  32.075  1.00  0.00    -0.354 N 
ATOM     38  C   UNL A   1      41.106  27.900  29.008  1.00  0.00     0.074 A 
ATOM     39  C   UNL A   1      40.324  27.974  27.791  1.00  0.00     0.031 C 
ATOM     40  C   UNL A   1      37.934  31.853  32.964  1.00  0.00     0.029 A 
ATOM     41  C   UNL A   1      39.171  31.125  33.237  1.00  0.00     0.049 A 
ATOM     42  H   UNL A   1      40.230  29.893  31.936  1.00  0.00     0.167 HD
ATOM     43  C   UNL A   1      42.248  27.187  29.146  1.00  0.00     0.037 A 
ATOM     44  C   UNL A   1      39.841  31.136  34.405  1.00  0.00     0.037 A 
ATOM     45  C   UNL A   1      43.036  27.137  30.350  1.00  0.00     0.049 A 
ATOM     46  C   UNL A   1      41.084  30.301  34.545  1.00  0.00     0.074 A 
ATOM     47  C   UNL A   1      44.205  26.438  30.592  1.00  0.00     0.029 A 
ATOM     48  N   UNL A   1      42.732  27.824  31.516  1.00  0.00    -0.354 N 
ATOM     49  N   UNL A   1      41.666  29.531  33.660  1.00  0.00    -0.248 NA
ATOM     50  C   UNL A   1      41.755  30.328  35.852  1.00  0.00     0.031 C 
ATOM     51  C   UNL A   1      44.596  26.681  31.913  1.00  0.00     0.029 A 
ATOM     52  C   UNL A   1      43.688  27.560  32.484  1.00  0.00     0.049 A 
ATOM     53  H   UNL A   1      41.954  28.415  31.639  1.00  0.00     0.167 HD
ATOM     54  C   UNL A   1      42.774  28.989  34.294  1.00  0.00     0.074 A 
ATOM     55  C   UNL A   1      42.795  29.534  35.637  1.00  0.00     0.031 C 
ATOM     56  C   UNL A   1      43.690  28.114  33.812  1.00  0.00     0.037 A 
BRANCH  43  57
ATOM     57  C   UNL A   1      42.699  26.373  27.970  1.00  0.00     0.064 A 
ATOM     58  C   UNL A   1      42.248  25.061  27.766  1.00  0.00     0.173 A 
ATOM     59  C   UNL A   1      43.571  26.926  27.020  1.00  0.00     0.173 A 
ATOM     60  F   UNL A   1      41.427  24.483  28.655  1.00  0.00    -0.203 F 
ATOM     61  C   UNL A   1      42.672  24.324  26.662  1.00  0.00     0.198 A 
ATOM     62  C   UNL A   1      43.974  26.195  25.907  1.00  0.00     0.198 A 
ATOM     63  F   UNL A   1      44.026  28.179  27.170  1.00  0.00    -0.203 F 
ATOM     64  F   UNL A   1      42.259  23.058  26.506  1.00  0.00    -0.200 F 
ATOM     65  C   UNL A   1      43.529  24.893  25.732  1.00  0.00     0.200 A 
ATOM     66  F   UNL A   1      44.795  26.749  25.004  1.00  0.00    -0.200 F 
ATOM     67  F   UNL A   1      43.931  24.184  24.668  1.00  0.00    -0.200 F 
ENDBRANCH  43  57
BRANCH  44  68
ATOM     68  C   UNL A   1      39.330  31.942  35.541  1.00  0.00     0.064 A 
ATOM     69  C   UNL A   1      39.697  33.284  35.699  1.00  0.00     0.173 A 
ATOM     70  C   UNL A   1      38.457  31.385  36.489  1.00  0.00     0.173 A 
ATOM     71  F   UNL A   1      40.549  33.852  34.833  1.00  0.00    -0.203 F 
ATOM     72  C   UNL A   1      39.218  34.039  36.768  1.00  0.00     0.198 A 
ATOM     73  C   UNL A   1      37.958  32.148  37.542  1.00  0.00     0.198 A 
ATOM     74  F   UNL A   1      38.077  30.104  36.381  1.00  0.00    -0.203 F 
ATOM     75  F   UNL A   1      39.612  35.311  36.917  1.00  0.00    -0.200 F 
ATOM     76  C   UNL A   1      38.343  33.473  37.684  1.00  0.00     0.200 A 
ATOM     77  F   UNL A   1      37.105  31.600  38.418  1.00  0.00    -0.200 F 
ATOM     78  F   UNL A   1      37.876  34.201  38.707  1.00  0.00    -0.200 F 
ENDBRANCH  44  68
BRANCH  56  79
ATOM     79  C   UNL A   1      44.798  27.709  34.736  1.00  0.00     0.064 A 
ATOM     80  C   UNL A   1      44.692  26.572  35.550  1.00  0.00     0.173 A 
ATOM     81  C   UNL A   1      45.992  28.444  34.780  1.00  0.00     0.173 A 
ATOM     82  F   UNL A   1      43.563  25.847  35.553  1.00  0.00    -0.203 F 
ATOM     83  C   UNL A   1      45.736  26.197  36.391  1.00  0.00     0.198 A 
ATOM     84  C   UNL A   1      47.041  28.054  35.605  1.00  0.00     0.198 A 
ATOM     85  F   UNL A   1      46.141  29.538  34.017  1.00  0.00    -0.203 F 
ATOM     86  F   UNL A   1      45.600  25.130  37.189  1.00  0.00    -0.200 F 
ATOM     87  C   UNL A   1      46.911  26.935  36.414  1.00  0.00     0.200 A 
ATOM     88  F   UNL A   1      48.178  28.763  35.623  1.00  0.00    -0.200 F 
ATOM     89  F   UNL A   1      47.915  26.570  37.222  1.00  0.00    -0.200 F 
ENDBRANCH  56  79
ENDBRANCH  30  31
ENDBRANCH  23  25
ENDBRANCH  22  23
ENDBRANCH  21  22
ENDBRANCH   1  21
TORSDOF 16
ENDMDL
MODEL 2
REMARK VINA RESULT:     -10.5      4.597      9.695
REMARK SMILES CC[C@H](Oc1ccc(C)nc1C[NH3+])C(=O)OCCOC(=O)c1ccc(-c2c3nc(c(-c4c(F)c(F)c(F)c(F)c4F)c4ccc([nH]4)c(-c4c(F)c(F)c(F)c(F)c4F)c4nc(c(-c5c(F)c(F)c(F)c(F)c5F)c5ccc2[nH]5)C=C4)C=C3)cc1
REMARK SMILES IDX 17 1 16 2 14 3 15 4 3 5 2 6 1 7 4 8 5 9 6 10 11 11 7 12
REMARK SMILES IDX 10 13 8 14 9 15 12 16 13 17 18 21 19 22 20 23 21 24 22 25
REMARK SMILES IDX 23 26 84 27 24 28 83 29 25 30 26 31 27 32 77 33 28 34 82 35
REMARK SMILES IDX 76 36 78 37 29 38 81 39 75 40 74 41 30 43 62 44 42 45 61 46
REMARK SMILES IDX 43 47 46 48 60 49 79 50 44 51 45 52 59 54 80 55 47 56 31 57
REMARK SMILES IDX 32 58 40 59 33 60 34 61 38 62 41 63 35 64 36 65 39 66 37 67
REMARK SMILES IDX 63 68 64 69 72 70 65 71 66 72 70 73 73 74 67 75 68 76 71 77
REMARK SMILES IDX 69 78 48 79 49 80 57 81 50 82 51 83 55 84 58 85 52 86 53 87
REMARK SMILES IDX 56 88 54 89
REMARK H PARENT 13 18 13 19 13 20 78 42 46 53
REMARK Flexibility Score: inf
ROOT
ATOM      1  C   UNL A   1      36.077  19.995  25.013  1.00  0.00     0.274 C 
ENDROOT
BRANCH   1   2
ATOM      2  O   UNL A   1      34.733  20.354  24.634  1.00  0.00    -0.459 OA
BRANCH   2   3
ATOM      3  C   UNL A   1      34.026  21.097  25.528  1.00  0.00     0.347 C 
ATOM      4  O   UNL A   1      33.714  20.722  26.654  1.00  0.00    -0.248 OA
BRANCH   3   5
ATOM      5  C   UNL A   1      33.609  22.471  24.978  1.00  0.00     0.282 C 
BRANCH   5   6
ATOM      6  C   UNL A   1      34.136  23.577  25.903  1.00  0.00     0.054 C 
ATOM      7  C   UNL A   1      35.260  24.411  25.302  1.00  0.00     0.008 C 
ENDBRANCH   5   6
BRANCH   5   8
ATOM      8  O   UNL A   1      32.210  22.631  24.803  1.00  0.00    -0.477 OA
BRANCH   8   9
ATOM      9  C   UNL A   1      31.650  23.808  24.398  1.00  0.00     0.147 A 
ATOM     10  C   UNL A   1      31.909  24.482  23.206  1.00  0.00     0.050 A 
ATOM     11  C   UNL A   1      30.709  24.390  25.264  1.00  0.00     0.136 A 
ATOM     12  C   UNL A   1      31.218  25.655  22.892  1.00  0.00     0.027 A 
ATOM     13  N   UNL A   1      30.031  25.537  24.962  1.00  0.00    -0.248 NA
ATOM     14  C   UNL A   1      30.278  26.145  23.784  1.00  0.00     0.038 A 
ATOM     15  C   UNL A   1      29.527  27.410  23.508  1.00  0.00     0.067 C 
BRANCH  11  16
ATOM     16  C   UNL A   1      30.439  23.809  26.640  1.00  0.00     0.320 C 
BRANCH  16  17
ATOM     17  N   UNL A   1      29.804  22.483  26.580  1.00  0.00    -0.352 N 
ATOM     18  H   UNL A   1      30.420  21.792  27.009  1.00  0.00     0.344 HD
ATOM     19  H   UNL A   1      29.634  22.231  25.607  1.00  0.00     0.344 HD
ATOM     20  H   UNL A   1      28.918  22.507  27.085  1.00  0.00     0.344 HD
ENDBRANCH  16  17
ENDBRANCH  11  16
ENDBRANCH   8   9
ENDBRANCH   5   8
ENDBRANCH   3   5
ENDBRANCH   2   3
ENDBRANCH   1   2
BRANCH   1  21
ATOM     21  C   UNL A   1      37.076  21.099  24.660  1.00  0.00     0.275 C 
BRANCH  21  22
ATOM     22  O   UNL A   1      37.579  21.732  25.849  1.00  0.00    -0.458 OA
BRANCH  22  23
ATOM     23  C   UNL A   1      38.874  21.466  26.128  1.00  0.00     0.338 C 
ATOM     24  O   UNL A   1      39.499  20.451  25.882  1.00  0.00    -0.246 OA
BRANCH  23  25
ATOM     25  C   UNL A   1      39.501  22.675  26.674  1.00  0.00     0.060 A 
ATOM     26  C   UNL A   1      39.082  23.905  26.170  1.00  0.00     0.016 A 
ATOM     27  C   UNL A   1      40.552  22.601  27.586  1.00  0.00     0.016 A 
ATOM     28  C   UNL A   1      39.744  25.073  26.529  1.00  0.00     0.010 A 
ATOM     29  C   UNL A   1      41.196  23.780  27.977  1.00  0.00     0.010 A 
ATOM     30  C   UNL A   1      40.812  25.018  27.431  1.00  0.00    -0.014 A 
BRANCH  30  31
ATOM     31  C   UNL A   1      41.561  26.257  27.753  1.00  0.00     0.031 A 
ATOM     32  C   UNL A   1      40.908  27.327  28.579  1.00  0.00     0.074 A 
ATOM     33  C   UNL A   1      42.831  26.404  27.337  1.00  0.00     0.049 A 
ATOM     34  N   UNL A   1      41.345  28.526  28.875  1.00  0.00    -0.248 NA
ATOM     35  C   UNL A   1      39.591  27.007  29.149  1.00  0.00     0.031 C 
ATOM     36  C   UNL A   1      43.592  25.408  26.580  1.00  0.00     0.029 A 
ATOM     37  N   UNL A   1      43.707  27.448  27.491  1.00  0.00    -0.354 N 
ATOM     38  C   UNL A   1      40.342  29.114  29.635  1.00  0.00     0.074 A 
ATOM     39  C   UNL A   1      39.274  28.143  29.753  1.00  0.00     0.031 C 
ATOM     40  C   UNL A   1      44.822  25.888  26.341  1.00  0.00     0.029 A 
ATOM     41  C   UNL A   1      44.917  27.244  26.876  1.00  0.00     0.049 A 
ATOM     42  H   UNL A   1      43.489  28.266  27.995  1.00  0.00     0.167 HD
ATOM     43  C   UNL A   1      40.319  30.353  30.180  1.00  0.00     0.037 A 
ATOM     44  C   UNL A   1      45.970  28.070  26.729  1.00  0.00     0.037 A 
ATOM     45  C   UNL A   1      41.393  31.306  30.080  1.00  0.00     0.049 A 
ATOM     46  C   UNL A   1      45.901  29.456  27.308  1.00  0.00     0.074 A 
ATOM     47  C   UNL A   1      41.463  32.590  30.593  1.00  0.00     0.029 A 
ATOM     48  N   UNL A   1      42.594  31.071  29.426  1.00  0.00    -0.354 N 
ATOM     49  N   UNL A   1      44.933  30.021  27.988  1.00  0.00    -0.248 NA
ATOM     50  C   UNL A   1      47.066  30.324  27.089  1.00  0.00     0.031 C 
ATOM     51  C   UNL A   1      42.695  33.141  30.226  1.00  0.00     0.029 A 
ATOM     52  C   UNL A   1      43.407  32.188  29.514  1.00  0.00     0.049 A 
ATOM     53  H   UNL A   1      42.834  30.233  28.967  1.00  0.00     0.167 HD
ATOM     54  C   UNL A   1      45.373  31.303  28.286  1.00  0.00     0.074 A 
ATOM     55  C   UNL A   1      46.704  31.428  27.729  1.00  0.00     0.031 C 
ATOM     56  C   UNL A   1      44.729  32.290  28.954  1.00  0.00     0.037 A 
BRANCH  43  57
ATOM     57  C   UNL A   1      39.074  30.762  30.908  1.00  0.00     0.064 A 
ATOM     58  C   UNL A   1      37.985  31.341  30.240  1.00  0.00     0.173 A 
ATOM     59  C   UNL A   1      38.960  30.544  32.290  1.00  0.00     0.173 A 
ATOM     60  F   UNL A   1      38.053  31.584  28.923  1.00  0.00    -0.203 F 
ATOM     61  C   UNL A   1      36.833  31.705  30.934  1.00  0.00     0.198 A 
ATOM     62  C   UNL A   1      37.799  30.889  32.975  1.00  0.00     0.198 A 
ATOM     63  F   UNL A   1      39.973  29.991  32.973  1.00  0.00    -0.203 F 
ATOM     64  F   UNL A   1      35.819  32.291  30.282  1.00  0.00    -0.200 F 
ATOM     65  C   UNL A   1      36.740  31.475  32.298  1.00  0.00     0.200 A 
ATOM     66  F   UNL A   1      37.706  30.658  34.292  1.00  0.00    -0.200 F 
ATOM     67  F   UNL A   1      35.629  31.823  32.963  1.00  0.00    -0.200 F 
ENDBRANCH  43  57
BRANCH  44  68
ATOM     68  C   UNL A   1      47.163  27.616  25.974  1.00  0.00     0.064 A 
ATOM     69  C   UNL A   1      47.213  27.708  24.577  1.00  0.00     0.173 A 
ATOM     70  C   UNL A   1      48.282  27.086  26.636  1.00  0.00     0.173 A 
ATOM     71  F   UNL A   1      46.158  28.185  23.899  1.00  0.00    -0.203 F 
ATOM     72  C   UNL A   1      48.334  27.279  23.869  1.00  0.00     0.198 A 
ATOM     73  C   UNL A   1      49.411  26.682  25.928  1.00  0.00     0.198 A 
ATOM     74  F   UNL A   1      48.281  26.977  27.972  1.00  0.00    -0.203 F 
ATOM     75  F   UNL A   1      48.343  27.345  22.530  1.00  0.00    -0.200 F 
ATOM     76  C   UNL A   1      49.434  26.774  24.545  1.00  0.00     0.200 A 
ATOM     77  F   UNL A   1      50.476  26.204  26.587  1.00  0.00    -0.200 F 
ATOM     78  F   UNL A   1      50.514  26.369  23.864  1.00  0.00    -0.200 F 
ENDBRANCH  44  68
BRANCH  56  79
ATOM     79  C   UNL A   1      45.467  33.582  29.136  1.00  0.00     0.064 A 
ATOM     80  C   UNL A   1      45.361  34.621  28.200  1.00  0.00     0.173 A 
ATOM     81  C   UNL A   1      46.257  33.797  30.274  1.00  0.00     0.173 A 
ATOM     82  F   UNL A   1      44.629  34.456  27.088  1.00  0.00    -0.203 F 
ATOM     83  C   UNL A   1      46.037  35.823  28.388  1.00  0.00     0.198 A 
ATOM     84  C   UNL A   1      46.914  35.007  30.470  1.00  0.00     0.198 A 
ATOM     85  F   UNL A   1      46.386  32.833  31.199  1.00  0.00    -0.203 F 
ATOM     86  F   UNL A   1      45.954  36.789  27.464  1.00  0.00    -0.200 F 
ATOM     87  C   UNL A   1      46.808  36.017  29.526  1.00  0.00     0.200 A 
ATOM     88  F   UNL A   1      47.653  35.197  31.572  1.00  0.00    -0.200 F 
ATOM     89  F   UNL A   1      47.456  37.176  29.707  1.00  0.00    -0.200 F 
ENDBRANCH  56  79
ENDBRANCH  30  31
ENDBRANCH  23  25
ENDBRANCH  22  23
ENDBRANCH  21  22
ENDBRANCH   1  21
TORSDOF 16
ENDMDL
MODEL 3
REMARK VINA RESULT:     -10.5      4.826     10.052
REMARK SMILES CC[C@H](Oc1ccc(C)nc1C[NH3+])C(=O)OCCOC(=O)c1ccc(-c2c3nc(c(-c4c(F)c(F)c(F)c(F)c4F)c4ccc([nH]4)c(-c4c(F)c(F)c(F)c(F)c4F)c4nc(c(-c5c(F)c(F)c(F)c(F)c5F)c5ccc2[nH]5)C=C4)C=C3)cc1
REMARK SMILES IDX 17 1 16 2 14 3 15 4 3 5 2 6 1 7 4 8 5 9 6 10 11 11 7 12
REMARK SMILES IDX 10 13 8 14 9 15 12 16 13 17 18 21 19 22 20 23 21 24 22 25
REMARK SMILES IDX 23 26 84 27 24 28 83 29 25 30 26 31 27 32 77 33 28 34 82 35
REMARK SMILES IDX 76 36 78 37 29 38 81 39 75 40 74 41 30 43 62 44 42 45 61 46
REMARK SMILES IDX 43 47 46 48 60 49 79 50 44 51 45 52 59 54 80 55 47 56 31 57
REMARK SMILES IDX 32 58 40 59 33 60 34 61 38 62 41 63 35 64 36 65 39 66 37 67
REMARK SMILES IDX 63 68 64 69 72 70 65 71 66 72 70 73 73 74 67 75 68 76 71 77
REMARK SMILES IDX 69 78 48 79 49 80 57 81 50 82 51 83 55 84 58 85 52 86 53 87
REMARK SMILES IDX 56 88 54 89
REMARK H PARENT 13 18 13 19 13 20 78 42 46 53
REMARK Flexibility Score: inf
ROOT
ATOM      1  C   UNL A   1      36.184  21.555  24.264  1.00  0.00     0.274 C 
ENDROOT
BRANCH   1   2
ATOM      2  O   UNL A   1      35.873  22.931  24.565  1.00  0.00    -0.459 OA
BRANCH   2   3
ATOM      3  C   UNL A   1      34.948  23.534  23.770  1.00  0.00     0.347 C 
ATOM      4  O   UNL A   1      34.987  23.551  22.544  1.00  0.00    -0.248 OA
BRANCH   3   5
ATOM      5  C   UNL A   1      33.838  24.242  24.563  1.00  0.00     0.282 C 
BRANCH   5   6
ATOM      6  C   UNL A   1      34.461  25.289  25.497  1.00  0.00     0.054 C 
ATOM      7  C   UNL A   1      33.678  26.593  25.584  1.00  0.00     0.008 C 
ENDBRANCH   5   6
BRANCH   5   8
ATOM      8  O   UNL A   1      33.012  23.370  25.320  1.00  0.00    -0.477 OA
BRANCH   8   9
ATOM      9  C   UNL A   1      32.831  22.058  24.989  1.00  0.00     0.147 A 
ATOM     10  C   UNL A   1      32.333  21.568  23.783  1.00  0.00     0.050 A 
ATOM     11  C   UNL A   1      33.196  21.108  25.957  1.00  0.00     0.136 A 
ATOM     12  C   UNL A   1      32.255  20.192  23.557  1.00  0.00     0.027 A 
ATOM     13  N   UNL A   1      33.121  19.761  25.742  1.00  0.00    -0.248 NA
ATOM     14  C   UNL A   1      32.669  19.320  24.551  1.00  0.00     0.038 A 
ATOM     15  C   UNL A   1      32.584  17.836  24.370  1.00  0.00     0.067 C 
BRANCH  11  16
ATOM     16  C   UNL A   1      33.635  21.528  27.349  1.00  0.00     0.320 C 
BRANCH  16  17
ATOM     17  N   UNL A   1      34.968  22.148  27.359  1.00  0.00    -0.352 N 
ATOM     18  H   UNL A   1      35.507  21.784  28.145  1.00  0.00     0.344 HD
ATOM     19  H   UNL A   1      34.872  23.159  27.451  1.00  0.00     0.344 HD
ATOM     20  H   UNL A   1      35.451  21.930  26.487  1.00  0.00     0.344 HD
ENDBRANCH  16  17
ENDBRANCH  11  16
ENDBRANCH   8   9
ENDBRANCH   5   8
ENDBRANCH   3   5
ENDBRANCH   2   3
ENDBRANCH   1   2
BRANCH   1  21
ATOM     21  C   UNL A   1      37.634  21.215  24.617  1.00  0.00     0.275 C 
BRANCH  21  22
ATOM     22  O   UNL A   1      37.955  21.666  25.945  1.00  0.00    -0.458 OA
BRANCH  22  23
ATOM     23  C   UNL A   1      39.224  21.415  26.336  1.00  0.00     0.338 C 
ATOM     24  O   UNL A   1      39.857  20.384  26.204  1.00  0.00    -0.246 OA
BRANCH  23  25
ATOM     25  C   UNL A   1      39.818  22.655  26.847  1.00  0.00     0.060 A 
ATOM     26  C   UNL A   1      39.372  23.858  26.302  1.00  0.00     0.016 A 
ATOM     27  C   UNL A   1      40.865  22.636  27.766  1.00  0.00     0.016 A 
ATOM     28  C   UNL A   1      40.003  25.053  26.627  1.00  0.00     0.010 A 
ATOM     29  C   UNL A   1      41.478  23.842  28.122  1.00  0.00     0.010 A 
ATOM     30  C   UNL A   1      41.067  25.053  27.536  1.00  0.00    -0.014 A 
BRANCH  30  31
ATOM     31  C   UNL A   1      41.784  26.319  27.822  1.00  0.00     0.031 A 
ATOM     32  C   UNL A   1      41.111  27.387  28.636  1.00  0.00     0.074 A 
ATOM     33  C   UNL A   1      43.043  26.494  27.385  1.00  0.00     0.049 A 
ATOM     34  N   UNL A   1      41.516  28.603  28.902  1.00  0.00    -0.248 NA
ATOM     35  C   UNL A   1      39.812  27.040  29.231  1.00  0.00     0.031 C 
ATOM     36  C   UNL A   1      43.822  25.507  26.638  1.00  0.00     0.029 A 
ATOM     37  N   UNL A   1      43.890  27.567  27.506  1.00  0.00    -0.354 N 
ATOM     38  C   UNL A   1      40.507  29.177  29.664  1.00  0.00     0.074 A 
ATOM     39  C   UNL A   1      39.470  28.178  29.817  1.00  0.00     0.031 C 
ATOM     40  C   UNL A   1      45.034  26.017  26.371  1.00  0.00     0.029 A 
ATOM     41  C   UNL A   1      45.096  27.386  26.878  1.00  0.00     0.049 A 
ATOM     42  H   UNL A   1      43.655  28.388  27.996  1.00  0.00     0.167 HD
ATOM     43  C   UNL A   1      40.455  30.425  30.185  1.00  0.00     0.037 A 
ATOM     44  C   UNL A   1      46.122  28.239  26.700  1.00  0.00     0.037 A 
ATOM     45  C   UNL A   1      41.499  31.407  30.051  1.00  0.00     0.049 A 
ATOM     46  C   UNL A   1      46.021  29.634  27.252  1.00  0.00     0.074 A 
ATOM     47  C   UNL A   1      41.538  32.702  30.537  1.00  0.00     0.029 A 
ATOM     48  N   UNL A   1      42.697  31.194  29.384  1.00  0.00    -0.354 N 
ATOM     49  N   UNL A   1      45.046  30.184  27.934  1.00  0.00    -0.248 NA
ATOM     50  C   UNL A   1      47.157  30.531  26.998  1.00  0.00     0.031 C 
ATOM     51  C   UNL A   1      42.748  33.282  30.141  1.00  0.00     0.029 A 
ATOM     52  C   UNL A   1      43.479  32.336  29.438  1.00  0.00     0.049 A 
ATOM     53  H   UNL A   1      42.955  30.355  28.939  1.00  0.00     0.167 HD
ATOM     54  C   UNL A   1      45.452  31.483  28.200  1.00  0.00     0.074 A 
ATOM     55  C   UNL A   1      46.772  31.636  27.622  1.00  0.00     0.031 C 
ATOM     56  C   UNL A   1      44.789  32.465  28.858  1.00  0.00     0.037 A 
BRANCH  43  57
ATOM     57  C   UNL A   1      39.209  30.812  30.923  1.00  0.00     0.064 A 
ATOM     58  C   UNL A   1      38.105  31.372  30.263  1.00  0.00     0.173 A 
ATOM     59  C   UNL A   1      39.109  30.593  32.305  1.00  0.00     0.173 A 
ATOM     60  F   UNL A   1      38.159  31.617  28.946  1.00  0.00    -0.203 F 
ATOM     61  C   UNL A   1      36.952  31.717  30.966  1.00  0.00     0.198 A 
ATOM     62  C   UNL A   1      37.948  30.918  33.000  1.00  0.00     0.198 A 
ATOM     63  F   UNL A   1      40.137  30.058  32.980  1.00  0.00    -0.203 F 
ATOM     64  F   UNL A   1      35.923  32.285  30.322  1.00  0.00    -0.200 F 
ATOM     65  C   UNL A   1      36.873  31.485  32.331  1.00  0.00     0.200 A 
ATOM     66  F   UNL A   1      37.869  30.686  34.317  1.00  0.00    -0.200 F 
ATOM     67  F   UNL A   1      35.762  31.813  33.004  1.00  0.00    -0.200 F 
ENDBRANCH  43  57
BRANCH  44  68
ATOM     68  C   UNL A   1      47.318  27.805  25.936  1.00  0.00     0.064 A 
ATOM     69  C   UNL A   1      47.320  27.802  24.535  1.00  0.00     0.173 A 
ATOM     70  C   UNL A   1      48.487  27.390  26.594  1.00  0.00     0.173 A 
ATOM     71  F   UNL A   1      46.218  28.166  23.864  1.00  0.00    -0.203 F 
ATOM     72  C   UNL A   1      48.443  27.391  23.820  1.00  0.00     0.198 A 
ATOM     73  C   UNL A   1      49.617  27.005  25.877  1.00  0.00     0.198 A 
ATOM     74  F   UNL A   1      48.533  27.374  27.933  1.00  0.00    -0.203 F 
ATOM     75  F   UNL A   1      48.408  27.364  22.481  1.00  0.00    -0.200 F 
ATOM     76  C   UNL A   1      49.593  27.001  24.491  1.00  0.00     0.200 A 
ATOM     77  F   UNL A   1      50.729  26.638  26.529  1.00  0.00    -0.200 F 
ATOM     78  F   UNL A   1      50.674  26.613  23.802  1.00  0.00    -0.200 F 
ENDBRANCH  44  68
BRANCH  56  79
ATOM     79  C   UNL A   1      45.491  33.782  29.003  1.00  0.00     0.064 A 
ATOM     80  C   UNL A   1      45.322  34.807  28.061  1.00  0.00     0.173 A 
ATOM     81  C   UNL A   1      46.310  34.033  30.113  1.00  0.00     0.173 A 
ATOM     82  F   UNL A   1      44.560  34.607  26.975  1.00  0.00    -0.203 F 
ATOM     83  C   UNL A   1      45.966  36.031  28.216  1.00  0.00     0.198 A 
ATOM     84  C   UNL A   1      46.934  35.265  30.276  1.00  0.00     0.198 A 
ATOM     85  F   UNL A   1      46.499  33.083  31.042  1.00  0.00    -0.203 F 
ATOM     86  F   UNL A   1      45.822  36.985  27.287  1.00  0.00    -0.200 F 
ATOM     87  C   UNL A   1      46.766  36.261  29.326  1.00  0.00     0.200 A 
ATOM     88  F   UNL A   1      47.702  35.489  31.351  1.00  0.00    -0.200 F 
ATOM     89  F   UNL A   1      47.382  37.442  29.475  1.00  0.00    -0.200 F 
ENDBRANCH  56  79
ENDBRANCH  30  31
ENDBRANCH  23  25
ENDBRANCH  22  23
ENDBRANCH  21  22
ENDBRANCH   1  21
TORSDOF 16
ENDMDL
