MODEL 1
REMARK VINA RESULT:     -12.9      0.000      0.000
REMARK SMILES O=C(OCCOC(=O)c1ccc2c(=O)n(CCC[NH+]3CCOCC3)c(=O)[nH]c2c1)c1ccc(-c2c3nc(c(-c4c(F)c(F)c(F)c(F)c4F)c4ccc([nH]4)c(-c4c(F)c(F)c(F)c(F)c4F)c4nc(c(-c5c(F)c(F)c(F)c(F)c5F)c5ccc2[nH]5)C=C4)C=C3)cc1
REMARK SMILES IDX 5 1 4 2 3 3 2 4 1 5 30 6 31 7 92 8 32 9 91 10 33 11 34 12
REMARK SMILES IDX 35 13 85 14 36 15 90 16 84 17 86 18 37 19 89 20 83 21 82 22
REMARK SMILES IDX 38 24 70 25 50 26 69 27 51 28 54 29 68 30 87 31 52 32 53 33
REMARK SMILES IDX 67 35 88 36 55 37 39 38 40 39 48 40 41 41 42 42 46 43 49 44
REMARK SMILES IDX 43 45 44 46 47 47 45 48 71 49 72 50 80 51 73 52 74 53 78 54
REMARK SMILES IDX 81 55 75 56 76 57 79 58 77 59 56 60 57 61 65 62 58 63 59 64
REMARK SMILES IDX 63 65 66 66 60 67 61 68 64 69 62 70 6 71 7 72 8 73 9 74
REMARK SMILES IDX 10 75 29 76 11 77 28 78 12 79 27 80 13 81 25 82 14 84 15 85
REMARK SMILES IDX 26 86 16 87 17 88 18 89 19 90 20 91 24 92 21 94 23 95 22 96
REMARK H PARENT 86 23 54 34 27 83 19 93
REMARK Flexibility Score: inf
ROOT
ATOM      1  C   UNL A   1      32.584  31.233  26.886  1.00  0.00     0.275 C 
ENDROOT
BRANCH   1   2
ATOM      2  C   UNL A   1      31.650  32.423  27.125  1.00  0.00     0.275 C 
BRANCH   2   3
ATOM      3  O   UNL A   1      32.310  33.697  27.227  1.00  0.00    -0.458 OA
BRANCH   3   4
ATOM      4  C   UNL A   1      32.941  34.263  28.281  1.00  0.00     0.338 C 
ATOM      5  O   UNL A   1      32.533  35.342  28.710  1.00  0.00    -0.246 OA
BRANCH   4   6
ATOM      6  C   UNL A   1      34.228  33.747  28.841  1.00  0.00     0.060 A 
ATOM      7  C   UNL A   1      34.108  32.738  29.811  1.00  0.00     0.016 A 
ATOM      8  C   UNL A   1      35.515  34.158  28.487  1.00  0.00     0.016 A 
ATOM      9  C   UNL A   1      35.224  32.254  30.498  1.00  0.00     0.010 A 
ATOM     10  C   UNL A   1      36.642  33.656  29.154  1.00  0.00     0.010 A 
ATOM     11  C   UNL A   1      36.504  32.723  30.183  1.00  0.00    -0.014 A 
BRANCH  11  12
ATOM     12  C   UNL A   1      37.691  32.102  30.812  1.00  0.00     0.031 A 
ATOM     13  C   UNL A   1      38.207  32.535  32.149  1.00  0.00     0.074 A 
ATOM     14  C   UNL A   1      38.321  31.136  30.120  1.00  0.00     0.049 A 
ATOM     15  N   UNL A   1      39.118  31.966  32.900  1.00  0.00    -0.248 NA
ATOM     16  C   UNL A   1      37.638  33.760  32.727  1.00  0.00     0.031 C 
ATOM     17  C   UNL A   1      37.936  30.688  28.779  1.00  0.00     0.029 A 
ATOM     18  N   UNL A   1      39.409  30.366  30.433  1.00  0.00    -0.354 N 
ATOM     19  C   UNL A   1      39.191  32.731  34.057  1.00  0.00     0.074 A 
ATOM     20  C   UNL A   1      38.276  33.839  33.888  1.00  0.00     0.031 C 
ATOM     21  C   UNL A   1      38.764  29.710  28.391  1.00  0.00     0.029 A 
ATOM     22  C   UNL A   1      39.756  29.488  29.437  1.00  0.00     0.049 A 
ATOM     23  H   UNL A   1      39.893  30.435  31.287  1.00  0.00     0.167 HD
ATOM     24  C   UNL A   1      39.952  32.513  35.156  1.00  0.00     0.037 A 
ATOM     25  C   UNL A   1      40.769  28.606  29.368  1.00  0.00     0.037 A 
ATOM     26  C   UNL A   1      40.925  31.454  35.254  1.00  0.00     0.049 A 
ATOM     27  C   UNL A   1      41.679  28.461  30.550  1.00  0.00     0.074 A 
ATOM     28  C   UNL A   1      41.696  31.083  36.342  1.00  0.00     0.029 A 
ATOM     29  N   UNL A   1      41.304  30.634  34.198  1.00  0.00    -0.354 N 
ATOM     30  N   UNL A   1      41.612  29.062  31.714  1.00  0.00    -0.248 NA
ATOM     31  C   UNL A   1      42.797  27.523  30.415  1.00  0.00     0.031 C 
ATOM     32  C   UNL A   1      42.608  30.110  35.916  1.00  0.00     0.029 A 
ATOM     33  C   UNL A   1      42.360  29.824  34.582  1.00  0.00     0.049 A 
ATOM     34  H   UNL A   1      40.884  30.630  33.308  1.00  0.00     0.167 HD
ATOM     35  C   UNL A   1      42.678  28.576  32.455  1.00  0.00     0.074 A 
ATOM     36  C   UNL A   1      43.364  27.614  31.612  1.00  0.00     0.031 C 
ATOM     37  C   UNL A   1      43.052  28.899  33.716  1.00  0.00     0.037 A 
BRANCH  24  38
ATOM     38  C   UNL A   1      39.777  33.428  36.338  1.00  0.00     0.064 A 
ATOM     39  C   UNL A   1      40.437  34.664  36.404  1.00  0.00     0.173 A 
ATOM     40  C   UNL A   1      38.876  33.119  37.368  1.00  0.00     0.173 A 
ATOM     41  F   UNL A   1      41.328  34.999  35.461  1.00  0.00    -0.203 F 
ATOM     42  C   UNL A   1      40.199  35.559  37.444  1.00  0.00     0.198 A 
ATOM     43  C   UNL A   1      38.630  34.021  38.403  1.00  0.00     0.198 A 
ATOM     44  F   UNL A   1      38.221  31.948  37.364  1.00  0.00    -0.203 F 
ATOM     45  F   UNL A   1      40.853  36.728  37.483  1.00  0.00    -0.200 F 
ATOM     46  C   UNL A   1      39.288  35.240  38.439  1.00  0.00     0.200 A 
ATOM     47  F   UNL A   1      37.747  33.711  39.363  1.00  0.00    -0.200 F 
ATOM     48  F   UNL A   1      39.051  36.105  39.435  1.00  0.00    -0.200 F 
ENDBRANCH  24  38
BRANCH  25  49
ATOM     49  C   UNL A   1      40.926  27.805  28.131  1.00  0.00     0.064 A 
ATOM     50  C   UNL A   1      41.687  28.281  27.056  1.00  0.00     0.173 A 
ATOM     51  C   UNL A   1      40.425  26.495  28.050  1.00  0.00     0.173 A 
ATOM     52  F   UNL A   1      42.177  29.529  27.085  1.00  0.00    -0.203 F 
ATOM     53  C   UNL A   1      41.958  27.471  25.955  1.00  0.00     0.198 A 
ATOM     54  C   UNL A   1      40.717  25.678  26.961  1.00  0.00     0.198 A 
ATOM     55  F   UNL A   1      39.702  25.991  29.061  1.00  0.00    -0.203 F 
ATOM     56  F   UNL A   1      42.690  27.947  24.939  1.00  0.00    -0.200 F 
ATOM     57  C   UNL A   1      41.486  26.166  25.916  1.00  0.00     0.200 A 
ATOM     58  F   UNL A   1      40.281  24.411  26.941  1.00  0.00    -0.200 F 
ATOM     59  F   UNL A   1      41.780  25.376  24.875  1.00  0.00    -0.200 F 
ENDBRANCH  25  49
BRANCH  37  60
ATOM     60  C   UNL A   1      44.284  28.236  34.258  1.00  0.00     0.064 A 
ATOM     61  C   UNL A   1      45.535  28.865  34.189  1.00  0.00     0.173 A 
ATOM     62  C   UNL A   1      44.203  27.000  34.916  1.00  0.00     0.173 A 
ATOM     63  F   UNL A   1      45.666  30.039  33.552  1.00  0.00    -0.203 F 
ATOM     64  C   UNL A   1      46.662  28.279  34.757  1.00  0.00     0.198 A 
ATOM     65  C   UNL A   1      45.326  26.430  35.508  1.00  0.00     0.198 A 
ATOM     66  F   UNL A   1      43.026  26.361  35.010  1.00  0.00    -0.203 F 
ATOM     67  F   UNL A   1      47.853  28.883  34.654  1.00  0.00    -0.200 F 
ATOM     68  C   UNL A   1      46.554  27.068  35.426  1.00  0.00     0.200 A 
ATOM     69  F   UNL A   1      45.216  25.269  36.166  1.00  0.00    -0.200 F 
ATOM     70  F   UNL A   1      47.636  26.515  35.991  1.00  0.00    -0.200 F 
ENDBRANCH  37  60
ENDBRANCH  11  12
ENDBRANCH   4   6
ENDBRANCH   3   4
ENDBRANCH   2   3
ENDBRANCH   1   2
BRANCH   1  71
ATOM     71  O   UNL A   1      31.935  29.959  26.997  1.00  0.00    -0.458 OA
BRANCH  71  72
ATOM     72  C   UNL A   1      31.722  29.326  25.815  1.00  0.00     0.338 C 
ATOM     73  O   UNL A   1      31.316  29.815  24.775  1.00  0.00    -0.246 OA
BRANCH  72  74
ATOM     74  C   UNL A   1      32.184  27.932  25.926  1.00  0.00     0.062 A 
ATOM     75  C   UNL A   1      33.471  27.571  25.511  1.00  0.00     0.016 A 
ATOM     76  C   UNL A   1      31.287  26.972  26.418  1.00  0.00     0.042 A 
ATOM     77  C   UNL A   1      33.867  26.239  25.608  1.00  0.00     0.017 A 
ATOM     78  C   UNL A   1      31.659  25.630  26.405  1.00  0.00     0.056 A 
ATOM     79  C   UNL A   1      32.948  25.278  26.046  1.00  0.00     0.064 A 
ATOM     80  N   UNL A   1      30.732  24.622  26.659  1.00  0.00    -0.307 N 
ATOM     81  C   UNL A   1      33.327  23.869  26.164  1.00  0.00     0.264 A 
ATOM     82  C   UNL A   1      30.992  23.285  26.487  1.00  0.00     0.328 A 
ATOM     83  H   UNL A   1      29.839  24.884  26.979  1.00  0.00     0.171 HD
ATOM     84  O   UNL A   1      34.521  23.629  26.287  1.00  0.00    -0.268 OA
ATOM     85  N   UNL A   1      32.302  22.934  26.189  1.00  0.00    -0.260 N 
ATOM     86  O   UNL A   1      30.065  22.486  26.618  1.00  0.00    -0.248 OA
BRANCH  85  87
ATOM     87  C   UNL A   1      32.659  21.509  26.145  1.00  0.00     0.137 C 
BRANCH  87  88
ATOM     88  C   UNL A   1      32.705  20.882  24.734  1.00  0.00     0.083 C 
BRANCH  88  89
ATOM     89  C   UNL A   1      33.564  19.607  24.594  1.00  0.00     0.264 C 
BRANCH  89  90
ATOM     90  N   UNL A   1      32.707  18.442  24.370  1.00  0.00    -0.331 N 
ATOM     91  C   UNL A   1      32.612  17.524  25.517  1.00  0.00     0.291 C 
ATOM     92  C   UNL A   1      32.966  17.706  23.125  1.00  0.00     0.291 C 
ATOM     93  H   UNL A   1      31.790  18.875  24.260  1.00  0.00     0.348 HD
ATOM     94  C   UNL A   1      33.628  16.378  25.547  1.00  0.00     0.221 C 
ATOM     95  C   UNL A   1      34.003  16.576  23.250  1.00  0.00     0.221 C 
ATOM     96  O   UNL A   1      33.660  15.670  24.306  1.00  0.00    -0.370 OA
ENDBRANCH  89  90
ENDBRANCH  88  89
ENDBRANCH  87  88
ENDBRANCH  85  87
ENDBRANCH  72  74
ENDBRANCH  71  72
ENDBRANCH   1  71
TORSDOF 15
ENDMDL
MODEL 2
REMARK VINA RESULT:     -12.7      3.151      9.152
REMARK SMILES O=C(OCCOC(=O)c1ccc2c(=O)n(CCC[NH+]3CCOCC3)c(=O)[nH]c2c1)c1ccc(-c2c3nc(c(-c4c(F)c(F)c(F)c(F)c4F)c4ccc([nH]4)c(-c4c(F)c(F)c(F)c(F)c4F)c4nc(c(-c5c(F)c(F)c(F)c(F)c5F)c5ccc2[nH]5)C=C4)C=C3)cc1
REMARK SMILES IDX 5 1 4 2 3 3 2 4 1 5 30 6 31 7 92 8 32 9 91 10 33 11 34 12
REMARK SMILES IDX 35 13 85 14 36 15 90 16 84 17 86 18 37 19 89 20 83 21 82 22
REMARK SMILES IDX 38 24 70 25 50 26 69 27 51 28 54 29 68 30 87 31 52 32 53 33
REMARK SMILES IDX 67 35 88 36 55 37 39 38 40 39 48 40 41 41 42 42 46 43 49 44
REMARK SMILES IDX 43 45 44 46 47 47 45 48 71 49 72 50 80 51 73 52 74 53 78 54
REMARK SMILES IDX 81 55 75 56 76 57 79 58 77 59 56 60 57 61 65 62 58 63 59 64
REMARK SMILES IDX 63 65 66 66 60 67 61 68 64 69 62 70 6 71 7 72 8 73 9 74
REMARK SMILES IDX 10 75 29 76 11 77 28 78 12 79 27 80 13 81 25 82 14 84 15 85
REMARK SMILES IDX 26 86 16 87 17 88 18 89 19 90 20 91 24 92 21 94 23 95 22 96
REMARK H PARENT 86 23 54 34 27 83 19 93
REMARK Flexibility Score: inf
ROOT
ATOM      1  C   UNL A   1      42.531  20.703  26.134  1.00  0.00     0.275 C 
ENDROOT
BRANCH   1   2
ATOM      2  C   UNL A   1      43.552  21.648  25.493  1.00  0.00     0.275 C 
BRANCH   2   3
ATOM      3  O   UNL A   1      43.005  22.884  25.002  1.00  0.00    -0.458 OA
BRANCH   3   4
ATOM      4  C   UNL A   1      43.495  24.142  25.086  1.00  0.00     0.338 C 
ATOM      5  O   UNL A   1      44.436  24.463  24.362  1.00  0.00    -0.246 OA
BRANCH   4   6
ATOM      6  C   UNL A   1      43.085  25.114  26.146  1.00  0.00     0.060 A 
ATOM      7  C   UNL A   1      42.151  24.636  27.081  1.00  0.00     0.016 A 
ATOM      8  C   UNL A   1      43.544  26.423  26.299  1.00  0.00     0.016 A 
ATOM      9  C   UNL A   1      41.596  25.477  28.048  1.00  0.00     0.010 A 
ATOM     10  C   UNL A   1      43.011  27.265  27.285  1.00  0.00     0.010 A 
ATOM     11  C   UNL A   1      42.013  26.808  28.149  1.00  0.00    -0.014 A 
BRANCH  11  12
ATOM     12  C   UNL A   1      41.529  27.649  29.265  1.00  0.00     0.031 A 
ATOM     13  C   UNL A   1      40.337  28.547  29.134  1.00  0.00     0.074 A 
ATOM     14  C   UNL A   1      42.221  27.603  30.418  1.00  0.00     0.049 A 
ATOM     15  N   UNL A   1      39.693  29.198  30.071  1.00  0.00    -0.248 NA
ATOM     16  C   UNL A   1      39.791  28.747  27.785  1.00  0.00     0.031 C 
ATOM     17  C   UNL A   1      43.436  26.811  30.627  1.00  0.00     0.029 A 
ATOM     18  N   UNL A   1      42.018  28.229  31.618  1.00  0.00    -0.354 N 
ATOM     19  C   UNL A   1      38.639  29.838  29.435  1.00  0.00     0.074 A 
ATOM     20  C   UNL A   1      38.759  29.548  28.022  1.00  0.00     0.031 C 
ATOM     21  C   UNL A   1      43.860  26.985  31.884  1.00  0.00     0.029 A 
ATOM     22  C   UNL A   1      42.971  27.926  32.557  1.00  0.00     0.049 A 
ATOM     23  H   UNL A   1      41.262  28.837  31.790  1.00  0.00     0.167 HD
ATOM     24  C   UNL A   1      37.661  30.593  29.992  1.00  0.00     0.037 A 
ATOM     25  C   UNL A   1      43.121  28.364  33.819  1.00  0.00     0.037 A 
ATOM     26  C   UNL A   1      37.622  30.942  31.389  1.00  0.00     0.049 A 
ATOM     27  C   UNL A   1      42.092  29.296  34.384  1.00  0.00     0.074 A 
ATOM     28  C   UNL A   1      36.644  31.630  32.085  1.00  0.00     0.029 A 
ATOM     29  N   UNL A   1      38.646  30.683  32.293  1.00  0.00    -0.354 N 
ATOM     30  N   UNL A   1      40.992  29.740  33.824  1.00  0.00    -0.248 NA
ATOM     31  C   UNL A   1      42.318  29.786  35.747  1.00  0.00     0.031 C 
ATOM     32  C   UNL A   1      37.120  31.872  33.379  1.00  0.00     0.029 A 
ATOM     33  C   UNL A   1      38.364  31.276  33.513  1.00  0.00     0.049 A 
ATOM     34  H   UNL A   1      39.453  30.155  32.095  1.00  0.00     0.167 HD
ATOM     35  C   UNL A   1      40.391  30.562  34.764  1.00  0.00     0.074 A 
ATOM     36  C   UNL A   1      41.241  30.538  35.940  1.00  0.00     0.031 C 
ATOM     37  C   UNL A   1      39.241  31.271  34.659  1.00  0.00     0.037 A 
BRANCH  24  38
ATOM     38  C   UNL A   1      36.554  31.096  29.104  1.00  0.00     0.064 A 
ATOM     39  C   UNL A   1      35.500  30.257  28.714  1.00  0.00     0.173 A 
ATOM     40  C   UNL A   1      36.489  32.442  28.715  1.00  0.00     0.173 A 
ATOM     41  F   UNL A   1      35.523  28.956  29.035  1.00  0.00    -0.203 F 
ATOM     42  C   UNL A   1      34.421  30.743  27.979  1.00  0.00     0.198 A 
ATOM     43  C   UNL A   1      35.403  32.930  27.990  1.00  0.00     0.198 A 
ATOM     44  F   UNL A   1      37.473  33.290  29.052  1.00  0.00    -0.203 F 
ATOM     45  F   UNL A   1      33.433  29.914  27.613  1.00  0.00    -0.200 F 
ATOM     46  C   UNL A   1      34.369  32.082  27.625  1.00  0.00     0.200 A 
ATOM     47  F   UNL A   1      35.355  34.226  27.650  1.00  0.00    -0.200 F 
ATOM     48  F   UNL A   1      33.326  32.553  26.927  1.00  0.00    -0.200 F 
ENDBRANCH  24  38
BRANCH  25  49
ATOM     49  C   UNL A   1      44.288  27.889  34.600  1.00  0.00     0.064 A 
ATOM     50  C   UNL A   1      45.465  28.645  34.667  1.00  0.00     0.173 A 
ATOM     51  C   UNL A   1      44.204  26.734  35.396  1.00  0.00     0.173 A 
ATOM     52  F   UNL A   1      45.595  29.748  33.917  1.00  0.00    -0.203 F 
ATOM     53  C   UNL A   1      46.507  28.274  35.515  1.00  0.00     0.198 A 
ATOM     54  C   UNL A   1      45.234  26.379  36.261  1.00  0.00     0.198 A 
ATOM     55  F   UNL A   1      43.091  25.986  35.374  1.00  0.00    -0.203 F 
ATOM     56  F   UNL A   1      47.623  29.014  35.564  1.00  0.00    -0.200 F 
ATOM     57  C   UNL A   1      46.384  27.152  36.322  1.00  0.00     0.200 A 
ATOM     58  F   UNL A   1      45.100  25.310  37.057  1.00  0.00    -0.200 F 
ATOM     59  F   UNL A   1      47.371  26.819  37.166  1.00  0.00    -0.200 F 
ENDBRANCH  25  49
BRANCH  37  60
ATOM     60  C   UNL A   1      38.846  32.115  35.835  1.00  0.00     0.064 A 
ATOM     61  C   UNL A   1      38.153  31.563  36.921  1.00  0.00     0.173 A 
ATOM     62  C   UNL A   1      39.228  33.462  35.912  1.00  0.00     0.173 A 
ATOM     63  F   UNL A   1      37.749  30.283  36.885  1.00  0.00    -0.203 F 
ATOM     64  C   UNL A   1      37.852  32.330  38.042  1.00  0.00     0.198 A 
ATOM     65  C   UNL A   1      38.952  34.219  37.047  1.00  0.00     0.198 A 
ATOM     66  F   UNL A   1      39.897  34.034  34.898  1.00  0.00    -0.203 F 
ATOM     67  F   UNL A   1      37.163  31.791  39.057  1.00  0.00    -0.200 F 
ATOM     68  C   UNL A   1      38.262  33.654  38.108  1.00  0.00     0.200 A 
ATOM     69  F   UNL A   1      39.362  35.493  37.115  1.00  0.00    -0.200 F 
ATOM     70  F   UNL A   1      37.991  34.387  39.197  1.00  0.00    -0.200 F 
ENDBRANCH  37  60
ENDBRANCH  11  12
ENDBRANCH   4   6
ENDBRANCH   3   4
ENDBRANCH   2   3
ENDBRANCH   1   2
BRANCH   1  71
ATOM     71  O   UNL A   1      41.177  20.963  25.741  1.00  0.00    -0.458 OA
BRANCH  71  72
ATOM     72  C   UNL A   1      40.378  21.433  26.734  1.00  0.00     0.338 C 
ATOM     73  O   UNL A   1      40.678  21.622  27.899  1.00  0.00    -0.246 OA
BRANCH  72  74
ATOM     74  C   UNL A   1      39.076  21.817  26.162  1.00  0.00     0.062 A 
ATOM     75  C   UNL A   1      38.675  23.157  26.135  1.00  0.00     0.016 A 
ATOM     76  C   UNL A   1      38.235  20.800  25.684  1.00  0.00     0.042 A 
ATOM     77  C   UNL A   1      37.427  23.482  25.609  1.00  0.00     0.017 A 
ATOM     78  C   UNL A   1      36.949  21.130  25.265  1.00  0.00     0.056 A 
ATOM     79  C   UNL A   1      36.570  22.458  25.187  1.00  0.00     0.064 A 
ATOM     80  N   UNL A   1      36.000  20.143  25.005  1.00  0.00    -0.307 N 
ATOM     81  C   UNL A   1      35.253  22.760  24.626  1.00  0.00     0.264 A 
ATOM     82  C   UNL A   1      34.674  20.405  24.762  1.00  0.00     0.328 A 
ATOM     83  H   UNL A   1      36.297  19.205  24.996  1.00  0.00     0.171 HD
ATOM     84  O   UNL A   1      35.100  23.877  24.150  1.00  0.00    -0.268 OA
ATOM     85  N   UNL A   1      34.313  21.739  24.624  1.00  0.00    -0.260 N 
ATOM     86  O   UNL A   1      33.897  19.455  24.670  1.00  0.00    -0.248 OA
BRANCH  85  87
ATOM     87  C   UNL A   1      32.939  22.059  24.215  1.00  0.00     0.137 C 
BRANCH  87  88
ATOM     88  C   UNL A   1      32.085  22.787  25.277  1.00  0.00     0.083 C 
BRANCH  88  89
ATOM     89  C   UNL A   1      31.248  23.978  24.764  1.00  0.00     0.264 C 
BRANCH  89  90
ATOM     90  N   UNL A   1      32.098  25.157  24.593  1.00  0.00    -0.331 N 
ATOM     91  C   UNL A   1      32.654  25.697  25.844  1.00  0.00     0.291 C 
ATOM     92  C   UNL A   1      31.522  26.227  23.766  1.00  0.00     0.291 C 
ATOM     93  H   UNL A   1      32.880  24.776  24.060  1.00  0.00     0.348 HD
ATOM     94  C   UNL A   1      31.824  26.784  26.535  1.00  0.00     0.221 C 
ATOM     95  C   UNL A   1      30.702  27.270  24.545  1.00  0.00     0.221 C 
ATOM     96  O   UNL A   1      31.460  27.826  25.627  1.00  0.00    -0.370 OA
ENDBRANCH  89  90
ENDBRANCH  88  89
ENDBRANCH  87  88
ENDBRANCH  85  87
ENDBRANCH  72  74
ENDBRANCH  71  72
ENDBRANCH   1  71
TORSDOF 15
ENDMDL
MODEL 3
REMARK VINA RESULT:     -12.6      3.108      9.127
REMARK SMILES O=C(OCCOC(=O)c1ccc2c(=O)n(CCC[NH+]3CCOCC3)c(=O)[nH]c2c1)c1ccc(-c2c3nc(c(-c4c(F)c(F)c(F)c(F)c4F)c4ccc([nH]4)c(-c4c(F)c(F)c(F)c(F)c4F)c4nc(c(-c5c(F)c(F)c(F)c(F)c5F)c5ccc2[nH]5)C=C4)C=C3)cc1
REMARK SMILES IDX 5 1 4 2 3 3 2 4 1 5 30 6 31 7 92 8 32 9 91 10 33 11 34 12
REMARK SMILES IDX 35 13 85 14 36 15 90 16 84 17 86 18 37 19 89 20 83 21 82 22
REMARK SMILES IDX 38 24 70 25 50 26 69 27 51 28 54 29 68 30 87 31 52 32 53 33
REMARK SMILES IDX 67 35 88 36 55 37 39 38 40 39 48 40 41 41 42 42 46 43 49 44
REMARK SMILES IDX 43 45 44 46 47 47 45 48 71 49 72 50 80 51 73 52 74 53 78 54
REMARK SMILES IDX 81 55 75 56 76 57 79 58 77 59 56 60 57 61 65 62 58 63 59 64
REMARK SMILES IDX 63 65 66 66 60 67 61 68 64 69 62 70 6 71 7 72 8 73 9 74
REMARK SMILES IDX 10 75 29 76 11 77 28 78 12 79 27 80 13 81 25 82 14 84 15 85
REMARK SMILES IDX 26 86 16 87 17 88 18 89 19 90 20 91 24 92 21 94 23 95 22 96
REMARK H PARENT 86 23 54 34 27 83 19 93
REMARK Flexibility Score: inf
ROOT
ATOM      1  C   UNL A   1      42.461  21.114  26.213  1.00  0.00     0.275 C 
ENDROOT
BRANCH   1   2
ATOM      2  C   UNL A   1      43.461  21.823  25.296  1.00  0.00     0.275 C 
BRANCH   2   3
ATOM      3  O   UNL A   1      43.048  23.125  24.845  1.00  0.00    -0.458 OA
BRANCH   3   4
ATOM      4  C   UNL A   1      43.625  24.332  25.042  1.00  0.00     0.338 C 
ATOM      5  O   UNL A   1      44.648  24.613  24.419  1.00  0.00    -0.246 OA
BRANCH   4   6
ATOM      6  C   UNL A   1      43.199  25.280  26.119  1.00  0.00     0.060 A 
ATOM      7  C   UNL A   1      42.239  24.786  27.018  1.00  0.00     0.016 A 
ATOM      8  C   UNL A   1      43.667  26.580  26.318  1.00  0.00     0.016 A 
ATOM      9  C   UNL A   1      41.670  25.606  27.995  1.00  0.00     0.010 A 
ATOM     10  C   UNL A   1      43.120  27.399  27.315  1.00  0.00     0.010 A 
ATOM     11  C   UNL A   1      42.097  26.930  28.142  1.00  0.00    -0.014 A 
BRANCH  11  12
ATOM     12  C   UNL A   1      41.595  27.745  29.270  1.00  0.00     0.031 A 
ATOM     13  C   UNL A   1      40.394  28.631  29.146  1.00  0.00     0.074 A 
ATOM     14  C   UNL A   1      42.279  27.686  30.426  1.00  0.00     0.049 A 
ATOM     15  N   UNL A   1      39.735  29.258  30.089  1.00  0.00    -0.248 NA
ATOM     16  C   UNL A   1      39.856  28.849  27.796  1.00  0.00     0.031 C 
ATOM     17  C   UNL A   1      43.502  26.905  30.630  1.00  0.00     0.029 A 
ATOM     18  N   UNL A   1      42.060  28.289  31.636  1.00  0.00    -0.354 N 
ATOM     19  C   UNL A   1      38.679  29.898  29.456  1.00  0.00     0.074 A 
ATOM     20  C   UNL A   1      38.813  29.634  28.040  1.00  0.00     0.031 C 
ATOM     21  C   UNL A   1      43.915  27.061  31.894  1.00  0.00     0.029 A 
ATOM     22  C   UNL A   1      43.009  27.979  32.576  1.00  0.00     0.049 A 
ATOM     23  H   UNL A   1      41.296  28.884  31.813  1.00  0.00     0.167 HD
ATOM     24  C   UNL A   1      37.688  30.631  30.019  1.00  0.00     0.037 A 
ATOM     25  C   UNL A   1      43.145  28.396  33.847  1.00  0.00     0.037 A 
ATOM     26  C   UNL A   1      37.635  30.955  31.422  1.00  0.00     0.049 A 
ATOM     27  C   UNL A   1      42.101  29.306  34.421  1.00  0.00     0.074 A 
ATOM     28  C   UNL A   1      36.643  31.619  32.123  1.00  0.00     0.029 A 
ATOM     29  N   UNL A   1      38.655  30.691  32.329  1.00  0.00    -0.354 N 
ATOM     30  N   UNL A   1      41.001  29.748  33.861  1.00  0.00    -0.248 NA
ATOM     31  C   UNL A   1      42.312  29.774  35.794  1.00  0.00     0.031 C 
ATOM     32  C   UNL A   1      37.107  31.843  33.425  1.00  0.00     0.029 A 
ATOM     33  C   UNL A   1      38.357  31.258  33.557  1.00  0.00     0.049 A 
ATOM     34  H   UNL A   1      39.469  30.176  32.127  1.00  0.00     0.167 HD
ATOM     35  C   UNL A   1      40.383  30.546  34.810  1.00  0.00     0.074 A 
ATOM     36  C   UNL A   1      41.225  30.510  35.992  1.00  0.00     0.031 C 
ATOM     37  C   UNL A   1      39.226  31.243  34.709  1.00  0.00     0.037 A 
BRANCH  24  38
ATOM     38  C   UNL A   1      36.582  31.137  29.132  1.00  0.00     0.064 A 
ATOM     39  C   UNL A   1      35.538  30.294  28.722  1.00  0.00     0.173 A 
ATOM     40  C   UNL A   1      36.507  32.488  28.763  1.00  0.00     0.173 A 
ATOM     41  F   UNL A   1      35.571  28.989  29.023  1.00  0.00    -0.203 F 
ATOM     42  C   UNL A   1      34.459  30.782  27.988  1.00  0.00     0.198 A 
ATOM     43  C   UNL A   1      35.421  32.977  28.038  1.00  0.00     0.198 A 
ATOM     44  F   UNL A   1      37.480  33.340  29.119  1.00  0.00    -0.203 F 
ATOM     45  F   UNL A   1      33.482  29.949  27.604  1.00  0.00    -0.200 F 
ATOM     46  C   UNL A   1      34.397  32.125  27.654  1.00  0.00     0.200 A 
ATOM     47  F   UNL A   1      35.363  34.277  27.718  1.00  0.00    -0.200 F 
ATOM     48  F   UNL A   1      33.354  32.597  26.957  1.00  0.00    -0.200 F 
ENDBRANCH  24  38
BRANCH  25  49
ATOM     49  C   UNL A   1      44.312  27.921  34.628  1.00  0.00     0.064 A 
ATOM     50  C   UNL A   1      44.252  26.728  35.359  1.00  0.00     0.173 A 
ATOM     51  C   UNL A   1      45.549  28.583  34.555  1.00  0.00     0.173 A 
ATOM     52  F   UNL A   1      43.090  26.067  35.466  1.00  0.00    -0.203 F 
ATOM     53  C   UNL A   1      45.389  26.206  35.973  1.00  0.00     0.198 A 
ATOM     54  C   UNL A   1      46.689  28.047  35.146  1.00  0.00     0.198 A 
ATOM     55  F   UNL A   1      45.658  29.722  33.855  1.00  0.00    -0.203 F 
ATOM     56  F   UNL A   1      45.307  25.062  36.666  1.00  0.00    -0.200 F 
ATOM     57  C   UNL A   1      46.608  26.857  35.853  1.00  0.00     0.200 A 
ATOM     58  F   UNL A   1      47.869  28.666  35.005  1.00  0.00    -0.200 F 
ATOM     59  F   UNL A   1      47.708  26.332  36.409  1.00  0.00    -0.200 F 
ENDBRANCH  25  49
BRANCH  37  60
ATOM     60  C   UNL A   1      38.812  32.061  35.898  1.00  0.00     0.064 A 
ATOM     61  C   UNL A   1      38.110  31.484  36.965  1.00  0.00     0.173 A 
ATOM     62  C   UNL A   1      39.185  33.409  36.006  1.00  0.00     0.173 A 
ATOM     63  F   UNL A   1      37.715  30.202  36.898  1.00  0.00    -0.203 F 
ATOM     64  C   UNL A   1      37.792  32.227  38.097  1.00  0.00     0.198 A 
ATOM     65  C   UNL A   1      38.891  34.142  37.151  1.00  0.00     0.198 A 
ATOM     66  F   UNL A   1      39.862  34.004  35.011  1.00  0.00    -0.203 F 
ATOM     67  F   UNL A   1      37.095  31.664  39.093  1.00  0.00    -0.200 F 
ATOM     68  C   UNL A   1      38.193  33.552  38.194  1.00  0.00     0.200 A 
ATOM     69  F   UNL A   1      39.292  35.416  37.249  1.00  0.00    -0.200 F 
ATOM     70  F   UNL A   1      37.905  34.261  39.294  1.00  0.00    -0.200 F 
ENDBRANCH  37  60
ENDBRANCH  11  12
ENDBRANCH   4   6
ENDBRANCH   3   4
ENDBRANCH   2   3
ENDBRANCH   1   2
BRANCH   1  71
ATOM     71  O   UNL A   1      41.094  21.271  25.809  1.00  0.00    -0.458 OA
BRANCH  71  72
ATOM     72  C   UNL A   1      40.250  21.658  26.800  1.00  0.00     0.338 C 
ATOM     73  O   UNL A   1      40.512  21.803  27.981  1.00  0.00    -0.246 OA
BRANCH  72  74
ATOM     74  C   UNL A   1      38.948  22.013  26.211  1.00  0.00     0.062 A 
ATOM     75  C   UNL A   1      38.521  23.345  26.172  1.00  0.00     0.016 A 
ATOM     76  C   UNL A   1      38.132  20.977  25.730  1.00  0.00     0.042 A 
ATOM     77  C   UNL A   1      37.273  23.643  25.629  1.00  0.00     0.017 A 
ATOM     78  C   UNL A   1      36.845  21.279  25.294  1.00  0.00     0.056 A 
ATOM     79  C   UNL A   1      36.441  22.600  25.204  1.00  0.00     0.064 A 
ATOM     80  N   UNL A   1      35.918  20.273  25.029  1.00  0.00    -0.307 N 
ATOM     81  C   UNL A   1      35.124  22.872  24.626  1.00  0.00     0.264 A 
ATOM     82  C   UNL A   1      34.590  20.507  24.769  1.00  0.00     0.328 A 
ATOM     83  H   UNL A   1      36.233  19.341  25.029  1.00  0.00     0.171 HD
ATOM     84  O   UNL A   1      34.956  23.984  24.141  1.00  0.00    -0.268 OA
ATOM     85  N   UNL A   1      34.205  21.833  24.619  1.00  0.00    -0.260 N 
ATOM     86  O   UNL A   1      33.832  19.542  24.675  1.00  0.00    -0.248 OA
BRANCH  85  87
ATOM     87  C   UNL A   1      32.829  22.124  24.192  1.00  0.00     0.137 C 
BRANCH  87  88
ATOM     88  C   UNL A   1      31.867  22.561  25.319  1.00  0.00     0.083 C 
BRANCH  88  89
ATOM     89  C   UNL A   1      30.789  23.591  24.918  1.00  0.00     0.264 C 
BRANCH  89  90
ATOM     90  N   UNL A   1      30.700  24.648  25.926  1.00  0.00    -0.331 N 
ATOM     91  C   UNL A   1      29.919  25.825  25.512  1.00  0.00     0.291 C 
ATOM     92  C   UNL A   1      31.981  25.049  26.525  1.00  0.00     0.291 C 
ATOM     93  H   UNL A   1      30.171  24.187  26.667  1.00  0.00     0.348 HD
ATOM     94  C   UNL A   1      30.710  26.957  24.849  1.00  0.00     0.221 C 
ATOM     95  C   UNL A   1      32.705  26.190  25.789  1.00  0.00     0.221 C 
ATOM     96  O   UNL A   1      31.851  27.328  25.626  1.00  0.00    -0.370 OA
ENDBRANCH  89  90
ENDBRANCH  88  89
ENDBRANCH  87  88
ENDBRANCH  85  87
ENDBRANCH  72  74
ENDBRANCH  71  72
ENDBRANCH   1  71
TORSDOF 15
ENDMDL
