MODEL 1
REMARK VINA RESULT:     -10.6      0.000      0.000
REMARK SMILES O=C(OCCOC(=O)c1sccc1[S@](=O)[O-])c1ccc(-c2c3nc(c(-c4c(F)c(F)c(F)c(F)c4F)c4ccc([nH]4)c(-c4c(F)c(F)c(F)c(F)c4F)c4nc(c(-c5c(F)c(F)c(F)c(F)c5F)c5ccc2[nH]5)C=C4)C=C3)cc1
REMARK SMILES IDX 4 1 3 2 2 3 1 4 17 5 18 6 79 7 19 8 78 9 20 10 21 11 22 12
REMARK SMILES IDX 72 13 23 14 77 15 71 16 73 17 24 18 76 19 70 20 69 21 25 23
REMARK SMILES IDX 57 24 37 25 56 26 38 27 41 28 55 29 74 30 39 31 40 32 54 34
REMARK SMILES IDX 75 35 42 36 26 37 27 38 35 39 28 40 29 41 33 42 36 43 30 44
REMARK SMILES IDX 31 45 34 46 32 47 58 48 59 49 67 50 60 51 61 52 65 53 68 54
REMARK SMILES IDX 62 55 63 56 66 57 64 58 43 59 44 60 52 61 45 62 46 63 50 64
REMARK SMILES IDX 53 65 47 66 48 67 51 68 49 69 5 70 6 71 7 72 8 73 9 74 10 75
REMARK SMILES IDX 13 76 11 77 12 78 14 79 16 80 15 81
REMARK H PARENT 73 22 41 33
REMARK Flexibility Score: inf
ROOT
ATOM      1  C   UNL A   1      32.956  33.653  28.001  1.00  0.00     0.275 C 
ENDROOT
BRANCH   1   2
ATOM      2  O   UNL A   1      33.092  32.591  27.038  1.00  0.00    -0.458 OA
BRANCH   2   3
ATOM      3  C   UNL A   1      33.459  31.302  27.219  1.00  0.00     0.338 C 
ATOM      4  O   UNL A   1      32.646  30.418  26.942  1.00  0.00    -0.246 OA
BRANCH   3   5
ATOM      5  C   UNL A   1      34.745  30.860  27.854  1.00  0.00     0.060 A 
ATOM      6  C   UNL A   1      35.017  29.601  28.387  1.00  0.00     0.016 A 
ATOM      7  C   UNL A   1      35.750  31.846  27.971  1.00  0.00     0.016 A 
ATOM      8  C   UNL A   1      36.244  29.328  29.003  1.00  0.00     0.010 A 
ATOM      9  C   UNL A   1      36.986  31.576  28.570  1.00  0.00     0.010 A 
ATOM     10  C   UNL A   1      37.235  30.311  29.102  1.00  0.00    -0.014 A 
BRANCH  10  11
ATOM     11  C   UNL A   1      38.495  29.989  29.812  1.00  0.00     0.031 A 
ATOM     12  C   UNL A   1      38.738  30.547  31.177  1.00  0.00     0.074 A 
ATOM     13  C   UNL A   1      39.366  29.123  29.266  1.00  0.00     0.049 A 
ATOM     14  N   UNL A   1      39.695  30.263  32.021  1.00  0.00    -0.248 NA
ATOM     15  C   UNL A   1      37.775  31.547  31.662  1.00  0.00     0.031 C 
ATOM     16  C   UNL A   1      39.218  28.540  27.940  1.00  0.00     0.029 A 
ATOM     17  N   UNL A   1      40.526  28.571  29.741  1.00  0.00    -0.354 N 
ATOM     18  C   UNL A   1      39.426  31.014  33.155  1.00  0.00     0.074 A 
ATOM     19  C   UNL A   1      38.252  31.812  32.869  1.00  0.00     0.031 C 
ATOM     20  C   UNL A   1      40.233  27.694  27.704  1.00  0.00     0.029 A 
ATOM     21  C   UNL A   1      41.118  27.693  28.865  1.00  0.00     0.049 A 
ATOM     22  H   UNL A   1      40.900  28.784  30.627  1.00  0.00     0.167 HD
ATOM     23  C   UNL A   1      40.089  31.016  34.335  1.00  0.00     0.037 A 
ATOM     24  C   UNL A   1      42.248  26.972  28.991  1.00  0.00     0.037 A 
ATOM     25  C   UNL A   1      41.288  30.264  34.588  1.00  0.00     0.049 A 
ATOM     26  C   UNL A   1      43.009  27.055  30.287  1.00  0.00     0.074 A 
ATOM     27  C   UNL A   1      42.076  30.242  35.724  1.00  0.00     0.029 A 
ATOM     28  N   UNL A   1      41.884  29.408  33.671  1.00  0.00    -0.354 N 
ATOM     29  N   UNL A   1      42.722  27.738  31.369  1.00  0.00    -0.248 NA
ATOM     30  C   UNL A   1      44.242  26.263  30.386  1.00  0.00     0.031 C 
ATOM     31  C   UNL A   1      43.166  29.396  35.482  1.00  0.00     0.029 A 
ATOM     32  C   UNL A   1      43.035  28.861  34.211  1.00  0.00     0.049 A 
ATOM     33  H   UNL A   1      41.538  29.217  32.769  1.00  0.00     0.167 HD
ATOM     34  C   UNL A   1      43.723  27.447  32.283  1.00  0.00     0.074 A 
ATOM     35  C   UNL A   1      44.614  26.505  31.635  1.00  0.00     0.031 C 
ATOM     36  C   UNL A   1      43.898  27.921  33.540  1.00  0.00     0.037 A 
BRANCH  23  37
ATOM     37  C   UNL A   1      39.518  31.872  35.424  1.00  0.00     0.064 A 
ATOM     38  C   UNL A   1      39.915  33.210  35.575  1.00  0.00     0.173 A 
ATOM     39  C   UNL A   1      38.589  31.353  36.335  1.00  0.00     0.173 A 
ATOM     40  F   UNL A   1      40.818  33.744  34.739  1.00  0.00    -0.203 F 
ATOM     41  C   UNL A   1      39.423  33.989  36.619  1.00  0.00     0.198 A 
ATOM     42  C   UNL A   1      38.083  32.142  37.366  1.00  0.00     0.198 A 
ATOM     43  F   UNL A   1      38.182  30.080  36.235  1.00  0.00    -0.203 F 
ATOM     44  F   UNL A   1      39.856  35.248  36.774  1.00  0.00    -0.200 F 
ATOM     45  C   UNL A   1      38.506  33.455  37.512  1.00  0.00     0.200 A 
ATOM     46  F   UNL A   1      37.197  31.627  38.228  1.00  0.00    -0.200 F 
ATOM     47  F   UNL A   1      38.041  34.202  38.522  1.00  0.00    -0.200 F 
ENDBRANCH  23  37
BRANCH  24  48
ATOM     48  C   UNL A   1      42.726  26.115  27.872  1.00  0.00     0.064 A 
ATOM     49  C   UNL A   1      42.285  24.793  27.722  1.00  0.00     0.173 A 
ATOM     50  C   UNL A   1      43.652  26.599  26.936  1.00  0.00     0.173 A 
ATOM     51  F   UNL A   1      41.406  24.278  28.595  1.00  0.00    -0.203 F 
ATOM     52  C   UNL A   1      42.771  23.981  26.699  1.00  0.00     0.198 A 
ATOM     53  C   UNL A   1      44.117  25.797  25.896  1.00  0.00     0.198 A 
ATOM     54  F   UNL A   1      44.094  27.863  27.022  1.00  0.00    -0.203 F 
ATOM     55  F   UNL A   1      42.365  22.707  26.606  1.00  0.00    -0.200 F 
ATOM     56  C   UNL A   1      43.684  24.484  25.784  1.00  0.00     0.200 A 
ATOM     57  F   UNL A   1      44.979  26.298  25.001  1.00  0.00    -0.200 F 
ATOM     58  F   UNL A   1      44.147  23.707  24.797  1.00  0.00    -0.200 F 
ENDBRANCH  24  48
BRANCH  36  59
ATOM     59  C   UNL A   1      45.087  27.405  34.296  1.00  0.00     0.064 A 
ATOM     60  C   UNL A   1      46.322  28.068  34.261  1.00  0.00     0.173 A 
ATOM     61  C   UNL A   1      44.980  26.248  35.082  1.00  0.00     0.173 A 
ATOM     62  F   UNL A   1      46.476  29.167  33.507  1.00  0.00    -0.203 F 
ATOM     63  C   UNL A   1      47.417  27.575  34.965  1.00  0.00     0.198 A 
ATOM     64  C   UNL A   1      46.069  25.774  35.806  1.00  0.00     0.198 A 
ATOM     65  F   UNL A   1      43.818  25.581  35.149  1.00  0.00    -0.203 F 
ATOM     66  F   UNL A   1      48.601  28.197  34.878  1.00  0.00    -0.200 F 
ATOM     67  C   UNL A   1      47.288  26.433  35.741  1.00  0.00     0.200 A 
ATOM     68  F   UNL A   1      45.941  24.674  36.561  1.00  0.00    -0.200 F 
ATOM     69  F   UNL A   1      48.342  25.961  36.420  1.00  0.00    -0.200 F 
ENDBRANCH  36  59
ENDBRANCH  10  11
ENDBRANCH   3   5
ENDBRANCH   2   3
ENDBRANCH   1   2
BRANCH   1  70
ATOM     70  C   UNL A   1      33.970  34.778  27.803  1.00  0.00     0.275 C 
BRANCH  70  71
ATOM     71  O   UNL A   1      34.490  35.246  29.051  1.00  0.00    -0.458 OA
BRANCH  71  72
ATOM     72  C   UNL A   1      33.559  35.641  29.975  1.00  0.00     0.349 C 
ATOM     73  O   UNL A   1      32.478  36.150  29.709  1.00  0.00    -0.245 OA
BRANCH  72  74
ATOM     74  C   UNL A   1      33.993  35.216  31.283  1.00  0.00     0.127 A 
ATOM     75  S   UNL A   1      34.481  33.586  31.492  1.00  0.00    -0.136 S 
ATOM     76  C   UNL A   1      34.158  35.934  32.447  1.00  0.00     0.050 A 
ATOM     77  C   UNL A   1      35.080  33.897  33.063  1.00  0.00     0.067 A 
ATOM     78  C   UNL A   1      34.819  35.188  33.468  1.00  0.00     0.029 A 
BRANCH  76  79
ATOM     79  S   UNL A   1      33.628  37.574  32.695  1.00  0.00    -0.020 S 
ATOM     80  O   UNL A   1      32.094  37.113  32.820  1.00  0.00    -0.768 OA
ATOM     81  O   UNL A   1      34.028  37.953  34.087  1.00  0.00    -0.269 OA
ENDBRANCH  76  79
ENDBRANCH  72  74
ENDBRANCH  71  72
ENDBRANCH  70  71
ENDBRANCH   1  70
TORSDOF 12
ENDMDL
MODEL 2
REMARK VINA RESULT:     -10.6      0.089      1.692
REMARK SMILES O=C(OCCOC(=O)c1sccc1[S@](=O)[O-])c1ccc(-c2c3nc(c(-c4c(F)c(F)c(F)c(F)c4F)c4ccc([nH]4)c(-c4c(F)c(F)c(F)c(F)c4F)c4nc(c(-c5c(F)c(F)c(F)c(F)c5F)c5ccc2[nH]5)C=C4)C=C3)cc1
REMARK SMILES IDX 4 1 3 2 2 3 1 4 17 5 18 6 79 7 19 8 78 9 20 10 21 11 22 12
REMARK SMILES IDX 72 13 23 14 77 15 71 16 73 17 24 18 76 19 70 20 69 21 25 23
REMARK SMILES IDX 57 24 37 25 56 26 38 27 41 28 55 29 74 30 39 31 40 32 54 34
REMARK SMILES IDX 75 35 42 36 26 37 27 38 35 39 28 40 29 41 33 42 36 43 30 44
REMARK SMILES IDX 31 45 34 46 32 47 58 48 59 49 67 50 60 51 61 52 65 53 68 54
REMARK SMILES IDX 62 55 63 56 66 57 64 58 43 59 44 60 52 61 45 62 46 63 50 64
REMARK SMILES IDX 53 65 47 66 48 67 51 68 49 69 5 70 6 71 7 72 8 73 9 74 10 75
REMARK SMILES IDX 13 76 11 77 12 78 14 79 16 80 15 81
REMARK H PARENT 73 22 41 33
REMARK Flexibility Score: inf
ROOT
ATOM      1  C   UNL A   1      33.019  33.647  27.999  1.00  0.00     0.275 C 
ENDROOT
BRANCH   1   2
ATOM      2  O   UNL A   1      33.173  32.581  27.045  1.00  0.00    -0.458 OA
BRANCH   2   3
ATOM      3  C   UNL A   1      33.531  31.291  27.240  1.00  0.00     0.338 C 
ATOM      4  O   UNL A   1      32.713  30.409  26.970  1.00  0.00    -0.246 OA
BRANCH   3   5
ATOM      5  C   UNL A   1      34.813  30.848  27.882  1.00  0.00     0.060 A 
ATOM      6  C   UNL A   1      35.080  29.588  28.418  1.00  0.00     0.016 A 
ATOM      7  C   UNL A   1      35.819  31.832  28.003  1.00  0.00     0.016 A 
ATOM      8  C   UNL A   1      36.304  29.314  29.041  1.00  0.00     0.010 A 
ATOM      9  C   UNL A   1      37.051  31.560  28.609  1.00  0.00     0.010 A 
ATOM     10  C   UNL A   1      37.295  30.296  29.144  1.00  0.00    -0.014 A 
BRANCH  10  11
ATOM     11  C   UNL A   1      38.551  29.973  29.861  1.00  0.00     0.031 A 
ATOM     12  C   UNL A   1      38.788  30.533  31.227  1.00  0.00     0.074 A 
ATOM     13  C   UNL A   1      39.423  29.104  29.322  1.00  0.00     0.049 A 
ATOM     14  N   UNL A   1      39.740  30.248  32.077  1.00  0.00    -0.248 NA
ATOM     15  C   UNL A   1      37.825  31.535  31.705  1.00  0.00     0.031 C 
ATOM     16  C   UNL A   1      39.281  28.518  27.996  1.00  0.00     0.029 A 
ATOM     17  N   UNL A   1      40.579  28.551  29.804  1.00  0.00    -0.354 N 
ATOM     18  C   UNL A   1      39.466  31.002  33.208  1.00  0.00     0.074 A 
ATOM     19  C   UNL A   1      38.296  31.801  32.914  1.00  0.00     0.031 C 
ATOM     20  C   UNL A   1      40.296  27.671  27.767  1.00  0.00     0.029 A 
ATOM     21  C   UNL A   1      41.175  27.669  28.933  1.00  0.00     0.049 A 
ATOM     22  H   UNL A   1      40.950  28.764  30.691  1.00  0.00     0.167 HD
ATOM     23  C   UNL A   1      40.123  31.005  34.391  1.00  0.00     0.037 A 
ATOM     24  C   UNL A   1      42.302  26.946  29.066  1.00  0.00     0.037 A 
ATOM     25  C   UNL A   1      41.320  30.251  34.651  1.00  0.00     0.049 A 
ATOM     26  C   UNL A   1      43.057  27.031  30.366  1.00  0.00     0.074 A 
ATOM     27  C   UNL A   1      42.101  30.229  35.792  1.00  0.00     0.029 A 
ATOM     28  N   UNL A   1      41.918  29.392  33.739  1.00  0.00    -0.354 N 
ATOM     29  N   UNL A   1      42.765  27.716  31.445  1.00  0.00    -0.248 NA
ATOM     30  C   UNL A   1      44.287  26.236  30.473  1.00  0.00     0.031 C 
ATOM     31  C   UNL A   1      43.190  29.381  35.557  1.00  0.00     0.029 A 
ATOM     32  C   UNL A   1      43.066  28.843  34.286  1.00  0.00     0.049 A 
ATOM     33  H   UNL A   1      41.576  29.200  32.837  1.00  0.00     0.167 HD
ATOM     34  C   UNL A   1      43.761  27.425  32.364  1.00  0.00     0.074 A 
ATOM     35  C   UNL A   1      44.653  26.480  31.724  1.00  0.00     0.031 C 
ATOM     36  C   UNL A   1      43.931  27.901  33.622  1.00  0.00     0.037 A 
BRANCH  23  37
ATOM     37  C   UNL A   1      39.548  31.864  35.475  1.00  0.00     0.064 A 
ATOM     38  C   UNL A   1      38.600  31.353  36.376  1.00  0.00     0.173 A 
ATOM     39  C   UNL A   1      39.922  33.208  35.604  1.00  0.00     0.173 A 
ATOM     40  F   UNL A   1      38.194  30.079  36.278  1.00  0.00    -0.203 F 
ATOM     41  C   UNL A   1      38.027  32.167  37.350  1.00  0.00     0.198 A 
ATOM     42  C   UNL A   1      39.363  34.014  36.593  1.00  0.00     0.198 A 
ATOM     43  F   UNL A   1      40.821  33.743  34.765  1.00  0.00    -0.203 F 
ATOM     44  F   UNL A   1      37.087  31.671  38.166  1.00  0.00    -0.200 F 
ATOM     45  C   UNL A   1      38.411  33.496  37.459  1.00  0.00     0.200 A 
ATOM     46  F   UNL A   1      39.734  35.296  36.699  1.00  0.00    -0.200 F 
ATOM     47  F   UNL A   1      37.852  34.280  38.390  1.00  0.00    -0.200 F 
ENDBRANCH  23  37
BRANCH  24  48
ATOM     48  C   UNL A   1      42.785  26.087  27.951  1.00  0.00     0.064 A 
ATOM     49  C   UNL A   1      43.656  26.580  26.970  1.00  0.00     0.173 A 
ATOM     50  C   UNL A   1      42.367  24.752  27.835  1.00  0.00     0.173 A 
ATOM     51  F   UNL A   1      44.079  27.851  27.030  1.00  0.00    -0.203 F 
ATOM     52  C   UNL A   1      44.068  25.783  25.903  1.00  0.00     0.198 A 
ATOM     53  C   UNL A   1      42.801  23.946  26.784  1.00  0.00     0.198 A 
ATOM     54  F   UNL A   1      41.548  24.223  28.756  1.00  0.00    -0.203 F 
ATOM     55  F   UNL A   1      44.866  26.295  24.956  1.00  0.00    -0.200 F 
ATOM     56  C   UNL A   1      43.643  24.465  25.813  1.00  0.00     0.200 A 
ATOM     57  F   UNL A   1      42.407  22.668  26.717  1.00  0.00    -0.200 F 
ATOM     58  F   UNL A   1      44.043  23.698  24.791  1.00  0.00    -0.200 F 
ENDBRANCH  24  48
BRANCH  36  59
ATOM     59  C   UNL A   1      45.114  27.384  34.385  1.00  0.00     0.064 A 
ATOM     60  C   UNL A   1      46.345  28.056  34.372  1.00  0.00     0.173 A 
ATOM     61  C   UNL A   1      45.007  26.216  35.156  1.00  0.00     0.173 A 
ATOM     62  F   UNL A   1      46.499  29.165  33.635  1.00  0.00    -0.203 F 
ATOM     63  C   UNL A   1      47.434  27.562  35.083  1.00  0.00     0.198 A 
ATOM     64  C   UNL A   1      46.091  25.741  35.886  1.00  0.00     0.198 A 
ATOM     65  F   UNL A   1      43.848  25.540  35.200  1.00  0.00    -0.203 F 
ATOM     66  F   UNL A   1      48.615  28.193  35.018  1.00  0.00    -0.200 F 
ATOM     67  C   UNL A   1      47.305  26.410  35.843  1.00  0.00     0.200 A 
ATOM     68  F   UNL A   1      45.962  24.631  36.626  1.00  0.00    -0.200 F 
ATOM     69  F   UNL A   1      48.355  25.936  36.528  1.00  0.00    -0.200 F 
ENDBRANCH  36  59
ENDBRANCH  10  11
ENDBRANCH   3   5
ENDBRANCH   2   3
ENDBRANCH   1   2
BRANCH   1  70
ATOM     70  C   UNL A   1      34.022  34.781  27.801  1.00  0.00     0.275 C 
BRANCH  70  71
ATOM     71  O   UNL A   1      34.526  35.265  29.050  1.00  0.00    -0.458 OA
BRANCH  71  72
ATOM     72  C   UNL A   1      33.584  35.647  29.967  1.00  0.00     0.349 C 
ATOM     73  O   UNL A   1      32.501  36.147  29.693  1.00  0.00    -0.245 OA
BRANCH  72  74
ATOM     74  C   UNL A   1      34.010  35.220  31.277  1.00  0.00     0.127 A 
ATOM     75  S   UNL A   1      34.495  33.590  31.487  1.00  0.00    -0.136 S 
ATOM     76  C   UNL A   1      34.169  35.937  32.443  1.00  0.00     0.050 A 
ATOM     77  C   UNL A   1      35.086  33.898  33.062  1.00  0.00     0.067 A 
ATOM     78  C   UNL A   1      34.823  35.189  33.466  1.00  0.00     0.029 A 
BRANCH  76  79
ATOM     79  S   UNL A   1      33.640  37.577  32.689  1.00  0.00    -0.020 S 
ATOM     80  O   UNL A   1      32.104  37.118  32.800  1.00  0.00    -0.768 OA
ATOM     81  O   UNL A   1      34.028  37.953  34.085  1.00  0.00    -0.269 OA
ENDBRANCH  76  79
ENDBRANCH  72  74
ENDBRANCH  71  72
ENDBRANCH  70  71
ENDBRANCH   1  70
TORSDOF 12
ENDMDL
MODEL 3
REMARK VINA RESULT:     -10.6      6.556     12.331
REMARK SMILES O=C(OCCOC(=O)c1sccc1[S@](=O)[O-])c1ccc(-c2c3nc(c(-c4c(F)c(F)c(F)c(F)c4F)c4ccc([nH]4)c(-c4c(F)c(F)c(F)c(F)c4F)c4nc(c(-c5c(F)c(F)c(F)c(F)c5F)c5ccc2[nH]5)C=C4)C=C3)cc1
REMARK SMILES IDX 4 1 3 2 2 3 1 4 17 5 18 6 79 7 19 8 78 9 20 10 21 11 22 12
REMARK SMILES IDX 72 13 23 14 77 15 71 16 73 17 24 18 76 19 70 20 69 21 25 23
REMARK SMILES IDX 57 24 37 25 56 26 38 27 41 28 55 29 74 30 39 31 40 32 54 34
REMARK SMILES IDX 75 35 42 36 26 37 27 38 35 39 28 40 29 41 33 42 36 43 30 44
REMARK SMILES IDX 31 45 34 46 32 47 58 48 59 49 67 50 60 51 61 52 65 53 68 54
REMARK SMILES IDX 62 55 63 56 66 57 64 58 43 59 44 60 52 61 45 62 46 63 50 64
REMARK SMILES IDX 53 65 47 66 48 67 51 68 49 69 5 70 6 71 7 72 8 73 9 74 10 75
REMARK SMILES IDX 13 76 11 77 12 78 14 79 16 80 15 81
REMARK H PARENT 73 22 41 33
REMARK Flexibility Score: inf
ROOT
ATOM      1  C   UNL A   1      39.865  19.559  25.691  1.00  0.00     0.275 C 
ENDROOT
BRANCH   1   2
ATOM      2  O   UNL A   1      39.339  20.620  26.511  1.00  0.00    -0.458 OA
BRANCH   2   3
ATOM      3  C   UNL A   1      38.880  21.841  26.155  1.00  0.00     0.338 C 
ATOM      4  O   UNL A   1      38.009  21.908  25.285  1.00  0.00    -0.246 OA
BRANCH   3   5
ATOM      5  C   UNL A   1      39.441  23.142  26.650  1.00  0.00     0.060 A 
ATOM      6  C   UNL A   1      39.140  24.413  26.162  1.00  0.00     0.016 A 
ATOM      7  C   UNL A   1      40.412  23.050  27.671  1.00  0.00     0.016 A 
ATOM      8  C   UNL A   1      39.774  25.551  26.677  1.00  0.00     0.010 A 
ATOM      9  C   UNL A   1      41.036  24.185  28.203  1.00  0.00     0.010 A 
ATOM     10  C   UNL A   1      40.726  25.447  27.696  1.00  0.00    -0.014 A 
BRANCH  10  11
ATOM     11  C   UNL A   1      41.408  26.675  28.168  1.00  0.00     0.031 A 
ATOM     12  C   UNL A   1      42.852  26.890  27.845  1.00  0.00     0.074 A 
ATOM     13  C   UNL A   1      40.703  27.629  28.799  1.00  0.00     0.049 A 
ATOM     14  N   UNL A   1      43.583  27.958  28.028  1.00  0.00    -0.248 NA
ATOM     15  C   UNL A   1      43.564  25.763  27.225  1.00  0.00     0.031 C 
ATOM     16  C   UNL A   1      39.299  27.503  29.165  1.00  0.00     0.029 A 
ATOM     17  N   UNL A   1      41.044  28.883  29.232  1.00  0.00    -0.354 N 
ATOM     18  C   UNL A   1      44.830  27.648  27.506  1.00  0.00     0.074 A 
ATOM     19  C   UNL A   1      44.774  26.274  27.055  1.00  0.00     0.031 C 
ATOM     20  C   UNL A   1      38.882  28.636  29.752  1.00  0.00     0.029 A 
ATOM     21  C   UNL A   1      40.006  29.566  29.818  1.00  0.00     0.049 A 
ATOM     22  H   UNL A   1      41.949  29.259  29.132  1.00  0.00     0.167 HD
ATOM     23  C   UNL A   1      45.913  28.451  27.395  1.00  0.00     0.037 A 
ATOM     24  C   UNL A   1      39.971  30.803  30.348  1.00  0.00     0.037 A 
ATOM     25  C   UNL A   1      45.977  29.796  27.900  1.00  0.00     0.049 A 
ATOM     26  C   UNL A   1      41.216  31.646  30.282  1.00  0.00     0.074 A 
ATOM     27  C   UNL A   1      47.044  30.675  27.898  1.00  0.00     0.029 A 
ATOM     28  N   UNL A   1      44.920  30.450  28.519  1.00  0.00    -0.354 N 
ATOM     29  N   UNL A   1      42.378  31.356  29.748  1.00  0.00    -0.248 NA
ATOM     30  C   UNL A   1      41.145  32.985  30.878  1.00  0.00     0.031 C 
ATOM     31  C   UNL A   1      46.641  31.851  28.544  1.00  0.00     0.029 A 
ATOM     32  C   UNL A   1      45.312  31.719  28.913  1.00  0.00     0.049 A 
ATOM     33  H   UNL A   1      44.023  30.070  28.656  1.00  0.00     0.167 HD
ATOM     34  C   UNL A   1      43.172  32.480  29.926  1.00  0.00     0.074 A 
ATOM     35  C   UNL A   1      42.349  33.466  30.597  1.00  0.00     0.031 C 
ATOM     36  C   UNL A   1      44.466  32.678  29.576  1.00  0.00     0.037 A 
BRANCH  23  37
ATOM     37  C   UNL A   1      47.110  27.871  26.704  1.00  0.00     0.064 A 
ATOM     38  C   UNL A   1      47.258  27.967  25.311  1.00  0.00     0.173 A 
ATOM     39  C   UNL A   1      48.101  27.195  27.428  1.00  0.00     0.173 A 
ATOM     40  F   UNL A   1      46.324  28.585  24.575  1.00  0.00    -0.203 F 
ATOM     41  C   UNL A   1      48.344  27.381  24.665  1.00  0.00     0.198 A 
ATOM     42  C   UNL A   1      49.198  26.629  26.780  1.00  0.00     0.198 A 
ATOM     43  F   UNL A   1      48.003  27.074  28.760  1.00  0.00    -0.203 F 
ATOM     44  F   UNL A   1      48.438  27.441  23.330  1.00  0.00    -0.200 F 
ATOM     45  C   UNL A   1      49.313  26.715  25.401  1.00  0.00     0.200 A 
ATOM     46  F   UNL A   1      50.134  25.987  27.490  1.00  0.00    -0.200 F 
ATOM     47  F   UNL A   1      50.352  26.144  24.777  1.00  0.00    -0.200 F 
ENDBRANCH  23  37
BRANCH  24  48
ATOM     48  C   UNL A   1      38.727  31.318  30.983  1.00  0.00     0.064 A 
ATOM     49  C   UNL A   1      37.740  31.972  30.234  1.00  0.00     0.173 A 
ATOM     50  C   UNL A   1      38.509  31.180  32.362  1.00  0.00     0.173 A 
ATOM     51  F   UNL A   1      37.902  32.138  28.913  1.00  0.00    -0.203 F 
ATOM     52  C   UNL A   1      36.598  32.493  30.842  1.00  0.00     0.198 A 
ATOM     53  C   UNL A   1      37.355  31.675  32.966  1.00  0.00     0.198 A 
ATOM     54  F   UNL A   1      39.413  30.546  33.124  1.00  0.00    -0.203 F 
ATOM     55  F   UNL A   1      35.692  33.153  30.108  1.00  0.00    -0.200 F 
ATOM     56  C   UNL A   1      36.404  32.341  32.207  1.00  0.00     0.200 A 
ATOM     57  F   UNL A   1      37.162  31.502  34.280  1.00  0.00    -0.200 F 
ATOM     58  F   UNL A   1      35.305  32.836  32.791  1.00  0.00    -0.200 F 
ENDBRANCH  24  48
BRANCH  36  59
ATOM     59  C   UNL A   1      45.053  34.021  29.896  1.00  0.00     0.064 A 
ATOM     60  C   UNL A   1      45.700  34.265  31.117  1.00  0.00     0.173 A 
ATOM     61  C   UNL A   1      44.987  35.066  28.963  1.00  0.00     0.173 A 
ATOM     62  F   UNL A   1      45.770  33.302  32.048  1.00  0.00    -0.203 F 
ATOM     63  C   UNL A   1      46.238  35.517  31.401  1.00  0.00     0.198 A 
ATOM     64  C   UNL A   1      45.549  36.307  29.240  1.00  0.00     0.198 A 
ATOM     65  F   UNL A   1      44.380  34.879  27.781  1.00  0.00    -0.203 F 
ATOM     66  F   UNL A   1      46.808  35.744  32.592  1.00  0.00    -0.200 F 
ATOM     67  C   UNL A   1      46.167  36.534  30.461  1.00  0.00     0.200 A 
ATOM     68  F   UNL A   1      45.487  37.287  28.328  1.00  0.00    -0.200 F 
ATOM     69  F   UNL A   1      46.686  37.739  30.736  1.00  0.00    -0.200 F 
ENDBRANCH  36  59
ENDBRANCH  10  11
ENDBRANCH   3   5
ENDBRANCH   2   3
ENDBRANCH   1   2
BRANCH   1  70
ATOM     70  C   UNL A   1      41.263  19.111  26.111  1.00  0.00     0.275 C 
BRANCH  70  71
ATOM     71  O   UNL A   1      42.281  19.824  25.404  1.00  0.00    -0.458 OA
BRANCH  71  72
ATOM     72  C   UNL A   1      42.935  20.795  26.116  1.00  0.00     0.349 C 
ATOM     73  O   UNL A   1      42.725  21.063  27.292  1.00  0.00    -0.245 OA
BRANCH  72  74
ATOM     74  C   UNL A   1      44.002  21.327  25.306  1.00  0.00     0.127 A 
ATOM     75  S   UNL A   1      43.850  22.925  24.702  1.00  0.00    -0.136 S 
ATOM     76  C   UNL A   1      45.219  20.782  24.959  1.00  0.00     0.050 A 
ATOM     77  C   UNL A   1      45.469  22.942  24.152  1.00  0.00     0.067 A 
ATOM     78  C   UNL A   1      46.085  21.722  24.324  1.00  0.00     0.029 A 
BRANCH  76  79
ATOM     79  S   UNL A   1      45.691  19.130  25.238  1.00  0.00    -0.020 S 
ATOM     80  O   UNL A   1      45.373  18.729  23.715  1.00  0.00    -0.768 OA
ATOM     81  O   UNL A   1      47.185  19.116  25.334  1.00  0.00    -0.269 OA
ENDBRANCH  76  79
ENDBRANCH  72  74
ENDBRANCH  71  72
ENDBRANCH  70  71
ENDBRANCH   1  70
TORSDOF 12
ENDMDL
