MODEL 1
REMARK VINA RESULT:     -11.5      0.000      0.000
REMARK SMILES C/C=C/C(=O)N[C@@H](Cc1ccc(F)cc1)C(=O)OCCOC(=O)c1ccc(-c2c3nc(c(-c4c(F)c(F)c(F)c(F)c4F)c4ccc([nH]4)c(-c4c(F)c(F)c(F)c(F)c4F)c4nc(c(-c5c(F)c(F)c(F)c(F)c5F)c5ccc2[nH]5)C=C4)C=C3)cc1
REMARK SMILES IDX 19 1 18 2 16 3 17 4 7 5 6 6 4 7 5 8 3 10 1 11 2 12 8 13 9 14
REMARK SMILES IDX 10 15 15 16 11 17 14 18 12 19 13 20 20 21 21 22 22 23 23 24
REMARK SMILES IDX 24 25 25 26 86 27 26 28 85 29 27 30 28 31 29 32 79 33 30 34
REMARK SMILES IDX 84 35 78 36 80 37 31 38 83 39 77 40 76 41 32 43 64 44 44 45
REMARK SMILES IDX 63 46 45 47 48 48 62 49 81 50 46 51 47 52 61 54 82 55 49 56
REMARK SMILES IDX 33 57 34 58 42 59 35 60 36 61 40 62 43 63 37 64 38 65 41 66
REMARK SMILES IDX 39 67 65 68 66 69 74 70 67 71 68 72 72 73 75 74 69 75 70 76
REMARK SMILES IDX 73 77 71 78 50 79 51 80 59 81 52 82 53 83 57 84 60 85 54 86
REMARK SMILES IDX 55 87 58 88 56 89
REMARK H PARENT 6 9 80 42 48 53
REMARK Flexibility Score: inf
ROOT
ATOM      1  C   UNL A   1      31.463  29.316  25.269  1.00  0.00     0.274 C 
ENDROOT
BRANCH   1   2
ATOM      2  O   UNL A   1      32.356  28.343  25.844  1.00  0.00    -0.461 OA
BRANCH   2   3
ATOM      3  C   UNL A   1      31.791  27.429  26.681  1.00  0.00     0.329 C 
ATOM      4  O   UNL A   1      31.166  27.705  27.700  1.00  0.00    -0.250 OA
BRANCH   3   5
ATOM      5  C   UNL A   1      32.085  25.977  26.270  1.00  0.00     0.196 C 
BRANCH   5   6
ATOM      6  N   UNL A   1      31.034  25.011  26.615  1.00  0.00    -0.339 N 
ATOM      7  C   UNL A   1      31.101  23.718  27.021  1.00  0.00     0.244 C 
ATOM      8  O   UNL A   1      30.082  23.123  27.357  1.00  0.00    -0.270 OA
ATOM      9  H   UNL A   1      30.118  25.365  26.537  1.00  0.00     0.164 HD
BRANCH   7  10
ATOM     10  C   UNL A   1      32.407  23.030  27.131  1.00  0.00     0.066 C 
ATOM     11  C   UNL A   1      34.092  21.275  26.562  1.00  0.00     0.036 C 
ATOM     12  C   UNL A   1      32.773  21.961  26.407  1.00  0.00    -0.025 C 
ENDBRANCH   7  10
ENDBRANCH   5   6
BRANCH   5  13
ATOM     13  C   UNL A   1      32.417  25.929  24.765  1.00  0.00     0.072 C 
BRANCH  13  14
ATOM     14  C   UNL A   1      33.556  24.996  24.408  1.00  0.00    -0.045 A 
ATOM     15  C   UNL A   1      34.733  24.991  25.172  1.00  0.00     0.007 A 
ATOM     16  C   UNL A   1      33.438  24.107  23.326  1.00  0.00     0.007 A 
ATOM     17  C   UNL A   1      35.770  24.110  24.863  1.00  0.00     0.039 A 
ATOM     18  C   UNL A   1      34.474  23.222  23.026  1.00  0.00     0.039 A 
ATOM     19  C   UNL A   1      35.630  23.231  23.796  1.00  0.00     0.123 A 
ATOM     20  F   UNL A   1      36.623  22.380  23.506  1.00  0.00    -0.207 F 
ENDBRANCH  13  14
ENDBRANCH   5  13
ENDBRANCH   3   5
ENDBRANCH   2   3
ENDBRANCH   1   2
BRANCH   1  21
ATOM     21  C   UNL A   1      31.671  30.701  25.883  1.00  0.00     0.275 C 
BRANCH  21  22
ATOM     22  O   UNL A   1      32.479  30.618  27.070  1.00  0.00    -0.458 OA
BRANCH  22  23
ATOM     23  C   UNL A   1      33.217  31.725  27.314  1.00  0.00     0.338 C 
ATOM     24  O   UNL A   1      32.849  32.886  27.304  1.00  0.00    -0.246 OA
BRANCH  23  25
ATOM     25  C   UNL A   1      34.564  31.345  27.754  1.00  0.00     0.060 A 
ATOM     26  C   UNL A   1      34.779  29.997  28.041  1.00  0.00     0.016 A 
ATOM     27  C   UNL A   1      35.538  32.300  28.046  1.00  0.00     0.016 A 
ATOM     28  C   UNL A   1      35.945  29.599  28.681  1.00  0.00     0.010 A 
ATOM     29  C   UNL A   1      36.721  31.896  28.679  1.00  0.00     0.010 A 
ATOM     30  C   UNL A   1      36.910  30.549  29.037  1.00  0.00    -0.014 A 
BRANCH  30  31
ATOM     31  C   UNL A   1      38.042  30.125  29.896  1.00  0.00     0.031 A 
ATOM     32  C   UNL A   1      39.138  29.279  29.310  1.00  0.00     0.074 A 
ATOM     33  C   UNL A   1      38.153  30.589  31.153  1.00  0.00     0.049 A 
ATOM     34  N   UNL A   1      40.210  28.796  29.886  1.00  0.00    -0.248 NA
ATOM     35  C   UNL A   1      39.020  28.939  27.883  1.00  0.00     0.031 C 
ATOM     36  C   UNL A   1      37.199  31.483  31.808  1.00  0.00     0.029 A 
ATOM     37  N   UNL A   1      39.136  30.399  32.091  1.00  0.00    -0.354 N 
ATOM     38  C   UNL A   1      40.876  28.076  28.904  1.00  0.00     0.074 A 
ATOM     39  C   UNL A   1      40.093  28.185  27.692  1.00  0.00     0.031 C 
ATOM     40  C   UNL A   1      37.663  31.796  33.029  1.00  0.00     0.029 A 
ATOM     41  C   UNL A   1      38.925  31.094  33.256  1.00  0.00     0.049 A 
ATOM     42  H   UNL A   1      39.918  29.819  31.943  1.00  0.00     0.167 HD
ATOM     43  C   UNL A   1      42.036  27.385  29.005  1.00  0.00     0.037 A 
ATOM     44  C   UNL A   1      39.666  31.154  34.378  1.00  0.00     0.037 A 
ATOM     45  C   UNL A   1      42.828  27.290  30.200  1.00  0.00     0.049 A 
ATOM     46  C   UNL A   1      40.941  30.363  34.471  1.00  0.00     0.074 A 
ATOM     47  C   UNL A   1      43.978  26.550  30.421  1.00  0.00     0.029 A 
ATOM     48  N   UNL A   1      42.562  27.977  31.374  1.00  0.00    -0.354 N 
ATOM     49  N   UNL A   1      41.512  29.610  33.565  1.00  0.00    -0.248 NA
ATOM     50  C   UNL A   1      41.665  30.419  35.749  1.00  0.00     0.031 C 
ATOM     51  C   UNL A   1      44.402  26.785  31.733  1.00  0.00     0.029 A 
ATOM     52  C   UNL A   1      43.531  27.688  32.319  1.00  0.00     0.049 A 
ATOM     53  H   UNL A   1      41.797  28.581  31.513  1.00  0.00     0.167 HD
ATOM     54  C   UNL A   1      42.661  29.105  34.158  1.00  0.00     0.074 A 
ATOM     55  C   UNL A   1      42.720  29.656  35.495  1.00  0.00     0.031 C 
ATOM     56  C   UNL A   1      43.578  28.252  33.642  1.00  0.00     0.037 A 
BRANCH  43  57
ATOM     57  C   UNL A   1      42.502  26.648  27.789  1.00  0.00     0.064 A 
ATOM     58  C   UNL A   1      42.068  25.337  27.546  1.00  0.00     0.173 A 
ATOM     59  C   UNL A   1      43.405  27.224  26.883  1.00  0.00     0.173 A 
ATOM     60  F   UNL A   1      41.205  24.745  28.385  1.00  0.00    -0.203 F 
ATOM     61  C   UNL A   1      42.526  24.625  26.442  1.00  0.00     0.198 A 
ATOM     62  C   UNL A   1      43.848  26.516  25.770  1.00  0.00     0.198 A 
ATOM     63  F   UNL A   1      43.832  28.483  27.068  1.00  0.00    -0.203 F 
ATOM     64  F   UNL A   1      42.109  23.369  26.235  1.00  0.00    -0.200 F 
ATOM     65  C   UNL A   1      43.413  25.216  25.554  1.00  0.00     0.200 A 
ATOM     66  F   UNL A   1      44.689  27.092  24.902  1.00  0.00    -0.200 F 
ATOM     67  F   UNL A   1      43.845  24.533  24.484  1.00  0.00    -0.200 F 
ENDBRANCH  43  57
BRANCH  44  68
ATOM     68  C   UNL A   1      39.221  32.007  35.507  1.00  0.00     0.064 A 
ATOM     69  C   UNL A   1      39.602  33.353  35.598  1.00  0.00     0.173 A 
ATOM     70  C   UNL A   1      38.413  31.483  36.525  1.00  0.00     0.173 A 
ATOM     71  F   UNL A   1      40.373  33.898  34.646  1.00  0.00    -0.203 F 
ATOM     72  C   UNL A   1      39.204  34.140  36.676  1.00  0.00     0.198 A 
ATOM     73  C   UNL A   1      37.999  32.277  37.592  1.00  0.00     0.198 A 
ATOM     74  F   UNL A   1      38.006  30.206  36.465  1.00  0.00    -0.203 F 
ATOM     75  F   UNL A   1      39.599  35.418  36.752  1.00  0.00    -0.200 F 
ATOM     76  C   UNL A   1      38.400  33.602  37.669  1.00  0.00     0.200 A 
ATOM     77  F   UNL A   1      37.206  31.759  38.540  1.00  0.00    -0.200 F 
ATOM     78  F   UNL A   1      38.007  34.362  38.701  1.00  0.00    -0.200 F 
ENDBRANCH  44  68
BRANCH  56  79
ATOM     79  C   UNL A   1      44.728  27.865  34.518  1.00  0.00     0.064 A 
ATOM     80  C   UNL A   1      44.643  26.742  35.352  1.00  0.00     0.173 A 
ATOM     81  C   UNL A   1      45.891  28.645  34.573  1.00  0.00     0.173 A 
ATOM     82  F   UNL A   1      43.547  25.969  35.335  1.00  0.00    -0.203 F 
ATOM     83  C   UNL A   1      45.684  26.414  36.215  1.00  0.00     0.198 A 
ATOM     84  C   UNL A   1      46.937  28.306  35.427  1.00  0.00     0.198 A 
ATOM     85  F   UNL A   1      46.020  29.722  33.783  1.00  0.00    -0.203 F 
ATOM     86  F   UNL A   1      45.580  25.344  37.015  1.00  0.00    -0.200 F 
ATOM     87  C   UNL A   1      46.831  27.195  36.250  1.00  0.00     0.200 A 
ATOM     88  F   UNL A   1      48.051  29.051  35.448  1.00  0.00    -0.200 F 
ATOM     89  F   UNL A   1      47.836  26.874  37.077  1.00  0.00    -0.200 F 
ENDBRANCH  56  79
ENDBRANCH  30  31
ENDBRANCH  23  25
ENDBRANCH  22  23
ENDBRANCH  21  22
ENDBRANCH   1  21
TORSDOF 15
ENDMDL
MODEL 2
REMARK VINA RESULT:     -11.4      4.337      6.842
REMARK SMILES C/C=C/C(=O)N[C@@H](Cc1ccc(F)cc1)C(=O)OCCOC(=O)c1ccc(-c2c3nc(c(-c4c(F)c(F)c(F)c(F)c4F)c4ccc([nH]4)c(-c4c(F)c(F)c(F)c(F)c4F)c4nc(c(-c5c(F)c(F)c(F)c(F)c5F)c5ccc2[nH]5)C=C4)C=C3)cc1
REMARK SMILES IDX 19 1 18 2 16 3 17 4 7 5 6 6 4 7 5 8 3 10 1 11 2 12 8 13 9 14
REMARK SMILES IDX 10 15 15 16 11 17 14 18 12 19 13 20 20 21 21 22 22 23 23 24
REMARK SMILES IDX 24 25 25 26 86 27 26 28 85 29 27 30 28 31 29 32 79 33 30 34
REMARK SMILES IDX 84 35 78 36 80 37 31 38 83 39 77 40 76 41 32 43 64 44 44 45
REMARK SMILES IDX 63 46 45 47 48 48 62 49 81 50 46 51 47 52 61 54 82 55 49 56
REMARK SMILES IDX 33 57 34 58 42 59 35 60 36 61 40 62 43 63 37 64 38 65 41 66
REMARK SMILES IDX 39 67 65 68 66 69 74 70 67 71 68 72 72 73 75 74 69 75 70 76
REMARK SMILES IDX 73 77 71 78 50 79 51 80 59 81 52 82 53 83 57 84 60 85 54 86
REMARK SMILES IDX 55 87 58 88 56 89
REMARK H PARENT 6 9 80 42 48 53
REMARK Flexibility Score: inf
ROOT
ATOM      1  C   UNL A   1      35.972  20.137  25.001  1.00  0.00     0.274 C 
ENDROOT
BRANCH   1   2
ATOM      2  O   UNL A   1      35.282  21.285  25.534  1.00  0.00    -0.461 OA
BRANCH   2   3
ATOM      3  C   UNL A   1      33.943  21.142  25.733  1.00  0.00     0.329 C 
ATOM      4  O   UNL A   1      33.354  20.067  25.789  1.00  0.00    -0.250 OA
BRANCH   3   5
ATOM      5  C   UNL A   1      33.199  22.486  25.800  1.00  0.00     0.196 C 
BRANCH   5   6
ATOM      6  N   UNL A   1      32.087  22.531  26.757  1.00  0.00    -0.339 N 
ATOM      7  C   UNL A   1      30.916  23.217  26.743  1.00  0.00     0.244 C 
ATOM      8  O   UNL A   1      30.075  23.022  27.614  1.00  0.00    -0.270 OA
ATOM      9  H   UNL A   1      32.213  21.961  27.551  1.00  0.00     0.164 HD
BRANCH   7  10
ATOM     10  C   UNL A   1      30.609  24.157  25.641  1.00  0.00     0.066 C 
ATOM     11  C   UNL A   1      30.015  26.379  24.665  1.00  0.00     0.036 C 
ATOM     12  C   UNL A   1      30.347  25.464  25.799  1.00  0.00    -0.025 C 
ENDBRANCH   7  10
ENDBRANCH   5   6
BRANCH   5  13
ATOM     13  C   UNL A   1      34.212  23.617  26.066  1.00  0.00     0.072 C 
BRANCH  13  14
ATOM     14  C   UNL A   1      33.999  24.856  25.219  1.00  0.00    -0.045 A 
ATOM     15  C   UNL A   1      33.847  24.744  23.829  1.00  0.00     0.007 A 
ATOM     16  C   UNL A   1      33.927  26.125  25.816  1.00  0.00     0.007 A 
ATOM     17  C   UNL A   1      33.619  25.880  23.051  1.00  0.00     0.039 A 
ATOM     18  C   UNL A   1      33.691  27.258  25.036  1.00  0.00     0.039 A 
ATOM     19  C   UNL A   1      33.540  27.126  23.661  1.00  0.00     0.123 A 
ATOM     20  F   UNL A   1      33.314  28.214  22.916  1.00  0.00    -0.207 F 
ENDBRANCH  13  14
ENDBRANCH   5  13
ENDBRANCH   3   5
ENDBRANCH   2   3
ENDBRANCH   1   2
BRANCH   1  21
ATOM     21  C   UNL A   1      37.455  20.431  24.772  1.00  0.00     0.275 C 
BRANCH  21  22
ATOM     22  O   UNL A   1      37.909  21.484  25.641  1.00  0.00    -0.458 OA
BRANCH  22  23
ATOM     23  C   UNL A   1      39.165  21.310  26.110  1.00  0.00     0.338 C 
ATOM     24  O   UNL A   1      39.923  20.381  25.891  1.00  0.00    -0.246 OA
BRANCH  23  25
ATOM     25  C   UNL A   1      39.597  22.502  26.848  1.00  0.00     0.060 A 
ATOM     26  C   UNL A   1      38.979  23.708  26.518  1.00  0.00     0.016 A 
ATOM     27  C   UNL A   1      40.693  22.475  27.711  1.00  0.00     0.016 A 
ATOM     28  C   UNL A   1      39.491  24.906  26.998  1.00  0.00     0.010 A 
ATOM     29  C   UNL A   1      41.200  23.683  28.207  1.00  0.00     0.010 A 
ATOM     30  C   UNL A   1      40.627  24.906  27.818  1.00  0.00    -0.014 A 
BRANCH  30  31
ATOM     31  C   UNL A   1      41.266  26.204  28.145  1.00  0.00     0.031 A 
ATOM     32  C   UNL A   1      42.656  26.489  27.646  1.00  0.00     0.074 A 
ATOM     33  C   UNL A   1      40.570  27.165  28.776  1.00  0.00     0.049 A 
ATOM     34  N   UNL A   1      43.398  27.553  27.823  1.00  0.00    -0.248 NA
ATOM     35  C   UNL A   1      43.293  25.443  26.831  1.00  0.00     0.031 C 
ATOM     36  C   UNL A   1      39.188  27.040  29.236  1.00  0.00     0.029 A 
ATOM     37  N   UNL A   1      40.921  28.449  29.109  1.00  0.00    -0.354 N 
ATOM     38  C   UNL A   1      44.593  27.294  27.167  1.00  0.00     0.074 A 
ATOM     39  C   UNL A   1      44.482  25.975  26.585  1.00  0.00     0.031 C 
ATOM     40  C   UNL A   1      38.794  28.215  29.756  1.00  0.00     0.029 A 
ATOM     41  C   UNL A   1      39.908  29.159  29.703  1.00  0.00     0.049 A 
ATOM     42  H   UNL A   1      41.816  28.825  28.938  1.00  0.00     0.167 HD
ATOM     43  C   UNL A   1      45.686  28.087  27.063  1.00  0.00     0.037 A 
ATOM     44  C   UNL A   1      39.884  30.427  30.153  1.00  0.00     0.037 A 
ATOM     45  C   UNL A   1      45.795  29.406  27.622  1.00  0.00     0.049 A 
ATOM     46  C   UNL A   1      41.117  31.280  30.041  1.00  0.00     0.074 A 
ATOM     47  C   UNL A   1      46.890  30.254  27.635  1.00  0.00     0.029 A 
ATOM     48  N   UNL A   1      44.759  30.078  28.252  1.00  0.00    -0.354 N 
ATOM     49  N   UNL A   1      42.274  30.990  29.501  1.00  0.00    -0.248 NA
ATOM     50  C   UNL A   1      41.044  32.632  30.615  1.00  0.00     0.031 C 
ATOM     51  C   UNL A   1      46.517  31.438  28.280  1.00  0.00     0.029 A 
ATOM     52  C   UNL A   1      45.185  31.335  28.647  1.00  0.00     0.049 A 
ATOM     53  H   UNL A   1      43.855  29.715  28.396  1.00  0.00     0.167 HD
ATOM     54  C   UNL A   1      43.066  32.118  29.667  1.00  0.00     0.074 A 
ATOM     55  C   UNL A   1      42.250  33.109  30.337  1.00  0.00     0.031 C 
ATOM     56  C   UNL A   1      44.357  32.310  29.305  1.00  0.00     0.037 A 
BRANCH  43  57
ATOM     57  C   UNL A   1      46.870  27.529  26.337  1.00  0.00     0.064 A 
ATOM     58  C   UNL A   1      47.883  26.862  27.041  1.00  0.00     0.173 A 
ATOM     59  C   UNL A   1      47.019  27.683  24.951  1.00  0.00     0.173 A 
ATOM     60  F   UNL A   1      47.782  26.691  28.368  1.00  0.00    -0.203 F 
ATOM     61  C   UNL A   1      49.008  26.375  26.384  1.00  0.00     0.198 A 
ATOM     62  C   UNL A   1      48.139  27.179  24.295  1.00  0.00     0.198 A 
ATOM     63  F   UNL A   1      46.066  28.299  24.236  1.00  0.00    -0.203 F 
ATOM     64  F   UNL A   1      49.971  25.752  27.079  1.00  0.00    -0.200 F 
ATOM     65  C   UNL A   1      49.134  26.532  25.012  1.00  0.00     0.200 A 
ATOM     66  F   UNL A   1      48.251  27.314  22.967  1.00  0.00    -0.200 F 
ATOM     67  F   UNL A   1      50.214  26.052  24.379  1.00  0.00    -0.200 F 
ENDBRANCH  43  57
BRANCH  44  68
ATOM     68  C   UNL A   1      38.639  30.972  30.748  1.00  0.00     0.064 A 
ATOM     69  C   UNL A   1      37.646  31.557  29.950  1.00  0.00     0.173 A 
ATOM     70  C   UNL A   1      38.428  30.928  32.132  1.00  0.00     0.173 A 
ATOM     71  F   UNL A   1      37.805  31.620  28.619  1.00  0.00    -0.203 F 
ATOM     72  C   UNL A   1      36.493  32.092  30.517  1.00  0.00     0.198 A 
ATOM     73  C   UNL A   1      37.264  31.446  32.696  1.00  0.00     0.198 A 
ATOM     74  F   UNL A   1      39.342  30.357  32.930  1.00  0.00    -0.203 F 
ATOM     75  F   UNL A   1      35.567  32.664  29.736  1.00  0.00    -0.200 F 
ATOM     76  C   UNL A   1      36.301  32.032  31.889  1.00  0.00     0.200 A 
ATOM     77  F   UNL A   1      37.074  31.369  34.020  1.00  0.00    -0.200 F 
ATOM     78  F   UNL A   1      35.186  32.537  32.435  1.00  0.00    -0.200 F 
ENDBRANCH  44  68
BRANCH  56  79
ATOM     79  C   UNL A   1      44.969  33.640  29.617  1.00  0.00     0.064 A 
ATOM     80  C   UNL A   1      44.924  34.682  28.681  1.00  0.00     0.173 A 
ATOM     81  C   UNL A   1      45.651  33.859  30.822  1.00  0.00     0.173 A 
ATOM     82  F   UNL A   1      44.284  34.515  27.514  1.00  0.00    -0.203 F 
ATOM     83  C   UNL A   1      45.546  35.900  28.940  1.00  0.00     0.198 A 
ATOM     84  C   UNL A   1      46.260  35.084  31.084  1.00  0.00     0.198 A 
ATOM     85  F   UNL A   1      45.709  32.893  31.750  1.00  0.00    -0.203 F 
ATOM     86  F   UNL A   1      45.503  36.881  28.027  1.00  0.00    -0.200 F 
ATOM     87  C   UNL A   1      46.211  36.100  30.141  1.00  0.00     0.200 A 
ATOM     88  F   UNL A   1      46.887  35.282  32.251  1.00  0.00    -0.200 F 
ATOM     89  F   UNL A   1      46.803  37.276  30.392  1.00  0.00    -0.200 F 
ENDBRANCH  56  79
ENDBRANCH  30  31
ENDBRANCH  23  25
ENDBRANCH  22  23
ENDBRANCH  21  22
ENDBRANCH   1  21
TORSDOF 15
ENDMDL
MODEL 3
REMARK VINA RESULT:     -11.4      0.572      7.537
REMARK SMILES C/C=C/C(=O)N[C@@H](Cc1ccc(F)cc1)C(=O)OCCOC(=O)c1ccc(-c2c3nc(c(-c4c(F)c(F)c(F)c(F)c4F)c4ccc([nH]4)c(-c4c(F)c(F)c(F)c(F)c4F)c4nc(c(-c5c(F)c(F)c(F)c(F)c5F)c5ccc2[nH]5)C=C4)C=C3)cc1
REMARK SMILES IDX 19 1 18 2 16 3 17 4 7 5 6 6 4 7 5 8 3 10 1 11 2 12 8 13 9 14
REMARK SMILES IDX 10 15 15 16 11 17 14 18 12 19 13 20 20 21 21 22 22 23 23 24
REMARK SMILES IDX 24 25 25 26 86 27 26 28 85 29 27 30 28 31 29 32 79 33 30 34
REMARK SMILES IDX 84 35 78 36 80 37 31 38 83 39 77 40 76 41 32 43 64 44 44 45
REMARK SMILES IDX 63 46 45 47 48 48 62 49 81 50 46 51 47 52 61 54 82 55 49 56
REMARK SMILES IDX 33 57 34 58 42 59 35 60 36 61 40 62 43 63 37 64 38 65 41 66
REMARK SMILES IDX 39 67 65 68 66 69 74 70 67 71 68 72 72 73 75 74 69 75 70 76
REMARK SMILES IDX 73 77 71 78 50 79 51 80 59 81 52 82 53 83 57 84 60 85 54 86
REMARK SMILES IDX 55 87 58 88 56 89
REMARK H PARENT 6 9 80 42 48 53
REMARK Flexibility Score: inf
ROOT
ATOM      1  C   UNL A   1      31.502  29.441  25.389  1.00  0.00     0.274 C 
ENDROOT
BRANCH   1   2
ATOM      2  O   UNL A   1      32.368  28.447  25.972  1.00  0.00    -0.461 OA
BRANCH   2   3
ATOM      3  C   UNL A   1      31.774  27.540  26.795  1.00  0.00     0.329 C 
ATOM      4  O   UNL A   1      31.155  27.823  27.817  1.00  0.00    -0.250 OA
BRANCH   3   5
ATOM      5  C   UNL A   1      32.024  26.086  26.367  1.00  0.00     0.196 C 
BRANCH   5   6
ATOM      6  N   UNL A   1      30.934  25.152  26.678  1.00  0.00    -0.339 N 
ATOM      7  C   UNL A   1      30.930  23.810  26.879  1.00  0.00     0.244 C 
ATOM      8  O   UNL A   1      29.903  23.241  27.234  1.00  0.00    -0.270 OA
ATOM      9  H   UNL A   1      30.048  25.576  26.756  1.00  0.00     0.164 HD
BRANCH   7  10
ATOM     10  C   UNL A   1      32.178  23.025  26.741  1.00  0.00     0.066 C 
ATOM     11  C   UNL A   1      34.174  21.786  27.591  1.00  0.00     0.036 C 
ATOM     12  C   UNL A   1      32.903  22.553  27.767  1.00  0.00    -0.025 C 
ENDBRANCH   7  10
ENDBRANCH   5   6
BRANCH   5  13
ATOM     13  C   UNL A   1      32.379  26.048  24.867  1.00  0.00     0.072 C 
BRANCH  13  14
ATOM     14  C   UNL A   1      33.468  25.057  24.509  1.00  0.00    -0.045 A 
ATOM     15  C   UNL A   1      33.334  24.238  23.378  1.00  0.00     0.007 A 
ATOM     16  C   UNL A   1      34.634  24.965  25.287  1.00  0.00     0.007 A 
ATOM     17  C   UNL A   1      34.350  23.347  23.029  1.00  0.00     0.039 A 
ATOM     18  C   UNL A   1      35.651  24.079  24.930  1.00  0.00     0.039 A 
ATOM     19  C   UNL A   1      35.500  23.278  23.805  1.00  0.00     0.123 A 
ATOM     20  F   UNL A   1      36.478  22.429  23.464  1.00  0.00    -0.207 F 
ENDBRANCH  13  14
ENDBRANCH   5  13
ENDBRANCH   3   5
ENDBRANCH   2   3
ENDBRANCH   1   2
BRANCH   1  21
ATOM     21  C   UNL A   1      31.815  30.839  25.923  1.00  0.00     0.275 C 
BRANCH  21  22
ATOM     22  O   UNL A   1      32.499  30.765  27.187  1.00  0.00    -0.458 OA
BRANCH  22  23
ATOM     23  C   UNL A   1      33.232  31.861  27.484  1.00  0.00     0.338 C 
ATOM     24  O   UNL A   1      32.841  33.006  27.620  1.00  0.00    -0.246 OA
BRANCH  23  25
ATOM     25  C   UNL A   1      34.616  31.476  27.779  1.00  0.00     0.060 A 
ATOM     26  C   UNL A   1      34.863  30.121  28.001  1.00  0.00     0.016 A 
ATOM     27  C   UNL A   1      35.611  32.428  28.003  1.00  0.00     0.016 A 
ATOM     28  C   UNL A   1      36.087  29.711  28.512  1.00  0.00     0.010 A 
ATOM     29  C   UNL A   1      36.852  32.012  28.505  1.00  0.00     0.010 A 
ATOM     30  C   UNL A   1      37.079  30.657  28.801  1.00  0.00    -0.014 A 
BRANCH  30  31
ATOM     31  C   UNL A   1      38.291  30.213  29.532  1.00  0.00     0.031 A 
ATOM     32  C   UNL A   1      38.496  30.650  30.956  1.00  0.00     0.074 A 
ATOM     33  C   UNL A   1      39.138  29.332  28.972  1.00  0.00     0.049 A 
ATOM     34  N   UNL A   1      39.486  30.382  31.770  1.00  0.00    -0.248 NA
ATOM     35  C   UNL A   1      37.444  31.492  31.547  1.00  0.00     0.031 C 
ATOM     36  C   UNL A   1      39.003  28.770  27.629  1.00  0.00     0.029 A 
ATOM     37  N   UNL A   1      40.263  28.730  29.477  1.00  0.00    -0.354 N 
ATOM     38  C   UNL A   1      39.190  31.041  32.955  1.00  0.00     0.074 A 
ATOM     39  C   UNL A   1      37.928  31.721  32.760  1.00  0.00     0.031 C 
ATOM     40  C   UNL A   1      39.984  27.874  27.431  1.00  0.00     0.029 A 
ATOM     41  C   UNL A   1      40.839  27.830  28.616  1.00  0.00     0.049 A 
ATOM     42  H   UNL A   1      40.623  28.926  30.373  1.00  0.00     0.167 HD
ATOM     43  C   UNL A   1      39.908  31.076  34.103  1.00  0.00     0.037 A 
ATOM     44  C   UNL A   1      41.932  27.060  28.767  1.00  0.00     0.037 A 
ATOM     45  C   UNL A   1      41.151  30.387  34.309  1.00  0.00     0.049 A 
ATOM     46  C   UNL A   1      42.722  27.132  30.045  1.00  0.00     0.074 A 
ATOM     47  C   UNL A   1      41.991  30.425  35.410  1.00  0.00     0.029 A 
ATOM     48  N   UNL A   1      41.725  29.513  33.398  1.00  0.00    -0.354 N 
ATOM     49  N   UNL A   1      42.482  27.832  31.125  1.00  0.00    -0.248 NA
ATOM     50  C   UNL A   1      43.943  26.316  30.117  1.00  0.00     0.031 C 
ATOM     51  C   UNL A   1      43.077  29.578  35.160  1.00  0.00     0.029 A 
ATOM     52  C   UNL A   1      42.900  28.997  33.916  1.00  0.00     0.049 A 
ATOM     53  H   UNL A   1      41.350  29.293  32.514  1.00  0.00     0.167 HD
ATOM     54  C   UNL A   1      43.516  27.543  32.005  1.00  0.00     0.074 A 
ATOM     55  C   UNL A   1      44.374  26.584  31.342  1.00  0.00     0.031 C 
ATOM     56  C   UNL A   1      43.738  28.038  33.246  1.00  0.00     0.037 A 
BRANCH  43  57
ATOM     57  C   UNL A   1      39.375  31.920  35.218  1.00  0.00     0.064 A 
ATOM     58  C   UNL A   1      38.560  31.353  36.208  1.00  0.00     0.173 A 
ATOM     59  C   UNL A   1      39.643  33.295  35.289  1.00  0.00     0.173 A 
ATOM     60  F   UNL A   1      38.278  30.042  36.181  1.00  0.00    -0.203 F 
ATOM     61  C   UNL A   1      38.025  32.134  37.227  1.00  0.00     0.198 A 
ATOM     62  C   UNL A   1      39.120  34.070  36.320  1.00  0.00     0.198 A 
ATOM     63  F   UNL A   1      40.433  33.875  34.373  1.00  0.00    -0.203 F 
ATOM     64  F   UNL A   1      37.237  31.575  38.156  1.00  0.00    -0.200 F 
ATOM     65  C   UNL A   1      38.307  33.491  37.284  1.00  0.00     0.200 A 
ATOM     66  F   UNL A   1      39.408  35.377  36.385  1.00  0.00    -0.200 F 
ATOM     67  F   UNL A   1      37.800  34.241  38.273  1.00  0.00    -0.200 F 
ENDBRANCH  43  57
BRANCH  44  68
ATOM     68  C   UNL A   1      42.341  26.142  27.676  1.00  0.00     0.064 A 
ATOM     69  C   UNL A   1      41.755  24.878  27.529  1.00  0.00     0.173 A 
ATOM     70  C   UNL A   1      43.340  26.513  26.765  1.00  0.00     0.173 A 
ATOM     71  F   UNL A   1      40.794  24.481  28.376  1.00  0.00    -0.203 F 
ATOM     72  C   UNL A   1      42.164  24.011  26.519  1.00  0.00     0.198 A 
ATOM     73  C   UNL A   1      43.733  25.653  25.743  1.00  0.00     0.198 A 
ATOM     74  F   UNL A   1      43.911  27.724  26.856  1.00  0.00    -0.203 F 
ATOM     75  F   UNL A   1      41.603  22.799  26.411  1.00  0.00    -0.200 F 
ATOM     76  C   UNL A   1      43.150  24.401  25.625  1.00  0.00     0.200 A 
ATOM     77  F   UNL A   1      44.672  26.041  24.870  1.00  0.00    -0.200 F 
ATOM     78  F   UNL A   1      43.536  23.571  24.646  1.00  0.00    -0.200 F 
ENDBRANCH  44  68
BRANCH  56  79
ATOM     79  C   UNL A   1      44.950  27.549  33.975  1.00  0.00     0.064 A 
ATOM     80  C   UNL A   1      46.179  28.206  33.835  1.00  0.00     0.173 A 
ATOM     81  C   UNL A   1      44.901  26.393  34.766  1.00  0.00     0.173 A 
ATOM     82  F   UNL A   1      46.272  29.315  33.085  1.00  0.00    -0.203 F 
ATOM     83  C   UNL A   1      47.323  27.719  34.460  1.00  0.00     0.198 A 
ATOM     84  C   UNL A   1      46.045  25.917  35.402  1.00  0.00     0.198 A 
ATOM     85  F   UNL A   1      43.743  25.739  34.936  1.00  0.00    -0.203 F 
ATOM     86  F   UNL A   1      48.494  28.354  34.304  1.00  0.00    -0.200 F 
ATOM     87  C   UNL A   1      47.255  26.577  35.245  1.00  0.00     0.200 A 
ATOM     88  F   UNL A   1      45.974  24.823  36.173  1.00  0.00    -0.200 F 
ATOM     89  F   UNL A   1      48.356  26.113  35.852  1.00  0.00    -0.200 F 
ENDBRANCH  56  79
ENDBRANCH  30  31
ENDBRANCH  23  25
ENDBRANCH  22  23
ENDBRANCH  21  22
ENDBRANCH   1  21
TORSDOF 15
ENDMDL
