MODEL 1
REMARK VINA RESULT:     -12.8      0.000      0.000
REMARK SMILES CC(C)(C)OC(=O)N1CCN(c2nc3ccccc3s2)[C@H](C(=O)OCCOC(=O)c2ccc(-c3c4nc(c(-c5c(F)c(F)c(F)c(F)c5F)c5ccc([nH]5)c(-c5c(F)c(F)c(F)c(F)c5F)c5nc(c(-c6c(F)c(F)c(F)c(F)c6F)c6ccc3[nH]6)C=C5)C=C4)cc2)C1
REMARK SMILES IDX 25 1 24 2 22 3 23 4 21 5 8 6 9 7 93 8 10 9 11 10 6 11 7 12
REMARK SMILES IDX 5 13 2 14 1 15 3 16 4 17 12 18 13 19 20 20 14 21 19 22 15 23
REMARK SMILES IDX 18 24 16 25 17 26 26 27 27 28 28 29 29 30 30 31 31 32 92 33
REMARK SMILES IDX 32 34 91 35 33 36 34 37 35 38 85 39 36 40 90 41 84 42 86 43
REMARK SMILES IDX 37 44 89 45 83 46 82 47 38 49 70 50 50 51 69 52 51 53 54 54
REMARK SMILES IDX 68 55 87 56 52 57 53 58 67 60 88 61 55 62 39 63 40 64 48 65
REMARK SMILES IDX 41 66 42 67 46 68 49 69 43 70 44 71 47 72 45 73 71 74 72 75
REMARK SMILES IDX 80 76 73 77 74 78 78 79 81 80 75 81 76 82 79 83 77 84 56 85
REMARK SMILES IDX 57 86 65 87 58 88 59 89 63 90 66 91 60 92 61 93 64 94 62 95
REMARK H PARENT 86 48 54 59
REMARK Flexibility Score: inf
ROOT
ATOM      1  C   UNL A   1      31.910  28.417  27.513  1.00  0.00     0.274 C 
ENDROOT
BRANCH   1   2
ATOM      2  O   UNL A   1      31.478  27.371  26.613  1.00  0.00    -0.460 OA
BRANCH   2   3
ATOM      3  C   UNL A   1      32.506  26.704  26.012  1.00  0.00     0.330 C 
ATOM      4  O   UNL A   1      33.647  27.153  25.979  1.00  0.00    -0.250 OA
BRANCH   3   5
ATOM      5  C   UNL A   1      32.070  25.348  25.407  1.00  0.00     0.214 C 
ATOM      6  N   UNL A   1      33.265  23.204  24.571  1.00  0.00    -0.304 N 
ATOM      7  C   UNL A   1      32.686  23.423  23.247  1.00  0.00     0.144 C 
ATOM      8  C   UNL A   1      33.244  24.326  25.539  1.00  0.00     0.160 C 
ATOM      9  C   UNL A   1      31.383  24.206  23.316  1.00  0.00     0.141 C 
ATOM     10  N   UNL A   1      31.660  25.482  23.971  1.00  0.00    -0.331 N 
BRANCH   6  11
ATOM     11  C   UNL A   1      34.118  22.120  24.694  1.00  0.00     0.410 C 
ATOM     12  O   UNL A   1      33.872  21.023  24.209  1.00  0.00    -0.224 OA
BRANCH  11  13
ATOM     13  O   UNL A   1      35.219  22.401  25.435  1.00  0.00    -0.444 OA
BRANCH  13  14
ATOM     14  C   UNL A   1      36.508  22.558  24.782  1.00  0.00     0.106 C 
ATOM     15  C   UNL A   1      37.181  21.185  24.919  1.00  0.00     0.056 C 
ATOM     16  C   UNL A   1      37.359  23.607  25.506  1.00  0.00     0.056 C 
ATOM     17  C   UNL A   1      36.376  22.874  23.283  1.00  0.00     0.056 C 
ENDBRANCH  13  14
ENDBRANCH  11  13
ENDBRANCH   6  11
BRANCH  10  18
ATOM     18  C   UNL A   1      30.864  26.518  23.601  1.00  0.00     0.187 A 
ATOM     19  N   UNL A   1      31.279  27.582  22.957  1.00  0.00    -0.220 NA
ATOM     20  S   UNL A   1      29.196  26.531  24.049  1.00  0.00    -0.097 S 
ATOM     21  C   UNL A   1      30.207  28.424  22.698  1.00  0.00     0.084 A 
ATOM     22  C   UNL A   1      28.966  27.971  23.146  1.00  0.00     0.056 A 
ATOM     23  C   UNL A   1      30.265  29.659  22.021  1.00  0.00     0.030 A 
ATOM     24  C   UNL A   1      27.773  28.661  22.874  1.00  0.00     0.021 A 
ATOM     25  C   UNL A   1      29.087  30.370  21.766  1.00  0.00     0.002 A 
ATOM     26  C   UNL A   1      27.855  29.864  22.170  1.00  0.00     0.002 A 
ENDBRANCH  10  18
ENDBRANCH   3   5
ENDBRANCH   2   3
ENDBRANCH   1   2
BRANCH   1  27
ATOM     27  C   UNL A   1      31.751  29.832  26.942  1.00  0.00     0.275 C 
BRANCH  27  28
ATOM     28  O   UNL A   1      32.984  30.384  26.441  1.00  0.00    -0.458 OA
BRANCH  28  29
ATOM     29  C   UNL A   1      33.507  31.370  27.201  1.00  0.00     0.338 C 
ATOM     30  O   UNL A   1      32.938  32.377  27.593  1.00  0.00    -0.246 OA
BRANCH  29  31
ATOM     31  C   UNL A   1      34.885  31.064  27.615  1.00  0.00     0.060 A 
ATOM     32  C   UNL A   1      35.202  29.747  27.941  1.00  0.00     0.016 A 
ATOM     33  C   UNL A   1      35.773  32.094  27.926  1.00  0.00     0.016 A 
ATOM     34  C   UNL A   1      36.343  29.463  28.680  1.00  0.00     0.010 A 
ATOM     35  C   UNL A   1      36.974  31.791  28.581  1.00  0.00     0.010 A 
ATOM     36  C   UNL A   1      37.253  30.477  29.000  1.00  0.00    -0.014 A 
BRANCH  36  37
ATOM     37  C   UNL A   1      38.467  30.151  29.796  1.00  0.00     0.031 A 
ATOM     38  C   UNL A   1      39.529  29.246  29.232  1.00  0.00     0.074 A 
ATOM     39  C   UNL A   1      38.633  30.690  31.021  1.00  0.00     0.049 A 
ATOM     40  N   UNL A   1      40.561  28.708  29.830  1.00  0.00    -0.248 NA
ATOM     41  C   UNL A   1      39.408  28.888  27.809  1.00  0.00     0.031 C 
ATOM     42  C   UNL A   1      37.707  31.622  31.668  1.00  0.00     0.029 A 
ATOM     43  N   UNL A   1      39.640  30.534  31.942  1.00  0.00    -0.354 N 
ATOM     44  C   UNL A   1      41.172  27.898  28.880  1.00  0.00     0.074 A 
ATOM     45  C   UNL A   1      40.403  28.024  27.660  1.00  0.00     0.031 C 
ATOM     46  C   UNL A   1      38.199  31.975  32.864  1.00  0.00     0.029 A 
ATOM     47  C   UNL A   1      39.424  31.224  33.109  1.00  0.00     0.049 A 
ATOM     48  H   UNL A   1      40.438  29.982  31.780  1.00  0.00     0.167 HD
ATOM     49  C   UNL A   1      42.270  27.118  29.023  1.00  0.00     0.037 A 
ATOM     50  C   UNL A   1      40.103  31.214  34.272  1.00  0.00     0.037 A 
ATOM     51  C   UNL A   1      43.075  27.060  30.216  1.00  0.00     0.049 A 
ATOM     52  C   UNL A   1      41.314  30.334  34.404  1.00  0.00     0.074 A 
ATOM     53  C   UNL A   1      44.234  26.336  30.441  1.00  0.00     0.029 A 
ATOM     54  N   UNL A   1      42.814  27.766  31.381  1.00  0.00    -0.354 N 
ATOM     55  N   UNL A   1      41.857  29.540  33.515  1.00  0.00    -0.248 NA
ATOM     56  C   UNL A   1      41.995  30.337  35.705  1.00  0.00     0.031 C 
ATOM     57  C   UNL A   1      44.650  26.571  31.755  1.00  0.00     0.029 A 
ATOM     58  C   UNL A   1      43.778  27.478  32.334  1.00  0.00     0.049 A 
ATOM     59  H   UNL A   1      42.056  28.380  31.511  1.00  0.00     0.167 HD
ATOM     60  C   UNL A   1      42.947  28.956  34.143  1.00  0.00     0.074 A 
ATOM     61  C   UNL A   1      43.003  29.506  35.482  1.00  0.00     0.031 C 
ATOM     62  C   UNL A   1      43.819  28.039  33.659  1.00  0.00     0.037 A 
BRANCH  49  63
ATOM     63  C   UNL A   1      42.656  26.227  27.878  1.00  0.00     0.064 A 
ATOM     64  C   UNL A   1      42.075  24.967  27.681  1.00  0.00     0.173 A 
ATOM     65  C   UNL A   1      43.577  26.682  26.920  1.00  0.00     0.173 A 
ATOM     66  F   UNL A   1      41.197  24.481  28.571  1.00  0.00    -0.203 F 
ATOM     67  C   UNL A   1      42.412  24.188  26.576  1.00  0.00     0.198 A 
ATOM     68  C   UNL A   1      43.892  25.913  25.803  1.00  0.00     0.198 A 
ATOM     69  F   UNL A   1      44.156  27.884  27.058  1.00  0.00    -0.203 F 
ATOM     70  F   UNL A   1      41.869  22.973  26.423  1.00  0.00    -0.200 F 
ATOM     71  C   UNL A   1      43.313  24.666  25.634  1.00  0.00     0.200 A 
ATOM     72  F   UNL A   1      44.752  26.383  24.888  1.00  0.00    -0.200 F 
ATOM     73  F   UNL A   1      43.624  23.921  24.563  1.00  0.00    -0.200 F 
ENDBRANCH  49  63
BRANCH  50  74
ATOM     74  C   UNL A   1      39.610  32.016  35.422  1.00  0.00     0.064 A 
ATOM     75  C   UNL A   1      40.077  33.316  35.655  1.00  0.00     0.173 A 
ATOM     76  C   UNL A   1      38.661  31.494  36.315  1.00  0.00     0.173 A 
ATOM     77  F   UNL A   1      41.004  33.849  34.846  1.00  0.00    -0.203 F 
ATOM     78  C   UNL A   1      39.625  34.057  36.745  1.00  0.00     0.198 A 
ATOM     79  C   UNL A   1      38.184  32.248  37.384  1.00  0.00     0.198 A 
ATOM     80  F   UNL A   1      38.181  30.254  36.138  1.00  0.00    -0.203 F 
ATOM     81  F   UNL A   1      40.123  35.280  36.974  1.00  0.00    -0.200 F 
ATOM     82  C   UNL A   1      38.673  33.526  37.603  1.00  0.00     0.200 A 
ATOM     83  F   UNL A   1      37.252  31.737  38.200  1.00  0.00    -0.200 F 
ATOM     84  F   UNL A   1      38.234  34.243  38.646  1.00  0.00    -0.200 F 
ENDBRANCH  50  74
BRANCH  62  85
ATOM     85  C   UNL A   1      44.921  27.598  34.574  1.00  0.00     0.064 A 
ATOM     86  C   UNL A   1      44.781  26.476  35.403  1.00  0.00     0.173 A 
ATOM     87  C   UNL A   1      46.141  28.291  34.603  1.00  0.00     0.173 A 
ATOM     88  F   UNL A   1      43.628  25.792  35.424  1.00  0.00    -0.203 F 
ATOM     89  C   UNL A   1      45.815  26.079  36.247  1.00  0.00     0.198 A 
ATOM     90  C   UNL A   1      47.181  27.875  35.428  1.00  0.00     0.198 A 
ATOM     91  F   UNL A   1      46.326  29.369  33.824  1.00  0.00    -0.203 F 
ATOM     92  F   UNL A   1      45.642  25.032  37.067  1.00  0.00    -0.200 F 
ATOM     93  C   UNL A   1      47.014  26.774  36.254  1.00  0.00     0.200 A 
ATOM     94  F   UNL A   1      48.344  28.541  35.426  1.00  0.00    -0.200 F 
ATOM     95  F   UNL A   1      48.008  26.388  37.066  1.00  0.00    -0.200 F 
ENDBRANCH  62  85
ENDBRANCH  36  37
ENDBRANCH  29  31
ENDBRANCH  28  29
ENDBRANCH  27  28
ENDBRANCH   1  27
TORSDOF 15
ENDMDL
MODEL 2
REMARK VINA RESULT:     -12.8      4.162      9.712
REMARK SMILES CC(C)(C)OC(=O)N1CCN(c2nc3ccccc3s2)[C@H](C(=O)OCCOC(=O)c2ccc(-c3c4nc(c(-c5c(F)c(F)c(F)c(F)c5F)c5ccc([nH]5)c(-c5c(F)c(F)c(F)c(F)c5F)c5nc(c(-c6c(F)c(F)c(F)c(F)c6F)c6ccc3[nH]6)C=C5)C=C4)cc2)C1
REMARK SMILES IDX 25 1 24 2 22 3 23 4 21 5 8 6 9 7 93 8 10 9 11 10 6 11 7 12
REMARK SMILES IDX 5 13 2 14 1 15 3 16 4 17 12 18 13 19 20 20 14 21 19 22 15 23
REMARK SMILES IDX 18 24 16 25 17 26 26 27 27 28 28 29 29 30 30 31 31 32 92 33
REMARK SMILES IDX 32 34 91 35 33 36 34 37 35 38 85 39 36 40 90 41 84 42 86 43
REMARK SMILES IDX 37 44 89 45 83 46 82 47 38 49 70 50 50 51 69 52 51 53 54 54
REMARK SMILES IDX 68 55 87 56 52 57 53 58 67 60 88 61 55 62 39 63 40 64 48 65
REMARK SMILES IDX 41 66 42 67 46 68 49 69 43 70 44 71 47 72 45 73 71 74 72 75
REMARK SMILES IDX 80 76 73 77 74 78 78 79 81 80 75 81 76 82 79 83 77 84 56 85
REMARK SMILES IDX 57 86 65 87 58 88 59 89 63 90 66 91 60 92 61 93 64 94 62 95
REMARK H PARENT 86 48 54 59
REMARK Flexibility Score: inf
ROOT
ATOM      1  C   UNL A   1      36.569  23.055  23.629  1.00  0.00     0.274 C 
ENDROOT
BRANCH   1   2
ATOM      2  O   UNL A   1      35.303  23.489  24.175  1.00  0.00    -0.460 OA
BRANCH   2   3
ATOM      3  C   UNL A   1      34.286  23.497  23.265  1.00  0.00     0.330 C 
ATOM      4  O   UNL A   1      34.479  23.326  22.066  1.00  0.00    -0.250 OA
BRANCH   3   5
ATOM      5  C   UNL A   1      32.900  23.730  23.914  1.00  0.00     0.214 C 
ATOM      6  N   UNL A   1      31.904  25.369  25.658  1.00  0.00    -0.304 N 
ATOM      7  C   UNL A   1      31.563  24.228  26.505  1.00  0.00     0.144 C 
ATOM      8  C   UNL A   1      32.863  25.157  24.549  1.00  0.00     0.160 C 
ATOM      9  C   UNL A   1      31.357  22.956  25.695  1.00  0.00     0.141 C 
ATOM     10  N   UNL A   1      32.587  22.693  24.952  1.00  0.00    -0.331 N 
BRANCH   6  11
ATOM     11  C   UNL A   1      31.618  26.622  26.174  1.00  0.00     0.410 C 
ATOM     12  O   UNL A   1      31.239  26.794  27.326  1.00  0.00    -0.224 OA
BRANCH  11  13
ATOM     13  O   UNL A   1      31.765  27.612  25.260  1.00  0.00    -0.444 OA
BRANCH  13  14
ATOM     14  C   UNL A   1      32.694  28.700  25.516  1.00  0.00     0.106 C 
ATOM     15  C   UNL A   1      33.222  29.093  24.130  1.00  0.00     0.056 C 
ATOM     16  C   UNL A   1      33.865  28.222  26.382  1.00  0.00     0.056 C 
ATOM     17  C   UNL A   1      32.006  29.932  26.128  1.00  0.00     0.056 C 
ENDBRANCH  13  14
ENDBRANCH  11  13
ENDBRANCH   6  11
BRANCH  10  18
ATOM     18  C   UNL A   1      32.845  21.387  24.686  1.00  0.00     0.187 A 
ATOM     19  N   UNL A   1      32.247  20.686  23.753  1.00  0.00    -0.220 NA
ATOM     20  S   UNL A   1      33.971  20.511  25.658  1.00  0.00    -0.097 S 
ATOM     21  C   UNL A   1      32.773  19.402  23.718  1.00  0.00     0.084 A 
ATOM     22  C   UNL A   1      33.793  19.147  24.635  1.00  0.00     0.056 A 
ATOM     23  C   UNL A   1      32.382  18.368  22.844  1.00  0.00     0.030 A 
ATOM     24  C   UNL A   1      34.493  17.929  24.657  1.00  0.00     0.021 A 
ATOM     25  C   UNL A   1      33.054  17.141  22.873  1.00  0.00     0.002 A 
ATOM     26  C   UNL A   1      34.111  16.934  23.755  1.00  0.00     0.002 A 
ENDBRANCH  10  18
ENDBRANCH   3   5
ENDBRANCH   2   3
ENDBRANCH   1   2
BRANCH   1  27
ATOM     27  C   UNL A   1      37.108  21.764  24.261  1.00  0.00     0.275 C 
BRANCH  27  28
ATOM     28  O   UNL A   1      37.386  21.896  25.668  1.00  0.00    -0.458 OA
BRANCH  28  29
ATOM     29  C   UNL A   1      38.680  21.700  26.005  1.00  0.00     0.338 C 
ATOM     30  O   UNL A   1      39.379  20.743  25.710  1.00  0.00    -0.246 OA
BRANCH  29  31
ATOM     31  C   UNL A   1      39.234  22.853  26.731  1.00  0.00     0.060 A 
ATOM     32  C   UNL A   1      38.749  24.123  26.425  1.00  0.00     0.016 A 
ATOM     33  C   UNL A   1      40.387  22.713  27.503  1.00  0.00     0.016 A 
ATOM     34  C   UNL A   1      39.470  25.254  26.785  1.00  0.00     0.010 A 
ATOM     35  C   UNL A   1      41.056  23.859  27.954  1.00  0.00     0.010 A 
ATOM     36  C   UNL A   1      40.626  25.141  27.565  1.00  0.00    -0.014 A 
BRANCH  36  37
ATOM     37  C   UNL A   1      41.386  26.366  27.936  1.00  0.00     0.031 A 
ATOM     38  C   UNL A   1      40.737  27.444  28.761  1.00  0.00     0.074 A 
ATOM     39  C   UNL A   1      42.671  26.501  27.554  1.00  0.00     0.049 A 
ATOM     40  N   UNL A   1      41.169  28.650  29.034  1.00  0.00    -0.248 NA
ATOM     41  C   UNL A   1      39.423  27.133  29.348  1.00  0.00     0.031 C 
ATOM     42  C   UNL A   1      43.438  25.510  26.795  1.00  0.00     0.029 A 
ATOM     43  N   UNL A   1      43.565  27.525  27.753  1.00  0.00    -0.354 N 
ATOM     44  C   UNL A   1      40.156  29.261  29.764  1.00  0.00     0.074 A 
ATOM     45  C   UNL A   1      39.091  28.290  29.903  1.00  0.00     0.031 C 
ATOM     46  C   UNL A   1      44.688  25.960  26.617  1.00  0.00     0.029 A 
ATOM     47  C   UNL A   1      44.786  27.308  27.163  1.00  0.00     0.049 A 
ATOM     48  H   UNL A   1      43.350  28.336  28.269  1.00  0.00     0.167 HD
ATOM     49  C   UNL A   1      40.123  30.519  30.262  1.00  0.00     0.037 A 
ATOM     50  C   UNL A   1      45.850  28.122  27.026  1.00  0.00     0.037 A 
ATOM     51  C   UNL A   1      41.218  31.452  30.187  1.00  0.00     0.049 A 
ATOM     52  C   UNL A   1      45.782  29.515  27.583  1.00  0.00     0.074 A 
ATOM     53  C   UNL A   1      41.297  32.734  30.705  1.00  0.00     0.029 A 
ATOM     54  N   UNL A   1      42.433  31.196  29.570  1.00  0.00    -0.354 N 
ATOM     55  N   UNL A   1      44.804  30.097  28.232  1.00  0.00    -0.248 NA
ATOM     56  C   UNL A   1      46.958  30.369  27.374  1.00  0.00     0.031 C 
ATOM     57  C   UNL A   1      42.543  33.269  30.364  1.00  0.00     0.029 A 
ATOM     58  C   UNL A   1      43.259  32.304  29.675  1.00  0.00     0.049 A 
ATOM     59  H   UNL A   1      42.673  30.352  29.123  1.00  0.00     0.167 HD
ATOM     60  C   UNL A   1      45.248  31.380  28.518  1.00  0.00     0.074 A 
ATOM     61  C   UNL A   1      46.594  31.483  27.992  1.00  0.00     0.031 C 
ATOM     62  C   UNL A   1      44.597  32.385  29.150  1.00  0.00     0.037 A 
BRANCH  49  63
ATOM     63  C   UNL A   1      38.849  30.991  30.902  1.00  0.00     0.064 A 
ATOM     64  C   UNL A   1      38.625  30.899  32.282  1.00  0.00     0.173 A 
ATOM     65  C   UNL A   1      37.864  31.612  30.117  1.00  0.00     0.173 A 
ATOM     66  F   UNL A   1      39.529  30.306  33.075  1.00  0.00    -0.203 F 
ATOM     67  C   UNL A   1      37.455  31.398  32.852  1.00  0.00     0.198 A 
ATOM     68  C   UNL A   1      36.708  32.133  30.693  1.00  0.00     0.198 A 
ATOM     69  F   UNL A   1      38.032  31.731  28.792  1.00  0.00    -0.203 F 
ATOM     70  F   UNL A   1      37.246  31.273  34.170  1.00  0.00    -0.200 F 
ATOM     71  C   UNL A   1      36.503  32.023  32.059  1.00  0.00     0.200 A 
ATOM     72  F   UNL A   1      35.797  32.748  29.925  1.00  0.00    -0.200 F 
ATOM     73  F   UNL A   1      35.386  32.516  32.612  1.00  0.00    -0.200 F 
ENDBRANCH  49  63
BRANCH  50  74
ATOM     74  C   UNL A   1      47.042  27.656  26.271  1.00  0.00     0.064 A 
ATOM     75  C   UNL A   1      47.096  27.738  24.874  1.00  0.00     0.173 A 
ATOM     76  C   UNL A   1      48.153  27.113  26.936  1.00  0.00     0.173 A 
ATOM     77  F   UNL A   1      46.048  28.224  24.191  1.00  0.00    -0.203 F 
ATOM     78  C   UNL A   1      48.208  27.283  24.169  1.00  0.00     0.198 A 
ATOM     79  C   UNL A   1      49.279  26.691  26.233  1.00  0.00     0.198 A 
ATOM     80  F   UNL A   1      48.154  27.010  28.273  1.00  0.00    -0.203 F 
ATOM     81  F   UNL A   1      48.215  27.328  22.830  1.00  0.00    -0.200 F 
ATOM     82  C   UNL A   1      49.302  26.768  24.849  1.00  0.00     0.200 A 
ATOM     83  F   UNL A   1      50.339  26.210  26.896  1.00  0.00    -0.200 F 
ATOM     84  F   UNL A   1      50.374  26.337  24.171  1.00  0.00    -0.200 F 
ENDBRANCH  50  74
BRANCH  62  85
ATOM     85  C   UNL A   1      45.345  33.672  29.331  1.00  0.00     0.064 A 
ATOM     86  C   UNL A   1      45.262  34.706  28.388  1.00  0.00     0.173 A 
ATOM     87  C   UNL A   1      46.131  33.883  30.474  1.00  0.00     0.173 A 
ATOM     88  F   UNL A   1      44.538  34.546  27.271  1.00  0.00    -0.203 F 
ATOM     89  C   UNL A   1      45.963  35.896  28.571  1.00  0.00     0.198 A 
ATOM     90  C   UNL A   1      46.807  35.083  30.666  1.00  0.00     0.198 A 
ATOM     91  F   UNL A   1      46.237  32.925  31.408  1.00  0.00    -0.203 F 
ATOM     92  F   UNL A   1      45.910  36.853  27.633  1.00  0.00    -0.200 F 
ATOM     93  C   UNL A   1      46.728  36.085  29.711  1.00  0.00     0.200 A 
ATOM     94  F   UNL A   1      47.538  35.269  31.774  1.00  0.00    -0.200 F 
ATOM     95  F   UNL A   1      47.399  37.232  29.886  1.00  0.00    -0.200 F 
ENDBRANCH  62  85
ENDBRANCH  36  37
ENDBRANCH  29  31
ENDBRANCH  28  29
ENDBRANCH  27  28
ENDBRANCH   1  27
TORSDOF 15
ENDMDL
MODEL 3
REMARK VINA RESULT:     -12.8      0.514      1.773
REMARK SMILES CC(C)(C)OC(=O)N1CCN(c2nc3ccccc3s2)[C@H](C(=O)OCCOC(=O)c2ccc(-c3c4nc(c(-c5c(F)c(F)c(F)c(F)c5F)c5ccc([nH]5)c(-c5c(F)c(F)c(F)c(F)c5F)c5nc(c(-c6c(F)c(F)c(F)c(F)c6F)c6ccc3[nH]6)C=C5)C=C4)cc2)C1
REMARK SMILES IDX 25 1 24 2 22 3 23 4 21 5 8 6 9 7 93 8 10 9 11 10 6 11 7 12
REMARK SMILES IDX 5 13 2 14 1 15 3 16 4 17 12 18 13 19 20 20 14 21 19 22 15 23
REMARK SMILES IDX 18 24 16 25 17 26 26 27 27 28 28 29 29 30 30 31 31 32 92 33
REMARK SMILES IDX 32 34 91 35 33 36 34 37 35 38 85 39 36 40 90 41 84 42 86 43
REMARK SMILES IDX 37 44 89 45 83 46 82 47 38 49 70 50 50 51 69 52 51 53 54 54
REMARK SMILES IDX 68 55 87 56 52 57 53 58 67 60 88 61 55 62 39 63 40 64 48 65
REMARK SMILES IDX 41 66 42 67 46 68 49 69 43 70 44 71 47 72 45 73 71 74 72 75
REMARK SMILES IDX 80 76 73 77 74 78 78 79 81 80 75 81 76 82 79 83 77 84 56 85
REMARK SMILES IDX 57 86 65 87 58 88 59 89 63 90 66 91 60 92 61 93 64 94 62 95
REMARK H PARENT 86 48 54 59
REMARK Flexibility Score: inf
ROOT
ATOM      1  C   UNL A   1      31.853  28.509  27.572  1.00  0.00     0.274 C 
ENDROOT
BRANCH   1   2
ATOM      2  O   UNL A   1      31.358  27.391  26.800  1.00  0.00    -0.460 OA
BRANCH   2   3
ATOM      3  C   UNL A   1      32.335  26.704  26.140  1.00  0.00     0.330 C 
ATOM      4  O   UNL A   1      33.470  27.148  26.005  1.00  0.00    -0.250 OA
BRANCH   3   5
ATOM      5  C   UNL A   1      31.851  25.331  25.610  1.00  0.00     0.214 C 
ATOM      6  N   UNL A   1      32.956  23.062  25.020  1.00  0.00    -0.304 N 
ATOM      7  C   UNL A   1      32.476  23.209  23.647  1.00  0.00     0.144 C 
ATOM      8  C   UNL A   1      32.947  24.256  25.897  1.00  0.00     0.160 C 
ATOM      9  C   UNL A   1      31.224  24.071  23.569  1.00  0.00     0.141 C 
ATOM     10  N   UNL A   1      31.541  25.376  24.144  1.00  0.00    -0.331 N 
BRANCH   6  11
ATOM     11  C   UNL A   1      33.729  21.943  25.281  1.00  0.00     0.410 C 
ATOM     12  O   UNL A   1      33.569  21.243  26.273  1.00  0.00    -0.224 OA
BRANCH  11  13
ATOM     13  O   UNL A   1      34.691  21.739  24.348  1.00  0.00    -0.444 OA
BRANCH  13  14
ATOM     14  C   UNL A   1      36.082  22.009  24.672  1.00  0.00     0.106 C 
ATOM     15  C   UNL A   1      36.653  22.667  23.408  1.00  0.00     0.056 C 
ATOM     16  C   UNL A   1      36.839  20.705  24.945  1.00  0.00     0.056 C 
ATOM     17  C   UNL A   1      36.234  23.004  25.835  1.00  0.00     0.056 C 
ENDBRANCH  13  14
ENDBRANCH  11  13
ENDBRANCH   6  11
BRANCH  10  18
ATOM     18  C   UNL A   1      30.837  26.424  23.645  1.00  0.00     0.187 A 
ATOM     19  N   UNL A   1      29.556  26.621  23.843  1.00  0.00    -0.220 NA
ATOM     20  S   UNL A   1      31.608  27.569  22.606  1.00  0.00    -0.097 S 
ATOM     21  C   UNL A   1      29.162  27.803  23.231  1.00  0.00     0.084 A 
ATOM     22  C   UNL A   1      30.172  28.507  22.576  1.00  0.00     0.056 A 
ATOM     23  C   UNL A   1      27.860  28.344  23.233  1.00  0.00     0.030 A 
ATOM     24  C   UNL A   1      29.953  29.767  21.995  1.00  0.00     0.021 A 
ATOM     25  C   UNL A   1      27.622  29.587  22.634  1.00  0.00     0.002 A 
ATOM     26  C   UNL A   1      28.663  30.297  22.042  1.00  0.00     0.002 A 
ENDBRANCH  10  18
ENDBRANCH   3   5
ENDBRANCH   2   3
ENDBRANCH   1   2
BRANCH   1  27
ATOM     27  C   UNL A   1      31.714  29.863  26.862  1.00  0.00     0.275 C 
BRANCH  27  28
ATOM     28  O   UNL A   1      32.973  30.393  26.403  1.00  0.00    -0.458 OA
BRANCH  28  29
ATOM     29  C   UNL A   1      33.488  31.370  27.182  1.00  0.00     0.338 C 
ATOM     30  O   UNL A   1      32.911  32.368  27.586  1.00  0.00    -0.246 OA
BRANCH  29  31
ATOM     31  C   UNL A   1      34.865  31.064  27.598  1.00  0.00     0.060 A 
ATOM     32  C   UNL A   1      35.182  29.746  27.922  1.00  0.00     0.016 A 
ATOM     33  C   UNL A   1      35.751  32.094  27.914  1.00  0.00     0.016 A 
ATOM     34  C   UNL A   1      36.321  29.462  28.663  1.00  0.00     0.010 A 
ATOM     35  C   UNL A   1      36.951  31.790  28.570  1.00  0.00     0.010 A 
ATOM     36  C   UNL A   1      37.230  30.476  28.987  1.00  0.00    -0.014 A 
BRANCH  36  37
ATOM     37  C   UNL A   1      38.442  30.149  29.785  1.00  0.00     0.031 A 
ATOM     38  C   UNL A   1      39.505  29.244  29.223  1.00  0.00     0.074 A 
ATOM     39  C   UNL A   1      38.606  30.688  31.010  1.00  0.00     0.049 A 
ATOM     40  N   UNL A   1      40.536  28.704  29.823  1.00  0.00    -0.248 NA
ATOM     41  C   UNL A   1      39.387  28.886  27.799  1.00  0.00     0.031 C 
ATOM     42  C   UNL A   1      37.680  31.620  31.657  1.00  0.00     0.029 A 
ATOM     43  N   UNL A   1      39.612  30.531  31.933  1.00  0.00    -0.354 N 
ATOM     44  C   UNL A   1      41.148  27.894  28.873  1.00  0.00     0.074 A 
ATOM     45  C   UNL A   1      40.381  28.021  27.652  1.00  0.00     0.031 C 
ATOM     46  C   UNL A   1      38.170  31.973  32.853  1.00  0.00     0.029 A 
ATOM     47  C   UNL A   1      39.394  31.221  33.101  1.00  0.00     0.049 A 
ATOM     48  H   UNL A   1      40.410  29.978  31.773  1.00  0.00     0.167 HD
ATOM     49  C   UNL A   1      42.246  27.115  29.018  1.00  0.00     0.037 A 
ATOM     50  C   UNL A   1      40.071  31.210  34.265  1.00  0.00     0.037 A 
ATOM     51  C   UNL A   1      43.048  27.055  30.213  1.00  0.00     0.049 A 
ATOM     52  C   UNL A   1      41.281  30.330  34.398  1.00  0.00     0.074 A 
ATOM     53  C   UNL A   1      44.207  26.331  30.439  1.00  0.00     0.029 A 
ATOM     54  N   UNL A   1      42.786  27.761  31.377  1.00  0.00    -0.354 N 
ATOM     55  N   UNL A   1      41.826  29.535  33.510  1.00  0.00    -0.248 NA
ATOM     56  C   UNL A   1      41.960  30.332  35.700  1.00  0.00     0.031 C 
ATOM     57  C   UNL A   1      44.621  26.566  31.754  1.00  0.00     0.029 A 
ATOM     58  C   UNL A   1      43.748  27.473  32.332  1.00  0.00     0.049 A 
ATOM     59  H   UNL A   1      42.027  28.376  31.506  1.00  0.00     0.167 HD
ATOM     60  C   UNL A   1      42.914  28.950  34.140  1.00  0.00     0.074 A 
ATOM     61  C   UNL A   1      42.968  29.501  35.479  1.00  0.00     0.031 C 
ATOM     62  C   UNL A   1      43.787  28.034  33.657  1.00  0.00     0.037 A 
BRANCH  49  63
ATOM     63  C   UNL A   1      42.633  26.223  27.873  1.00  0.00     0.064 A 
ATOM     64  C   UNL A   1      42.063  24.957  27.685  1.00  0.00     0.173 A 
ATOM     65  C   UNL A   1      43.543  26.684  26.908  1.00  0.00     0.173 A 
ATOM     66  F   UNL A   1      41.196  24.466  28.582  1.00  0.00    -0.203 F 
ATOM     67  C   UNL A   1      42.401  24.178  26.580  1.00  0.00     0.198 A 
ATOM     68  C   UNL A   1      43.859  25.915  25.792  1.00  0.00     0.198 A 
ATOM     69  F   UNL A   1      44.112  27.892  27.039  1.00  0.00    -0.203 F 
ATOM     70  F   UNL A   1      41.869  22.957  26.434  1.00  0.00    -0.200 F 
ATOM     71  C   UNL A   1      43.291  24.661  25.631  1.00  0.00     0.200 A 
ATOM     72  F   UNL A   1      44.708  26.390  24.870  1.00  0.00    -0.200 F 
ATOM     73  F   UNL A   1      43.603  23.916  24.560  1.00  0.00    -0.200 F 
ENDBRANCH  49  63
BRANCH  50  74
ATOM     74  C   UNL A   1      39.576  32.012  35.414  1.00  0.00     0.064 A 
ATOM     75  C   UNL A   1      38.638  31.490  36.313  1.00  0.00     0.173 A 
ATOM     76  C   UNL A   1      40.031  33.321  35.633  1.00  0.00     0.173 A 
ATOM     77  F   UNL A   1      38.152  30.253  36.131  1.00  0.00    -0.203 F 
ATOM     78  C   UNL A   1      38.162  32.251  37.378  1.00  0.00     0.198 A 
ATOM     79  C   UNL A   1      39.582  34.069  36.718  1.00  0.00     0.198 A 
ATOM     80  F   UNL A   1      40.929  33.870  34.801  1.00  0.00    -0.203 F 
ATOM     81  F   UNL A   1      37.228  31.746  38.196  1.00  0.00    -0.200 F 
ATOM     82  C   UNL A   1      38.641  33.536  37.585  1.00  0.00     0.200 A 
ATOM     83  F   UNL A   1      40.060  35.304  36.922  1.00  0.00    -0.200 F 
ATOM     84  F   UNL A   1      38.188  34.266  38.614  1.00  0.00    -0.200 F 
ENDBRANCH  50  74
BRANCH  62  85
ATOM     85  C   UNL A   1      44.887  27.592  34.574  1.00  0.00     0.064 A 
ATOM     86  C   UNL A   1      46.103  28.286  34.648  1.00  0.00     0.173 A 
ATOM     87  C   UNL A   1      44.712  26.477  35.408  1.00  0.00     0.173 A 
ATOM     88  F   UNL A   1      46.324  29.348  33.859  1.00  0.00    -0.203 F 
ATOM     89  C   UNL A   1      47.115  27.863  35.507  1.00  0.00     0.198 A 
ATOM     90  C   UNL A   1      45.716  26.073  36.283  1.00  0.00     0.198 A 
ATOM     91  F   UNL A   1      43.565  25.782  35.376  1.00  0.00    -0.203 F 
ATOM     92  F   UNL A   1      48.288  28.513  35.527  1.00  0.00    -0.200 F 
ATOM     93  C   UNL A   1      46.918  26.763  36.326  1.00  0.00     0.200 A 
ATOM     94  F   UNL A   1      45.520  25.016  37.082  1.00  0.00    -0.200 F 
ATOM     95  F   UNL A   1      47.893  26.359  37.153  1.00  0.00    -0.200 F 
ENDBRANCH  62  85
ENDBRANCH  36  37
ENDBRANCH  29  31
ENDBRANCH  28  29
ENDBRANCH  27  28
ENDBRANCH   1  27
TORSDOF 15
ENDMDL
