MODEL 1
REMARK VINA RESULT:     -11.9      0.000      0.000
REMARK SMILES Cc1ccc(C#N)cc1Nc1cc(C)c(N)c(C(=O)OCCOC(=O)c2ccc(-c3c4nc(c(-c5c(F)c(F)c(F)c(F)c5F)c5ccc([nH]5)c(-c5c(F)c(F)c(F)c(F)c5F)c5nc(c(-c6c(F)c(F)c(F)c(F)c6F)c6ccc3[nH]6)C=C5)C=C4)cc2)c1
REMARK SMILES IDX 21 1 20 2 18 3 19 4 17 5 11 6 12 7 89 8 13 9 14 10 15 11
REMARK SMILES IDX 10 12 9 14 1 15 2 16 3 17 4 18 8 19 5 20 6 21 7 22 16 23
REMARK SMILES IDX 22 26 23 27 24 28 25 29 26 30 27 31 88 32 28 33 87 34 29 35
REMARK SMILES IDX 30 36 31 37 81 38 32 39 86 40 80 41 82 42 33 43 85 44 79 45
REMARK SMILES IDX 78 46 34 48 66 49 46 50 65 51 47 52 50 53 64 54 83 55 48 56
REMARK SMILES IDX 49 57 63 59 84 60 51 61 35 62 36 63 44 64 37 65 38 66 42 67
REMARK SMILES IDX 45 68 39 69 40 70 43 71 41 72 67 73 68 74 76 75 69 76 70 77
REMARK SMILES IDX 74 78 77 79 71 80 72 81 75 82 73 83 52 84 53 85 61 86 54 87
REMARK SMILES IDX 55 88 59 89 62 90 56 91 57 92 60 93 58 94
REMARK H PARENT 10 13 16 24 16 25 82 47 50 58
REMARK Flexibility Score: inf
ROOT
ATOM      1  C   UNL A   1      31.584  29.206  24.683  1.00  0.00     0.275 C 
ENDROOT
BRANCH   1   2
ATOM      2  O   UNL A   1      31.820  27.922  25.294  1.00  0.00    -0.458 OA
BRANCH   2   3
ATOM      3  C   UNL A   1      32.099  26.887  24.459  1.00  0.00     0.340 C 
ATOM      4  O   UNL A   1      32.230  26.962  23.247  1.00  0.00    -0.246 OA
BRANCH   3   5
ATOM      5  C   UNL A   1      32.322  25.634  25.242  1.00  0.00     0.085 A 
ATOM      6  C   UNL A   1      33.817  23.879  25.993  1.00  0.00     0.040 A 
ATOM      7  C   UNL A   1      32.727  23.192  26.525  1.00  0.00     0.031 A 
ATOM      8  C   UNL A   1      33.589  25.041  25.256  1.00  0.00     0.044 A 
ATOM      9  C   UNL A   1      31.443  23.755  26.497  1.00  0.00    -0.025 A 
ATOM     10  C   UNL A   1      30.303  22.950  27.062  1.00  0.00     0.047 C 
ATOM     11  C   UNL A   1      31.278  25.065  26.009  1.00  0.00     0.049 A 
BRANCH   6  12
ATOM     12  N   UNL A   1      35.116  23.521  26.404  1.00  0.00    -0.355 N 
ATOM     13  H   UNL A   1      35.524  24.061  27.118  1.00  0.00     0.167 HD
BRANCH  12  14
ATOM     14  C   UNL A   1      35.891  22.452  25.885  1.00  0.00     0.043 A 
ATOM     15  C   UNL A   1      38.004  23.867  26.021  1.00  0.00     0.046 C 
ATOM     16  C   UNL A   1      37.289  22.571  25.752  1.00  0.00    -0.027 A 
ATOM     17  C   UNL A   1      38.038  21.478  25.272  1.00  0.00     0.007 A 
ATOM     18  C   UNL A   1      37.420  20.273  24.931  1.00  0.00     0.020 A 
ATOM     19  C   UNL A   1      35.294  21.229  25.522  1.00  0.00     0.045 A 
ATOM     20  C   UNL A   1      36.041  20.149  25.046  1.00  0.00     0.054 A 
BRANCH  20  21
ATOM     21  C   UNL A   1      35.374  18.940  24.666  1.00  0.00     0.099 C 
ATOM     22  N   UNL A   1      34.821  17.967  24.352  1.00  0.00    -0.192 NA
ENDBRANCH  20  21
ENDBRANCH  12  14
ENDBRANCH   6  12
BRANCH  11  23
ATOM     23  N   UNL A   1      30.047  25.709  26.164  1.00  0.00    -0.398 N 
ATOM     24  H   UNL A   1      29.969  26.672  25.971  1.00  0.00     0.156 HD
ATOM     25  H   UNL A   1      29.259  25.201  26.464  1.00  0.00     0.156 HD
ENDBRANCH  11  23
ENDBRANCH   3   5
ENDBRANCH   2   3
ENDBRANCH   1   2
BRANCH   1  26
ATOM     26  C   UNL A   1      31.719  30.342  25.703  1.00  0.00     0.275 C 
BRANCH  26  27
ATOM     27  O   UNL A   1      33.080  30.486  26.156  1.00  0.00    -0.458 OA
BRANCH  27  28
ATOM     28  C   UNL A   1      33.315  31.549  26.965  1.00  0.00     0.338 C 
ATOM     29  O   UNL A   1      32.571  32.489  27.186  1.00  0.00    -0.246 OA
BRANCH  28  30
ATOM     30  C   UNL A   1      34.552  31.296  27.727  1.00  0.00     0.060 A 
ATOM     31  C   UNL A   1      35.519  32.268  27.969  1.00  0.00     0.016 A 
ATOM     32  C   UNL A   1      34.729  30.007  28.219  1.00  0.00     0.016 A 
ATOM     33  C   UNL A   1      36.693  31.910  28.651  1.00  0.00     0.010 A 
ATOM     34  C   UNL A   1      35.907  29.637  28.861  1.00  0.00     0.010 A 
ATOM     35  C   UNL A   1      36.911  30.581  29.071  1.00  0.00    -0.014 A 
BRANCH  35  36
ATOM     36  C   UNL A   1      38.118  30.190  29.839  1.00  0.00     0.031 A 
ATOM     37  C   UNL A   1      38.399  30.735  31.212  1.00  0.00     0.074 A 
ATOM     38  C   UNL A   1      39.019  29.388  29.244  1.00  0.00     0.049 A 
ATOM     39  N   UNL A   1      39.359  30.410  32.044  1.00  0.00    -0.248 NA
ATOM     40  C   UNL A   1      37.508  31.793  31.709  1.00  0.00     0.031 C 
ATOM     41  C   UNL A   1      38.915  28.897  27.871  1.00  0.00     0.029 A 
ATOM     42  N   UNL A   1      40.190  28.847  29.709  1.00  0.00    -0.354 N 
ATOM     43  C   UNL A   1      39.168  31.195  33.174  1.00  0.00     0.074 A 
ATOM     44  C   UNL A   1      38.046  32.067  32.891  1.00  0.00     0.031 C 
ATOM     45  C   UNL A   1      39.954  28.087  27.619  1.00  0.00     0.029 A 
ATOM     46  C   UNL A   1      40.804  28.017  28.806  1.00  0.00     0.049 A 
ATOM     47  H   UNL A   1      40.555  29.036  30.605  1.00  0.00     0.167 HD
ATOM     48  C   UNL A   1      39.848  31.161  34.347  1.00  0.00     0.037 A 
ATOM     49  C   UNL A   1      41.913  27.264  28.925  1.00  0.00     0.037 A 
ATOM     50  C   UNL A   1      40.978  30.301  34.606  1.00  0.00     0.049 A 
ATOM     51  C   UNL A   1      42.653  27.245  30.234  1.00  0.00     0.074 A 
ATOM     52  C   UNL A   1      41.689  30.142  35.783  1.00  0.00     0.029 A 
ATOM     53  N   UNL A   1      41.574  29.470  33.668  1.00  0.00    -0.354 N 
ATOM     54  N   UNL A   1      42.380  27.880  31.348  1.00  0.00    -0.248 NA
ATOM     55  C   UNL A   1      43.847  26.393  30.307  1.00  0.00     0.031 C 
ATOM     56  C   UNL A   1      42.753  29.270  35.540  1.00  0.00     0.029 A 
ATOM     57  C   UNL A   1      42.665  28.825  34.232  1.00  0.00     0.049 A 
ATOM     58  H   UNL A   1      41.267  29.354  32.740  1.00  0.00     0.167 HD
ATOM     59  C   UNL A   1      43.351  27.489  32.260  1.00  0.00     0.074 A 
ATOM     60  C   UNL A   1      44.206  26.541  31.576  1.00  0.00     0.031 C 
ATOM     61  C   UNL A   1      43.517  27.884  33.545  1.00  0.00     0.037 A 
BRANCH  48  62
ATOM     62  C   UNL A   1      39.377  32.046  35.470  1.00  0.00     0.064 A 
ATOM     63  C   UNL A   1      38.479  31.572  36.440  1.00  0.00     0.173 A 
ATOM     64  C   UNL A   1      39.911  33.333  35.651  1.00  0.00     0.173 A 
ATOM     65  F   UNL A   1      37.942  30.348  36.321  1.00  0.00    -0.203 F 
ATOM     66  C   UNL A   1      38.123  32.354  37.535  1.00  0.00     0.198 A 
ATOM     67  C   UNL A   1      39.578  34.099  36.767  1.00  0.00     0.198 A 
ATOM     68  F   UNL A   1      40.787  33.833  34.768  1.00  0.00    -0.203 F 
ATOM     69  F   UNL A   1      37.243  31.888  38.432  1.00  0.00    -0.200 F 
ATOM     70  C   UNL A   1      38.681  33.612  37.705  1.00  0.00     0.200 A 
ATOM     71  F   UNL A   1      40.140  35.303  36.942  1.00  0.00    -0.200 F 
ATOM     72  F   UNL A   1      38.359  34.352  38.775  1.00  0.00    -0.200 F 
ENDBRANCH  48  62
BRANCH  49  73
ATOM     73  C   UNL A   1      42.333  26.406  27.787  1.00  0.00     0.064 A 
ATOM     74  C   UNL A   1      41.727  25.162  27.568  1.00  0.00     0.173 A 
ATOM     75  C   UNL A   1      43.306  26.830  26.870  1.00  0.00     0.173 A 
ATOM     76  F   UNL A   1      40.801  24.706  28.426  1.00  0.00    -0.203 F 
ATOM     77  C   UNL A   1      42.086  24.368  26.481  1.00  0.00     0.198 A 
ATOM     78  C   UNL A   1      43.639  26.051  25.765  1.00  0.00     0.198 A 
ATOM     79  F   UNL A   1      43.907  28.018  27.030  1.00  0.00    -0.203 F 
ATOM     80  F   UNL A   1      41.515  23.168  26.314  1.00  0.00    -0.200 F 
ATOM     81  C   UNL A   1      43.033  24.819  25.573  1.00  0.00     0.200 A 
ATOM     82  F   UNL A   1      44.539  26.501  24.879  1.00  0.00    -0.200 F 
ATOM     83  F   UNL A   1      43.362  24.065  24.516  1.00  0.00    -0.200 F 
ENDBRANCH  49  73
BRANCH  61  84
ATOM     84  C   UNL A   1      44.667  27.293  34.316  1.00  0.00     0.064 A 
ATOM     85  C   UNL A   1      45.911  27.939  34.390  1.00  0.00     0.173 A 
ATOM     86  C   UNL A   1      44.501  26.109  35.050  1.00  0.00     0.173 A 
ATOM     87  F   UNL A   1      46.127  29.069  33.699  1.00  0.00    -0.203 F 
ATOM     88  C   UNL A   1      46.949  27.411  35.152  1.00  0.00     0.198 A 
ATOM     89  C   UNL A   1      45.529  25.604  35.842  1.00  0.00     0.198 A 
ATOM     90  F   UNL A   1      43.330  25.454  35.023  1.00  0.00    -0.203 F 
ATOM     91  F   UNL A   1      48.141  28.023  35.172  1.00  0.00    -0.200 F 
ATOM     92  C   UNL A   1      46.754  26.251  35.887  1.00  0.00     0.200 A 
ATOM     93  F   UNL A   1      45.331  24.494  36.567  1.00  0.00    -0.200 F 
ATOM     94  F   UNL A   1      47.748  25.756  36.637  1.00  0.00    -0.200 F 
ENDBRANCH  61  84
ENDBRANCH  35  36
ENDBRANCH  28  30
ENDBRANCH  27  28
ENDBRANCH  26  27
ENDBRANCH   1  26
TORSDOF 15
ENDMDL
MODEL 2
REMARK VINA RESULT:     -11.9      5.116     10.365
REMARK SMILES Cc1ccc(C#N)cc1Nc1cc(C)c(N)c(C(=O)OCCOC(=O)c2ccc(-c3c4nc(c(-c5c(F)c(F)c(F)c(F)c5F)c5ccc([nH]5)c(-c5c(F)c(F)c(F)c(F)c5F)c5nc(c(-c6c(F)c(F)c(F)c(F)c6F)c6ccc3[nH]6)C=C5)C=C4)cc2)c1
REMARK SMILES IDX 21 1 20 2 18 3 19 4 17 5 11 6 12 7 89 8 13 9 14 10 15 11
REMARK SMILES IDX 10 12 9 14 1 15 2 16 3 17 4 18 8 19 5 20 6 21 7 22 16 23
REMARK SMILES IDX 22 26 23 27 24 28 25 29 26 30 27 31 88 32 28 33 87 34 29 35
REMARK SMILES IDX 30 36 31 37 81 38 32 39 86 40 80 41 82 42 33 43 85 44 79 45
REMARK SMILES IDX 78 46 34 48 66 49 46 50 65 51 47 52 50 53 64 54 83 55 48 56
REMARK SMILES IDX 49 57 63 59 84 60 51 61 35 62 36 63 44 64 37 65 38 66 42 67
REMARK SMILES IDX 45 68 39 69 40 70 43 71 41 72 67 73 68 74 76 75 69 76 70 77
REMARK SMILES IDX 74 78 77 79 71 80 72 81 75 82 73 83 52 84 53 85 61 86 54 87
REMARK SMILES IDX 55 88 59 89 62 90 56 91 57 92 60 93 58 94
REMARK H PARENT 10 13 16 24 16 25 82 47 50 58
REMARK Flexibility Score: inf
ROOT
ATOM      1  C   UNL A   1      40.893  19.906  26.162  1.00  0.00     0.275 C 
ENDROOT
BRANCH   1   2
ATOM      2  O   UNL A   1      41.838  20.712  26.893  1.00  0.00    -0.458 OA
BRANCH   2   3
ATOM      3  C   UNL A   1      42.526  21.646  26.185  1.00  0.00     0.340 C 
ATOM      4  O   UNL A   1      42.370  21.902  25.001  1.00  0.00    -0.246 OA
BRANCH   3   5
ATOM      5  C   UNL A   1      43.451  22.401  27.084  1.00  0.00     0.085 A 
ATOM      6  C   UNL A   1      45.580  23.506  27.436  1.00  0.00     0.040 A 
ATOM      7  C   UNL A   1      45.278  23.634  28.791  1.00  0.00     0.031 A 
ATOM      8  C   UNL A   1      44.711  22.788  26.614  1.00  0.00     0.044 A 
ATOM      9  C   UNL A   1      44.032  23.227  29.288  1.00  0.00    -0.025 A 
ATOM     10  C   UNL A   1      43.777  23.365  30.765  1.00  0.00     0.047 C 
ATOM     11  C   UNL A   1      43.049  22.772  28.389  1.00  0.00     0.049 A 
BRANCH   6  12
ATOM     12  N   UNL A   1      46.616  24.290  26.892  1.00  0.00    -0.355 N 
ATOM     13  H   UNL A   1      47.537  23.974  27.032  1.00  0.00     0.167 HD
BRANCH  12  14
ATOM     14  C   UNL A   1      46.455  25.494  26.158  1.00  0.00     0.043 A 
ATOM     15  C   UNL A   1      48.974  25.680  25.833  1.00  0.00     0.046 C 
ATOM     16  C   UNL A   1      47.565  26.145  25.584  1.00  0.00    -0.027 A 
ATOM     17  C   UNL A   1      47.369  27.317  24.826  1.00  0.00     0.007 A 
ATOM     18  C   UNL A   1      46.091  27.843  24.626  1.00  0.00     0.020 A 
ATOM     19  C   UNL A   1      45.179  26.053  25.949  1.00  0.00     0.045 A 
ATOM     20  C   UNL A   1      44.990  27.215  25.198  1.00  0.00     0.054 A 
BRANCH  20  21
ATOM     21  C   UNL A   1      43.672  27.753  25.043  1.00  0.00     0.099 C 
ATOM     22  N   UNL A   1      42.608  28.203  24.915  1.00  0.00    -0.192 NA
ENDBRANCH  20  21
ENDBRANCH  12  14
ENDBRANCH   6  12
BRANCH  11  23
ATOM     23  N   UNL A   1      41.744  22.558  28.842  1.00  0.00    -0.398 N 
ATOM     24  H   UNL A   1      41.588  22.031  29.659  1.00  0.00     0.156 HD
ATOM     25  H   UNL A   1      40.982  22.934  28.345  1.00  0.00     0.156 HD
ENDBRANCH  11  23
ENDBRANCH   3   5
ENDBRANCH   2   3
ENDBRANCH   1   2
BRANCH   1  26
ATOM     26  C   UNL A   1      39.557  20.637  25.986  1.00  0.00     0.275 C 
BRANCH  26  27
ATOM     27  O   UNL A   1      39.489  21.817  26.810  1.00  0.00    -0.458 OA
BRANCH  27  28
ATOM     28  C   UNL A   1      38.817  22.865  26.273  1.00  0.00     0.338 C 
ATOM     29  O   UNL A   1      37.875  22.822  25.500  1.00  0.00    -0.246 OA
BRANCH  28  30
ATOM     30  C   UNL A   1      39.265  24.103  26.936  1.00  0.00     0.060 A 
ATOM     31  C   UNL A   1      38.902  24.457  28.232  1.00  0.00     0.016 A 
ATOM     32  C   UNL A   1      40.099  24.938  26.199  1.00  0.00     0.016 A 
ATOM     33  C   UNL A   1      39.330  25.690  28.751  1.00  0.00     0.010 A 
ATOM     34  C   UNL A   1      40.494  26.179  26.693  1.00  0.00     0.010 A 
ATOM     35  C   UNL A   1      40.101  26.577  27.970  1.00  0.00    -0.014 A 
BRANCH  35  36
ATOM     36  C   UNL A   1      40.610  27.859  28.513  1.00  0.00     0.031 A 
ATOM     37  C   UNL A   1      42.069  28.081  28.797  1.00  0.00     0.074 A 
ATOM     38  C   UNL A   1      39.717  28.814  28.833  1.00  0.00     0.049 A 
ATOM     39  N   UNL A   1      42.674  29.180  29.179  1.00  0.00    -0.248 NA
ATOM     40  C   UNL A   1      42.963  26.921  28.660  1.00  0.00     0.031 C 
ATOM     41  C   UNL A   1      38.267  28.667  28.718  1.00  0.00     0.029 A 
ATOM     42  N   UNL A   1      39.891  30.085  29.316  1.00  0.00    -0.354 N 
ATOM     43  C   UNL A   1      44.020  28.856  29.291  1.00  0.00     0.074 A 
ATOM     44  C   UNL A   1      44.133  27.439  29.013  1.00  0.00     0.031 C 
ATOM     45  C   UNL A   1      37.684  29.820  29.073  1.00  0.00     0.029 A 
ATOM     46  C   UNL A   1      38.717  30.780  29.457  1.00  0.00     0.049 A 
ATOM     47  H   UNL A   1      40.773  30.463  29.539  1.00  0.00     0.167 HD
ATOM     48  C   UNL A   1      45.063  29.677  29.569  1.00  0.00     0.037 A 
ATOM     49  C   UNL A   1      38.496  32.054  29.829  1.00  0.00     0.037 A 
ATOM     50  C   UNL A   1      44.932  31.084  29.866  1.00  0.00     0.049 A 
ATOM     51  C   UNL A   1      39.667  32.946  30.136  1.00  0.00     0.074 A 
ATOM     52  C   UNL A   1      45.932  32.015  30.090  1.00  0.00     0.029 A 
ATOM     53  N   UNL A   1      43.726  31.758  29.999  1.00  0.00    -0.354 N 
ATOM     54  N   UNL A   1      40.948  32.671  30.098  1.00  0.00    -0.248 NA
ATOM     55  C   UNL A   1      39.363  34.331  30.522  1.00  0.00     0.031 C 
ATOM     56  C   UNL A   1      45.333  33.232  30.424  1.00  0.00     0.029 A 
ATOM     57  C   UNL A   1      43.959  33.083  30.338  1.00  0.00     0.049 A 
ATOM     58  H   UNL A   1      42.837  31.356  29.871  1.00  0.00     0.167 HD
ATOM     59  C   UNL A   1      41.603  33.849  30.431  1.00  0.00     0.074 A 
ATOM     60  C   UNL A   1      40.577  34.849  30.644  1.00  0.00     0.031 C 
ATOM     61  C   UNL A   1      42.934  34.075  30.552  1.00  0.00     0.037 A 
BRANCH  48  62
ATOM     62  C   UNL A   1      46.454  29.102  29.529  1.00  0.00     0.064 A 
ATOM     63  C   UNL A   1      46.964  28.361  30.607  1.00  0.00     0.173 A 
ATOM     64  C   UNL A   1      47.239  29.186  28.367  1.00  0.00     0.173 A 
ATOM     65  F   UNL A   1      46.255  28.242  31.739  1.00  0.00    -0.203 F 
ATOM     66  C   UNL A   1      48.209  27.742  30.530  1.00  0.00     0.198 A 
ATOM     67  C   UNL A   1      48.469  28.537  28.281  1.00  0.00     0.198 A 
ATOM     68  F   UNL A   1      46.796  29.865  27.299  1.00  0.00    -0.203 F 
ATOM     69  F   UNL A   1      48.684  27.063  31.583  1.00  0.00    -0.200 F 
ATOM     70  C   UNL A   1      48.955  27.820  29.365  1.00  0.00     0.200 A 
ATOM     71  F   UNL A   1      49.176  28.591  27.145  1.00  0.00    -0.200 F 
ATOM     72  F   UNL A   1      50.141  27.199  29.282  1.00  0.00    -0.200 F 
ENDBRANCH  48  62
BRANCH  49  73
ATOM     73  C   UNL A   1      37.104  32.573  29.849  1.00  0.00     0.064 A 
ATOM     74  C   UNL A   1      36.306  32.437  30.993  1.00  0.00     0.173 A 
ATOM     75  C   UNL A   1      36.560  33.255  28.751  1.00  0.00     0.173 A 
ATOM     76  F   UNL A   1      36.777  31.780  32.065  1.00  0.00    -0.203 F 
ATOM     77  C   UNL A   1      35.014  32.956  31.036  1.00  0.00     0.198 A 
ATOM     78  C   UNL A   1      35.281  33.803  28.807  1.00  0.00     0.198 A 
ATOM     79  F   UNL A   1      37.287  33.421  27.636  1.00  0.00    -0.203 F 
ATOM     80  F   UNL A   1      34.262  32.783  32.131  1.00  0.00    -0.200 F 
ATOM     81  C   UNL A   1      34.507  33.649  29.946  1.00  0.00     0.200 A 
ATOM     82  F   UNL A   1      34.803  34.490  27.760  1.00  0.00    -0.200 F 
ATOM     83  F   UNL A   1      33.272  34.165  29.996  1.00  0.00    -0.200 F 
ENDBRANCH  49  73
BRANCH  61  84
ATOM     84  C   UNL A   1      43.375  35.464  30.930  1.00  0.00     0.064 A 
ATOM     85  C   UNL A   1      43.639  36.441  29.957  1.00  0.00     0.173 A 
ATOM     86  C   UNL A   1      43.464  35.844  32.278  1.00  0.00     0.173 A 
ATOM     87  F   UNL A   1      43.580  36.129  28.653  1.00  0.00    -0.203 F 
ATOM     88  C   UNL A   1      43.992  37.738  30.321  1.00  0.00     0.198 A 
ATOM     89  C   UNL A   1      43.780  37.151  32.637  1.00  0.00     0.198 A 
ATOM     90  F   UNL A   1      43.214  34.953  33.250  1.00  0.00    -0.203 F 
ATOM     91  F   UNL A   1      44.281  38.641  29.374  1.00  0.00    -0.200 F 
ATOM     92  C   UNL A   1      44.051  38.095  31.659  1.00  0.00     0.200 A 
ATOM     93  F   UNL A   1      43.815  37.499  33.931  1.00  0.00    -0.200 F 
ATOM     94  F   UNL A   1      44.369  39.350  32.006  1.00  0.00    -0.200 F 
ENDBRANCH  61  84
ENDBRANCH  35  36
ENDBRANCH  28  30
ENDBRANCH  27  28
ENDBRANCH  26  27
ENDBRANCH   1  26
TORSDOF 15
ENDMDL
MODEL 3
REMARK VINA RESULT:     -11.8      6.058     11.083
REMARK SMILES Cc1ccc(C#N)cc1Nc1cc(C)c(N)c(C(=O)OCCOC(=O)c2ccc(-c3c4nc(c(-c5c(F)c(F)c(F)c(F)c5F)c5ccc([nH]5)c(-c5c(F)c(F)c(F)c(F)c5F)c5nc(c(-c6c(F)c(F)c(F)c(F)c6F)c6ccc3[nH]6)C=C5)C=C4)cc2)c1
REMARK SMILES IDX 21 1 20 2 18 3 19 4 17 5 11 6 12 7 89 8 13 9 14 10 15 11
REMARK SMILES IDX 10 12 9 14 1 15 2 16 3 17 4 18 8 19 5 20 6 21 7 22 16 23
REMARK SMILES IDX 22 26 23 27 24 28 25 29 26 30 27 31 88 32 28 33 87 34 29 35
REMARK SMILES IDX 30 36 31 37 81 38 32 39 86 40 80 41 82 42 33 43 85 44 79 45
REMARK SMILES IDX 78 46 34 48 66 49 46 50 65 51 47 52 50 53 64 54 83 55 48 56
REMARK SMILES IDX 49 57 63 59 84 60 51 61 35 62 36 63 44 64 37 65 38 66 42 67
REMARK SMILES IDX 45 68 39 69 40 70 43 71 41 72 67 73 68 74 76 75 69 76 70 77
REMARK SMILES IDX 74 78 77 79 71 80 72 81 75 82 73 83 52 84 53 85 61 86 54 87
REMARK SMILES IDX 55 88 59 89 62 90 56 91 57 92 60 93 58 94
REMARK H PARENT 10 13 16 24 16 25 82 47 50 58
REMARK Flexibility Score: inf
ROOT
ATOM      1  C   UNL A   1      41.824  18.837  25.728  1.00  0.00     0.275 C 
ENDROOT
BRANCH   1   2
ATOM      2  O   UNL A   1      41.333  20.191  25.760  1.00  0.00    -0.458 OA
BRANCH   2   3
ATOM      3  C   UNL A   1      40.724  20.597  26.905  1.00  0.00     0.340 C 
ATOM      4  O   UNL A   1      40.990  20.208  28.032  1.00  0.00    -0.246 OA
BRANCH   3   5
ATOM      5  C   UNL A   1      39.731  21.675  26.612  1.00  0.00     0.085 A 
ATOM      6  C   UNL A   1      37.713  22.405  25.482  1.00  0.00     0.040 A 
ATOM      7  C   UNL A   1      37.974  23.714  25.885  1.00  0.00     0.031 A 
ATOM      8  C   UNL A   1      38.657  21.413  25.754  1.00  0.00     0.044 A 
ATOM      9  C   UNL A   1      39.061  24.003  26.722  1.00  0.00    -0.025 A 
ATOM     10  C   UNL A   1      39.305  25.439  27.098  1.00  0.00     0.047 C 
ATOM     11  C   UNL A   1      39.837  22.943  27.230  1.00  0.00     0.049 A 
BRANCH   6  12
ATOM     12  N   UNL A   1      36.423  22.075  25.026  1.00  0.00    -0.355 N 
ATOM     13  H   UNL A   1      36.283  21.154  24.707  1.00  0.00     0.167 HD
BRANCH  12  14
ATOM     14  C   UNL A   1      35.304  22.946  24.984  1.00  0.00     0.043 A 
ATOM     15  C   UNL A   1      34.523  22.119  27.263  1.00  0.00     0.046 C 
ATOM     16  C   UNL A   1      34.413  23.033  26.073  1.00  0.00    -0.027 A 
ATOM     17  C   UNL A   1      33.334  23.938  26.018  1.00  0.00     0.007 A 
ATOM     18  C   UNL A   1      33.134  24.758  24.906  1.00  0.00     0.020 A 
ATOM     19  C   UNL A   1      35.070  23.777  23.871  1.00  0.00     0.045 A 
ATOM     20  C   UNL A   1      33.998  24.671  23.821  1.00  0.00     0.054 A 
BRANCH  20  21
ATOM     21  C   UNL A   1      33.796  25.469  22.650  1.00  0.00     0.099 C 
ATOM     22  N   UNL A   1      33.645  26.112  21.693  1.00  0.00    -0.192 NA
ENDBRANCH  20  21
ENDBRANCH  12  14
ENDBRANCH   6  12
BRANCH  11  23
ATOM     23  N   UNL A   1      40.790  23.199  28.220  1.00  0.00    -0.398 N 
ATOM     24  H   UNL A   1      40.515  23.257  29.163  1.00  0.00     0.156 HD
ATOM     25  H   UNL A   1      41.736  23.319  27.974  1.00  0.00     0.156 HD
ENDBRANCH  11  23
ENDBRANCH   3   5
ENDBRANCH   2   3
ENDBRANCH   1   2
BRANCH   1  26
ATOM     26  C   UNL A   1      43.343  18.799  25.529  1.00  0.00     0.275 C 
BRANCH  26  27
ATOM     27  O   UNL A   1      43.732  19.468  24.313  1.00  0.00    -0.458 OA
BRANCH  27  28
ATOM     28  C   UNL A   1      45.040  19.818  24.233  1.00  0.00     0.338 C 
ATOM     29  O   UNL A   1      45.950  19.171  23.743  1.00  0.00    -0.246 OA
BRANCH  28  30
ATOM     30  C   UNL A   1      45.177  21.225  24.649  1.00  0.00     0.060 A 
ATOM     31  C   UNL A   1      44.972  22.305  23.795  1.00  0.00     0.016 A 
ATOM     32  C   UNL A   1      45.529  21.452  25.976  1.00  0.00     0.016 A 
ATOM     33  C   UNL A   1      45.191  23.607  24.272  1.00  0.00     0.010 A 
ATOM     34  C   UNL A   1      45.786  22.737  26.444  1.00  0.00     0.010 A 
ATOM     35  C   UNL A   1      45.635  23.831  25.592  1.00  0.00    -0.014 A 
BRANCH  35  36
ATOM     36  C   UNL A   1      45.822  25.198  26.135  1.00  0.00     0.031 A 
ATOM     37  C   UNL A   1      47.166  25.870  26.155  1.00  0.00     0.074 A 
ATOM     38  C   UNL A   1      44.763  25.810  26.695  1.00  0.00     0.049 A 
ATOM     39  N   UNL A   1      47.466  27.097  26.507  1.00  0.00    -0.248 NA
ATOM     40  C   UNL A   1      48.327  25.060  25.756  1.00  0.00     0.031 C 
ATOM     41  C   UNL A   1      43.439  25.210  26.844  1.00  0.00     0.029 A 
ATOM     42  N   UNL A   1      44.630  27.061  27.241  1.00  0.00    -0.354 N 
ATOM     43  C   UNL A   1      48.839  27.219  26.336  1.00  0.00     0.074 A 
ATOM     44  C   UNL A   1      49.326  25.918  25.924  1.00  0.00     0.031 C 
ATOM     45  C   UNL A   1      42.613  26.109  27.398  1.00  0.00     0.029 A 
ATOM     46  C   UNL A   1      43.353  27.341  27.658  1.00  0.00     0.049 A 
ATOM     47  H   UNL A   1      45.378  27.697  27.324  1.00  0.00     0.167 HD
ATOM     48  C   UNL A   1      49.610  28.325  26.480  1.00  0.00     0.037 A 
ATOM     49  C   UNL A   1      42.830  28.470  28.170  1.00  0.00     0.037 A 
ATOM     50  C   UNL A   1      49.114  29.610  26.912  1.00  0.00     0.049 A 
ATOM     51  C   UNL A   1      43.705  29.684  28.324  1.00  0.00     0.074 A 
ATOM     52  C   UNL A   1      49.800  30.808  27.020  1.00  0.00     0.029 A 
ATOM     53  N   UNL A   1      47.813  29.860  27.326  1.00  0.00    -0.354 N 
ATOM     54  N   UNL A   1      44.971  29.834  28.022  1.00  0.00    -0.248 NA
ATOM     55  C   UNL A   1      43.073  30.891  28.875  1.00  0.00     0.031 C 
ATOM     56  C   UNL A   1      48.936  31.763  27.562  1.00  0.00     0.029 A 
ATOM     57  C   UNL A   1      47.689  31.183  27.724  1.00  0.00     0.049 A 
ATOM     58  H   UNL A   1      47.086  29.197  27.334  1.00  0.00     0.167 HD
ATOM     59  C   UNL A   1      45.284  31.153  28.323  1.00  0.00     0.074 A 
ATOM     60  C   UNL A   1      44.065  31.768  28.809  1.00  0.00     0.031 C 
ATOM     61  C   UNL A   1      46.474  31.791  28.210  1.00  0.00     0.037 A 
BRANCH  48  62
ATOM     62  C   UNL A   1      51.071  28.227  26.130  1.00  0.00     0.064 A 
ATOM     63  C   UNL A   1      52.041  28.002  27.120  1.00  0.00     0.173 A 
ATOM     64  C   UNL A   1      51.498  28.236  24.792  1.00  0.00     0.173 A 
ATOM     65  F   UNL A   1      51.689  27.976  28.415  1.00  0.00    -0.203 F 
ATOM     66  C   UNL A   1      53.379  27.807  26.788  1.00  0.00     0.198 A 
ATOM     67  C   UNL A   1      52.832  28.007  24.460  1.00  0.00     0.198 A 
ATOM     68  F   UNL A   1      50.615  28.427  23.801  1.00  0.00    -0.203 F 
ATOM     69  F   UNL A   1      54.288  27.622  27.755  1.00  0.00    -0.200 F 
ATOM     70  C   UNL A   1      53.772  27.798  25.459  1.00  0.00     0.200 A 
ATOM     71  F   UNL A   1      53.205  27.971  23.174  1.00  0.00    -0.200 F 
ATOM     72  F   UNL A   1      55.056  27.582  25.138  1.00  0.00    -0.200 F 
ENDBRANCH  48  62
BRANCH  49  73
ATOM     73  C   UNL A   1      41.382  28.515  28.496  1.00  0.00     0.064 A 
ATOM     74  C   UNL A   1      40.920  28.128  29.761  1.00  0.00     0.173 A 
ATOM     75  C   UNL A   1      40.438  28.991  27.574  1.00  0.00     0.173 A 
ATOM     76  F   UNL A   1      41.782  27.653  30.673  1.00  0.00    -0.203 F 
ATOM     77  C   UNL A   1      39.569  28.206  30.089  1.00  0.00     0.198 A 
ATOM     78  C   UNL A   1      39.092  29.100  27.914  1.00  0.00     0.198 A 
ATOM     79  F   UNL A   1      40.830  29.384  26.353  1.00  0.00    -0.203 F 
ATOM     80  F   UNL A   1      39.150  27.797  31.294  1.00  0.00    -0.200 F 
ATOM     81  C   UNL A   1      38.657  28.703  29.169  1.00  0.00     0.200 A 
ATOM     82  F   UNL A   1      38.218  29.602  27.030  1.00  0.00    -0.200 F 
ATOM     83  F   UNL A   1      37.360  28.796  29.492  1.00  0.00    -0.200 F 
ENDBRANCH  49  73
BRANCH  61  84
ATOM     84  C   UNL A   1      46.531  33.240  28.612  1.00  0.00     0.064 A 
ATOM     85  C   UNL A   1      46.238  34.267  27.701  1.00  0.00     0.173 A 
ATOM     86  C   UNL A   1      46.809  33.603  29.938  1.00  0.00     0.173 A 
ATOM     87  F   UNL A   1      45.977  33.978  26.417  1.00  0.00    -0.203 F 
ATOM     88  C   UNL A   1      46.240  35.602  28.100  1.00  0.00     0.198 A 
ATOM     89  C   UNL A   1      46.772  34.935  30.342  1.00  0.00     0.198 A 
ATOM     90  F   UNL A   1      47.087  32.662  30.854  1.00  0.00    -0.203 F 
ATOM     91  F   UNL A   1      46.000  36.567  27.202  1.00  0.00    -0.200 F 
ATOM     92  C   UNL A   1      46.495  35.934  29.422  1.00  0.00     0.200 A 
ATOM     93  F   UNL A   1      46.999  35.252  31.625  1.00  0.00    -0.200 F 
ATOM     94  F   UNL A   1      46.475  37.217  29.808  1.00  0.00    -0.200 F 
ENDBRANCH  61  84
ENDBRANCH  35  36
ENDBRANCH  28  30
ENDBRANCH  27  28
ENDBRANCH  26  27
ENDBRANCH   1  26
TORSDOF 15
ENDMDL
