MODEL 1
REMARK VINA RESULT:     -10.0      0.000      0.000
REMARK SMILES CCC[C@@H](C(=O)N1CC[C@@](C)(C(=O)OCCOC(=O)c2ccc(-c3c4nc(c(-c5c(F)c(F)c(F)c(F)c5F)c5ccc([nH]5)c(-c5c(F)c(F)c(F)c(F)c5F)c5nc(c(-c6c(F)c(F)c(F)c(F)c6F)c6ccc3[nH]6)C=C5)C=C4)cc2)C1)c1ccccc1
REMARK SMILES IDX 15 1 14 2 12 3 13 4 10 5 7 6 8 7 83 8 9 9 11 10 5 11 6 12
REMARK SMILES IDX 4 13 3 14 2 15 1 16 84 17 85 18 89 19 86 20 88 21 87 22
REMARK SMILES IDX 16 23 17 24 18 25 19 26 20 27 21 28 82 29 22 30 81 31 23 32
REMARK SMILES IDX 24 33 25 34 75 35 26 36 80 37 74 38 76 39 27 40 79 41 73 42
REMARK SMILES IDX 72 43 28 45 60 46 40 47 59 48 41 49 44 50 58 51 77 52 42 53
REMARK SMILES IDX 43 54 57 56 78 57 45 58 29 59 30 60 38 61 31 62 32 63 36 64
REMARK SMILES IDX 39 65 33 66 34 67 37 68 35 69 61 70 62 71 70 72 63 73 64 74
REMARK SMILES IDX 68 75 71 76 65 77 66 78 69 79 67 80 46 81 47 82 55 83 48 84
REMARK SMILES IDX 49 85 53 86 56 87 50 88 51 89 54 90 52 91
REMARK H PARENT 76 44 44 55
REMARK Flexibility Score: inf
ROOT
ATOM      1  C   UNL A   1      34.132  34.188  28.755  1.00  0.00     0.274 C 
ENDROOT
BRANCH   1   2
ATOM      2  O   UNL A   1      33.515  34.160  30.061  1.00  0.00    -0.462 OA
BRANCH   2   3
ATOM      3  C   UNL A   1      33.013  35.340  30.518  1.00  0.00     0.313 C 
ATOM      4  O   UNL A   1      32.682  36.269  29.792  1.00  0.00    -0.252 OA
BRANCH   3   5
ATOM      5  C   UNL A   1      33.060  35.439  32.044  1.00  0.00     0.084 C 
ATOM      6  N   UNL A   1      34.920  34.362  33.124  1.00  0.00    -0.341 N 
ATOM      7  C   UNL A   1      35.322  35.734  32.854  1.00  0.00     0.120 C 
ATOM      8  C   UNL A   1      33.584  34.120  32.637  1.00  0.00     0.138 C 
ATOM      9  C   UNL A   1      34.027  36.491  32.607  1.00  0.00     0.042 C 
ATOM     10  C   UNL A   1      31.623  35.705  32.515  1.00  0.00     0.026 C 
BRANCH   6  11
ATOM     11  C   UNL A   1      35.591  33.577  34.047  1.00  0.00     0.230 C 
ATOM     12  O   UNL A   1      35.472  33.856  35.245  1.00  0.00    -0.274 OA
BRANCH  11  13
ATOM     13  C   UNL A   1      36.641  32.504  33.555  1.00  0.00     0.108 C 
BRANCH  13  14
ATOM     14  C   UNL A   1      37.677  31.925  34.560  1.00  0.00     0.018 C 
BRANCH  14  15
ATOM     15  C   UNL A   1      38.305  30.527  34.443  1.00  0.00    -0.002 C 
ATOM     16  C   UNL A   1      39.714  30.368  34.980  1.00  0.00     0.004 C 
ENDBRANCH  14  15
ENDBRANCH  13  14
BRANCH  13  17
ATOM     17  C   UNL A   1      37.388  33.094  32.313  1.00  0.00    -0.036 A 
ATOM     18  C   UNL A   1      38.437  34.028  32.425  1.00  0.00     0.004 A 
ATOM     19  C   UNL A   1      36.962  32.756  31.014  1.00  0.00     0.004 A 
ATOM     20  C   UNL A   1      39.051  34.579  31.296  1.00  0.00     0.000 A 
ATOM     21  C   UNL A   1      37.555  33.336  29.885  1.00  0.00     0.000 A 
ATOM     22  C   UNL A   1      38.603  34.241  30.026  1.00  0.00     0.000 A 
ENDBRANCH  13  17
ENDBRANCH  11  13
ENDBRANCH   6  11
ENDBRANCH   3   5
ENDBRANCH   2   3
ENDBRANCH   1   2
BRANCH   1  23
ATOM     23  C   UNL A   1      33.936  32.882  27.981  1.00  0.00     0.275 C 
BRANCH  23  24
ATOM     24  O   UNL A   1      34.308  31.737  28.769  1.00  0.00    -0.458 OA
BRANCH  24  25
ATOM     25  C   UNL A   1      34.706  30.660  28.058  1.00  0.00     0.338 C 
ATOM     26  O   UNL A   1      34.163  30.195  27.061  1.00  0.00    -0.246 OA
BRANCH  25  27
ATOM     27  C   UNL A   1      36.032  30.218  28.516  1.00  0.00     0.060 A 
ATOM     28  C   UNL A   1      37.093  30.467  27.650  1.00  0.00     0.016 A 
ATOM     29  C   UNL A   1      36.254  29.550  29.725  1.00  0.00     0.016 A 
ATOM     30  C   UNL A   1      38.376  30.070  27.990  1.00  0.00     0.010 A 
ATOM     31  C   UNL A   1      37.556  29.140  30.062  1.00  0.00     0.010 A 
ATOM     32  C   UNL A   1      38.624  29.408  29.194  1.00  0.00    -0.014 A 
BRANCH  32  33
ATOM     33  C   UNL A   1      40.020  28.977  29.436  1.00  0.00     0.031 A 
ATOM     34  C   UNL A   1      40.861  29.738  30.416  1.00  0.00     0.074 A 
ATOM     35  C   UNL A   1      40.455  27.798  28.957  1.00  0.00     0.049 A 
ATOM     36  N   UNL A   1      42.082  29.499  30.822  1.00  0.00    -0.248 NA
ATOM     37  C   UNL A   1      40.229  30.906  31.048  1.00  0.00     0.031 C 
ATOM     38  C   UNL A   1      39.664  26.880  28.139  1.00  0.00     0.029 A 
ATOM     39  N   UNL A   1      41.651  27.147  29.133  1.00  0.00    -0.354 N 
ATOM     40  C   UNL A   1      42.372  30.497  31.741  1.00  0.00     0.074 A 
ATOM     41  C   UNL A   1      41.191  31.326  31.856  1.00  0.00     0.031 C 
ATOM     42  C   UNL A   1      40.387  25.771  27.907  1.00  0.00     0.029 A 
ATOM     43  C   UNL A   1      41.711  25.925  28.509  1.00  0.00     0.049 A 
ATOM     44  H   UNL A   1      42.396  27.522  29.657  1.00  0.00     0.167 HD
ATOM     45  C   UNL A   1      43.531  30.719  32.404  1.00  0.00     0.037 A 
ATOM     46  C   UNL A   1      42.728  25.045  28.416  1.00  0.00     0.037 A 
ATOM     47  C   UNL A   1      44.711  29.905  32.275  1.00  0.00     0.049 A 
ATOM     48  C   UNL A   1      44.046  25.374  29.071  1.00  0.00     0.074 A 
ATOM     49  C   UNL A   1      45.961  30.103  32.834  1.00  0.00     0.029 A 
ATOM     50  N   UNL A   1      44.783  28.737  31.531  1.00  0.00    -0.354 N 
ATOM     51  N   UNL A   1      44.353  26.375  29.859  1.00  0.00    -0.248 NA
ATOM     52  C   UNL A   1      45.169  24.463  28.797  1.00  0.00     0.031 C 
ATOM     53  C   UNL A   1      46.805  29.080  32.385  1.00  0.00     0.029 A 
ATOM     54  C   UNL A   1      46.067  28.220  31.588  1.00  0.00     0.049 A 
ATOM     55  H   UNL A   1      44.033  28.336  31.036  1.00  0.00     0.167 HD
ATOM     56  C   UNL A   1      45.697  26.217  30.174  1.00  0.00     0.074 A 
ATOM     57  C   UNL A   1      46.140  25.005  29.519  1.00  0.00     0.031 C 
ATOM     58  C   UNL A   1      46.496  27.014  30.925  1.00  0.00     0.037 A 
BRANCH  45  59
ATOM     59  C   UNL A   1      43.605  31.964  33.232  1.00  0.00     0.064 A 
ATOM     60  C   UNL A   1      43.940  33.209  32.685  1.00  0.00     0.173 A 
ATOM     61  C   UNL A   1      43.353  31.893  34.611  1.00  0.00     0.173 A 
ATOM     62  F   UNL A   1      44.217  33.322  31.377  1.00  0.00    -0.203 F 
ATOM     63  C   UNL A   1      44.045  34.337  33.496  1.00  0.00     0.198 A 
ATOM     64  C   UNL A   1      43.437  33.025  35.414  1.00  0.00     0.198 A 
ATOM     65  F   UNL A   1      43.035  30.720  35.180  1.00  0.00    -0.203 F 
ATOM     66  F   UNL A   1      44.417  35.510  32.966  1.00  0.00    -0.200 F 
ATOM     67  C   UNL A   1      43.791  34.244  34.858  1.00  0.00     0.200 A 
ATOM     68  F   UNL A   1      43.189  32.932  36.727  1.00  0.00    -0.200 F 
ATOM     69  F   UNL A   1      43.901  35.328  35.637  1.00  0.00    -0.200 F 
ENDBRANCH  45  59
BRANCH  46  70
ATOM     70  C   UNL A   1      42.570  23.799  27.621  1.00  0.00     0.064 A 
ATOM     71  C   UNL A   1      42.928  23.746  26.267  1.00  0.00     0.173 A 
ATOM     72  C   UNL A   1      42.016  22.642  28.191  1.00  0.00     0.173 A 
ATOM     73  F   UNL A   1      43.430  24.835  25.664  1.00  0.00    -0.203 F 
ATOM     74  C   UNL A   1      42.728  22.590  25.512  1.00  0.00     0.198 A 
ATOM     75  C   UNL A   1      41.846  21.478  27.445  1.00  0.00     0.198 A 
ATOM     76  F   UNL A   1      41.640  22.641  29.478  1.00  0.00    -0.203 F 
ATOM     77  F   UNL A   1      43.033  22.583  24.207  1.00  0.00    -0.200 F 
ATOM     78  C   UNL A   1      42.194  21.455  26.104  1.00  0.00     0.200 A 
ATOM     79  F   UNL A   1      41.337  20.382  28.025  1.00  0.00    -0.200 F 
ATOM     80  F   UNL A   1      42.003  20.345  25.379  1.00  0.00    -0.200 F 
ENDBRANCH  46  70
BRANCH  58  81
ATOM     81  C   UNL A   1      47.934  26.609  31.077  1.00  0.00     0.064 A 
ATOM     82  C   UNL A   1      48.340  25.727  32.089  1.00  0.00     0.173 A 
ATOM     83  C   UNL A   1      48.903  27.059  30.168  1.00  0.00     0.173 A 
ATOM     84  F   UNL A   1      47.454  25.279  32.991  1.00  0.00    -0.203 F 
ATOM     85  C   UNL A   1      49.668  25.322  32.194  1.00  0.00     0.198 A 
ATOM     86  C   UNL A   1      50.225  26.631  30.261  1.00  0.00     0.198 A 
ATOM     87  F   UNL A   1      48.564  27.899  29.178  1.00  0.00    -0.203 F 
ATOM     88  F   UNL A   1      50.042  24.506  33.190  1.00  0.00    -0.200 F 
ATOM     89  C   UNL A   1      50.607  25.767  31.276  1.00  0.00     0.200 A 
ATOM     90  F   UNL A   1      51.129  27.053  29.365  1.00  0.00    -0.200 F 
ATOM     91  F   UNL A   1      51.883  25.367  31.372  1.00  0.00    -0.200 F 
ENDBRANCH  58  81
ENDBRANCH  32  33
ENDBRANCH  25  27
ENDBRANCH  24  25
ENDBRANCH  23  24
ENDBRANCH   1  23
TORSDOF 16
ENDMDL
MODEL 2
REMARK VINA RESULT:     -10.0      4.920     10.430
REMARK SMILES CCC[C@@H](C(=O)N1CC[C@@](C)(C(=O)OCCOC(=O)c2ccc(-c3c4nc(c(-c5c(F)c(F)c(F)c(F)c5F)c5ccc([nH]5)c(-c5c(F)c(F)c(F)c(F)c5F)c5nc(c(-c6c(F)c(F)c(F)c(F)c6F)c6ccc3[nH]6)C=C5)C=C4)cc2)C1)c1ccccc1
REMARK SMILES IDX 15 1 14 2 12 3 13 4 10 5 7 6 8 7 83 8 9 9 11 10 5 11 6 12
REMARK SMILES IDX 4 13 3 14 2 15 1 16 84 17 85 18 89 19 86 20 88 21 87 22
REMARK SMILES IDX 16 23 17 24 18 25 19 26 20 27 21 28 82 29 22 30 81 31 23 32
REMARK SMILES IDX 24 33 25 34 75 35 26 36 80 37 74 38 76 39 27 40 79 41 73 42
REMARK SMILES IDX 72 43 28 45 60 46 40 47 59 48 41 49 44 50 58 51 77 52 42 53
REMARK SMILES IDX 43 54 57 56 78 57 45 58 29 59 30 60 38 61 31 62 32 63 36 64
REMARK SMILES IDX 39 65 33 66 34 67 37 68 35 69 61 70 62 71 70 72 63 73 64 74
REMARK SMILES IDX 68 75 71 76 65 77 66 78 69 79 67 80 46 81 47 82 55 83 48 84
REMARK SMILES IDX 49 85 53 86 56 87 50 88 51 89 54 90 52 91
REMARK H PARENT 76 44 44 55
REMARK Flexibility Score: inf
ROOT
ATOM      1  C   UNL A   1      36.153  19.982  25.001  1.00  0.00     0.274 C 
ENDROOT
BRANCH   1   2
ATOM      2  O   UNL A   1      35.633  21.262  25.421  1.00  0.00    -0.462 OA
BRANCH   2   3
ATOM      3  C   UNL A   1      34.774  21.878  24.564  1.00  0.00     0.313 C 
ATOM      4  O   UNL A   1      33.760  21.354  24.119  1.00  0.00    -0.252 OA
BRANCH   3   5
ATOM      5  C   UNL A   1      35.298  23.234  24.090  1.00  0.00     0.084 C 
ATOM      6  N   UNL A   1      33.722  25.052  24.116  1.00  0.00    -0.341 N 
ATOM      7  C   UNL A   1      34.394  25.054  25.407  1.00  0.00     0.120 C 
ATOM      8  C   UNL A   1      34.205  23.968  23.295  1.00  0.00     0.138 C 
ATOM      9  C   UNL A   1      35.654  24.229  25.205  1.00  0.00     0.042 C 
ATOM     10  C   UNL A   1      36.513  22.953  23.195  1.00  0.00     0.026 C 
BRANCH   6  11
ATOM     11  C   UNL A   1      33.032  26.160  23.655  1.00  0.00     0.230 C 
ATOM     12  O   UNL A   1      33.652  26.997  22.989  1.00  0.00    -0.274 OA
BRANCH  11  13
ATOM     13  C   UNL A   1      31.561  26.440  24.157  1.00  0.00     0.108 C 
BRANCH  13  14
ATOM     14  C   UNL A   1      30.446  26.774  23.126  1.00  0.00     0.018 C 
BRANCH  14  15
ATOM     15  C   UNL A   1      28.993  27.103  23.501  1.00  0.00    -0.002 C 
ATOM     16  C   UNL A   1      28.490  28.484  23.127  1.00  0.00     0.004 C 
ENDBRANCH  14  15
ENDBRANCH  13  14
BRANCH  13  17
ATOM     17  C   UNL A   1      31.627  27.566  25.242  1.00  0.00    -0.036 A 
ATOM     18  C   UNL A   1      31.777  28.929  24.919  1.00  0.00     0.004 A 
ATOM     19  C   UNL A   1      31.619  27.224  26.607  1.00  0.00     0.004 A 
ATOM     20  C   UNL A   1      31.887  29.909  25.910  1.00  0.00     0.000 A 
ATOM     21  C   UNL A   1      31.764  28.203  27.599  1.00  0.00     0.000 A 
ATOM     22  C   UNL A   1      31.891  29.545  27.251  1.00  0.00     0.000 A 
ENDBRANCH  13  17
ENDBRANCH  11  13
ENDBRANCH   6  11
ENDBRANCH   3   5
ENDBRANCH   2   3
ENDBRANCH   1   2
BRANCH   1  23
ATOM     23  C   UNL A   1      37.681  19.961  24.919  1.00  0.00     0.275 C 
BRANCH  23  24
ATOM     24  O   UNL A   1      38.267  21.042  25.668  1.00  0.00    -0.458 OA
BRANCH  24  25
ATOM     25  C   UNL A   1      39.477  20.774  26.203  1.00  0.00     0.338 C 
ATOM     26  O   UNL A   1      40.099  19.721  26.126  1.00  0.00    -0.246 OA
BRANCH  25  27
ATOM     27  C   UNL A   1      40.074  22.009  26.736  1.00  0.00     0.060 A 
ATOM     28  C   UNL A   1      39.678  23.195  26.122  1.00  0.00     0.016 A 
ATOM     29  C   UNL A   1      41.017  22.035  27.770  1.00  0.00     0.016 A 
ATOM     30  C   UNL A   1      40.202  24.405  26.545  1.00  0.00     0.010 A 
ATOM     31  C   UNL A   1      41.552  23.264  28.189  1.00  0.00     0.010 A 
ATOM     32  C   UNL A   1      41.138  24.457  27.580  1.00  0.00    -0.014 A 
BRANCH  32  33
ATOM     33  C   UNL A   1      41.677  25.794  27.917  1.00  0.00     0.031 A 
ATOM     34  C   UNL A   1      43.030  26.189  27.404  1.00  0.00     0.074 A 
ATOM     35  C   UNL A   1      40.882  26.719  28.485  1.00  0.00     0.049 A 
ATOM     36  N   UNL A   1      43.664  27.326  27.529  1.00  0.00    -0.248 NA
ATOM     37  C   UNL A   1      43.748  25.175  26.616  1.00  0.00     0.031 C 
ATOM     38  C   UNL A   1      39.487  26.509  28.864  1.00  0.00     0.029 A 
ATOM     39  N   UNL A   1      41.120  28.036  28.791  1.00  0.00    -0.354 N 
ATOM     40  C   UNL A   1      44.864  27.160  26.853  1.00  0.00     0.074 A 
ATOM     41  C   UNL A   1      44.857  25.824  26.295  1.00  0.00     0.031 C 
ATOM     42  C   UNL A   1      38.983  27.665  29.329  1.00  0.00     0.029 A 
ATOM     43  C   UNL A   1      40.035  28.681  29.332  1.00  0.00     0.049 A 
ATOM     44  H   UNL A   1      41.987  28.477  28.636  1.00  0.00     0.167 HD
ATOM     45  C   UNL A   1      45.892  28.032  26.737  1.00  0.00     0.037 A 
ATOM     46  C   UNL A   1      39.916  29.940  29.801  1.00  0.00     0.037 A 
ATOM     47  C   UNL A   1      45.906  29.353  27.308  1.00  0.00     0.049 A 
ATOM     48  C   UNL A   1      41.114  30.854  29.761  1.00  0.00     0.074 A 
ATOM     49  C   UNL A   1      46.937  30.277  27.323  1.00  0.00     0.029 A 
ATOM     50  N   UNL A   1      44.834  29.937  27.966  1.00  0.00    -0.354 N 
ATOM     51  N   UNL A   1      42.288  30.660  29.213  1.00  0.00    -0.248 NA
ATOM     52  C   UNL A   1      40.978  32.155  30.437  1.00  0.00     0.031 C 
ATOM     53  C   UNL A   1      46.504  31.400  28.038  1.00  0.00     0.029 A 
ATOM     54  C   UNL A   1      45.190  31.196  28.422  1.00  0.00     0.049 A 
ATOM     55  H   UNL A   1      43.953  29.518  28.091  1.00  0.00     0.167 HD
ATOM     56  C   UNL A   1      43.029  31.806  29.474  1.00  0.00     0.074 A 
ATOM     57  C   UNL A   1      42.161  32.707  30.203  1.00  0.00     0.031 C 
ATOM     58  C   UNL A   1      44.317  32.080  29.153  1.00  0.00     0.037 A 
BRANCH  45  59
ATOM     59  C   UNL A   1      47.131  27.528  26.066  1.00  0.00     0.064 A 
ATOM     60  C   UNL A   1      47.331  27.638  24.683  1.00  0.00     0.173 A 
ATOM     61  C   UNL A   1      48.127  26.901  26.831  1.00  0.00     0.173 A 
ATOM     62  F   UNL A   1      46.395  28.204  23.906  1.00  0.00    -0.203 F 
ATOM     63  C   UNL A   1      48.477  27.114  24.087  1.00  0.00     0.198 A 
ATOM     64  C   UNL A   1      49.279  26.400  26.235  1.00  0.00     0.198 A 
ATOM     65  F   UNL A   1      47.976  26.767  28.157  1.00  0.00    -0.203 F 
ATOM     66  F   UNL A   1      48.629  27.182  22.757  1.00  0.00    -0.200 F 
ATOM     67  C   UNL A   1      49.449  26.499  24.863  1.00  0.00     0.200 A 
ATOM     68  F   UNL A   1      50.217  25.808  26.987  1.00  0.00    -0.200 F 
ATOM     69  F   UNL A   1      50.546  25.989  24.287  1.00  0.00    -0.200 F 
ENDBRANCH  45  59
BRANCH  46  70
ATOM     70  C   UNL A   1      38.637  30.395  30.407  1.00  0.00     0.064 A 
ATOM     71  C   UNL A   1      37.604  30.925  29.621  1.00  0.00     0.173 A 
ATOM     72  C   UNL A   1      38.437  30.348  31.796  1.00  0.00     0.173 A 
ATOM     73  F   UNL A   1      37.757  31.025  28.292  1.00  0.00    -0.203 F 
ATOM     74  C   UNL A   1      36.428  31.399  30.202  1.00  0.00     0.198 A 
ATOM     75  C   UNL A   1      37.249  30.792  32.372  1.00  0.00     0.198 A 
ATOM     76  F   UNL A   1      39.399  29.866  32.597  1.00  0.00    -0.203 F 
ATOM     77  F   UNL A   1      35.477  31.947  29.432  1.00  0.00    -0.200 F 
ATOM     78  C   UNL A   1      36.249  31.326  31.575  1.00  0.00     0.200 A 
ATOM     79  F   UNL A   1      37.080  30.711  33.698  1.00  0.00    -0.200 F 
ATOM     80  F   UNL A   1      35.119  31.781  32.132  1.00  0.00    -0.200 F 
ENDBRANCH  46  70
BRANCH  58  81
ATOM     81  C   UNL A   1      44.874  33.404  29.591  1.00  0.00     0.064 A 
ATOM     82  C   UNL A   1      45.495  33.557  30.839  1.00  0.00     0.173 A 
ATOM     83  C   UNL A   1      44.842  34.513  28.732  1.00  0.00     0.173 A 
ATOM     84  F   UNL A   1      45.539  32.531  31.702  1.00  0.00    -0.203 F 
ATOM     85  C   UNL A   1      46.049  34.777  31.217  1.00  0.00     0.198 A 
ATOM     86  C   UNL A   1      45.420  35.723  29.104  1.00  0.00     0.198 A 
ATOM     87  F   UNL A   1      44.266  34.416  27.524  1.00  0.00    -0.203 F 
ATOM     88  F   UNL A   1      46.605  34.911  32.429  1.00  0.00    -0.200 F 
ATOM     89  C   UNL A   1      46.018  35.856  30.347  1.00  0.00     0.200 A 
ATOM     90  F   UNL A   1      45.402  36.762  28.255  1.00  0.00    -0.200 F 
ATOM     91  F   UNL A   1      46.563  37.026  30.709  1.00  0.00    -0.200 F 
ENDBRANCH  58  81
ENDBRANCH  32  33
ENDBRANCH  25  27
ENDBRANCH  24  25
ENDBRANCH  23  24
ENDBRANCH   1  23
TORSDOF 16
ENDMDL
MODEL 3
REMARK VINA RESULT:     -10.0      0.963      2.073
REMARK SMILES CCC[C@@H](C(=O)N1CC[C@@](C)(C(=O)OCCOC(=O)c2ccc(-c3c4nc(c(-c5c(F)c(F)c(F)c(F)c5F)c5ccc([nH]5)c(-c5c(F)c(F)c(F)c(F)c5F)c5nc(c(-c6c(F)c(F)c(F)c(F)c6F)c6ccc3[nH]6)C=C5)C=C4)cc2)C1)c1ccccc1
REMARK SMILES IDX 15 1 14 2 12 3 13 4 10 5 7 6 8 7 83 8 9 9 11 10 5 11 6 12
REMARK SMILES IDX 4 13 3 14 2 15 1 16 84 17 85 18 89 19 86 20 88 21 87 22
REMARK SMILES IDX 16 23 17 24 18 25 19 26 20 27 21 28 82 29 22 30 81 31 23 32
REMARK SMILES IDX 24 33 25 34 75 35 26 36 80 37 74 38 76 39 27 40 79 41 73 42
REMARK SMILES IDX 72 43 28 45 60 46 40 47 59 48 41 49 44 50 58 51 77 52 42 53
REMARK SMILES IDX 43 54 57 56 78 57 45 58 29 59 30 60 38 61 31 62 32 63 36 64
REMARK SMILES IDX 39 65 33 66 34 67 37 68 35 69 61 70 62 71 70 72 63 73 64 74
REMARK SMILES IDX 68 75 71 76 65 77 66 78 69 79 67 80 46 81 47 82 55 83 48 84
REMARK SMILES IDX 49 85 53 86 56 87 50 88 51 89 54 90 52 91
REMARK H PARENT 76 44 44 55
REMARK Flexibility Score: inf
ROOT
ATOM      1  C   UNL A   1      33.767  34.298  28.664  1.00  0.00     0.274 C 
ENDROOT
BRANCH   1   2
ATOM      2  O   UNL A   1      33.377  34.329  30.054  1.00  0.00    -0.462 OA
BRANCH   2   3
ATOM      3  C   UNL A   1      32.921  35.520  30.529  1.00  0.00     0.313 C 
ATOM      4  O   UNL A   1      32.643  36.478  29.818  1.00  0.00    -0.252 OA
BRANCH   3   5
ATOM      5  C   UNL A   1      32.946  35.585  32.057  1.00  0.00     0.084 C 
ATOM      6  N   UNL A   1      34.816  34.523  33.136  1.00  0.00    -0.341 N 
ATOM      7  C   UNL A   1      35.192  35.909  32.902  1.00  0.00     0.120 C 
ATOM      8  C   UNL A   1      33.491  34.264  32.627  1.00  0.00     0.138 C 
ATOM      9  C   UNL A   1      33.885  36.644  32.656  1.00  0.00     0.042 C 
ATOM     10  C   UNL A   1      31.499  35.810  32.516  1.00  0.00     0.026 C 
BRANCH   6  11
ATOM     11  C   UNL A   1      35.492  33.732  34.049  1.00  0.00     0.230 C 
ATOM     12  O   UNL A   1      35.323  33.957  35.252  1.00  0.00    -0.274 OA
BRANCH  11  13
ATOM     13  C   UNL A   1      36.605  32.727  33.551  1.00  0.00     0.108 C 
BRANCH  13  14
ATOM     14  C   UNL A   1      37.774  32.340  34.502  1.00  0.00     0.018 C 
BRANCH  14  15
ATOM     15  C   UNL A   1      38.044  33.014  35.856  1.00  0.00    -0.002 C 
ATOM     16  C   UNL A   1      38.773  34.344  35.820  1.00  0.00     0.004 C 
ENDBRANCH  14  15
ENDBRANCH  13  14
BRANCH  13  17
ATOM     17  C   UNL A   1      37.184  33.277  32.205  1.00  0.00    -0.036 A 
ATOM     18  C   UNL A   1      36.693  32.882  30.944  1.00  0.00     0.004 A 
ATOM     19  C   UNL A   1      38.293  34.144  32.222  1.00  0.00     0.004 A 
ATOM     20  C   UNL A   1      37.264  33.348  29.757  1.00  0.00     0.000 A 
ATOM     21  C   UNL A   1      38.885  34.583  31.030  1.00  0.00     0.000 A 
ATOM     22  C   UNL A   1      38.367  34.191  29.799  1.00  0.00     0.000 A 
ENDBRANCH  13  17
ENDBRANCH  11  13
ENDBRANCH   6  11
ENDBRANCH   3   5
ENDBRANCH   2   3
ENDBRANCH   1   2
BRANCH   1  23
ATOM     23  C   UNL A   1      33.544  32.929  28.017  1.00  0.00     0.275 C 
BRANCH  23  24
ATOM     24  O   UNL A   1      34.256  31.891  28.714  1.00  0.00    -0.458 OA
BRANCH  24  25
ATOM     25  C   UNL A   1      34.488  30.775  27.990  1.00  0.00     0.338 C 
ATOM     26  O   UNL A   1      33.768  30.299  27.119  1.00  0.00    -0.246 OA
BRANCH  25  27
ATOM     27  C   UNL A   1      35.856  30.293  28.237  1.00  0.00     0.060 A 
ATOM     28  C   UNL A   1      36.080  29.694  29.474  1.00  0.00     0.016 A 
ATOM     29  C   UNL A   1      36.909  30.440  27.327  1.00  0.00     0.016 A 
ATOM     30  C   UNL A   1      37.342  29.226  29.802  1.00  0.00     0.010 A 
ATOM     31  C   UNL A   1      38.190  29.972  27.668  1.00  0.00     0.010 A 
ATOM     32  C   UNL A   1      38.407  29.355  28.908  1.00  0.00    -0.014 A 
BRANCH  32  33
ATOM     33  C   UNL A   1      39.726  28.873  29.377  1.00  0.00     0.031 A 
ATOM     34  C   UNL A   1      40.373  29.541  30.553  1.00  0.00     0.074 A 
ATOM     35  C   UNL A   1      40.232  27.721  28.901  1.00  0.00     0.049 A 
ATOM     36  N   UNL A   1      41.492  29.244  31.163  1.00  0.00    -0.248 NA
ATOM     37  C   UNL A   1      39.644  30.675  31.139  1.00  0.00     0.031 C 
ATOM     38  C   UNL A   1      39.602  26.884  27.882  1.00  0.00     0.029 A 
ATOM     39  N   UNL A   1      41.366  27.030  29.251  1.00  0.00    -0.354 N 
ATOM     40  C   UNL A   1      41.611  30.165  32.192  1.00  0.00     0.074 A 
ATOM     41  C   UNL A   1      40.438  31.012  32.144  1.00  0.00     0.031 C 
ATOM     42  C   UNL A   1      40.345  25.777  27.708  1.00  0.00     0.029 A 
ATOM     43  C   UNL A   1      41.531  25.855  28.560  1.00  0.00     0.049 A 
ATOM     44  H   UNL A   1      42.001  27.348  29.934  1.00  0.00     0.167 HD
ATOM     45  C   UNL A   1      42.625  30.311  33.078  1.00  0.00     0.037 A 
ATOM     46  C   UNL A   1      42.538  24.959  28.596  1.00  0.00     0.037 A 
ATOM     47  C   UNL A   1      43.799  29.480  33.114  1.00  0.00     0.049 A 
ATOM     48  C   UNL A   1      43.710  25.207  29.511  1.00  0.00     0.074 A 
ATOM     49  C   UNL A   1      44.922  29.605  33.913  1.00  0.00     0.029 A 
ATOM     50  N   UNL A   1      43.999  28.366  32.312  1.00  0.00    -0.354 N 
ATOM     51  N   UNL A   1      43.872  26.141  30.416  1.00  0.00    -0.248 NA
ATOM     52  C   UNL A   1      44.855  24.291  29.387  1.00  0.00     0.031 C 
ATOM     53  C   UNL A   1      45.825  28.597  33.556  1.00  0.00     0.029 A 
ATOM     54  C   UNL A   1      45.243  27.815  32.572  1.00  0.00     0.049 A 
ATOM     55  H   UNL A   1      43.354  28.020  31.655  1.00  0.00     0.167 HD
ATOM     56  C   UNL A   1      45.129  25.929  30.967  1.00  0.00     0.074 A 
ATOM     57  C   UNL A   1      45.676  24.756  30.319  1.00  0.00     0.031 C 
ATOM     58  C   UNL A   1      45.778  26.650  31.914  1.00  0.00     0.037 A 
BRANCH  45  59
ATOM     59  C   UNL A   1      42.552  31.491  33.996  1.00  0.00     0.064 A 
ATOM     60  C   UNL A   1      42.002  31.406  35.282  1.00  0.00     0.173 A 
ATOM     61  C   UNL A   1      43.028  32.737  33.561  1.00  0.00     0.173 A 
ATOM     62  F   UNL A   1      41.508  30.243  35.733  1.00  0.00    -0.203 F 
ATOM     63  C   UNL A   1      41.909  32.537  36.091  1.00  0.00     0.198 A 
ATOM     64  C   UNL A   1      42.955  33.858  34.379  1.00  0.00     0.198 A 
ATOM     65  F   UNL A   1      43.558  32.867  32.334  1.00  0.00    -0.203 F 
ATOM     66  F   UNL A   1      41.334  32.450  37.298  1.00  0.00    -0.200 F 
ATOM     67  C   UNL A   1      42.388  33.759  35.640  1.00  0.00     0.200 A 
ATOM     68  F   UNL A   1      43.419  35.036  33.942  1.00  0.00    -0.200 F 
ATOM     69  F   UNL A   1      42.289  34.847  36.416  1.00  0.00    -0.200 F 
ENDBRANCH  45  59
BRANCH  46  70
ATOM     70  C   UNL A   1      42.521  23.777  27.693  1.00  0.00     0.064 A 
ATOM     71  C   UNL A   1      42.086  22.522  28.142  1.00  0.00     0.173 A 
ATOM     72  C   UNL A   1      42.981  23.870  26.371  1.00  0.00     0.173 A 
ATOM     73  F   UNL A   1      41.669  22.372  29.409  1.00  0.00    -0.203 F 
ATOM     74  C   UNL A   1      42.122  21.406  27.307  1.00  0.00     0.198 A 
ATOM     75  C   UNL A   1      42.987  22.761  25.527  1.00  0.00     0.198 A 
ATOM     76  F   UNL A   1      43.425  25.042  25.894  1.00  0.00    -0.203 F 
ATOM     77  F   UNL A   1      41.748  20.208  27.777  1.00  0.00    -0.200 F 
ATOM     78  C   UNL A   1      42.566  21.528  25.999  1.00  0.00     0.200 A 
ATOM     79  F   UNL A   1      43.409  22.887  24.262  1.00  0.00    -0.200 F 
ATOM     80  F   UNL A   1      42.600  20.456  25.197  1.00  0.00    -0.200 F 
ENDBRANCH  46  70
BRANCH  58  81
ATOM     81  C   UNL A   1      47.156  26.200  32.305  1.00  0.00     0.064 A 
ATOM     82  C   UNL A   1      47.364  25.359  33.407  1.00  0.00     0.173 A 
ATOM     83  C   UNL A   1      48.272  26.562  31.535  1.00  0.00     0.173 A 
ATOM     84  F   UNL A   1      46.332  24.995  34.183  1.00  0.00    -0.203 F 
ATOM     85  C   UNL A   1      48.641  24.911  33.735  1.00  0.00     0.198 A 
ATOM     86  C   UNL A   1      49.543  26.091  31.851  1.00  0.00     0.198 A 
ATOM     87  F   UNL A   1      48.126  27.359  30.465  1.00  0.00    -0.203 F 
ATOM     88  F   UNL A   1      48.821  24.137  34.815  1.00  0.00    -0.200 F 
ATOM     89  C   UNL A   1      49.727  25.269  32.953  1.00  0.00     0.200 A 
ATOM     90  F   UNL A   1      50.591  26.428  31.085  1.00  0.00    -0.200 F 
ATOM     91  F   UNL A   1      50.954  24.827  33.263  1.00  0.00    -0.200 F 
ENDBRANCH  58  81
ENDBRANCH  32  33
ENDBRANCH  25  27
ENDBRANCH  24  25
ENDBRANCH  23  24
ENDBRANCH   1  23
TORSDOF 16
ENDMDL
