MODEL 1
REMARK VINA RESULT:     -12.5      0.000      0.000
REMARK SMILES COc1ccc(NC(=O)N2CC[C@@H](C(=O)OCCOC(=O)c3ccc(-c4c5nc(c(-c6c(F)c(F)c(F)c(F)c6F)c6ccc([nH]6)c(-c6c(F)c(F)c(F)c(F)c6F)c6nc(c(-c7c(F)c(F)c(F)c(F)c7F)c7ccc4[nH]7)C=C6)C=C5)cc3)[C@H]2C)cc1F
REMARK SMILES IDX 17 1 16 2 14 3 15 4 13 5 10 6 11 7 85 8 12 9 86 10 8 11 7 12
REMARK SMILES IDX 9 14 6 15 3 16 4 17 88 18 5 19 87 20 89 21 2 22 1 23 18 24
REMARK SMILES IDX 19 25 20 26 21 27 22 28 23 29 84 30 24 31 83 32 25 33 26 34
REMARK SMILES IDX 27 35 77 36 28 37 82 38 76 39 78 40 29 41 81 42 75 43 74 44
REMARK SMILES IDX 30 46 62 47 42 48 61 49 43 50 46 51 60 52 79 53 44 54 45 55
REMARK SMILES IDX 59 57 80 58 47 59 31 60 32 61 40 62 33 63 34 64 38 65 41 66
REMARK SMILES IDX 35 67 36 68 39 69 37 70 63 71 64 72 72 73 65 74 66 75 70 76
REMARK SMILES IDX 73 77 67 78 68 79 71 80 69 81 48 82 49 83 57 84 50 85 51 86
REMARK SMILES IDX 55 87 58 88 52 89 53 90 56 91 54 92
REMARK H PARENT 7 13 78 45 46 56
REMARK Flexibility Score: inf
ROOT
ATOM      1  C   UNL A   1      35.826  21.057  24.645  1.00  0.00     0.274 C 
ENDROOT
BRANCH   1   2
ATOM      2  O   UNL A   1      35.932  22.369  24.051  1.00  0.00    -0.462 OA
BRANCH   2   3
ATOM      3  C   UNL A   1      34.797  22.863  23.502  1.00  0.00     0.311 C 
ATOM      4  O   UNL A   1      34.745  23.468  22.436  1.00  0.00    -0.252 OA
BRANCH   3   5
ATOM      5  C   UNL A   1      33.559  22.634  24.340  1.00  0.00     0.123 C 
ATOM      6  N   UNL A   1      31.718  23.773  25.358  1.00  0.00    -0.321 N 
ATOM      7  C   UNL A   1      31.202  22.754  24.465  1.00  0.00     0.122 C 
ATOM      8  C   UNL A   1      33.177  23.580  25.509  1.00  0.00     0.098 C 
ATOM      9  C   UNL A   1      32.314  22.562  23.462  1.00  0.00     0.039 C 
ATOM     10  C   UNL A   1      34.013  24.836  25.695  1.00  0.00     0.032 C 
BRANCH   6  11
ATOM     11  C   UNL A   1      30.908  24.142  26.408  1.00  0.00     0.322 C 
ATOM     12  N   UNL A   1      30.490  25.435  26.499  1.00  0.00    -0.308 N 
ATOM     13  H   UNL A   1      30.182  25.702  27.395  1.00  0.00     0.171 HD
ATOM     14  O   UNL A   1      30.572  23.344  27.283  1.00  0.00    -0.248 OA
BRANCH  12  15
ATOM     15  C   UNL A   1      30.421  26.451  25.533  1.00  0.00     0.046 A 
ATOM     16  C   UNL A   1      30.682  28.337  23.479  1.00  0.00     0.154 A 
ATOM     17  C   UNL A   1      29.715  27.338  23.389  1.00  0.00     0.052 A 
ATOM     18  C   UNL A   1      31.409  28.470  24.662  1.00  0.00     0.167 A 
ATOM     19  C   UNL A   1      29.582  26.398  24.416  1.00  0.00     0.030 A 
ATOM     20  C   UNL A   1      31.273  27.544  25.693  1.00  0.00     0.069 A 
ATOM     21  F   UNL A   1      32.289  29.469  24.823  1.00  0.00    -0.203 F 
BRANCH  16  22
ATOM     22  O   UNL A   1      30.834  29.118  22.365  1.00  0.00    -0.494 OA
ATOM     23  C   UNL A   1      29.674  29.883  22.036  1.00  0.00     0.278 C 
ENDBRANCH  16  22
ENDBRANCH  12  15
ENDBRANCH   6  11
ENDBRANCH   3   5
ENDBRANCH   2   3
ENDBRANCH   1   2
BRANCH   1  24
ATOM     24  C   UNL A   1      37.221  20.535  25.001  1.00  0.00     0.275 C 
BRANCH  24  25
ATOM     25  O   UNL A   1      37.934  21.569  25.701  1.00  0.00    -0.458 OA
BRANCH  25  26
ATOM     26  C   UNL A   1      39.180  21.264  26.126  1.00  0.00     0.338 C 
ATOM     27  O   UNL A   1      39.711  20.169  26.136  1.00  0.00    -0.246 OA
BRANCH  26  28
ATOM     28  C   UNL A   1      39.812  22.501  26.626  1.00  0.00     0.060 A 
ATOM     29  C   UNL A   1      40.838  22.450  27.575  1.00  0.00     0.016 A 
ATOM     30  C   UNL A   1      39.373  23.729  26.133  1.00  0.00     0.016 A 
ATOM     31  C   UNL A   1      41.451  23.622  28.014  1.00  0.00     0.010 A 
ATOM     32  C   UNL A   1      40.017  24.899  26.538  1.00  0.00     0.010 A 
ATOM     33  C   UNL A   1      41.068  24.854  27.470  1.00  0.00    -0.014 A 
BRANCH  33  34
ATOM     34  C   UNL A   1      41.776  26.105  27.832  1.00  0.00     0.031 A 
ATOM     35  C   UNL A   1      41.068  27.162  28.623  1.00  0.00     0.074 A 
ATOM     36  C   UNL A   1      43.031  26.311  27.393  1.00  0.00     0.049 A 
ATOM     37  N   UNL A   1      41.413  28.405  28.838  1.00  0.00    -0.248 NA
ATOM     38  C   UNL A   1      39.795  26.771  29.247  1.00  0.00     0.031 C 
ATOM     39  C   UNL A   1      43.841  25.336  26.660  1.00  0.00     0.029 A 
ATOM     40  N   UNL A   1      43.840  27.418  27.477  1.00  0.00    -0.354 N 
ATOM     41  C   UNL A   1      40.389  28.954  29.596  1.00  0.00     0.074 A 
ATOM     42  C   UNL A   1      39.405  27.912  29.800  1.00  0.00     0.031 C 
ATOM     43  C   UNL A   1      45.027  25.888  26.360  1.00  0.00     0.029 A 
ATOM     44  C   UNL A   1      45.033  27.275  26.813  1.00  0.00     0.049 A 
ATOM     45  H   UNL A   1      43.589  28.235  27.967  1.00  0.00     0.167 HD
ATOM     46  C   UNL A   1      40.288  30.216  30.074  1.00  0.00     0.037 A 
ATOM     47  C   UNL A   1      46.000  28.176  26.550  1.00  0.00     0.037 A 
ATOM     48  C   UNL A   1      41.286  31.234  29.880  1.00  0.00     0.049 A 
ATOM     49  C   UNL A   1      45.824  29.594  27.015  1.00  0.00     0.074 A 
ATOM     50  C   UNL A   1      41.290  32.537  30.347  1.00  0.00     0.029 A 
ATOM     51  N   UNL A   1      42.461  31.062  29.162  1.00  0.00    -0.354 N 
ATOM     52  N   UNL A   1      44.841  30.119  27.705  1.00  0.00    -0.248 NA
ATOM     53  C   UNL A   1      46.875  30.552  26.644  1.00  0.00     0.031 C 
ATOM     54  C   UNL A   1      42.445  33.166  29.875  1.00  0.00     0.029 A 
ATOM     55  C   UNL A   1      43.183  32.244  29.149  1.00  0.00     0.049 A 
ATOM     56  H   UNL A   1      42.739  30.224  28.726  1.00  0.00     0.167 HD
ATOM     57  C   UNL A   1      45.153  31.461  27.856  1.00  0.00     0.074 A 
ATOM     58  C   UNL A   1      46.427  31.671  27.198  1.00  0.00     0.031 C 
ATOM     59  C   UNL A   1      44.446  32.433  28.481  1.00  0.00     0.037 A 
BRANCH  46  60
ATOM     60  C   UNL A   1      39.048  30.580  30.832  1.00  0.00     0.064 A 
ATOM     61  C   UNL A   1      37.942  31.123  30.161  1.00  0.00     0.173 A 
ATOM     62  C   UNL A   1      38.977  30.461  32.227  1.00  0.00     0.173 A 
ATOM     63  F   UNL A   1      37.963  31.262  28.826  1.00  0.00    -0.203 F 
ATOM     64  C   UNL A   1      36.814  31.543  30.859  1.00  0.00     0.198 A 
ATOM     65  C   UNL A   1      37.837  30.860  32.922  1.00  0.00     0.198 A 
ATOM     66  F   UNL A   1      40.003  29.937  32.913  1.00  0.00    -0.203 F 
ATOM     67  F   UNL A   1      35.780  32.081  30.199  1.00  0.00    -0.200 F 
ATOM     68  C   UNL A   1      36.761  31.408  32.239  1.00  0.00     0.200 A 
ATOM     69  F   UNL A   1      37.779  30.710  34.252  1.00  0.00    -0.200 F 
ATOM     70  F   UNL A   1      35.672  31.805  32.910  1.00  0.00    -0.200 F 
ENDBRANCH  46  60
BRANCH  47  71
ATOM     71  C   UNL A   1      47.197  27.760  25.776  1.00  0.00     0.064 A 
ATOM     72  C   UNL A   1      48.383  27.369  26.417  1.00  0.00     0.173 A 
ATOM     73  C   UNL A   1      47.190  27.786  24.375  1.00  0.00     0.173 A 
ATOM     74  F   UNL A   1      48.440  27.325  27.756  1.00  0.00    -0.203 F 
ATOM     75  C   UNL A   1      49.526  27.053  25.686  1.00  0.00     0.198 A 
ATOM     76  C   UNL A   1      48.327  27.445  23.644  1.00  0.00     0.198 A 
ATOM     77  F   UNL A   1      46.072  28.127  23.718  1.00  0.00    -0.203 F 
ATOM     78  F   UNL A   1      50.657  26.723  26.323  1.00  0.00    -0.200 F 
ATOM     79  C   UNL A   1      49.497  27.089  24.301  1.00  0.00     0.200 A 
ATOM     80  F   UNL A   1      48.288  27.458  22.305  1.00  0.00    -0.200 F 
ATOM     81  F   UNL A   1      50.594  26.780  23.597  1.00  0.00    -0.200 F 
ENDBRANCH  47  71
BRANCH  59  82
ATOM     82  C   UNL A   1      45.024  33.814  28.492  1.00  0.00     0.064 A 
ATOM     83  C   UNL A   1      45.908  34.210  29.507  1.00  0.00     0.173 A 
ATOM     84  C   UNL A   1      44.627  34.773  27.549  1.00  0.00     0.173 A 
ATOM     85  F   UNL A   1      46.309  33.327  30.434  1.00  0.00    -0.203 F 
ATOM     86  C   UNL A   1      46.356  35.524  29.591  1.00  0.00     0.198 A 
ATOM     87  C   UNL A   1      45.096  36.082  27.624  1.00  0.00     0.198 A 
ATOM     88  F   UNL A   1      43.795  34.436  26.553  1.00  0.00    -0.203 F 
ATOM     89  F   UNL A   1      47.171  35.890  30.591  1.00  0.00    -0.200 F 
ATOM     90  C   UNL A   1      45.951  36.458  28.650  1.00  0.00     0.200 A 
ATOM     91  F   UNL A   1      44.719  36.980  26.703  1.00  0.00    -0.200 F 
ATOM     92  F   UNL A   1      46.383  37.724  28.733  1.00  0.00    -0.200 F 
ENDBRANCH  59  82
ENDBRANCH  33  34
ENDBRANCH  26  28
ENDBRANCH  25  26
ENDBRANCH  24  25
ENDBRANCH   1  24
TORSDOF 14
ENDMDL
MODEL 2
REMARK VINA RESULT:     -12.5      0.279      1.616
REMARK SMILES COc1ccc(NC(=O)N2CC[C@@H](C(=O)OCCOC(=O)c3ccc(-c4c5nc(c(-c6c(F)c(F)c(F)c(F)c6F)c6ccc([nH]6)c(-c6c(F)c(F)c(F)c(F)c6F)c6nc(c(-c7c(F)c(F)c(F)c(F)c7F)c7ccc4[nH]7)C=C6)C=C5)cc3)[C@H]2C)cc1F
REMARK SMILES IDX 17 1 16 2 14 3 15 4 13 5 10 6 11 7 85 8 12 9 86 10 8 11 7 12
REMARK SMILES IDX 9 14 6 15 3 16 4 17 88 18 5 19 87 20 89 21 2 22 1 23 18 24
REMARK SMILES IDX 19 25 20 26 21 27 22 28 23 29 84 30 24 31 83 32 25 33 26 34
REMARK SMILES IDX 27 35 77 36 28 37 82 38 76 39 78 40 29 41 81 42 75 43 74 44
REMARK SMILES IDX 30 46 62 47 42 48 61 49 43 50 46 51 60 52 79 53 44 54 45 55
REMARK SMILES IDX 59 57 80 58 47 59 31 60 32 61 40 62 33 63 34 64 38 65 41 66
REMARK SMILES IDX 35 67 36 68 39 69 37 70 63 71 64 72 72 73 65 74 66 75 70 76
REMARK SMILES IDX 73 77 67 78 68 79 71 80 69 81 48 82 49 83 57 84 50 85 51 86
REMARK SMILES IDX 55 87 58 88 52 89 53 90 56 91 54 92
REMARK H PARENT 7 13 78 45 46 56
REMARK Flexibility Score: inf
ROOT
ATOM      1  C   UNL A   1      35.911  21.230  24.706  1.00  0.00     0.274 C 
ENDROOT
BRANCH   1   2
ATOM      2  O   UNL A   1      36.036  22.412  23.885  1.00  0.00    -0.462 OA
BRANCH   2   3
ATOM      3  C   UNL A   1      34.875  22.942  23.431  1.00  0.00     0.311 C 
ATOM      4  O   UNL A   1      34.757  23.563  22.379  1.00  0.00    -0.252 OA
BRANCH   3   5
ATOM      5  C   UNL A   1      33.699  22.732  24.359  1.00  0.00     0.123 C 
ATOM      6  N   UNL A   1      31.891  23.882  25.424  1.00  0.00    -0.321 N 
ATOM      7  C   UNL A   1      31.352  22.798  24.626  1.00  0.00     0.122 C 
ATOM      8  C   UNL A   1      33.362  23.737  25.491  1.00  0.00     0.098 C 
ATOM      9  C   UNL A   1      32.405  22.574  23.567  1.00  0.00     0.039 C 
ATOM     10  C   UNL A   1      34.170  25.023  25.549  1.00  0.00     0.032 C 
BRANCH   6  11
ATOM     11  C   UNL A   1      31.138  24.293  26.499  1.00  0.00     0.322 C 
ATOM     12  N   UNL A   1      30.626  25.555  26.506  1.00  0.00    -0.308 N 
ATOM     13  H   UNL A   1      30.368  25.885  27.396  1.00  0.00     0.171 HD
ATOM     14  O   UNL A   1      30.936  23.562  27.470  1.00  0.00    -0.248 OA
BRANCH  12  15
ATOM     15  C   UNL A   1      30.401  26.463  25.459  1.00  0.00     0.046 A 
ATOM     16  C   UNL A   1      30.301  28.086  23.178  1.00  0.00     0.154 A 
ATOM     17  C   UNL A   1      29.277  27.177  23.433  1.00  0.00     0.052 A 
ATOM     18  C   UNL A   1      31.292  28.276  24.142  1.00  0.00     0.167 A 
ATOM     19  C   UNL A   1      29.324  26.369  24.574  1.00  0.00     0.030 A 
ATOM     20  C   UNL A   1      31.338  27.483  25.286  1.00  0.00     0.069 A 
ATOM     21  F   UNL A   1      32.249  29.200  23.976  1.00  0.00    -0.203 F 
BRANCH  16  22
ATOM     22  O   UNL A   1      30.242  28.724  21.969  1.00  0.00    -0.494 OA
ATOM     23  C   UNL A   1      29.457  29.917  21.987  1.00  0.00     0.278 C 
ENDBRANCH  16  22
ENDBRANCH  12  15
ENDBRANCH   6  11
ENDBRANCH   3   5
ENDBRANCH   2   3
ENDBRANCH   1   2
BRANCH   1  24
ATOM     24  C   UNL A   1      37.301  20.699  25.065  1.00  0.00     0.275 C 
BRANCH  24  25
ATOM     25  O   UNL A   1      37.999  21.708  25.815  1.00  0.00    -0.458 OA
BRANCH  25  26
ATOM     26  C   UNL A   1      39.249  21.401  26.227  1.00  0.00     0.338 C 
ATOM     27  O   UNL A   1      39.781  20.307  26.224  1.00  0.00    -0.246 OA
BRANCH  26  28
ATOM     28  C   UNL A   1      39.883  22.634  26.732  1.00  0.00     0.060 A 
ATOM     29  C   UNL A   1      40.872  22.580  27.719  1.00  0.00     0.016 A 
ATOM     30  C   UNL A   1      39.485  23.862  26.204  1.00  0.00     0.016 A 
ATOM     31  C   UNL A   1      41.490  23.748  28.164  1.00  0.00     0.010 A 
ATOM     32  C   UNL A   1      40.135  25.027  26.615  1.00  0.00     0.010 A 
ATOM     33  C   UNL A   1      41.150  24.978  27.588  1.00  0.00    -0.014 A 
BRANCH  33  34
ATOM     34  C   UNL A   1      41.866  26.222  27.957  1.00  0.00     0.031 A 
ATOM     35  C   UNL A   1      41.158  27.289  28.734  1.00  0.00     0.074 A 
ATOM     36  C   UNL A   1      43.130  26.412  27.536  1.00  0.00     0.049 A 
ATOM     37  N   UNL A   1      41.514  28.529  28.952  1.00  0.00    -0.248 NA
ATOM     38  C   UNL A   1      39.871  26.914  29.340  1.00  0.00     0.031 C 
ATOM     39  C   UNL A   1      43.940  25.427  26.818  1.00  0.00     0.029 A 
ATOM     40  N   UNL A   1      43.950  27.511  27.630  1.00  0.00    -0.354 N 
ATOM     41  C   UNL A   1      40.485  29.091  29.693  1.00  0.00     0.074 A 
ATOM     42  C   UNL A   1      39.487  28.060  29.884  1.00  0.00     0.031 C 
ATOM     43  C   UNL A   1      45.136  25.964  26.535  1.00  0.00     0.029 A 
ATOM     44  C   UNL A   1      45.151  27.352  26.984  1.00  0.00     0.049 A 
ATOM     45  H   UNL A   1      43.700  28.331  28.114  1.00  0.00     0.167 HD
ATOM     46  C   UNL A   1      40.391  30.355  30.166  1.00  0.00     0.037 A 
ATOM     47  C   UNL A   1      46.132  28.242  26.734  1.00  0.00     0.037 A 
ATOM     48  C   UNL A   1      41.403  31.362  29.985  1.00  0.00     0.049 A 
ATOM     49  C   UNL A   1      45.965  29.663  27.192  1.00  0.00     0.074 A 
ATOM     50  C   UNL A   1      41.415  32.666  30.448  1.00  0.00     0.029 A 
ATOM     51  N   UNL A   1      42.587  31.174  29.285  1.00  0.00    -0.354 N 
ATOM     52  N   UNL A   1      44.978  30.200  27.866  1.00  0.00    -0.248 NA
ATOM     53  C   UNL A   1      47.033  30.608  26.835  1.00  0.00     0.031 C 
ATOM     54  C   UNL A   1      42.584  33.280  29.993  1.00  0.00     0.029 A 
ATOM     55  C   UNL A   1      43.322  32.348  29.280  1.00  0.00     0.049 A 
ATOM     56  H   UNL A   1      42.862  30.332  28.856  1.00  0.00     0.167 HD
ATOM     57  C   UNL A   1      45.303  31.540  28.019  1.00  0.00     0.074 A 
ATOM     58  C   UNL A   1      46.589  31.734  27.380  1.00  0.00     0.031 C 
ATOM     59  C   UNL A   1      44.597  32.521  28.631  1.00  0.00     0.037 A 
BRANCH  46  60
ATOM     60  C   UNL A   1      39.144  30.735  30.905  1.00  0.00     0.064 A 
ATOM     61  C   UNL A   1      39.062  30.551  32.294  1.00  0.00     0.173 A 
ATOM     62  C   UNL A   1      38.010  31.215  30.237  1.00  0.00     0.173 A 
ATOM     63  F   UNL A   1      40.120  30.089  32.978  1.00  0.00    -0.203 F 
ATOM     64  C   UNL A   1      37.885  30.823  32.985  1.00  0.00     0.198 A 
ATOM     65  C   UNL A   1      36.840  31.509  30.934  1.00  0.00     0.198 A 
ATOM     66  F   UNL A   1      38.043  31.420  28.912  1.00  0.00    -0.203 F 
ATOM     67  F   UNL A   1      37.821  30.614  34.307  1.00  0.00    -0.200 F 
ATOM     68  C   UNL A   1      36.776  31.304  32.305  1.00  0.00     0.200 A 
ATOM     69  F   UNL A   1      35.776  31.994  30.280  1.00  0.00    -0.200 F 
ATOM     70  F   UNL A   1      35.645  31.573  32.972  1.00  0.00    -0.200 F 
ENDBRANCH  46  60
BRANCH  47  71
ATOM     71  C   UNL A   1      47.336  27.810  25.979  1.00  0.00     0.064 A 
ATOM     72  C   UNL A   1      47.346  27.778  24.576  1.00  0.00     0.173 A 
ATOM     73  C   UNL A   1      48.487  27.378  26.650  1.00  0.00     0.173 A 
ATOM     74  F   UNL A   1      46.269  28.184  23.887  1.00  0.00    -0.203 F 
ATOM     75  C   UNL A   1      48.451  27.300  23.874  1.00  0.00     0.198 A 
ATOM     76  C   UNL A   1      49.602  26.924  25.946  1.00  0.00     0.198 A 
ATOM     77  F   UNL A   1      48.535  27.415  27.989  1.00  0.00    -0.203 F 
ATOM     78  F   UNL A   1      48.420  27.243  22.536  1.00  0.00    -0.200 F 
ATOM     79  C   UNL A   1      49.578  26.876  24.559  1.00  0.00     0.200 A 
ATOM     80  F   UNL A   1      50.699  26.536  26.611  1.00  0.00    -0.200 F 
ATOM     81  F   UNL A   1      50.643  26.420  23.886  1.00  0.00    -0.200 F 
ENDBRANCH  47  71
BRANCH  59  82
ATOM     82  C   UNL A   1      45.191  33.896  28.647  1.00  0.00     0.064 A 
ATOM     83  C   UNL A   1      46.041  34.293  29.689  1.00  0.00     0.173 A 
ATOM     84  C   UNL A   1      44.840  34.847  27.679  1.00  0.00     0.173 A 
ATOM     85  F   UNL A   1      46.398  33.418  30.640  1.00  0.00    -0.203 F 
ATOM     86  C   UNL A   1      46.501  35.604  29.775  1.00  0.00     0.198 A 
ATOM     87  C   UNL A   1      45.321  36.152  27.756  1.00  0.00     0.198 A 
ATOM     88  F   UNL A   1      44.041  34.508  26.657  1.00  0.00    -0.203 F 
ATOM     89  F   UNL A   1      47.283  35.972  30.799  1.00  0.00    -0.200 F 
ATOM     90  C   UNL A   1      46.142  36.531  28.809  1.00  0.00     0.200 A 
ATOM     91  F   UNL A   1      44.988  37.043  26.812  1.00  0.00    -0.200 F 
ATOM     92  F   UNL A   1      46.585  37.793  28.892  1.00  0.00    -0.200 F 
ENDBRANCH  59  82
ENDBRANCH  33  34
ENDBRANCH  26  28
ENDBRANCH  25  26
ENDBRANCH  24  25
ENDBRANCH   1  24
TORSDOF 14
ENDMDL
MODEL 3
REMARK VINA RESULT:     -12.3      0.288      1.160
REMARK SMILES COc1ccc(NC(=O)N2CC[C@@H](C(=O)OCCOC(=O)c3ccc(-c4c5nc(c(-c6c(F)c(F)c(F)c(F)c6F)c6ccc([nH]6)c(-c6c(F)c(F)c(F)c(F)c6F)c6nc(c(-c7c(F)c(F)c(F)c(F)c7F)c7ccc4[nH]7)C=C6)C=C5)cc3)[C@H]2C)cc1F
REMARK SMILES IDX 17 1 16 2 14 3 15 4 13 5 10 6 11 7 85 8 12 9 86 10 8 11 7 12
REMARK SMILES IDX 9 14 6 15 3 16 4 17 88 18 5 19 87 20 89 21 2 22 1 23 18 24
REMARK SMILES IDX 19 25 20 26 21 27 22 28 23 29 84 30 24 31 83 32 25 33 26 34
REMARK SMILES IDX 27 35 77 36 28 37 82 38 76 39 78 40 29 41 81 42 75 43 74 44
REMARK SMILES IDX 30 46 62 47 42 48 61 49 43 50 46 51 60 52 79 53 44 54 45 55
REMARK SMILES IDX 59 57 80 58 47 59 31 60 32 61 40 62 33 63 34 64 38 65 41 66
REMARK SMILES IDX 35 67 36 68 39 69 37 70 63 71 64 72 72 73 65 74 66 75 70 76
REMARK SMILES IDX 73 77 67 78 68 79 71 80 69 81 48 82 49 83 57 84 50 85 51 86
REMARK SMILES IDX 55 87 58 88 52 89 53 90 56 91 54 92
REMARK H PARENT 7 13 78 45 46 56
REMARK Flexibility Score: inf
ROOT
ATOM      1  C   UNL A   1      37.031  22.019  23.961  1.00  0.00     0.274 C 
ENDROOT
BRANCH   1   2
ATOM      2  O   UNL A   1      35.949  22.731  24.602  1.00  0.00    -0.462 OA
BRANCH   2   3
ATOM      3  C   UNL A   1      34.852  22.952  23.839  1.00  0.00     0.311 C 
ATOM      4  O   UNL A   1      34.879  23.340  22.675  1.00  0.00    -0.252 OA
BRANCH   3   5
ATOM      5  C   UNL A   1      33.544  22.705  24.558  1.00  0.00     0.123 C 
ATOM      6  N   UNL A   1      31.620  23.824  25.436  1.00  0.00    -0.321 N 
ATOM      7  C   UNL A   1      31.186  22.829  24.475  1.00  0.00     0.122 C 
ATOM      8  C   UNL A   1      33.060  23.623  25.711  1.00  0.00     0.098 C 
ATOM      9  C   UNL A   1      32.383  22.658  23.571  1.00  0.00     0.039 C 
ATOM     10  C   UNL A   1      33.877  24.872  26.001  1.00  0.00     0.032 C 
BRANCH   6  11
ATOM     11  C   UNL A   1      30.720  24.170  26.418  1.00  0.00     0.322 C 
ATOM     12  N   UNL A   1      30.282  25.456  26.491  1.00  0.00    -0.308 N 
ATOM     13  H   UNL A   1      29.896  25.707  27.362  1.00  0.00     0.171 HD
ATOM     14  O   UNL A   1      30.321  23.355  27.251  1.00  0.00    -0.248 OA
BRANCH  12  15
ATOM     15  C   UNL A   1      30.283  26.486  25.537  1.00  0.00     0.046 A 
ATOM     16  C   UNL A   1      30.679  28.381  23.513  1.00  0.00     0.154 A 
ATOM     17  C   UNL A   1      29.667  27.432  23.391  1.00  0.00     0.052 A 
ATOM     18  C   UNL A   1      31.388  28.464  24.712  1.00  0.00     0.167 A 
ATOM     19  C   UNL A   1      29.467  26.487  24.403  1.00  0.00     0.030 A 
ATOM     20  C   UNL A   1      31.184  27.534  25.729  1.00  0.00     0.069 A 
ATOM     21  F   UNL A   1      32.311  29.416  24.904  1.00  0.00    -0.203 F 
BRANCH  16  22
ATOM     22  O   UNL A   1      30.894  29.166  22.413  1.00  0.00    -0.494 OA
ATOM     23  C   UNL A   1      29.753  29.930  22.021  1.00  0.00     0.278 C 
ENDBRANCH  16  22
ENDBRANCH  12  15
ENDBRANCH   6  11
ENDBRANCH   3   5
ENDBRANCH   2   3
ENDBRANCH   1   2
BRANCH   1  24
ATOM     24  C   UNL A   1      37.513  20.885  24.868  1.00  0.00     0.275 C 
BRANCH  24  25
ATOM     25  O   UNL A   1      38.071  21.457  26.063  1.00  0.00    -0.458 OA
BRANCH  25  26
ATOM     26  C   UNL A   1      39.391  21.255  26.272  1.00  0.00     0.338 C 
ATOM     27  O   UNL A   1      40.014  20.221  26.125  1.00  0.00    -0.246 OA
BRANCH  26  28
ATOM     28  C   UNL A   1      39.978  22.519  26.758  1.00  0.00     0.060 A 
ATOM     29  C   UNL A   1      40.956  22.519  27.759  1.00  0.00     0.016 A 
ATOM     30  C   UNL A   1      39.548  23.721  26.199  1.00  0.00     0.016 A 
ATOM     31  C   UNL A   1      41.529  23.716  28.186  1.00  0.00     0.010 A 
ATOM     32  C   UNL A   1      40.154  24.916  26.593  1.00  0.00     0.010 A 
ATOM     33  C   UNL A   1      41.156  24.921  27.579  1.00  0.00    -0.014 A 
BRANCH  33  34
ATOM     34  C   UNL A   1      41.827  26.196  27.930  1.00  0.00     0.031 A 
ATOM     35  C   UNL A   1      41.083  27.243  28.701  1.00  0.00     0.074 A 
ATOM     36  C   UNL A   1      43.080  26.430  27.498  1.00  0.00     0.049 A 
ATOM     37  N   UNL A   1      41.393  28.497  28.903  1.00  0.00    -0.248 NA
ATOM     38  C   UNL A   1      39.816  26.825  29.321  1.00  0.00     0.031 C 
ATOM     39  C   UNL A   1      43.922  25.469  26.785  1.00  0.00     0.029 A 
ATOM     40  N   UNL A   1      43.857  27.560  27.575  1.00  0.00    -0.354 N 
ATOM     41  C   UNL A   1      40.349  29.027  29.646  1.00  0.00     0.074 A 
ATOM     42  C   UNL A   1      39.392  27.962  29.855  1.00  0.00     0.031 C 
ATOM     43  C   UNL A   1      45.095  26.048  26.487  1.00  0.00     0.029 A 
ATOM     44  C   UNL A   1      45.059  27.441  26.922  1.00  0.00     0.049 A 
ATOM     45  H   UNL A   1      43.580  28.375  28.052  1.00  0.00     0.167 HD
ATOM     46  C   UNL A   1      40.209  30.292  30.106  1.00  0.00     0.037 A 
ATOM     47  C   UNL A   1      46.004  28.365  26.656  1.00  0.00     0.037 A 
ATOM     48  C   UNL A   1      41.180  31.335  29.908  1.00  0.00     0.049 A 
ATOM     49  C   UNL A   1      45.785  29.783  27.100  1.00  0.00     0.074 A 
ATOM     50  C   UNL A   1      41.145  32.643  30.358  1.00  0.00     0.029 A 
ATOM     51  N   UNL A   1      42.366  31.185  29.202  1.00  0.00    -0.354 N 
ATOM     52  N   UNL A   1      44.782  30.289  27.776  1.00  0.00    -0.248 NA
ATOM     53  C   UNL A   1      46.813  30.765  26.725  1.00  0.00     0.031 C 
ATOM     54  C   UNL A   1      42.287  33.298  29.887  1.00  0.00     0.029 A 
ATOM     55  C   UNL A   1      43.055  32.386  29.179  1.00  0.00     0.049 A 
ATOM     56  H   UNL A   1      42.670  30.350  28.779  1.00  0.00     0.167 HD
ATOM     57  C   UNL A   1      45.057  31.642  27.912  1.00  0.00     0.074 A 
ATOM     58  C   UNL A   1      46.330  31.878  27.262  1.00  0.00     0.031 C 
ATOM     59  C   UNL A   1      44.318  32.601  28.519  1.00  0.00     0.037 A 
BRANCH  46  60
ATOM     60  C   UNL A   1      38.954  30.632  30.851  1.00  0.00     0.064 A 
ATOM     61  C   UNL A   1      37.828  31.108  30.159  1.00  0.00     0.173 A 
ATOM     62  C   UNL A   1      38.883  30.557  32.248  1.00  0.00     0.173 A 
ATOM     63  F   UNL A   1      37.848  31.203  28.821  1.00  0.00    -0.203 F 
ATOM     64  C   UNL A   1      36.683  31.505  30.841  1.00  0.00     0.198 A 
ATOM     65  C   UNL A   1      37.726  30.933  32.927  1.00  0.00     0.198 A 
ATOM     66  F   UNL A   1      39.927  30.097  32.953  1.00  0.00    -0.203 F 
ATOM     67  F   UNL A   1      35.630  31.980  30.162  1.00  0.00    -0.200 F 
ATOM     68  C   UNL A   1      36.631  31.415  32.225  1.00  0.00     0.200 A 
ATOM     69  F   UNL A   1      37.670  30.826  34.262  1.00  0.00    -0.200 F 
ATOM     70  F   UNL A   1      35.525  31.790  32.880  1.00  0.00    -0.200 F 
ENDBRANCH  46  60
BRANCH  47  71
ATOM     71  C   UNL A   1      47.218  27.971  25.896  1.00  0.00     0.064 A 
ATOM     72  C   UNL A   1      47.208  27.883  24.495  1.00  0.00     0.173 A 
ATOM     73  C   UNL A   1      48.403  27.633  26.563  1.00  0.00     0.173 A 
ATOM     74  F   UNL A   1      46.098  28.199  23.811  1.00  0.00    -0.203 F 
ATOM     75  C   UNL A   1      48.326  27.440  23.793  1.00  0.00     0.198 A 
ATOM     76  C   UNL A   1      49.530  27.215  25.857  1.00  0.00     0.198 A 
ATOM     77  F   UNL A   1      48.469  27.727  27.898  1.00  0.00    -0.203 F 
ATOM     78  F   UNL A   1      48.277  27.327  22.459  1.00  0.00    -0.200 F 
ATOM     79  C   UNL A   1      49.487  27.109  24.474  1.00  0.00     0.200 A 
ATOM     80  F   UNL A   1      50.658  26.917  26.517  1.00  0.00    -0.200 F 
ATOM     81  F   UNL A   1      50.565  26.687  23.800  1.00  0.00    -0.200 F 
ENDBRANCH  47  71
BRANCH  59  82
ATOM     82  C   UNL A   1      44.859  33.998  28.516  1.00  0.00     0.064 A 
ATOM     83  C   UNL A   1      45.719  34.432  29.535  1.00  0.00     0.173 A 
ATOM     84  C   UNL A   1      44.447  34.933  27.556  1.00  0.00     0.173 A 
ATOM     85  F   UNL A   1      46.134  33.573  30.479  1.00  0.00    -0.203 F 
ATOM     86  C   UNL A   1      46.131  35.759  29.606  1.00  0.00     0.198 A 
ATOM     87  C   UNL A   1      44.879  36.255  27.617  1.00  0.00     0.198 A 
ATOM     88  F   UNL A   1      43.635  34.560  26.555  1.00  0.00    -0.203 F 
ATOM     89  F   UNL A   1      46.925  36.160  30.609  1.00  0.00    -0.200 F 
ATOM     90  C   UNL A   1      45.711  36.668  28.647  1.00  0.00     0.200 A 
ATOM     91  F   UNL A   1      44.488  37.130  26.680  1.00  0.00    -0.200 F 
ATOM     92  F   UNL A   1      46.108  37.947  28.717  1.00  0.00    -0.200 F 
ENDBRANCH  59  82
ENDBRANCH  33  34
ENDBRANCH  26  28
ENDBRANCH  25  26
ENDBRANCH  24  25
ENDBRANCH   1  24
TORSDOF 14
ENDMDL
