MODEL 1
REMARK VINA RESULT:     -12.4      0.000      0.000
REMARK SMILES CN(C)c1c(Cl)cccc1NS(=O)(=O)c1ccc(F)c(C(=O)OCCOC(=O)c2ccc(-c3c4nc(c(-c5c(F)c(F)c(F)c(F)c5F)c5ccc([nH]5)c(-c5c(F)c(F)c(F)c(F)c5F)c5nc(c(-c6c(F)c(F)c(F)c(F)c6F)c6ccc3[nH]6)C=C5)C=C4)cc2)c1
REMARK SMILES IDX 24 1 23 2 21 3 22 4 20 5 15 6 16 7 92 8 17 9 18 10 19 11
REMARK SMILES IDX 12 12 13 13 14 14 11 15 10 17 4 18 5 19 6 20 7 21 9 22 8 23
REMARK SMILES IDX 2 24 1 25 3 26 25 27 26 28 27 29 28 30 29 31 30 32 91 33
REMARK SMILES IDX 31 34 90 35 32 36 33 37 34 38 84 39 35 40 89 41 83 42 85 43
REMARK SMILES IDX 36 44 88 45 82 46 81 47 37 49 69 50 49 51 68 52 50 53 53 54
REMARK SMILES IDX 67 55 86 56 51 57 52 58 66 60 87 61 54 62 38 63 39 64 47 65
REMARK SMILES IDX 40 66 41 67 45 68 48 69 42 70 43 71 46 72 44 73 70 74 71 75
REMARK SMILES IDX 79 76 72 77 73 78 77 79 80 80 74 81 75 82 78 83 76 84 55 85
REMARK SMILES IDX 56 86 64 87 57 88 58 89 62 90 65 91 59 92 60 93 63 94 61 95
REMARK H PARENT 11 16 85 48 53 59
REMARK Flexibility Score: inf
ROOT
ATOM      1  C   UNL A   1      30.879  31.245  25.752  1.00  0.00     0.275 C 
ENDROOT
BRANCH   1   2
ATOM      2  O   UNL A   1      31.817  30.148  25.704  1.00  0.00    -0.458 OA
BRANCH   2   3
ATOM      3  C   UNL A   1      31.506  29.134  24.862  1.00  0.00     0.341 C 
ATOM      4  O   UNL A   1      30.922  29.224  23.794  1.00  0.00    -0.246 OA
BRANCH   3   5
ATOM      5  C   UNL A   1      32.094  27.860  25.321  1.00  0.00     0.097 A 
ATOM      6  C   UNL A   1      31.739  25.643  26.242  1.00  0.00     0.088 A 
ATOM      7  C   UNL A   1      33.112  25.392  26.205  1.00  0.00     0.025 A 
ATOM      8  C   UNL A   1      31.238  26.892  25.860  1.00  0.00     0.041 A 
ATOM      9  C   UNL A   1      33.970  26.374  25.692  1.00  0.00     0.041 A 
ATOM     10  C   UNL A   1      33.456  27.590  25.232  1.00  0.00     0.137 A 
ATOM     11  F   UNL A   1      34.308  28.490  24.721  1.00  0.00    -0.206 F 
BRANCH   6  12
ATOM     12  S   UNL A   1      30.551  24.339  26.517  1.00  0.00     0.261 S 
ATOM     13  O   UNL A   1      29.266  24.972  26.708  1.00  0.00    -0.201 OA
ATOM     14  O   UNL A   1      31.129  23.481  27.530  1.00  0.00    -0.201 OA
BRANCH  12  15
ATOM     15  N   UNL A   1      30.479  23.459  25.111  1.00  0.00    -0.277 N 
ATOM     16  H   UNL A   1      29.838  22.710  25.084  1.00  0.00     0.180 HD
BRANCH  15  17
ATOM     17  C   UNL A   1      31.264  23.689  23.929  1.00  0.00     0.074 A 
ATOM     18  C   UNL A   1      32.516  23.009  23.878  1.00  0.00     0.080 A 
ATOM     19  C   UNL A   1      33.506  23.556  23.032  1.00  0.00     0.066 A 
ATOM     20  Cl  UNL A   1      35.109  22.923  22.871  1.00  0.00    -0.082 Cl
ATOM     21  C   UNL A   1      33.226  24.669  22.223  1.00  0.00     0.023 A 
ATOM     22  C   UNL A   1      30.969  24.722  23.036  1.00  0.00     0.029 A 
ATOM     23  C   UNL A   1      31.952  25.219  22.190  1.00  0.00     0.004 A 
BRANCH  18  24
ATOM     24  N   UNL A   1      32.620  21.802  24.609  1.00  0.00    -0.375 N 
ATOM     25  C   UNL A   1      33.547  21.649  25.721  1.00  0.00     0.143 C 
ATOM     26  C   UNL A   1      32.446  20.614  23.756  1.00  0.00     0.143 C 
ENDBRANCH  18  24
ENDBRANCH  15  17
ENDBRANCH  12  15
ENDBRANCH   6  12
ENDBRANCH   3   5
ENDBRANCH   2   3
ENDBRANCH   1   2
BRANCH   1  27
ATOM     27  C   UNL A   1      31.439  32.408  26.572  1.00  0.00     0.275 C 
BRANCH  27  28
ATOM     28  O   UNL A   1      32.668  31.995  27.191  1.00  0.00    -0.458 OA
BRANCH  28  29
ATOM     29  C   UNL A   1      33.489  32.986  27.606  1.00  0.00     0.338 C 
ATOM     30  O   UNL A   1      33.244  34.176  27.686  1.00  0.00    -0.246 OA
BRANCH  29  31
ATOM     31  C   UNL A   1      34.774  32.394  28.021  1.00  0.00     0.060 A 
ATOM     32  C   UNL A   1      34.808  31.044  28.353  1.00  0.00     0.016 A 
ATOM     33  C   UNL A   1      35.907  33.185  28.201  1.00  0.00     0.016 A 
ATOM     34  C   UNL A   1      35.948  30.494  28.930  1.00  0.00     0.010 A 
ATOM     35  C   UNL A   1      37.079  32.611  28.715  1.00  0.00     0.010 A 
ATOM     36  C   UNL A   1      37.101  31.267  29.130  1.00  0.00    -0.014 A 
BRANCH  36  37
ATOM     37  C   UNL A   1      38.267  30.675  29.853  1.00  0.00     0.031 A 
ATOM     38  C   UNL A   1      38.500  30.991  31.309  1.00  0.00     0.074 A 
ATOM     39  C   UNL A   1      39.077  29.783  29.245  1.00  0.00     0.049 A 
ATOM     40  N   UNL A   1      39.499  30.643  32.087  1.00  0.00    -0.248 NA
ATOM     41  C   UNL A   1      37.483  31.813  31.983  1.00  0.00     0.031 C 
ATOM     42  C   UNL A   1      38.947  29.331  27.861  1.00  0.00     0.029 A 
ATOM     43  N   UNL A   1      40.147  29.067  29.727  1.00  0.00    -0.354 N 
ATOM     44  C   UNL A   1      39.260  31.253  33.311  1.00  0.00     0.074 A 
ATOM     45  C   UNL A   1      38.023  31.993  33.181  1.00  0.00     0.031 C 
ATOM     46  C   UNL A   1      39.844  28.361  27.629  1.00  0.00     0.029 A 
ATOM     47  C   UNL A   1      40.670  28.178  28.818  1.00  0.00     0.049 A 
ATOM     48  H   UNL A   1      40.505  29.179  30.638  1.00  0.00     0.167 HD
ATOM     49  C   UNL A   1      40.001  31.198  34.444  1.00  0.00     0.037 A 
ATOM     50  C   UNL A   1      41.706  27.322  28.921  1.00  0.00     0.037 A 
ATOM     51  C   UNL A   1      41.191  30.404  34.608  1.00  0.00     0.049 A 
ATOM     52  C   UNL A   1      42.510  27.276  30.189  1.00  0.00     0.074 A 
ATOM     53  C   UNL A   1      42.004  30.290  35.725  1.00  0.00     0.029 A 
ATOM     54  N   UNL A   1      41.722  29.565  33.642  1.00  0.00    -0.354 N 
ATOM     55  N   UNL A   1      42.326  27.929  31.310  1.00  0.00    -0.248 NA
ATOM     56  C   UNL A   1      43.686  26.393  30.196  1.00  0.00     0.031 C 
ATOM     57  C   UNL A   1      43.041  29.401  35.424  1.00  0.00     0.029 A 
ATOM     58  C   UNL A   1      42.853  28.932  34.135  1.00  0.00     0.049 A 
ATOM     59  H   UNL A   1      41.351  29.438  32.739  1.00  0.00     0.167 HD
ATOM     60  C   UNL A   1      43.363  27.546  32.148  1.00  0.00     0.074 A 
ATOM     61  C   UNL A   1      44.153  26.574  31.424  1.00  0.00     0.031 C 
ATOM     62  C   UNL A   1      43.642  27.977  33.403  1.00  0.00     0.037 A 
BRANCH  49  63
ATOM     63  C   UNL A   1      39.563  32.042  35.605  1.00  0.00     0.064 A 
ATOM     64  C   UNL A   1      38.628  31.539  36.525  1.00  0.00     0.173 A 
ATOM     65  C   UNL A   1      40.012  33.358  35.777  1.00  0.00     0.173 A 
ATOM     66  F   UNL A   1      38.162  30.287  36.399  1.00  0.00    -0.203 F 
ATOM     67  C   UNL A   1      38.149  32.330  37.565  1.00  0.00     0.198 A 
ATOM     68  C   UNL A   1      39.549  34.137  36.834  1.00  0.00     0.198 A 
ATOM     69  F   UNL A   1      40.914  33.878  34.932  1.00  0.00    -0.203 F 
ATOM     70  F   UNL A   1      37.234  31.838  38.412  1.00  0.00    -0.200 F 
ATOM     71  C   UNL A   1      38.613  33.626  37.721  1.00  0.00     0.200 A 
ATOM     72  F   UNL A   1      40.013  35.384  36.998  1.00  0.00    -0.200 F 
ATOM     73  F   UNL A   1      38.158  34.384  38.729  1.00  0.00    -0.200 F 
ENDBRANCH  49  63
BRANCH  50  74
ATOM     74  C   UNL A   1      42.052  26.446  27.771  1.00  0.00     0.064 A 
ATOM     75  C   UNL A   1      41.416  25.211  27.578  1.00  0.00     0.173 A 
ATOM     76  C   UNL A   1      43.038  26.823  26.850  1.00  0.00     0.173 A 
ATOM     77  F   UNL A   1      40.457  24.809  28.425  1.00  0.00    -0.203 F 
ATOM     78  C   UNL A   1      41.775  24.373  26.525  1.00  0.00     0.198 A 
ATOM     79  C   UNL A   1      43.377  25.997  25.780  1.00  0.00     0.198 A 
ATOM     80  F   UNL A   1      43.648  28.011  26.972  1.00  0.00    -0.203 F 
ATOM     81  F   UNL A   1      41.176  23.183  26.384  1.00  0.00    -0.200 F 
ATOM     82  C   UNL A   1      42.753  24.768  25.625  1.00  0.00     0.200 A 
ATOM     83  F   UNL A   1      44.299  26.396  24.894  1.00  0.00    -0.200 F 
ATOM     84  F   UNL A   1      43.088  23.968  24.604  1.00  0.00    -0.200 F 
ENDBRANCH  50  74
BRANCH  62  85
ATOM     85  C   UNL A   1      44.859  27.409  34.070  1.00  0.00     0.064 A 
ATOM     86  C   UNL A   1      46.106  28.039  33.940  1.00  0.00     0.173 A 
ATOM     87  C   UNL A   1      44.796  26.218  34.806  1.00  0.00     0.173 A 
ATOM     88  F   UNL A   1      46.220  29.177  33.240  1.00  0.00    -0.203 F 
ATOM     89  C   UNL A   1      47.247  27.492  34.522  1.00  0.00     0.198 A 
ATOM     90  C   UNL A   1      45.934  25.687  35.407  1.00  0.00     0.198 A 
ATOM     91  F   UNL A   1      43.624  25.586  34.969  1.00  0.00    -0.203 F 
ATOM     92  F   UNL A   1      48.432  28.100  34.370  1.00  0.00    -0.200 F 
ATOM     93  C   UNL A   1      47.159  26.320  35.259  1.00  0.00     0.200 A 
ATOM     94  F   UNL A   1      45.844  24.567  36.139  1.00  0.00    -0.200 F 
ATOM     95  F   UNL A   1      48.254  25.806  35.834  1.00  0.00    -0.200 F 
ENDBRANCH  62  85
ENDBRANCH  36  37
ENDBRANCH  29  31
ENDBRANCH  28  29
ENDBRANCH  27  28
ENDBRANCH   1  27
TORSDOF 15
ENDMDL
MODEL 2
REMARK VINA RESULT:     -12.3      1.668      7.432
REMARK SMILES CN(C)c1c(Cl)cccc1NS(=O)(=O)c1ccc(F)c(C(=O)OCCOC(=O)c2ccc(-c3c4nc(c(-c5c(F)c(F)c(F)c(F)c5F)c5ccc([nH]5)c(-c5c(F)c(F)c(F)c(F)c5F)c5nc(c(-c6c(F)c(F)c(F)c(F)c6F)c6ccc3[nH]6)C=C5)C=C4)cc2)c1
REMARK SMILES IDX 24 1 23 2 21 3 22 4 20 5 15 6 16 7 92 8 17 9 18 10 19 11
REMARK SMILES IDX 12 12 13 13 14 14 11 15 10 17 4 18 5 19 6 20 7 21 9 22 8 23
REMARK SMILES IDX 2 24 1 25 3 26 25 27 26 28 27 29 28 30 29 31 30 32 91 33
REMARK SMILES IDX 31 34 90 35 32 36 33 37 34 38 84 39 35 40 89 41 83 42 85 43
REMARK SMILES IDX 36 44 88 45 82 46 81 47 37 49 69 50 49 51 68 52 50 53 53 54
REMARK SMILES IDX 67 55 86 56 51 57 52 58 66 60 87 61 54 62 38 63 39 64 47 65
REMARK SMILES IDX 40 66 41 67 45 68 48 69 42 70 43 71 46 72 44 73 70 74 71 75
REMARK SMILES IDX 79 76 72 77 73 78 77 79 80 80 74 81 75 82 78 83 76 84 55 85
REMARK SMILES IDX 56 86 64 87 57 88 58 89 62 90 65 91 59 92 60 93 63 94 61 95
REMARK H PARENT 11 16 85 48 53 59
REMARK Flexibility Score: inf
ROOT
ATOM      1  C   UNL A   1      31.205  29.593  24.618  1.00  0.00     0.275 C 
ENDROOT
BRANCH   1   2
ATOM      2  O   UNL A   1      29.977  29.811  23.889  1.00  0.00    -0.458 OA
BRANCH   2   3
ATOM      3  C   UNL A   1      29.869  29.172  22.700  1.00  0.00     0.341 C 
ATOM      4  O   UNL A   1      29.693  29.686  21.607  1.00  0.00    -0.246 OA
BRANCH   3   5
ATOM      5  C   UNL A   1      30.135  27.727  22.845  1.00  0.00     0.097 A 
ATOM      6  C   UNL A   1      31.651  25.867  22.482  1.00  0.00     0.088 A 
ATOM      7  C   UNL A   1      30.745  24.992  23.086  1.00  0.00     0.025 A 
ATOM      8  C   UNL A   1      31.322  27.216  22.306  1.00  0.00     0.041 A 
ATOM      9  C   UNL A   1      29.546  25.502  23.599  1.00  0.00     0.041 A 
ATOM     10  C   UNL A   1      29.257  26.867  23.497  1.00  0.00     0.137 A 
ATOM     11  F   UNL A   1      28.111  27.318  24.027  1.00  0.00    -0.206 F 
BRANCH   6  12
ATOM     12  S   UNL A   1      33.338  25.390  22.146  1.00  0.00     0.261 S 
ATOM     13  O   UNL A   1      33.978  26.520  21.510  1.00  0.00    -0.201 OA
ATOM     14  O   UNL A   1      33.266  24.099  21.496  1.00  0.00    -0.201 OA
BRANCH  12  15
ATOM     15  N   UNL A   1      34.068  25.159  23.619  1.00  0.00    -0.277 N 
ATOM     16  H   UNL A   1      35.018  24.897  23.612  1.00  0.00     0.180 HD
BRANCH  15  17
ATOM     17  C   UNL A   1      33.442  25.307  24.905  1.00  0.00     0.074 A 
ATOM     18  C   UNL A   1      32.827  24.132  25.430  1.00  0.00     0.080 A 
ATOM     19  C   UNL A   1      31.813  24.320  26.395  1.00  0.00     0.066 A 
ATOM     20  Cl  UNL A   1      30.901  23.035  27.112  1.00  0.00    -0.082 Cl
ATOM     21  C   UNL A   1      31.494  25.604  26.864  1.00  0.00     0.023 A 
ATOM     22  C   UNL A   1      33.191  26.562  25.464  1.00  0.00     0.029 A 
ATOM     23  C   UNL A   1      32.211  26.713  26.437  1.00  0.00     0.004 A 
BRANCH  18  24
ATOM     24  N   UNL A   1      33.352  22.889  25.005  1.00  0.00    -0.375 N 
ATOM     25  C   UNL A   1      32.556  21.934  24.248  1.00  0.00     0.143 C 
ATOM     26  C   UNL A   1      34.284  22.309  25.986  1.00  0.00     0.143 C 
ENDBRANCH  18  24
ENDBRANCH  15  17
ENDBRANCH  12  15
ENDBRANCH   6  12
ENDBRANCH   3   5
ENDBRANCH   2   3
ENDBRANCH   1   2
BRANCH   1  27
ATOM     27  C   UNL A   1      31.408  30.672  25.681  1.00  0.00     0.275 C 
BRANCH  27  28
ATOM     28  O   UNL A   1      32.704  30.502  26.279  1.00  0.00    -0.458 OA
BRANCH  28  29
ATOM     29  C   UNL A   1      33.153  31.531  27.034  1.00  0.00     0.338 C 
ATOM     30  O   UNL A   1      32.581  32.575  27.289  1.00  0.00    -0.246 OA
BRANCH  29  31
ATOM     31  C   UNL A   1      34.476  31.177  27.577  1.00  0.00     0.060 A 
ATOM     32  C   UNL A   1      34.748  29.842  27.851  1.00  0.00     0.016 A 
ATOM     33  C   UNL A   1      35.397  32.163  27.930  1.00  0.00     0.016 A 
ATOM     34  C   UNL A   1      35.905  29.489  28.539  1.00  0.00     0.010 A 
ATOM     35  C   UNL A   1      36.596  31.797  28.559  1.00  0.00     0.010 A 
ATOM     36  C   UNL A   1      36.846  30.459  28.914  1.00  0.00    -0.014 A 
BRANCH  36  37
ATOM     37  C   UNL A   1      38.020  30.062  29.748  1.00  0.00     0.031 A 
ATOM     38  C   UNL A   1      39.134  29.238  29.151  1.00  0.00     0.074 A 
ATOM     39  C   UNL A   1      38.149  30.504  31.016  1.00  0.00     0.049 A 
ATOM     40  N   UNL A   1      40.192  28.724  29.732  1.00  0.00    -0.248 NA
ATOM     41  C   UNL A   1      39.046  28.942  27.712  1.00  0.00     0.031 C 
ATOM     42  C   UNL A   1      37.188  31.356  31.715  1.00  0.00     0.029 A 
ATOM     43  N   UNL A   1      39.162  30.330  31.930  1.00  0.00    -0.354 N 
ATOM     44  C   UNL A   1      40.854  28.000  28.749  1.00  0.00     0.074 A 
ATOM     45  C   UNL A   1      40.084  28.137  27.532  1.00  0.00     0.031 C 
ATOM     46  C   UNL A   1      37.690  31.695  32.911  1.00  0.00     0.029 A 
ATOM     47  C   UNL A   1      38.970  31.019  33.103  1.00  0.00     0.049 A 
ATOM     48  H   UNL A   1      39.950  29.766  31.759  1.00  0.00     0.167 HD
ATOM     49  C   UNL A   1      42.002  27.288  28.849  1.00  0.00     0.037 A 
ATOM     50  C   UNL A   1      39.727  31.091  34.216  1.00  0.00     0.037 A 
ATOM     51  C   UNL A   1      42.817  27.208  30.034  1.00  0.00     0.049 A 
ATOM     52  C   UNL A   1      40.999  30.296  34.302  1.00  0.00     0.074 A 
ATOM     53  C   UNL A   1      43.998  26.508  30.223  1.00  0.00     0.029 A 
ATOM     54  N   UNL A   1      42.554  27.871  31.221  1.00  0.00    -0.354 N 
ATOM     55  N   UNL A   1      41.565  29.541  33.394  1.00  0.00    -0.248 NA
ATOM     56  C   UNL A   1      41.723  30.342  35.581  1.00  0.00     0.031 C 
ATOM     57  C   UNL A   1      44.435  26.729  31.533  1.00  0.00     0.029 A 
ATOM     58  C   UNL A   1      43.549  27.596  32.148  1.00  0.00     0.049 A 
ATOM     59  H   UNL A   1      41.775  28.452  31.383  1.00  0.00     0.167 HD
ATOM     60  C   UNL A   1      42.702  29.014  33.991  1.00  0.00     0.074 A 
ATOM     61  C   UNL A   1      42.769  29.566  35.327  1.00  0.00     0.031 C 
ATOM     62  C   UNL A   1      43.600  28.138  33.480  1.00  0.00     0.037 A 
BRANCH  49  63
ATOM     63  C   UNL A   1      42.448  26.509  27.647  1.00  0.00     0.064 A 
ATOM     64  C   UNL A   1      41.964  25.208  27.435  1.00  0.00     0.173 A 
ATOM     65  C   UNL A   1      43.392  27.015  26.744  1.00  0.00     0.173 A 
ATOM     66  F   UNL A   1      41.065  24.675  28.277  1.00  0.00    -0.203 F 
ATOM     67  C   UNL A   1      42.422  24.437  26.370  1.00  0.00     0.198 A 
ATOM     68  C   UNL A   1      43.828  26.250  25.665  1.00  0.00     0.198 A 
ATOM     69  F   UNL A   1      43.874  28.257  26.897  1.00  0.00    -0.203 F 
ATOM     70  F   UNL A   1      41.969  23.186  26.206  1.00  0.00    -0.200 F 
ATOM     71  C   UNL A   1      43.350  24.960  25.484  1.00  0.00     0.200 A 
ATOM     72  F   UNL A   1      44.709  26.763  24.795  1.00  0.00    -0.200 F 
ATOM     73  F   UNL A   1      43.783  24.221  24.452  1.00  0.00    -0.200 F 
ENDBRANCH  49  63
BRANCH  50  74
ATOM     74  C   UNL A   1      39.285  31.941  35.352  1.00  0.00     0.064 A 
ATOM     75  C   UNL A   1      38.475  31.429  36.375  1.00  0.00     0.173 A 
ATOM     76  C   UNL A   1      39.656  33.291  35.427  1.00  0.00     0.173 A 
ATOM     77  F   UNL A   1      38.102  30.141  36.355  1.00  0.00    -0.203 F 
ATOM     78  C   UNL A   1      38.026  32.241  37.413  1.00  0.00     0.198 A 
ATOM     79  C   UNL A   1      39.230  34.096  36.482  1.00  0.00     0.198 A 
ATOM     80  F   UNL A   1      40.460  33.817  34.492  1.00  0.00    -0.203 F 
ATOM     81  F   UNL A   1      37.223  31.734  38.359  1.00  0.00    -0.200 F 
ATOM     82  C   UNL A   1      38.406  33.573  37.468  1.00  0.00     0.200 A 
ATOM     83  F   UNL A   1      39.626  35.374  36.549  1.00  0.00    -0.200 F 
ATOM     84  F   UNL A   1      37.986  34.351  38.475  1.00  0.00    -0.200 F 
ENDBRANCH  50  74
BRANCH  62  85
ATOM     85  C   UNL A   1      44.728  27.711  34.371  1.00  0.00     0.064 A 
ATOM     86  C   UNL A   1      45.936  28.425  34.388  1.00  0.00     0.173 A 
ATOM     87  C   UNL A   1      44.625  26.570  35.179  1.00  0.00     0.173 A 
ATOM     88  F   UNL A   1      46.087  29.519  33.628  1.00  0.00    -0.203 F 
ATOM     89  C   UNL A   1      47.001  28.007  35.183  1.00  0.00     0.198 A 
ATOM     90  C   UNL A   1      45.684  26.170  35.990  1.00  0.00     0.198 A 
ATOM     91  F   UNL A   1      43.486  25.863  35.206  1.00  0.00    -0.203 F 
ATOM     92  F   UNL A   1      48.153  28.693  35.170  1.00  0.00    -0.200 F 
ATOM     93  C   UNL A   1      46.872  26.884  35.986  1.00  0.00     0.200 A 
ATOM     94  F   UNL A   1      45.550  25.098  36.785  1.00  0.00    -0.200 F 
ATOM     95  F   UNL A   1      47.892  26.496  36.764  1.00  0.00    -0.200 F 
ENDBRANCH  62  85
ENDBRANCH  36  37
ENDBRANCH  29  31
ENDBRANCH  28  29
ENDBRANCH  27  28
ENDBRANCH   1  27
TORSDOF 15
ENDMDL
MODEL 3
REMARK VINA RESULT:     -12.1      4.402      7.416
REMARK SMILES CN(C)c1c(Cl)cccc1NS(=O)(=O)c1ccc(F)c(C(=O)OCCOC(=O)c2ccc(-c3c4nc(c(-c5c(F)c(F)c(F)c(F)c5F)c5ccc([nH]5)c(-c5c(F)c(F)c(F)c(F)c5F)c5nc(c(-c6c(F)c(F)c(F)c(F)c6F)c6ccc3[nH]6)C=C5)C=C4)cc2)c1
REMARK SMILES IDX 24 1 23 2 21 3 22 4 20 5 15 6 16 7 92 8 17 9 18 10 19 11
REMARK SMILES IDX 12 12 13 13 14 14 11 15 10 17 4 18 5 19 6 20 7 21 9 22 8 23
REMARK SMILES IDX 2 24 1 25 3 26 25 27 26 28 27 29 28 30 29 31 30 32 91 33
REMARK SMILES IDX 31 34 90 35 32 36 33 37 34 38 84 39 35 40 89 41 83 42 85 43
REMARK SMILES IDX 36 44 88 45 82 46 81 47 37 49 69 50 49 51 68 52 50 53 53 54
REMARK SMILES IDX 67 55 86 56 51 57 52 58 66 60 87 61 54 62 38 63 39 64 47 65
REMARK SMILES IDX 40 66 41 67 45 68 48 69 42 70 43 71 46 72 44 73 70 74 71 75
REMARK SMILES IDX 79 76 72 77 73 78 77 79 80 80 74 81 75 82 78 83 76 84 55 85
REMARK SMILES IDX 56 86 64 87 57 88 58 89 62 90 65 91 59 92 60 93 63 94 61 95
REMARK H PARENT 11 16 85 48 53 59
REMARK Flexibility Score: inf
ROOT
ATOM      1  C   UNL A   1      35.247  20.337  25.236  1.00  0.00     0.275 C 
ENDROOT
BRANCH   1   2
ATOM      2  O   UNL A   1      34.297  20.825  24.264  1.00  0.00    -0.458 OA
BRANCH   2   3
ATOM      3  C   UNL A   1      33.291  21.593  24.747  1.00  0.00     0.341 C 
ATOM      4  O   UNL A   1      32.272  21.204  25.293  1.00  0.00    -0.246 OA
BRANCH   3   5
ATOM      5  C   UNL A   1      33.630  23.028  24.665  1.00  0.00     0.097 A 
ATOM      6  C   UNL A   1      33.725  25.047  23.322  1.00  0.00     0.088 A 
ATOM      7  C   UNL A   1      34.228  25.764  24.409  1.00  0.00     0.025 A 
ATOM      8  C   UNL A   1      33.485  23.672  23.431  1.00  0.00     0.041 A 
ATOM      9  C   UNL A   1      34.398  25.109  25.636  1.00  0.00     0.041 A 
ATOM     10  C   UNL A   1      34.078  23.754  25.764  1.00  0.00     0.137 A 
ATOM     11  F   UNL A   1      34.228  23.174  26.963  1.00  0.00    -0.206 F 
BRANCH   6  12
ATOM     12  S   UNL A   1      33.125  25.864  21.852  1.00  0.00     0.261 S 
ATOM     13  O   UNL A   1      32.937  24.842  20.847  1.00  0.00    -0.201 OA
ATOM     14  O   UNL A   1      34.010  26.987  21.631  1.00  0.00    -0.201 OA
BRANCH  12  15
ATOM     15  N   UNL A   1      31.631  26.483  22.231  1.00  0.00    -0.277 N 
ATOM     16  H   UNL A   1      31.157  26.975  21.520  1.00  0.00     0.180 HD
BRANCH  15  17
ATOM     17  C   UNL A   1      30.964  26.364  23.498  1.00  0.00     0.074 A 
ATOM     18  C   UNL A   1      31.256  27.390  24.446  1.00  0.00     0.080 A 
ATOM     19  C   UNL A   1      31.046  27.078  25.808  1.00  0.00     0.066 A 
ATOM     20  Cl  UNL A   1      31.395  28.154  27.118  1.00  0.00    -0.082 Cl
ATOM     21  C   UNL A   1      30.498  25.843  26.187  1.00  0.00     0.023 A 
ATOM     22  C   UNL A   1      30.315  25.190  23.886  1.00  0.00     0.029 A 
ATOM     23  C   UNL A   1      30.090  24.924  25.230  1.00  0.00     0.004 A 
BRANCH  18  24
ATOM     24  N   UNL A   1      31.642  28.649  23.930  1.00  0.00    -0.375 N 
ATOM     25  C   UNL A   1      32.943  29.235  24.215  1.00  0.00     0.143 C 
ATOM     26  C   UNL A   1      30.516  29.596  23.865  1.00  0.00     0.143 C 
ENDBRANCH  18  24
ENDBRANCH  15  17
ENDBRANCH  12  15
ENDBRANCH   6  12
ENDBRANCH   3   5
ENDBRANCH   2   3
ENDBRANCH   1   2
BRANCH   1  27
ATOM     27  C   UNL A   1      36.678  20.469  24.717  1.00  0.00     0.275 C 
BRANCH  27  28
ATOM     28  O   UNL A   1      37.365  21.471  25.484  1.00  0.00    -0.458 OA
BRANCH  28  29
ATOM     29  C   UNL A   1      38.615  21.158  25.894  1.00  0.00     0.338 C 
ATOM     30  O   UNL A   1      39.186  20.087  25.798  1.00  0.00    -0.246 OA
BRANCH  29  31
ATOM     31  C   UNL A   1      39.246  22.366  26.454  1.00  0.00     0.060 A 
ATOM     32  C   UNL A   1      38.599  23.587  26.303  1.00  0.00     0.016 A 
ATOM     33  C   UNL A   1      40.521  22.317  27.016  1.00  0.00     0.016 A 
ATOM     34  C   UNL A   1      39.247  24.770  26.645  1.00  0.00     0.010 A 
ATOM     35  C   UNL A   1      41.143  23.506  27.427  1.00  0.00     0.010 A 
ATOM     36  C   UNL A   1      40.533  24.753  27.205  1.00  0.00    -0.014 A 
BRANCH  36  37
ATOM     37  C   UNL A   1      41.242  26.044  27.456  1.00  0.00     0.031 A 
ATOM     38  C   UNL A   1      40.616  27.098  28.334  1.00  0.00     0.074 A 
ATOM     39  C   UNL A   1      42.486  26.253  26.979  1.00  0.00     0.049 A 
ATOM     40  N   UNL A   1      41.034  28.312  28.605  1.00  0.00    -0.248 NA
ATOM     41  C   UNL A   1      39.346  26.750  28.991  1.00  0.00     0.031 C 
ATOM     42  C   UNL A   1      43.249  25.308  26.165  1.00  0.00     0.029 A 
ATOM     43  N   UNL A   1      43.346  27.314  27.143  1.00  0.00    -0.354 N 
ATOM     44  C   UNL A   1      40.054  28.885  29.405  1.00  0.00     0.074 A 
ATOM     45  C   UNL A   1      39.018  27.891  29.581  1.00  0.00     0.031 C 
ATOM     46  C   UNL A   1      44.484  25.792  25.969  1.00  0.00     0.029 A 
ATOM     47  C   UNL A   1      44.579  27.119  26.569  1.00  0.00     0.049 A 
ATOM     48  H   UNL A   1      43.100  28.136  27.627  1.00  0.00     0.167 HD
ATOM     49  C   UNL A   1      40.023  30.126  29.948  1.00  0.00     0.037 A 
ATOM     50  C   UNL A   1      45.662  27.920  26.517  1.00  0.00     0.037 A 
ATOM     51  C   UNL A   1      41.083  31.095  29.843  1.00  0.00     0.049 A 
ATOM     52  C   UNL A   1      45.603  29.290  27.130  1.00  0.00     0.074 A 
ATOM     53  C   UNL A   1      41.132  32.378  30.364  1.00  0.00     0.029 A 
ATOM     54  N   UNL A   1      42.290  30.880  29.200  1.00  0.00    -0.354 N 
ATOM     55  N   UNL A   1      44.633  29.854  27.806  1.00  0.00    -0.248 NA
ATOM     56  C   UNL A   1      46.785  30.148  26.949  1.00  0.00     0.031 C 
ATOM     57  C   UNL A   1      42.361  32.947  30.014  1.00  0.00     0.029 A 
ATOM     58  C   UNL A   1      43.092  32.007  29.308  1.00  0.00     0.049 A 
ATOM     59  H   UNL A   1      42.542  30.049  28.734  1.00  0.00     0.167 HD
ATOM     60  C   UNL A   1      45.078  31.130  28.120  1.00  0.00     0.074 A 
ATOM     61  C   UNL A   1      46.422  31.247  27.597  1.00  0.00     0.031 C 
ATOM     62  C   UNL A   1      44.422  32.120  28.772  1.00  0.00     0.037 A 
BRANCH  49  63
ATOM     63  C   UNL A   1      38.785  30.528  30.695  1.00  0.00     0.064 A 
ATOM     64  C   UNL A   1      37.697  31.083  30.002  1.00  0.00     0.173 A 
ATOM     65  C   UNL A   1      38.695  30.429  32.089  1.00  0.00     0.173 A 
ATOM     66  F   UNL A   1      37.738  31.208  28.667  1.00  0.00    -0.203 F 
ATOM     67  C   UNL A   1      36.569  31.536  30.682  1.00  0.00     0.198 A 
ATOM     68  C   UNL A   1      37.555  30.859  32.764  1.00  0.00     0.198 A 
ATOM     69  F   UNL A   1      39.704  29.894  32.794  1.00  0.00    -0.203 F 
ATOM     70  F   UNL A   1      35.556  32.090  30.002  1.00  0.00    -0.200 F 
ATOM     71  C   UNL A   1      36.498  31.420  32.061  1.00  0.00     0.200 A 
ATOM     72  F   UNL A   1      37.477  30.727  34.095  1.00  0.00    -0.200 F 
ATOM     73  F   UNL A   1      35.408  31.847  32.715  1.00  0.00    -0.200 F 
ENDBRANCH  49  63
BRANCH  50  74
ATOM     74  C   UNL A   1      46.894  27.445  25.836  1.00  0.00     0.064 A 
ATOM     75  C   UNL A   1      47.932  26.829  26.551  1.00  0.00     0.173 A 
ATOM     76  C   UNL A   1      47.065  27.613  24.455  1.00  0.00     0.173 A 
ATOM     77  F   UNL A   1      47.814  26.635  27.873  1.00  0.00    -0.203 F 
ATOM     78  C   UNL A   1      49.105  26.427  25.916  1.00  0.00     0.198 A 
ATOM     79  C   UNL A   1      48.226  27.184  23.816  1.00  0.00     0.198 A 
ATOM     80  F   UNL A   1      46.085  28.163  23.722  1.00  0.00    -0.203 F 
ATOM     81  F   UNL A   1      50.094  25.873  26.630  1.00  0.00    -0.200 F 
ATOM     82  C   UNL A   1      49.250  26.602  24.549  1.00  0.00     0.200 A 
ATOM     83  F   UNL A   1      48.350  27.325  22.489  1.00  0.00    -0.200 F 
ATOM     84  F   UNL A   1      50.372  26.202  23.936  1.00  0.00    -0.200 F 
ENDBRANCH  50  74
BRANCH  62  85
ATOM     85  C   UNL A   1      45.143  33.424  28.946  1.00  0.00     0.064 A 
ATOM     86  C   UNL A   1      45.942  33.654  30.076  1.00  0.00     0.173 A 
ATOM     87  C   UNL A   1      45.009  34.460  28.011  1.00  0.00     0.173 A 
ATOM     88  F   UNL A   1      46.096  32.697  31.003  1.00  0.00    -0.203 F 
ATOM     89  C   UNL A   1      46.580  34.878  30.263  1.00  0.00     0.198 A 
ATOM     90  C   UNL A   1      45.667  35.674  28.189  1.00  0.00     0.198 A 
ATOM     91  F   UNL A   1      44.266  34.282  26.909  1.00  0.00    -0.203 F 
ATOM     92  F   UNL A   1      47.323  35.084  31.358  1.00  0.00    -0.200 F 
ATOM     93  C   UNL A   1      46.446  35.884  29.317  1.00  0.00     0.200 A 
ATOM     94  F   UNL A   1      45.557  36.637  27.263  1.00  0.00    -0.200 F 
ATOM     95  F   UNL A   1      47.075  37.054  29.490  1.00  0.00    -0.200 F 
ENDBRANCH  62  85
ENDBRANCH  36  37
ENDBRANCH  29  31
ENDBRANCH  28  29
ENDBRANCH  27  28
ENDBRANCH   1  27
TORSDOF 15
ENDMDL
