MODEL 1
REMARK VINA RESULT:     -12.7      0.000      0.000
REMARK SMILES Cc1c(Br)c(C)c2c(c1Br)O[C@H](C(F)(F)F)C(C(=O)OCCOC(=O)c1ccc(-c3c4nc(c(-c5c(F)c(F)c(F)c(F)c5F)c5ccc([nH]5)c(-c5c(F)c(F)c(F)c(F)c5F)c5nc(c(-c6c(F)c(F)c(F)c(F)c6F)c6ccc3[nH]6)C=C5)C=C4)cc1)=C2
REMARK SMILES IDX 22 1 21 2 20 3 18 4 19 5 17 6 1 7 2 8 3 9 9 10 4 11 5 12
REMARK SMILES IDX 8 13 10 14 6 15 7 16 11 17 89 18 12 19 13 20 14 21 15 22
REMARK SMILES IDX 16 23 23 24 24 25 25 26 26 27 27 28 88 29 28 30 87 31 29 32
REMARK SMILES IDX 30 33 31 34 81 35 32 36 86 37 80 38 82 39 33 40 85 41 79 42
REMARK SMILES IDX 78 43 34 45 66 46 46 47 65 48 47 49 50 50 64 51 83 52 48 53
REMARK SMILES IDX 49 54 63 56 84 57 51 58 35 59 36 60 44 61 37 62 38 63 42 64
REMARK SMILES IDX 45 65 39 66 40 67 43 68 41 69 67 70 68 71 76 72 69 73 70 74
REMARK SMILES IDX 74 75 77 76 71 77 72 78 75 79 73 80 52 81 53 82 61 83 54 84
REMARK SMILES IDX 55 85 59 86 62 87 56 88 57 89 60 90 58 91
REMARK H PARENT 82 44 50 55
REMARK Flexibility Score: inf
ROOT
ATOM      1  C   UNL A   1      31.877  30.058  25.535  1.00  0.00     0.275 C 
ENDROOT
BRANCH   1   2
ATOM      2  C   UNL A   1      31.477  28.613  25.240  1.00  0.00     0.275 C 
BRANCH   2   3
ATOM      3  O   UNL A   1      32.441  27.685  25.786  1.00  0.00    -0.459 OA
BRANCH   3   4
ATOM      4  C   UNL A   1      33.354  27.209  24.908  1.00  0.00     0.338 C 
ATOM      5  O   UNL A   1      34.028  27.862  24.126  1.00  0.00    -0.246 OA
BRANCH   4   6
ATOM      6  C   UNL A   1      33.464  25.743  25.024  1.00  0.00     0.087 C 
ATOM      7  C   UNL A   1      35.291  19.470  24.822  1.00  0.00     0.047 C 
ATOM      8  C   UNL A   1      35.152  20.963  25.017  1.00  0.00    -0.019 A 
ATOM      9  C   UNL A   1      36.275  21.785  25.277  1.00  0.00     0.025 A 
ATOM     10  C   UNL A   1      33.891  21.583  24.868  1.00  0.00     0.064 A 
ATOM     11  Br  UNL A   1      38.019  20.986  25.375  1.00  0.00    -0.050 Br
ATOM     12  C   UNL A   1      36.142  23.188  25.427  1.00  0.00    -0.026 A 
ATOM     13  C   UNL A   1      33.743  22.975  24.990  1.00  0.00     0.142 A 
ATOM     14  Br  UNL A   1      32.334  20.551  24.429  1.00  0.00    -0.046 Br
ATOM     15  C   UNL A   1      37.322  24.078  25.757  1.00  0.00     0.046 C 
ATOM     16  C   UNL A   1      34.861  23.776  25.254  1.00  0.00     0.022 A 
ATOM     17  O   UNL A   1      32.474  23.485  24.870  1.00  0.00    -0.474 OA
ATOM     18  C   UNL A   1      34.668  25.225  25.293  1.00  0.00     0.027 C 
ATOM     19  C   UNL A   1      32.270  24.907  24.697  1.00  0.00     0.316 C 
BRANCH  19  20
ATOM     20  C   UNL A   1      31.763  25.179  23.271  1.00  0.00     0.430 C 
ATOM     21  F   UNL A   1      32.780  25.481  22.432  1.00  0.00    -0.167 F 
ATOM     22  F   UNL A   1      31.139  24.093  22.752  1.00  0.00    -0.167 F 
ATOM     23  F   UNL A   1      30.883  26.206  23.234  1.00  0.00    -0.167 F 
ENDBRANCH  19  20
ENDBRANCH   4   6
ENDBRANCH   3   4
ENDBRANCH   2   3
ENDBRANCH   1   2
BRANCH   1  24
ATOM     24  O   UNL A   1      32.344  30.172  26.892  1.00  0.00    -0.458 OA
BRANCH  24  25
ATOM     25  C   UNL A   1      33.005  31.313  27.190  1.00  0.00     0.338 C 
ATOM     26  O   UNL A   1      32.576  32.453  27.161  1.00  0.00    -0.246 OA
BRANCH  25  27
ATOM     27  C   UNL A   1      34.368  30.995  27.646  1.00  0.00     0.060 A 
ATOM     28  C   UNL A   1      34.702  29.671  27.895  1.00  0.00     0.016 A 
ATOM     29  C   UNL A   1      35.252  32.013  28.001  1.00  0.00     0.016 A 
ATOM     30  C   UNL A   1      35.843  29.366  28.630  1.00  0.00     0.010 A 
ATOM     31  C   UNL A   1      36.469  31.689  28.617  1.00  0.00     0.010 A 
ATOM     32  C   UNL A   1      36.757  30.364  28.994  1.00  0.00    -0.014 A 
BRANCH  32  33
ATOM     33  C   UNL A   1      37.968  30.020  29.803  1.00  0.00     0.031 A 
ATOM     34  C   UNL A   1      39.081  29.191  29.205  1.00  0.00     0.074 A 
ATOM     35  C   UNL A   1      38.112  30.489  31.061  1.00  0.00     0.049 A 
ATOM     36  N   UNL A   1      40.118  28.648  29.794  1.00  0.00    -0.248 NA
ATOM     37  C   UNL A   1      39.017  28.928  27.758  1.00  0.00     0.031 C 
ATOM     38  C   UNL A   1      37.156  31.349  31.760  1.00  0.00     0.029 A 
ATOM     39  N   UNL A   1      39.132  30.333  31.970  1.00  0.00    -0.354 N 
ATOM     40  C   UNL A   1      40.784  27.927  28.809  1.00  0.00     0.074 A 
ATOM     41  C   UNL A   1      40.036  28.100  27.583  1.00  0.00     0.031 C 
ATOM     42  C   UNL A   1      37.670  31.715  32.942  1.00  0.00     0.029 A 
ATOM     43  C   UNL A   1      38.931  31.014  33.148  1.00  0.00     0.049 A 
ATOM     44  H   UNL A   1      39.930  29.785  31.795  1.00  0.00     0.167 HD
ATOM     45  C   UNL A   1      41.916  27.189  28.919  1.00  0.00     0.037 A 
ATOM     46  C   UNL A   1      39.648  31.042  34.287  1.00  0.00     0.037 A 
ATOM     47  C   UNL A   1      42.701  27.082  30.122  1.00  0.00     0.049 A 
ATOM     48  C   UNL A   1      40.876  30.185  34.399  1.00  0.00     0.074 A 
ATOM     49  C   UNL A   1      43.866  26.361  30.329  1.00  0.00     0.029 A 
ATOM     50  N   UNL A   1      42.420  27.736  31.312  1.00  0.00    -0.354 N 
ATOM     51  N   UNL A   1      41.439  29.427  33.491  1.00  0.00    -0.248 NA
ATOM     52  C   UNL A   1      41.546  30.153  35.708  1.00  0.00     0.031 C 
ATOM     53  C   UNL A   1      44.270  26.551  31.654  1.00  0.00     0.029 A 
ATOM     54  C   UNL A   1      43.382  27.426  32.260  1.00  0.00     0.049 A 
ATOM     55  H   UNL A   1      41.651  28.332  31.461  1.00  0.00     0.167 HD
ATOM     56  C   UNL A   1      42.526  28.831  34.113  1.00  0.00     0.074 A 
ATOM     57  C   UNL A   1      42.561  29.334  35.470  1.00  0.00     0.031 C 
ATOM     58  C   UNL A   1      43.407  27.936  33.606  1.00  0.00     0.037 A 
BRANCH  45  59
ATOM     59  C   UNL A   1      42.375  26.414  27.717  1.00  0.00     0.064 A 
ATOM     60  C   UNL A   1      43.386  26.887  26.869  1.00  0.00     0.173 A 
ATOM     61  C   UNL A   1      41.843  25.140  27.457  1.00  0.00     0.173 A 
ATOM     62  F   UNL A   1      43.919  28.101  27.066  1.00  0.00    -0.203 F 
ATOM     63  C   UNL A   1      43.836  26.121  25.795  1.00  0.00     0.198 A 
ATOM     64  C   UNL A   1      42.316  24.366  26.401  1.00  0.00     0.198 A 
ATOM     65  F   UNL A   1      40.879  24.637  28.243  1.00  0.00    -0.203 F 
ATOM     66  F   UNL A   1      44.780  26.606  24.977  1.00  0.00    -0.200 F 
ATOM     67  C   UNL A   1      43.308  24.857  25.569  1.00  0.00     0.200 A 
ATOM     68  F   UNL A   1      41.815  23.139  26.195  1.00  0.00    -0.200 F 
ATOM     69  F   UNL A   1      43.755  24.115  24.546  1.00  0.00    -0.200 F 
ENDBRANCH  45  59
BRANCH  46  70
ATOM     70  C   UNL A   1      39.192  31.882  35.427  1.00  0.00     0.064 A 
ATOM     71  C   UNL A   1      39.554  33.233  35.515  1.00  0.00     0.173 A 
ATOM     72  C   UNL A   1      38.357  31.365  36.431  1.00  0.00     0.173 A 
ATOM     73  F   UNL A   1      40.374  33.768  34.598  1.00  0.00    -0.203 F 
ATOM     74  C   UNL A   1      39.095  34.035  36.559  1.00  0.00     0.198 A 
ATOM     75  C   UNL A   1      37.872  32.176  37.453  1.00  0.00     0.198 A 
ATOM     76  F   UNL A   1      37.985  30.077  36.397  1.00  0.00    -0.203 F 
ATOM     77  F   UNL A   1      39.480  35.316  36.636  1.00  0.00    -0.200 F 
ATOM     78  C   UNL A   1      38.244  33.509  37.520  1.00  0.00     0.200 A 
ATOM     79  F   UNL A   1      37.034  31.666  38.367  1.00  0.00    -0.200 F 
ATOM     80  F   UNL A   1      37.784  34.286  38.509  1.00  0.00    -0.200 F 
ENDBRANCH  46  70
BRANCH  58  81
ATOM     81  C   UNL A   1      44.495  27.446  34.513  1.00  0.00     0.064 A 
ATOM     82  C   UNL A   1      44.345  26.271  35.265  1.00  0.00     0.173 A 
ATOM     83  C   UNL A   1      45.725  28.118  34.578  1.00  0.00     0.173 A 
ATOM     84  F   UNL A   1      43.182  25.602  35.246  1.00  0.00    -0.203 F 
ATOM     85  C   UNL A   1      45.384  25.792  36.056  1.00  0.00     0.198 A 
ATOM     86  C   UNL A   1      46.771  27.622  35.351  1.00  0.00     0.198 A 
ATOM     87  F   UNL A   1      45.918  29.242  33.872  1.00  0.00    -0.203 F 
ATOM     88  F   UNL A   1      45.210  24.683  36.789  1.00  0.00    -0.200 F 
ATOM     89  C   UNL A   1      46.599  26.462  36.092  1.00  0.00     0.200 A 
ATOM     90  F   UNL A   1      47.948  28.262  35.374  1.00  0.00    -0.200 F 
ATOM     91  F   UNL A   1      47.604  25.990  36.841  1.00  0.00    -0.200 F 
ENDBRANCH  58  81
ENDBRANCH  32  33
ENDBRANCH  25  27
ENDBRANCH  24  25
ENDBRANCH   1  24
TORSDOF 12
ENDMDL
MODEL 2
REMARK VINA RESULT:     -12.6      0.426      1.698
REMARK SMILES Cc1c(Br)c(C)c2c(c1Br)O[C@H](C(F)(F)F)C(C(=O)OCCOC(=O)c1ccc(-c3c4nc(c(-c5c(F)c(F)c(F)c(F)c5F)c5ccc([nH]5)c(-c5c(F)c(F)c(F)c(F)c5F)c5nc(c(-c6c(F)c(F)c(F)c(F)c6F)c6ccc3[nH]6)C=C5)C=C4)cc1)=C2
REMARK SMILES IDX 22 1 21 2 20 3 18 4 19 5 17 6 1 7 2 8 3 9 9 10 4 11 5 12
REMARK SMILES IDX 8 13 10 14 6 15 7 16 11 17 89 18 12 19 13 20 14 21 15 22
REMARK SMILES IDX 16 23 23 24 24 25 25 26 26 27 27 28 88 29 28 30 87 31 29 32
REMARK SMILES IDX 30 33 31 34 81 35 32 36 86 37 80 38 82 39 33 40 85 41 79 42
REMARK SMILES IDX 78 43 34 45 66 46 46 47 65 48 47 49 50 50 64 51 83 52 48 53
REMARK SMILES IDX 49 54 63 56 84 57 51 58 35 59 36 60 44 61 37 62 38 63 42 64
REMARK SMILES IDX 45 65 39 66 40 67 43 68 41 69 67 70 68 71 76 72 69 73 70 74
REMARK SMILES IDX 74 75 77 76 71 77 72 78 75 79 73 80 52 81 53 82 61 83 54 84
REMARK SMILES IDX 55 85 59 86 62 87 56 88 57 89 60 90 58 91
REMARK H PARENT 82 44 50 55
REMARK Flexibility Score: inf
ROOT
ATOM      1  C   UNL A   1      31.781  30.016  26.266  1.00  0.00     0.275 C 
ENDROOT
BRANCH   1   2
ATOM      2  C   UNL A   1      31.632  28.663  25.571  1.00  0.00     0.275 C 
BRANCH   2   3
ATOM      3  O   UNL A   1      32.672  27.749  25.983  1.00  0.00    -0.459 OA
BRANCH   3   4
ATOM      4  C   UNL A   1      33.449  27.263  24.989  1.00  0.00     0.338 C 
ATOM      5  O   UNL A   1      34.026  27.908  24.127  1.00  0.00    -0.246 OA
BRANCH   4   6
ATOM      6  C   UNL A   1      33.543  25.793  25.080  1.00  0.00     0.087 C 
ATOM      7  C   UNL A   1      35.301  19.504  24.780  1.00  0.00     0.047 C 
ATOM      8  C   UNL A   1      35.178  20.995  25.001  1.00  0.00    -0.019 A 
ATOM      9  C   UNL A   1      36.308  21.801  25.282  1.00  0.00     0.025 A 
ATOM     10  C   UNL A   1      33.925  21.632  24.854  1.00  0.00     0.064 A 
ATOM     11  Br  UNL A   1      38.042  20.980  25.376  1.00  0.00    -0.050 Br
ATOM     12  C   UNL A   1      36.189  23.203  25.455  1.00  0.00    -0.026 A 
ATOM     13  C   UNL A   1      33.791  23.024  25.000  1.00  0.00     0.142 A 
ATOM     14  Br  UNL A   1      32.359  20.625  24.388  1.00  0.00    -0.046 Br
ATOM     15  C   UNL A   1      37.377  24.073  25.807  1.00  0.00     0.046 C 
ATOM     16  C   UNL A   1      34.916  23.808  25.284  1.00  0.00     0.022 A 
ATOM     17  O   UNL A   1      32.528  23.549  24.881  1.00  0.00    -0.474 OA
ATOM     18  C   UNL A   1      34.738  25.258  25.347  1.00  0.00     0.027 C 
ATOM     19  C   UNL A   1      32.341  24.977  24.731  1.00  0.00     0.316 C 
BRANCH  19  20
ATOM     20  C   UNL A   1      31.846  25.279  23.307  1.00  0.00     0.430 C 
ATOM     21  F   UNL A   1      31.144  24.241  22.796  1.00  0.00    -0.167 F 
ATOM     22  F   UNL A   1      31.019  26.353  23.288  1.00  0.00    -0.167 F 
ATOM     23  F   UNL A   1      32.867  25.540  22.460  1.00  0.00    -0.167 F 
ENDBRANCH  19  20
ENDBRANCH   4   6
ENDBRANCH   3   4
ENDBRANCH   2   3
ENDBRANCH   1   2
BRANCH   1  24
ATOM     24  O   UNL A   1      33.148  30.461  26.189  1.00  0.00    -0.458 OA
BRANCH  24  25
ATOM     25  C   UNL A   1      33.537  31.329  27.148  1.00  0.00     0.338 C 
ATOM     26  O   UNL A   1      32.898  32.252  27.624  1.00  0.00    -0.246 OA
BRANCH  25  27
ATOM     27  C   UNL A   1      34.881  30.970  27.632  1.00  0.00     0.060 A 
ATOM     28  C   UNL A   1      35.166  29.636  27.892  1.00  0.00     0.016 A 
ATOM     29  C   UNL A   1      35.789  31.960  28.001  1.00  0.00     0.016 A 
ATOM     30  C   UNL A   1      36.283  29.298  28.650  1.00  0.00     0.010 A 
ATOM     31  C   UNL A   1      36.983  31.599  28.642  1.00  0.00     0.010 A 
ATOM     32  C   UNL A   1      37.221  30.268  29.029  1.00  0.00    -0.014 A 
BRANCH  32  33
ATOM     33  C   UNL A   1      38.404  29.887  29.863  1.00  0.00     0.031 A 
ATOM     34  C   UNL A   1      39.500  29.018  29.291  1.00  0.00     0.074 A 
ATOM     35  C   UNL A   1      38.540  30.359  31.120  1.00  0.00     0.049 A 
ATOM     36  N   UNL A   1      40.506  28.444  29.902  1.00  0.00    -0.248 NA
ATOM     37  C   UNL A   1      39.453  28.748  27.845  1.00  0.00     0.031 C 
ATOM     38  C   UNL A   1      37.601  31.256  31.797  1.00  0.00     0.029 A 
ATOM     39  N   UNL A   1      39.537  30.175  32.050  1.00  0.00    -0.354 N 
ATOM     40  C   UNL A   1      41.166  27.695  28.934  1.00  0.00     0.074 A 
ATOM     41  C   UNL A   1      40.447  27.885  27.693  1.00  0.00     0.031 C 
ATOM     42  C   UNL A   1      38.104  31.612  32.986  1.00  0.00     0.029 A 
ATOM     43  C   UNL A   1      39.337  30.871  33.219  1.00  0.00     0.049 A 
ATOM     44  H   UNL A   1      40.320  29.599  31.892  1.00  0.00     0.167 HD
ATOM     45  C   UNL A   1      42.270  26.920  29.070  1.00  0.00     0.037 A 
ATOM     46  C   UNL A   1      40.034  30.881  34.372  1.00  0.00     0.037 A 
ATOM     47  C   UNL A   1      43.028  26.794  30.288  1.00  0.00     0.049 A 
ATOM     48  C   UNL A   1      41.229  29.984  34.512  1.00  0.00     0.074 A 
ATOM     49  C   UNL A   1      44.163  26.035  30.521  1.00  0.00     0.029 A 
ATOM     50  N   UNL A   1      42.747  27.465  31.468  1.00  0.00    -0.354 N 
ATOM     51  N   UNL A   1      41.783  29.202  33.619  1.00  0.00    -0.248 NA
ATOM     52  C   UNL A   1      41.873  29.938  35.833  1.00  0.00     0.031 C 
ATOM     53  C   UNL A   1      44.549  26.220  31.853  1.00  0.00     0.029 A 
ATOM     54  C   UNL A   1      43.680  27.128  32.436  1.00  0.00     0.049 A 
ATOM     55  H   UNL A   1      41.996  28.087  31.599  1.00  0.00     0.167 HD
ATOM     56  C   UNL A   1      42.837  28.573  34.265  1.00  0.00     0.074 A 
ATOM     57  C   UNL A   1      42.864  29.084  35.620  1.00  0.00     0.031 C 
ATOM     58  C   UNL A   1      43.697  27.645  33.780  1.00  0.00     0.037 A 
BRANCH  45  59
ATOM     59  C   UNL A   1      42.725  26.122  27.881  1.00  0.00     0.064 A 
ATOM     60  C   UNL A   1      42.172  24.873  27.569  1.00  0.00     0.173 A 
ATOM     61  C   UNL A   1      43.678  26.657  26.999  1.00  0.00     0.173 A 
ATOM     62  F   UNL A   1      41.266  24.313  28.384  1.00  0.00    -0.203 F 
ATOM     63  C   UNL A   1      42.568  24.180  26.427  1.00  0.00     0.198 A 
ATOM     64  C   UNL A   1      44.050  25.975  25.843  1.00  0.00     0.198 A 
ATOM     65  F   UNL A   1      44.233  27.852  27.247  1.00  0.00    -0.203 F 
ATOM     66  F   UNL A   1      42.050  22.972  26.165  1.00  0.00    -0.200 F 
ATOM     67  C   UNL A   1      43.498  24.736  25.559  1.00  0.00     0.200 A 
ATOM     68  F   UNL A   1      44.937  26.523  25.000  1.00  0.00    -0.200 F 
ATOM     69  F   UNL A   1      43.864  24.076  24.452  1.00  0.00    -0.200 F 
ENDBRANCH  45  59
BRANCH  46  70
ATOM     70  C   UNL A   1      39.585  31.743  35.498  1.00  0.00     0.064 A 
ATOM     71  C   UNL A   1      40.104  33.034  35.667  1.00  0.00     0.173 A 
ATOM     72  C   UNL A   1      38.604  31.312  36.406  1.00  0.00     0.173 A 
ATOM     73  F   UNL A   1      41.064  33.482  34.845  1.00  0.00    -0.203 F 
ATOM     74  C   UNL A   1      39.656  33.861  36.696  1.00  0.00     0.198 A 
ATOM     75  C   UNL A   1      38.133  32.152  37.412  1.00  0.00     0.198 A 
ATOM     76  F   UNL A   1      38.079  30.084  36.292  1.00  0.00    -0.203 F 
ATOM     77  F   UNL A   1      40.191  35.080  36.853  1.00  0.00    -0.200 F 
ATOM     78  C   UNL A   1      38.662  33.425  37.559  1.00  0.00     0.200 A 
ATOM     79  F   UNL A   1      37.159  31.731  38.230  1.00  0.00    -0.200 F 
ATOM     80  F   UNL A   1      38.215  34.229  38.533  1.00  0.00    -0.200 F 
ENDBRANCH  46  70
BRANCH  58  81
ATOM     81  C   UNL A   1      44.751  27.125  34.710  1.00  0.00     0.064 A 
ATOM     82  C   UNL A   1      45.978  27.787  34.866  1.00  0.00     0.173 A 
ATOM     83  C   UNL A   1      44.506  25.994  35.503  1.00  0.00     0.173 A 
ATOM     84  F   UNL A   1      46.263  28.864  34.119  1.00  0.00    -0.203 F 
ATOM     85  C   UNL A   1      46.925  27.330  35.777  1.00  0.00     0.198 A 
ATOM     86  C   UNL A   1      45.445  25.554  36.431  1.00  0.00     0.198 A 
ATOM     87  F   UNL A   1      43.345  25.331  35.394  1.00  0.00    -0.203 F 
ATOM     88  F   UNL A   1      48.103  27.960  35.891  1.00  0.00    -0.200 F 
ATOM     89  C   UNL A   1      46.655  26.220  36.566  1.00  0.00     0.200 A 
ATOM     90  F   UNL A   1      45.177  24.491  37.202  1.00  0.00    -0.200 F 
ATOM     91  F   UNL A   1      47.561  25.791  37.454  1.00  0.00    -0.200 F 
ENDBRANCH  58  81
ENDBRANCH  32  33
ENDBRANCH  25  27
ENDBRANCH  24  25
ENDBRANCH   1  24
TORSDOF 12
ENDMDL
MODEL 3
REMARK VINA RESULT:     -12.5      4.278      9.623
REMARK SMILES Cc1c(Br)c(C)c2c(c1Br)O[C@H](C(F)(F)F)C(C(=O)OCCOC(=O)c1ccc(-c3c4nc(c(-c5c(F)c(F)c(F)c(F)c5F)c5ccc([nH]5)c(-c5c(F)c(F)c(F)c(F)c5F)c5nc(c(-c6c(F)c(F)c(F)c(F)c6F)c6ccc3[nH]6)C=C5)C=C4)cc1)=C2
REMARK SMILES IDX 22 1 21 2 20 3 18 4 19 5 17 6 1 7 2 8 3 9 9 10 4 11 5 12
REMARK SMILES IDX 8 13 10 14 6 15 7 16 11 17 89 18 12 19 13 20 14 21 15 22
REMARK SMILES IDX 16 23 23 24 24 25 25 26 26 27 27 28 88 29 28 30 87 31 29 32
REMARK SMILES IDX 30 33 31 34 81 35 32 36 86 37 80 38 82 39 33 40 85 41 79 42
REMARK SMILES IDX 78 43 34 45 66 46 46 47 65 48 47 49 50 50 64 51 83 52 48 53
REMARK SMILES IDX 49 54 63 56 84 57 51 58 35 59 36 60 44 61 37 62 38 63 42 64
REMARK SMILES IDX 45 65 39 66 40 67 43 68 41 69 67 70 68 71 76 72 69 73 70 74
REMARK SMILES IDX 74 75 77 76 71 77 72 78 75 79 73 80 52 81 53 82 61 83 54 84
REMARK SMILES IDX 55 85 59 86 62 87 56 88 57 89 60 90 58 91
REMARK H PARENT 82 44 50 55
REMARK Flexibility Score: inf
ROOT
ATOM      1  C   UNL A   1      36.217  20.882  25.139  1.00  0.00     0.275 C 
ENDROOT
BRANCH   1   2
ATOM      2  C   UNL A   1      34.988  21.617  24.607  1.00  0.00     0.275 C 
BRANCH   2   3
ATOM      3  O   UNL A   1      35.153  23.049  24.708  1.00  0.00    -0.459 OA
BRANCH   3   4
ATOM      4  C   UNL A   1      34.459  23.647  25.703  1.00  0.00     0.338 C 
ATOM      5  O   UNL A   1      34.430  23.314  26.878  1.00  0.00    -0.246 OA
BRANCH   4   6
ATOM      6  C   UNL A   1      33.724  24.817  25.187  1.00  0.00     0.087 C 
ATOM      7  C   UNL A   1      30.400  30.388  24.384  1.00  0.00     0.047 C 
ATOM      8  C   UNL A   1      31.382  29.289  24.721  1.00  0.00    -0.019 A 
ATOM      9  C   UNL A   1      32.357  29.449  25.735  1.00  0.00     0.025 A 
ATOM     10  C   UNL A   1      31.295  28.037  24.071  1.00  0.00     0.064 A 
ATOM     11  Br  UNL A   1      32.428  31.101  26.713  1.00  0.00    -0.050 Br
ATOM     12  C   UNL A   1      33.254  28.403  26.068  1.00  0.00    -0.026 A 
ATOM     13  C   UNL A   1      32.161  26.980  24.403  1.00  0.00     0.142 A 
ATOM     14  Br  UNL A   1      29.946  27.708  22.747  1.00  0.00    -0.046 Br
ATOM     15  C   UNL A   1      34.337  28.573  27.112  1.00  0.00     0.046 C 
ATOM     16  C   UNL A   1      33.125  27.154  25.404  1.00  0.00     0.022 A 
ATOM     17  O   UNL A   1      32.030  25.814  23.691  1.00  0.00    -0.474 OA
ATOM     18  C   UNL A   1      33.947  26.001  25.767  1.00  0.00     0.027 C 
ATOM     19  C   UNL A   1      32.671  24.600  24.151  1.00  0.00     0.316 C 
BRANCH  19  20
ATOM     20  C   UNL A   1      31.599  23.609  24.632  1.00  0.00     0.430 C 
ATOM     21  F   UNL A   1      31.399  23.703  25.967  1.00  0.00    -0.167 F 
ATOM     22  F   UNL A   1      30.402  23.848  24.042  1.00  0.00    -0.167 F 
ATOM     23  F   UNL A   1      31.934  22.327  24.358  1.00  0.00    -0.167 F 
ENDBRANCH  19  20
ENDBRANCH   4   6
ENDBRANCH   3   4
ENDBRANCH   2   3
ENDBRANCH   1   2
BRANCH   1  24
ATOM     24  O   UNL A   1      37.393  21.692  24.956  1.00  0.00    -0.458 OA
BRANCH  24  25
ATOM     25  C   UNL A   1      38.483  21.311  25.658  1.00  0.00     0.338 C 
ATOM     26  O   UNL A   1      38.985  20.202  25.712  1.00  0.00    -0.246 OA
BRANCH  25  27
ATOM     27  C   UNL A   1      39.070  22.476  26.341  1.00  0.00     0.060 A 
ATOM     28  C   UNL A   1      38.493  23.725  26.155  1.00  0.00     0.016 A 
ATOM     29  C   UNL A   1      40.286  22.365  27.012  1.00  0.00     0.016 A 
ATOM     30  C   UNL A   1      39.195  24.875  26.501  1.00  0.00     0.010 A 
ATOM     31  C   UNL A   1      40.923  23.521  27.485  1.00  0.00     0.010 A 
ATOM     32  C   UNL A   1      40.416  24.799  27.185  1.00  0.00    -0.014 A 
BRANCH  32  33
ATOM     33  C   UNL A   1      41.167  26.047  27.529  1.00  0.00     0.031 A 
ATOM     34  C   UNL A   1      40.541  27.100  28.414  1.00  0.00     0.074 A 
ATOM     35  C   UNL A   1      42.435  26.228  27.101  1.00  0.00     0.049 A 
ATOM     36  N   UNL A   1      40.959  28.313  28.680  1.00  0.00    -0.248 NA
ATOM     37  C   UNL A   1      39.275  26.750  29.078  1.00  0.00     0.031 C 
ATOM     38  C   UNL A   1      43.201  25.279  26.291  1.00  0.00     0.029 A 
ATOM     39  N   UNL A   1      43.319  27.261  27.312  1.00  0.00    -0.354 N 
ATOM     40  C   UNL A   1      39.978  28.889  29.480  1.00  0.00     0.074 A 
ATOM     41  C   UNL A   1      38.942  27.895  29.657  1.00  0.00     0.031 C 
ATOM     42  C   UNL A   1      44.455  25.728  26.149  1.00  0.00     0.029 A 
ATOM     43  C   UNL A   1      44.554  27.055  26.743  1.00  0.00     0.049 A 
ATOM     44  H   UNL A   1      43.089  28.070  27.822  1.00  0.00     0.167 HD
ATOM     45  C   UNL A   1      39.946  30.134  30.017  1.00  0.00     0.037 A 
ATOM     46  C   UNL A   1      45.634  27.855  26.661  1.00  0.00     0.037 A 
ATOM     47  C   UNL A   1      41.013  31.094  29.903  1.00  0.00     0.049 A 
ATOM     48  C   UNL A   1      45.560  29.244  27.227  1.00  0.00     0.074 A 
ATOM     49  C   UNL A   1      41.074  32.379  30.416  1.00  0.00     0.029 A 
ATOM     50  N   UNL A   1      42.219  30.865  29.257  1.00  0.00    -0.354 N 
ATOM     51  N   UNL A   1      44.586  29.812  27.894  1.00  0.00    -0.248 NA
ATOM     52  C   UNL A   1      46.719  30.117  26.994  1.00  0.00     0.031 C 
ATOM     53  C   UNL A   1      42.301  32.941  30.051  1.00  0.00     0.029 A 
ATOM     54  C   UNL A   1      43.024  31.989  29.349  1.00  0.00     0.049 A 
ATOM     55  H   UNL A   1      42.465  30.029  28.801  1.00  0.00     0.167 HD
ATOM     56  C   UNL A   1      45.012  31.105  28.160  1.00  0.00     0.074 A 
ATOM     57  C   UNL A   1      46.343  31.231  27.608  1.00  0.00     0.031 C 
ATOM     58  C   UNL A   1      44.349  32.101  28.796  1.00  0.00     0.037 A 
BRANCH  45  59
ATOM     59  C   UNL A   1      38.710  30.551  30.762  1.00  0.00     0.064 A 
ATOM     60  C   UNL A   1      38.624  30.479  32.158  1.00  0.00     0.173 A 
ATOM     61  C   UNL A   1      37.623  31.103  30.065  1.00  0.00     0.173 A 
ATOM     62  F   UNL A   1      39.630  29.950  32.870  1.00  0.00    -0.203 F 
ATOM     63  C   UNL A   1      37.490  30.930  32.830  1.00  0.00     0.198 A 
ATOM     64  C   UNL A   1      36.503  31.580  30.741  1.00  0.00     0.198 A 
ATOM     65  F   UNL A   1      37.657  31.203  28.728  1.00  0.00    -0.203 F 
ATOM     66  F   UNL A   1      37.415  30.822  34.164  1.00  0.00    -0.200 F 
ATOM     67  C   UNL A   1      36.435  31.490  32.122  1.00  0.00     0.200 A 
ATOM     68  F   UNL A   1      35.493  32.134  30.055  1.00  0.00    -0.200 F 
ATOM     69  F   UNL A   1      35.352  31.939  32.772  1.00  0.00    -0.200 F 
ENDBRANCH  45  59
BRANCH  46  70
ATOM     70  C   UNL A   1      46.861  27.370  25.975  1.00  0.00     0.064 A 
ATOM     71  C   UNL A   1      47.058  27.598  24.607  1.00  0.00     0.173 A 
ATOM     72  C   UNL A   1      47.879  26.703  26.677  1.00  0.00     0.173 A 
ATOM     73  F   UNL A   1      46.104  28.204  23.885  1.00  0.00    -0.203 F 
ATOM     74  C   UNL A   1      48.227  27.183  23.968  1.00  0.00     0.198 A 
ATOM     75  C   UNL A   1      49.059  26.320  26.046  1.00  0.00     0.198 A 
ATOM     76  F   UNL A   1      47.738  26.456  27.987  1.00  0.00    -0.203 F 
ATOM     77  F   UNL A   1      48.376  27.386  22.652  1.00  0.00    -0.200 F 
ATOM     78  C   UNL A   1      49.231  26.556  24.691  1.00  0.00     0.200 A 
ATOM     79  F   UNL A   1      50.034  25.733  26.753  1.00  0.00    -0.200 F 
ATOM     80  F   UNL A   1      50.363  26.179  24.082  1.00  0.00    -0.200 F 
ENDBRANCH  46  70
BRANCH  58  81
ATOM     81  C   UNL A   1      45.053  33.417  28.943  1.00  0.00     0.064 A 
ATOM     82  C   UNL A   1      45.902  33.671  30.030  1.00  0.00     0.173 A 
ATOM     83  C   UNL A   1      44.932  34.404  27.954  1.00  0.00     0.173 A 
ATOM     84  F   UNL A   1      46.039  32.763  31.008  1.00  0.00    -0.203 F 
ATOM     85  C   UNL A   1      46.599  34.873  30.125  1.00  0.00     0.198 A 
ATOM     86  C   UNL A   1      45.648  35.593  28.040  1.00  0.00     0.198 A 
ATOM     87  F   UNL A   1      44.136  34.203  26.894  1.00  0.00    -0.203 F 
ATOM     88  F   UNL A   1      47.383  35.109  31.186  1.00  0.00    -0.200 F 
ATOM     89  C   UNL A   1      46.479  35.829  29.126  1.00  0.00     0.200 A 
ATOM     90  F   UNL A   1      45.543  36.510  27.068  1.00  0.00    -0.200 F 
ATOM     91  F   UNL A   1      47.162  36.978  29.211  1.00  0.00    -0.200 F 
ENDBRANCH  58  81
ENDBRANCH  32  33
ENDBRANCH  25  27
ENDBRANCH  24  25
ENDBRANCH   1  24
TORSDOF 12
ENDMDL
