MODEL 1
REMARK VINA RESULT:     -12.1      0.000      0.000
REMARK SMILES O=C(CC[NH+]1CC[NH+]([C@@H]2CCO[C@@]3(CCOC3)C2)CC1)OCCOC(=O)c1ccc(-c2c3nc(c(-c4c(F)c(F)c(F)c(F)c4F)c4ccc([nH]4)c(-c4c(F)c(F)c(F)c(F)c4F)c4nc(c(-c5c(F)c(F)c(F)c(F)c5F)c5ccc2[nH]5)C=C4)C=C3)cc1
REMARK SMILES IDX 22 1 21 2 2 3 1 4 3 5 4 6 5 7 6 8 20 9 7 11 19 12 8 13 9 15
REMARK SMILES IDX 10 16 18 17 11 18 13 19 12 20 14 21 17 22 15 23 16 24 23 25
REMARK SMILES IDX 24 26 25 27 26 28 27 29 28 30 89 31 29 32 88 33 30 34 31 35
REMARK SMILES IDX 32 36 82 37 33 38 87 39 81 40 83 41 34 42 86 43 80 44 79 45
REMARK SMILES IDX 35 47 67 48 47 49 66 50 48 51 51 52 65 53 84 54 49 55 50 56
REMARK SMILES IDX 64 58 85 59 52 60 36 61 37 62 45 63 38 64 39 65 43 66 46 67
REMARK SMILES IDX 40 68 41 69 44 70 42 71 68 72 69 73 77 74 70 75 71 76 75 77
REMARK SMILES IDX 78 78 72 79 73 80 76 81 74 82 53 83 54 84 62 85 55 86 56 87
REMARK SMILES IDX 60 88 63 89 57 90 58 91 61 92 59 93
REMARK H PARENT 5 10 8 14 83 46 51 57
REMARK Flexibility Score: inf
ROOT
ATOM      1  C   UNL A   1      36.159  20.755  25.000  1.00  0.00     0.274 C 
ENDROOT
BRANCH   1   2
ATOM      2  O   UNL A   1      36.014  22.177  24.839  1.00  0.00    -0.462 OA
BRANCH   2   3
ATOM      3  C   UNL A   1      35.739  22.594  23.566  1.00  0.00     0.311 C 
ATOM      4  O   UNL A   1      36.612  22.952  22.786  1.00  0.00    -0.252 OA
BRANCH   3   5
ATOM      5  C   UNL A   1      34.258  22.769  23.311  1.00  0.00     0.184 C 
BRANCH   5   6
ATOM      6  C   UNL A   1      33.349  22.802  24.525  1.00  0.00     0.274 C 
BRANCH   6   7
ATOM      7  N   UNL A   1      32.378  23.876  24.381  1.00  0.00    -0.325 N 
ATOM      8  C   UNL A   1      31.110  23.738  25.120  1.00  0.00     0.324 C 
ATOM      9  C   UNL A   1      33.014  25.172  24.611  1.00  0.00     0.324 C 
ATOM     10  H   UNL A   1      32.067  23.804  23.413  1.00  0.00     0.348 HD
ATOM     11  C   UNL A   1      30.960  24.481  26.489  1.00  0.00     0.324 C 
ATOM     12  C   UNL A   1      33.087  25.476  26.108  1.00  0.00     0.324 C 
ATOM     13  N   UNL A   1      31.774  25.696  26.697  1.00  0.00    -0.323 N 
ATOM     14  H   UNL A   1      31.903  25.830  27.700  1.00  0.00     0.348 HD
BRANCH  13  15
ATOM     15  C   UNL A   1      31.116  27.001  26.441  1.00  0.00     0.189 C 
ATOM     16  C   UNL A   1      30.757  27.396  24.995  1.00  0.00     0.093 C 
ATOM     17  C   UNL A   1      31.730  28.220  27.184  1.00  0.00     0.103 C 
ATOM     18  C   UNL A   1      31.558  28.564  24.434  1.00  0.00     0.167 C 
ATOM     19  C   UNL A   1      32.828  29.004  26.416  1.00  0.00     0.099 C 
ATOM     20  O   UNL A   1      32.842  28.655  25.028  1.00  0.00    -0.372 OA
ATOM     21  C   UNL A   1      32.680  30.526  26.537  1.00  0.00     0.066 C 
ATOM     22  C   UNL A   1      34.252  28.791  26.992  1.00  0.00     0.195 C 
ATOM     23  C   UNL A   1      33.653  30.899  27.626  1.00  0.00     0.163 C 
ATOM     24  O   UNL A   1      34.783  30.067  27.384  1.00  0.00    -0.378 OA
ENDBRANCH  13  15
ENDBRANCH   6   7
ENDBRANCH   5   6
ENDBRANCH   3   5
ENDBRANCH   2   3
ENDBRANCH   1   2
BRANCH   1  25
ATOM     25  C   UNL A   1      37.625  20.299  25.001  1.00  0.00     0.275 C 
BRANCH  25  26
ATOM     26  O   UNL A   1      38.528  21.391  25.246  1.00  0.00    -0.458 OA
BRANCH  26  27
ATOM     27  C   UNL A   1      39.528  21.119  26.126  1.00  0.00     0.338 C 
ATOM     28  O   UNL A   1      40.086  20.047  26.295  1.00  0.00    -0.246 OA
BRANCH  27  29
ATOM     29  C   UNL A   1      40.029  22.389  26.707  1.00  0.00     0.060 A 
ATOM     30  C   UNL A   1      39.360  23.566  26.344  1.00  0.00     0.016 A 
ATOM     31  C   UNL A   1      41.042  22.429  27.673  1.00  0.00     0.016 A 
ATOM     32  C   UNL A   1      39.716  24.784  26.924  1.00  0.00     0.010 A 
ATOM     33  C   UNL A   1      41.409  23.656  28.244  1.00  0.00     0.010 A 
ATOM     34  C   UNL A   1      40.764  24.842  27.852  1.00  0.00    -0.014 A 
BRANCH  34  35
ATOM     35  C   UNL A   1      41.301  26.174  28.228  1.00  0.00     0.031 A 
ATOM     36  C   UNL A   1      42.702  26.512  27.798  1.00  0.00     0.074 A 
ATOM     37  C   UNL A   1      40.557  27.091  28.870  1.00  0.00     0.049 A 
ATOM     38  N   UNL A   1      43.342  27.651  27.867  1.00  0.00    -0.248 NA
ATOM     39  C   UNL A   1      43.481  25.415  27.202  1.00  0.00     0.031 C 
ATOM     40  C   UNL A   1      39.190  26.898  29.348  1.00  0.00     0.029 A 
ATOM     41  N   UNL A   1      40.857  28.386  29.222  1.00  0.00    -0.354 N 
ATOM     42  C   UNL A   1      44.578  27.419  27.280  1.00  0.00     0.074 A 
ATOM     43  C   UNL A   1      44.626  26.018  26.922  1.00  0.00     0.031 C 
ATOM     44  C   UNL A   1      38.772  28.032  29.940  1.00  0.00     0.029 A 
ATOM     45  C   UNL A   1      39.837  29.034  29.874  1.00  0.00     0.049 A 
ATOM     46  H   UNL A   1      41.724  28.810  29.025  1.00  0.00     0.167 HD
ATOM     47  C   UNL A   1      45.577  28.298  27.032  1.00  0.00     0.037 A 
ATOM     48  C   UNL A   1      39.772  30.293  30.351  1.00  0.00     0.037 A 
ATOM     49  C   UNL A   1      45.560  29.680  27.424  1.00  0.00     0.049 A 
ATOM     50  C   UNL A   1      40.929  31.237  30.129  1.00  0.00     0.074 A 
ATOM     51  C   UNL A   1      46.532  30.645  27.230  1.00  0.00     0.029 A 
ATOM     52  N   UNL A   1      44.520  30.290  28.106  1.00  0.00    -0.354 N 
ATOM     53  N   UNL A   1      42.063  31.030  29.504  1.00  0.00    -0.248 NA
ATOM     54  C   UNL A   1      40.784  32.601  30.661  1.00  0.00     0.031 C 
ATOM     55  C   UNL A   1      46.097  31.831  27.832  1.00  0.00     0.029 A 
ATOM     56  C   UNL A   1      44.835  31.615  28.360  1.00  0.00     0.049 A 
ATOM     57  H   UNL A   1      43.681  29.848  28.371  1.00  0.00     0.167 HD
ATOM     58  C   UNL A   1      42.749  32.238  29.542  1.00  0.00     0.074 A 
ATOM     59  C   UNL A   1      41.897  33.180  30.237  1.00  0.00     0.031 C 
ATOM     60  C   UNL A   1      43.975  32.542  29.049  1.00  0.00     0.037 A 
BRANCH  47  61
ATOM     61  C   UNL A   1      46.773  27.776  26.298  1.00  0.00     0.064 A 
ATOM     62  C   UNL A   1      47.893  27.292  26.992  1.00  0.00     0.173 A 
ATOM     63  C   UNL A   1      46.800  27.746  24.898  1.00  0.00     0.173 A 
ATOM     64  F   UNL A   1      47.919  27.320  28.334  1.00  0.00    -0.203 F 
ATOM     65  C   UNL A   1      49.006  26.815  26.308  1.00  0.00     0.198 A 
ATOM     66  C   UNL A   1      47.908  27.248  24.216  1.00  0.00     0.198 A 
ATOM     67  F   UNL A   1      45.756  28.203  24.192  1.00  0.00    -0.203 F 
ATOM     68  F   UNL A   1      50.081  26.396  26.990  1.00  0.00    -0.200 F 
ATOM     69  C   UNL A   1      49.010  26.788  24.921  1.00  0.00     0.200 A 
ATOM     70  F   UNL A   1      47.910  27.218  22.877  1.00  0.00    -0.200 F 
ATOM     71  F   UNL A   1      50.082  26.326  24.263  1.00  0.00    -0.200 F 
ENDBRANCH  47  61
BRANCH  48  72
ATOM     72  C   UNL A   1      38.564  30.757  31.082  1.00  0.00     0.064 A 
ATOM     73  C   UNL A   1      37.453  31.275  30.400  1.00  0.00     0.173 A 
ATOM     74  C   UNL A   1      38.521  30.749  32.484  1.00  0.00     0.173 A 
ATOM     75  F   UNL A   1      37.461  31.334  29.060  1.00  0.00    -0.203 F 
ATOM     76  C   UNL A   1      36.360  31.793  31.092  1.00  0.00     0.198 A 
ATOM     77  C   UNL A   1      37.417  31.244  33.174  1.00  0.00     0.198 A 
ATOM     78  F   UNL A   1      39.561  30.270  33.183  1.00  0.00    -0.203 F 
ATOM     79  F   UNL A   1      35.339  32.337  30.416  1.00  0.00    -0.200 F 
ATOM     80  C   UNL A   1      36.342  31.776  32.478  1.00  0.00     0.200 A 
ATOM     81  F   UNL A   1      37.403  31.222  34.514  1.00  0.00    -0.200 F 
ATOM     82  F   UNL A   1      35.297  32.284  33.143  1.00  0.00    -0.200 F 
ENDBRANCH  48  72
BRANCH  60  83
ATOM     83  C   UNL A   1      44.460  33.953  29.219  1.00  0.00     0.064 A 
ATOM     84  C   UNL A   1      45.235  34.336  30.324  1.00  0.00     0.173 A 
ATOM     85  C   UNL A   1      44.175  34.925  28.249  1.00  0.00     0.173 A 
ATOM     86  F   UNL A   1      45.526  33.445  31.285  1.00  0.00    -0.203 F 
ATOM     87  C   UNL A   1      45.682  35.647  30.466  1.00  0.00     0.198 A 
ATOM     88  C   UNL A   1      44.647  36.229  28.380  1.00  0.00     0.198 A 
ATOM     89  F   UNL A   1      43.445  34.610  27.169  1.00  0.00    -0.203 F 
ATOM     90  F   UNL A   1      46.380  36.000  31.554  1.00  0.00    -0.200 F 
ATOM     91  C   UNL A   1      45.393  36.591  29.491  1.00  0.00     0.200 A 
ATOM     92  F   UNL A   1      44.378  37.137  27.431  1.00  0.00    -0.200 F 
ATOM     93  F   UNL A   1      45.827  37.851  29.629  1.00  0.00    -0.200 F 
ENDBRANCH  60  83
ENDBRANCH  34  35
ENDBRANCH  27  29
ENDBRANCH  26  27
ENDBRANCH  25  26
ENDBRANCH   1  25
TORSDOF 14
ENDMDL
MODEL 2
REMARK VINA RESULT:     -12.1      3.937     10.137
REMARK SMILES O=C(CC[NH+]1CC[NH+]([C@@H]2CCO[C@@]3(CCOC3)C2)CC1)OCCOC(=O)c1ccc(-c2c3nc(c(-c4c(F)c(F)c(F)c(F)c4F)c4ccc([nH]4)c(-c4c(F)c(F)c(F)c(F)c4F)c4nc(c(-c5c(F)c(F)c(F)c(F)c5F)c5ccc2[nH]5)C=C4)C=C3)cc1
REMARK SMILES IDX 22 1 21 2 2 3 1 4 3 5 4 6 5 7 6 8 20 9 7 11 19 12 8 13 9 15
REMARK SMILES IDX 10 16 18 17 11 18 13 19 12 20 14 21 17 22 15 23 16 24 23 25
REMARK SMILES IDX 24 26 25 27 26 28 27 29 28 30 89 31 29 32 88 33 30 34 31 35
REMARK SMILES IDX 32 36 82 37 33 38 87 39 81 40 83 41 34 42 86 43 80 44 79 45
REMARK SMILES IDX 35 47 67 48 47 49 66 50 48 51 51 52 65 53 84 54 49 55 50 56
REMARK SMILES IDX 64 58 85 59 52 60 36 61 37 62 45 63 38 64 39 65 43 66 46 67
REMARK SMILES IDX 40 68 41 69 44 70 42 71 68 72 69 73 77 74 70 75 71 76 75 77
REMARK SMILES IDX 78 78 72 79 73 80 76 81 74 82 53 83 54 84 62 85 55 86 56 87
REMARK SMILES IDX 60 88 63 89 57 90 58 91 61 92 59 93
REMARK H PARENT 5 10 8 14 83 46 51 57
REMARK Flexibility Score: inf
ROOT
ATOM      1  C   UNL A   1      31.876  31.134  26.448  1.00  0.00     0.274 C 
ENDROOT
BRANCH   1   2
ATOM      2  O   UNL A   1      32.231  30.009  27.270  1.00  0.00    -0.462 OA
BRANCH   2   3
ATOM      3  C   UNL A   1      31.778  28.797  26.826  1.00  0.00     0.311 C 
ATOM      4  O   UNL A   1      31.446  27.896  27.586  1.00  0.00    -0.252 OA
BRANCH   3   5
ATOM      5  C   UNL A   1      31.941  28.621  25.332  1.00  0.00     0.184 C 
BRANCH   5   6
ATOM      6  C   UNL A   1      30.929  27.739  24.627  1.00  0.00     0.274 C 
BRANCH   6   7
ATOM      7  N   UNL A   1      31.611  26.626  23.984  1.00  0.00    -0.325 N 
ATOM      8  C   UNL A   1      33.028  26.418  24.327  1.00  0.00     0.324 C 
ATOM      9  C   UNL A   1      30.824  25.400  24.118  1.00  0.00     0.324 C 
ATOM     10  H   UNL A   1      31.668  26.901  23.004  1.00  0.00     0.348 HD
ATOM     11  C   UNL A   1      33.386  25.342  25.405  1.00  0.00     0.324 C 
ATOM     12  C   UNL A   1      31.085  24.742  25.473  1.00  0.00     0.324 C 
ATOM     13  N   UNL A   1      32.440  24.222  25.589  1.00  0.00    -0.323 N 
ATOM     14  H   UNL A   1      32.552  23.857  26.535  1.00  0.00     0.348 HD
BRANCH  13  15
ATOM     15  C   UNL A   1      32.752  22.954  24.886  1.00  0.00     0.189 C 
ATOM     16  C   UNL A   1      32.216  21.623  25.450  1.00  0.00     0.093 C 
ATOM     17  C   UNL A   1      34.231  22.779  24.439  1.00  0.00     0.103 C 
ATOM     18  C   UNL A   1      33.284  20.684  25.995  1.00  0.00     0.167 C 
ATOM     19  C   UNL A   1      35.167  22.059  25.446  1.00  0.00     0.099 C 
ATOM     20  O   UNL A   1      34.417  21.393  26.468  1.00  0.00    -0.372 OA
ATOM     21  C   UNL A   1      36.100  21.040  24.780  1.00  0.00     0.066 C 
ATOM     22  C   UNL A   1      36.188  23.008  26.124  1.00  0.00     0.195 C 
ATOM     23  C   UNL A   1      37.400  21.786  24.627  1.00  0.00     0.163 C 
ATOM     24  O   UNL A   1      37.514  22.540  25.830  1.00  0.00    -0.378 OA
ENDBRANCH  13  15
ENDBRANCH   6   7
ENDBRANCH   5   6
ENDBRANCH   3   5
ENDBRANCH   2   3
ENDBRANCH   1   2
BRANCH   1  25
ATOM     25  C   UNL A   1      31.844  32.458  27.225  1.00  0.00     0.275 C 
BRANCH  25  26
ATOM     26  O   UNL A   1      33.077  33.188  27.094  1.00  0.00    -0.458 OA
BRANCH  26  27
ATOM     27  C   UNL A   1      33.518  33.773  28.240  1.00  0.00     0.338 C 
ATOM     28  O   UNL A   1      32.911  34.569  28.938  1.00  0.00    -0.246 OA
BRANCH  27  29
ATOM     29  C   UNL A   1      34.779  33.121  28.670  1.00  0.00     0.060 A 
ATOM     30  C   UNL A   1      34.674  31.860  29.272  1.00  0.00     0.016 A 
ATOM     31  C   UNL A   1      36.041  33.659  28.387  1.00  0.00     0.016 A 
ATOM     32  C   UNL A   1      35.823  31.148  29.615  1.00  0.00     0.010 A 
ATOM     33  C   UNL A   1      37.195  32.949  28.747  1.00  0.00     0.010 A 
ATOM     34  C   UNL A   1      37.089  31.701  29.386  1.00  0.00    -0.014 A 
BRANCH  34  35
ATOM     35  C   UNL A   1      38.268  31.055  30.016  1.00  0.00     0.031 A 
ATOM     36  C   UNL A   1      38.575  31.398  31.447  1.00  0.00     0.074 A 
ATOM     37  C   UNL A   1      39.011  30.136  29.372  1.00  0.00     0.049 A 
ATOM     38  N   UNL A   1      39.445  30.862  32.264  1.00  0.00    -0.248 NA
ATOM     39  C   UNL A   1      37.784  32.489  32.037  1.00  0.00     0.031 C 
ATOM     40  C   UNL A   1      38.830  29.712  27.987  1.00  0.00     0.029 A 
ATOM     41  N   UNL A   1      40.072  29.385  29.819  1.00  0.00    -0.354 N 
ATOM     42  C   UNL A   1      39.272  31.517  33.475  1.00  0.00     0.074 A 
ATOM     43  C   UNL A   1      38.264  32.535  33.270  1.00  0.00     0.031 C 
ATOM     44  C   UNL A   1      39.756  28.781  27.692  1.00  0.00     0.029 A 
ATOM     45  C   UNL A   1      40.588  28.537  28.871  1.00  0.00     0.049 A 
ATOM     46  H   UNL A   1      40.430  29.450  30.734  1.00  0.00     0.167 HD
ATOM     47  C   UNL A   1      39.875  31.278  34.662  1.00  0.00     0.037 A 
ATOM     48  C   UNL A   1      41.608  27.659  28.954  1.00  0.00     0.037 A 
ATOM     49  C   UNL A   1      40.909  30.301  34.868  1.00  0.00     0.049 A 
ATOM     50  C   UNL A   1      42.318  27.460  30.271  1.00  0.00     0.074 A 
ATOM     51  C   UNL A   1      41.591  29.996  36.031  1.00  0.00     0.029 A 
ATOM     52  N   UNL A   1      41.422  29.482  33.875  1.00  0.00    -0.354 N 
ATOM     53  N   UNL A   1      42.095  28.030  31.430  1.00  0.00    -0.248 NA
ATOM     54  C   UNL A   1      43.410  26.474  30.294  1.00  0.00     0.031 C 
ATOM     55  C   UNL A   1      42.548  29.019  35.734  1.00  0.00     0.029 A 
ATOM     56  C   UNL A   1      42.428  28.684  34.396  1.00  0.00     0.049 A 
ATOM     57  H   UNL A   1      41.117  29.467  32.939  1.00  0.00     0.167 HD
ATOM     58  C   UNL A   1      42.993  27.455  32.321  1.00  0.00     0.074 A 
ATOM     59  C   UNL A   1      43.754  26.477  31.572  1.00  0.00     0.031 C 
ATOM     60  C   UNL A   1      43.174  27.712  33.640  1.00  0.00     0.037 A 
BRANCH  47  61
ATOM     61  C   UNL A   1      39.419  32.094  35.832  1.00  0.00     0.064 A 
ATOM     62  C   UNL A   1      40.002  33.340  36.114  1.00  0.00     0.173 A 
ATOM     63  C   UNL A   1      38.391  31.642  36.668  1.00  0.00     0.173 A 
ATOM     64  F   UNL A   1      41.005  33.804  35.352  1.00  0.00    -0.203 F 
ATOM     65  C   UNL A   1      39.584  34.094  37.205  1.00  0.00     0.198 A 
ATOM     66  C   UNL A   1      37.959  32.410  37.746  1.00  0.00     0.198 A 
ATOM     67  F   UNL A   1      37.808  30.456  36.441  1.00  0.00    -0.203 F 
ATOM     68  F   UNL A   1      40.182  35.261  37.481  1.00  0.00    -0.200 F 
ATOM     69  C   UNL A   1      38.558  33.631  38.017  1.00  0.00     0.200 A 
ATOM     70  F   UNL A   1      36.966  31.964  38.528  1.00  0.00    -0.200 F 
ATOM     71  F   UNL A   1      38.154  34.359  39.067  1.00  0.00    -0.200 F 
ENDBRANCH  47  61
BRANCH  48  72
ATOM     72  C   UNL A   1      42.025  26.880  27.758  1.00  0.00     0.064 A 
ATOM     73  C   UNL A   1      41.487  25.613  27.489  1.00  0.00     0.173 A 
ATOM     74  C   UNL A   1      43.020  27.362  26.895  1.00  0.00     0.173 A 
ATOM     75  F   UNL A   1      40.556  25.096  28.305  1.00  0.00    -0.203 F 
ATOM     76  C   UNL A   1      41.947  24.848  26.419  1.00  0.00     0.198 A 
ATOM     77  C   UNL A   1      43.462  26.606  25.811  1.00  0.00     0.198 A 
ATOM     78  F   UNL A   1      43.573  28.564  27.113  1.00  0.00    -0.203 F 
ATOM     79  F   UNL A   1      41.458  23.616  26.221  1.00  0.00    -0.200 F 
ATOM     80  C   UNL A   1      42.933  25.345  25.581  1.00  0.00     0.200 A 
ATOM     81  F   UNL A   1      44.412  27.092  25.001  1.00  0.00    -0.200 F 
ATOM     82  F   UNL A   1      43.384  24.604  24.559  1.00  0.00    -0.200 F 
ENDBRANCH  48  72
BRANCH  60  83
ATOM     83  C   UNL A   1      44.217  26.911  34.365  1.00  0.00     0.064 A 
ATOM     84  C   UNL A   1      43.931  25.647  34.902  1.00  0.00     0.173 A 
ATOM     85  C   UNL A   1      45.526  27.398  34.493  1.00  0.00     0.173 A 
ATOM     86  F   UNL A   1      42.691  25.141  34.815  1.00  0.00    -0.203 F 
ATOM     87  C   UNL A   1      44.911  24.913  35.567  1.00  0.00     0.198 A 
ATOM     88  C   UNL A   1      46.510  26.649  35.134  1.00  0.00     0.198 A 
ATOM     89  F   UNL A   1      45.855  28.597  33.990  1.00  0.00    -0.203 F 
ATOM     90  F   UNL A   1      44.601  23.729  36.114  1.00  0.00    -0.200 F 
ATOM     91  C   UNL A   1      46.200  25.412  35.678  1.00  0.00     0.200 A 
ATOM     92  F   UNL A   1      47.759  27.127  35.229  1.00  0.00    -0.200 F 
ATOM     93  F   UNL A   1      47.141  24.702  36.315  1.00  0.00    -0.200 F 
ENDBRANCH  60  83
ENDBRANCH  34  35
ENDBRANCH  27  29
ENDBRANCH  26  27
ENDBRANCH  25  26
ENDBRANCH   1  25
TORSDOF 14
ENDMDL
MODEL 3
REMARK VINA RESULT:     -12.1      4.004     10.174
REMARK SMILES O=C(CC[NH+]1CC[NH+]([C@@H]2CCO[C@@]3(CCOC3)C2)CC1)OCCOC(=O)c1ccc(-c2c3nc(c(-c4c(F)c(F)c(F)c(F)c4F)c4ccc([nH]4)c(-c4c(F)c(F)c(F)c(F)c4F)c4nc(c(-c5c(F)c(F)c(F)c(F)c5F)c5ccc2[nH]5)C=C4)C=C3)cc1
REMARK SMILES IDX 22 1 21 2 2 3 1 4 3 5 4 6 5 7 6 8 20 9 7 11 19 12 8 13 9 15
REMARK SMILES IDX 10 16 18 17 11 18 13 19 12 20 14 21 17 22 15 23 16 24 23 25
REMARK SMILES IDX 24 26 25 27 26 28 27 29 28 30 89 31 29 32 88 33 30 34 31 35
REMARK SMILES IDX 32 36 82 37 33 38 87 39 81 40 83 41 34 42 86 43 80 44 79 45
REMARK SMILES IDX 35 47 67 48 47 49 66 50 48 51 51 52 65 53 84 54 49 55 50 56
REMARK SMILES IDX 64 58 85 59 52 60 36 61 37 62 45 63 38 64 39 65 43 66 46 67
REMARK SMILES IDX 40 68 41 69 44 70 42 71 68 72 69 73 77 74 70 75 71 76 75 77
REMARK SMILES IDX 78 78 72 79 73 80 76 81 74 82 53 83 54 84 62 85 55 86 56 87
REMARK SMILES IDX 60 88 63 89 57 90 58 91 61 92 59 93
REMARK H PARENT 5 10 8 14 83 46 51 57
REMARK Flexibility Score: inf
ROOT
ATOM      1  C   UNL A   1      31.545  31.321  26.474  1.00  0.00     0.274 C 
ENDROOT
BRANCH   1   2
ATOM      2  O   UNL A   1      32.294  30.324  27.192  1.00  0.00    -0.462 OA
BRANCH   2   3
ATOM      3  C   UNL A   1      33.218  29.643  26.449  1.00  0.00     0.311 C 
ATOM      4  O   UNL A   1      34.283  29.256  26.913  1.00  0.00    -0.252 OA
BRANCH   3   5
ATOM      5  C   UNL A   1      32.883  29.618  24.974  1.00  0.00     0.184 C 
BRANCH   5   6
ATOM      6  C   UNL A   1      33.388  28.433  24.172  1.00  0.00     0.274 C 
BRANCH   6   7
ATOM      7  N   UNL A   1      32.333  27.439  24.047  1.00  0.00    -0.325 N 
ATOM      8  C   UNL A   1      31.868  27.121  22.686  1.00  0.00     0.324 C 
ATOM      9  C   UNL A   1      32.671  26.238  24.810  1.00  0.00     0.324 C 
ATOM     10  H   UNL A   1      31.514  27.892  24.451  1.00  0.00     0.348 HD
ATOM     11  C   UNL A   1      32.442  25.849  21.978  1.00  0.00     0.324 C 
ATOM     12  C   UNL A   1      33.589  25.327  23.996  1.00  0.00     0.324 C 
ATOM     13  N   UNL A   1      32.918  24.748  22.840  1.00  0.00    -0.323 N 
ATOM     14  H   UNL A   1      33.609  24.207  22.319  1.00  0.00     0.348 HD
BRANCH  13  15
ATOM     15  C   UNL A   1      31.979  23.626  23.082  1.00  0.00     0.189 C 
ATOM     16  C   UNL A   1      30.887  23.771  24.161  1.00  0.00     0.093 C 
ATOM     17  C   UNL A   1      32.626  22.215  23.174  1.00  0.00     0.103 C 
ATOM     18  C   UNL A   1      31.065  22.869  25.375  1.00  0.00     0.167 C 
ATOM     19  C   UNL A   1      33.029  21.741  24.595  1.00  0.00     0.099 C 
ATOM     20  O   UNL A   1      32.429  22.558  25.606  1.00  0.00    -0.372 OA
ATOM     21  C   UNL A   1      32.665  20.277  24.869  1.00  0.00     0.066 C 
ATOM     22  C   UNL A   1      34.562  21.720  24.825  1.00  0.00     0.195 C 
ATOM     23  C   UNL A   1      33.952  19.531  24.624  1.00  0.00     0.163 C 
ATOM     24  O   UNL A   1      34.957  20.382  25.168  1.00  0.00    -0.378 OA
ENDBRANCH  13  15
ENDBRANCH   6   7
ENDBRANCH   5   6
ENDBRANCH   3   5
ENDBRANCH   2   3
ENDBRANCH   1   2
BRANCH   1  25
ATOM     25  C   UNL A   1      31.778  32.743  27.003  1.00  0.00     0.275 C 
BRANCH  25  26
ATOM     26  O   UNL A   1      33.175  33.088  27.021  1.00  0.00    -0.458 OA
BRANCH  26  27
ATOM     27  C   UNL A   1      33.600  33.688  28.165  1.00  0.00     0.338 C 
ATOM     28  O   UNL A   1      32.981  34.486  28.849  1.00  0.00    -0.246 OA
BRANCH  27  29
ATOM     29  C   UNL A   1      34.862  33.050  28.613  1.00  0.00     0.060 A 
ATOM     30  C   UNL A   1      34.765  31.774  29.183  1.00  0.00     0.016 A 
ATOM     31  C   UNL A   1      36.120  33.618  28.376  1.00  0.00     0.016 A 
ATOM     32  C   UNL A   1      35.919  31.075  29.540  1.00  0.00     0.010 A 
ATOM     33  C   UNL A   1      37.278  32.921  28.749  1.00  0.00     0.010 A 
ATOM     34  C   UNL A   1      37.180  31.657  29.357  1.00  0.00    -0.014 A 
BRANCH  34  35
ATOM     35  C   UNL A   1      38.355  31.019  30.003  1.00  0.00     0.031 A 
ATOM     36  C   UNL A   1      38.643  31.368  31.436  1.00  0.00     0.074 A 
ATOM     37  C   UNL A   1      39.109  30.102  29.371  1.00  0.00     0.049 A 
ATOM     38  N   UNL A   1      39.506  30.839  32.265  1.00  0.00    -0.248 NA
ATOM     39  C   UNL A   1      37.841  32.458  32.013  1.00  0.00     0.031 C 
ATOM     40  C   UNL A   1      38.946  29.672  27.985  1.00  0.00     0.029 A 
ATOM     41  N   UNL A   1      40.168  29.357  29.832  1.00  0.00    -0.354 N 
ATOM     42  C   UNL A   1      39.316  31.498  33.472  1.00  0.00     0.074 A 
ATOM     43  C   UNL A   1      38.306  32.510  33.252  1.00  0.00     0.031 C 
ATOM     44  C   UNL A   1      39.880  28.744  27.704  1.00  0.00     0.029 A 
ATOM     45  C   UNL A   1      40.699  28.508  28.894  1.00  0.00     0.049 A 
ATOM     46  H   UNL A   1      40.515  29.427  30.751  1.00  0.00     0.167 HD
ATOM     47  C   UNL A   1      39.906  31.265  34.666  1.00  0.00     0.037 A 
ATOM     48  C   UNL A   1      41.723  27.635  28.991  1.00  0.00     0.037 A 
ATOM     49  C   UNL A   1      40.943  30.295  34.887  1.00  0.00     0.049 A 
ATOM     50  C   UNL A   1      42.418  27.444  30.318  1.00  0.00     0.074 A 
ATOM     51  C   UNL A   1      41.613  29.997  36.060  1.00  0.00     0.029 A 
ATOM     52  N   UNL A   1      41.471  29.474  33.904  1.00  0.00    -0.354 N 
ATOM     53  N   UNL A   1      42.179  28.017  31.472  1.00  0.00    -0.248 NA
ATOM     54  C   UNL A   1      43.514  26.463  30.356  1.00  0.00     0.031 C 
ATOM     55  C   UNL A   1      42.577  29.023  35.777  1.00  0.00     0.029 A 
ATOM     56  C   UNL A   1      42.475  28.683  34.439  1.00  0.00     0.049 A 
ATOM     57  H   UNL A   1      41.177  29.455  32.964  1.00  0.00     0.167 HD
ATOM     58  C   UNL A   1      43.069  27.449  32.375  1.00  0.00     0.074 A 
ATOM     59  C   UNL A   1      43.844  26.472  31.639  1.00  0.00     0.031 C 
ATOM     60  C   UNL A   1      43.234  27.712  33.695  1.00  0.00     0.037 A 
BRANCH  47  61
ATOM     61  C   UNL A   1      39.434  32.084  35.828  1.00  0.00     0.064 A 
ATOM     62  C   UNL A   1      38.404  31.625  36.665  1.00  0.00     0.173 A 
ATOM     63  C   UNL A   1      40.015  33.325  36.116  1.00  0.00     0.173 A 
ATOM     64  F   UNL A   1      37.804  30.451  36.414  1.00  0.00    -0.203 F 
ATOM     65  C   UNL A   1      37.961  32.390  37.738  1.00  0.00     0.198 A 
ATOM     66  C   UNL A   1      39.584  34.079  37.205  1.00  0.00     0.198 A 
ATOM     67  F   UNL A   1      40.998  33.807  35.342  1.00  0.00    -0.203 F 
ATOM     68  F   UNL A   1      36.949  31.952  38.499  1.00  0.00    -0.200 F 
ATOM     69  C   UNL A   1      38.555  33.614  38.011  1.00  0.00     0.200 A 
ATOM     70  F   UNL A   1      40.161  35.258  37.471  1.00  0.00    -0.200 F 
ATOM     71  F   UNL A   1      38.130  34.350  39.047  1.00  0.00    -0.200 F 
ENDBRANCH  47  61
BRANCH  48  72
ATOM     72  C   UNL A   1      42.157  26.854  27.804  1.00  0.00     0.064 A 
ATOM     73  C   UNL A   1      41.650  25.571  27.549  1.00  0.00     0.173 A 
ATOM     74  C   UNL A   1      43.139  27.351  26.933  1.00  0.00     0.173 A 
ATOM     75  F   UNL A   1      40.734  25.040  28.372  1.00  0.00    -0.203 F 
ATOM     76  C   UNL A   1      42.128  24.806  26.487  1.00  0.00     0.198 A 
ATOM     77  C   UNL A   1      43.597  26.595  25.857  1.00  0.00     0.198 A 
ATOM     78  F   UNL A   1      43.661  28.569  27.137  1.00  0.00    -0.203 F 
ATOM     79  F   UNL A   1      41.669  23.561  26.303  1.00  0.00    -0.200 F 
ATOM     80  C   UNL A   1      43.099  25.319  25.641  1.00  0.00     0.200 A 
ATOM     81  F   UNL A   1      44.534  27.096  25.040  1.00  0.00    -0.200 F 
ATOM     82  F   UNL A   1      43.567  24.578  24.627  1.00  0.00    -0.200 F 
ENDBRANCH  48  72
BRANCH  60  83
ATOM     83  C   UNL A   1      44.272  26.918  34.435  1.00  0.00     0.064 A 
ATOM     84  C   UNL A   1      43.972  25.678  35.018  1.00  0.00     0.173 A 
ATOM     85  C   UNL A   1      45.590  27.388  34.533  1.00  0.00     0.173 A 
ATOM     86  F   UNL A   1      42.723  25.190  34.961  1.00  0.00    -0.203 F 
ATOM     87  C   UNL A   1      44.947  24.951  35.696  1.00  0.00     0.198 A 
ATOM     88  C   UNL A   1      46.570  26.645  35.187  1.00  0.00     0.198 A 
ATOM     89  F   UNL A   1      45.933  28.563  33.986  1.00  0.00    -0.203 F 
ATOM     90  F   UNL A   1      44.625  23.791  36.286  1.00  0.00    -0.200 F 
ATOM     91  C   UNL A   1      46.246  25.431  35.775  1.00  0.00     0.200 A 
ATOM     92  F   UNL A   1      47.827  27.104  35.252  1.00  0.00    -0.200 F 
ATOM     93  F   UNL A   1      47.183  24.728  36.426  1.00  0.00    -0.200 F 
ENDBRANCH  60  83
ENDBRANCH  34  35
ENDBRANCH  27  29
ENDBRANCH  26  27
ENDBRANCH  25  26
ENDBRANCH   1  25
TORSDOF 14
ENDMDL
