MODEL 1
REMARK VINA RESULT:      -9.9      0.000      0.000
REMARK SMILES C[C@H](CC[NH2+]Cc1cc(C(=O)OCCOC(=O)c2ccc(-c3c4nc(c(-c5c(F)c(F)c(F)c(F)c5F)c5ccc([nH]5)c(-c5c(F)c(F)c(F)c(F)c5F)c5nc(c(-c6c(F)c(F)c(F)c(F)c6F)c6ccc3[nH]6)C=C5)C=C4)cc2)cs1)c1ccccc1
REMARK SMILES IDX 10 1 11 2 9 3 7 4 8 5 82 6 81 7 6 8 5 9 4 12 3 13 2 14 1 15
REMARK SMILES IDX 83 16 84 17 88 18 85 19 87 20 86 21 12 22 13 23 14 24 15 25
REMARK SMILES IDX 16 26 17 27 18 28 19 29 80 30 20 31 79 32 21 33 22 34 23 35
REMARK SMILES IDX 73 36 24 37 78 38 72 39 74 40 25 41 77 42 71 43 70 44 26 46
REMARK SMILES IDX 58 47 38 48 57 49 39 50 42 51 56 52 75 53 40 54 41 55 55 57
REMARK SMILES IDX 76 58 43 59 27 60 28 61 36 62 29 63 30 64 34 65 37 66 31 67
REMARK SMILES IDX 32 68 35 69 33 70 59 71 60 72 68 73 61 74 62 75 66 76 69 77
REMARK SMILES IDX 63 78 64 79 67 80 65 81 44 82 45 83 53 84 46 85 47 86 51 87
REMARK SMILES IDX 54 88 48 89 49 90 52 91 50 92
REMARK H PARENT 5 10 5 11 74 45 42 56
REMARK Flexibility Score: inf
ROOT
ATOM      1  C   UNL A   1      42.951  18.504  25.998  1.00  0.00     0.339 C 
ATOM      2  O   UNL A   1      43.184  17.495  26.649  1.00  0.00    -0.246 OA
ENDROOT
BRANCH   1   3
ATOM      3  C   UNL A   1      44.014  19.324  25.419  1.00  0.00     0.071 A 
ATOM      4  C   UNL A   1      45.142  21.150  24.446  1.00  0.00     0.059 A 
ATOM      5  C   UNL A   1      43.931  20.669  24.917  1.00  0.00     0.037 A 
ATOM      6  S   UNL A   1      46.385  19.984  24.630  1.00  0.00    -0.142 S 
ATOM      7  C   UNL A   1      45.304  18.843  25.283  1.00  0.00     0.081 A 
BRANCH   4   8
ATOM      8  C   UNL A   1      45.455  22.507  23.876  1.00  0.00     0.308 C 
BRANCH   8   9
ATOM      9  N   UNL A   1      44.930  23.620  24.677  1.00  0.00    -0.342 N 
ATOM     10  H   UNL A   1      44.179  24.073  24.155  1.00  0.00     0.346 HD
ATOM     11  H   UNL A   1      44.595  23.235  25.560  1.00  0.00     0.346 HD
BRANCH   9  12
ATOM     12  C   UNL A   1      45.952  24.617  24.987  1.00  0.00     0.261 C 
BRANCH  12  13
ATOM     13  C   UNL A   1      45.749  25.274  26.362  1.00  0.00     0.069 C 
BRANCH  13  14
ATOM     14  C   UNL A   1      46.143  24.475  27.628  1.00  0.00     0.021 C 
ATOM     15  C   UNL A   1      47.239  25.176  28.443  1.00  0.00     0.013 C 
BRANCH  14  16
ATOM     16  C   UNL A   1      44.950  23.976  28.429  1.00  0.00    -0.045 A 
ATOM     17  C   UNL A   1      44.896  24.031  29.830  1.00  0.00     0.004 A 
ATOM     18  C   UNL A   1      43.855  23.417  27.746  1.00  0.00     0.004 A 
ATOM     19  C   UNL A   1      43.793  23.526  30.524  1.00  0.00     0.000 A 
ATOM     20  C   UNL A   1      42.755  22.913  28.440  1.00  0.00     0.000 A 
ATOM     21  C   UNL A   1      42.732  22.955  29.829  1.00  0.00     0.000 A 
ENDBRANCH  14  16
ENDBRANCH  13  14
ENDBRANCH  12  13
ENDBRANCH   9  12
ENDBRANCH   8   9
ENDBRANCH   4   8
ENDBRANCH   1   3
BRANCH   1  22
ATOM     22  O   UNL A   1      41.697  18.971  25.726  1.00  0.00    -0.458 OA
BRANCH  22  23
ATOM     23  C   UNL A   1      41.126  19.834  26.728  1.00  0.00     0.275 C 
BRANCH  23  24
ATOM     24  C   UNL A   1      40.008  20.711  26.159  1.00  0.00     0.275 C 
BRANCH  24  25
ATOM     25  O   UNL A   1      40.228  22.106  26.440  1.00  0.00    -0.458 OA
BRANCH  25  26
ATOM     26  C   UNL A   1      39.172  22.917  26.203  1.00  0.00     0.338 C 
ATOM     27  O   UNL A   1      38.133  22.636  25.632  1.00  0.00    -0.246 OA
BRANCH  26  28
ATOM     28  C   UNL A   1      39.404  24.221  26.840  1.00  0.00     0.060 A 
ATOM     29  C   UNL A   1      40.091  25.193  26.113  1.00  0.00     0.016 A 
ATOM     30  C   UNL A   1      39.044  24.454  28.168  1.00  0.00     0.016 A 
ATOM     31  C   UNL A   1      40.429  26.402  26.715  1.00  0.00     0.010 A 
ATOM     32  C   UNL A   1      39.383  25.674  28.770  1.00  0.00     0.010 A 
ATOM     33  C   UNL A   1      40.097  26.652  28.054  1.00  0.00    -0.014 A 
BRANCH  33  34
ATOM     34  C   UNL A   1      40.545  27.913  28.706  1.00  0.00     0.031 A 
ATOM     35  C   UNL A   1      41.992  28.107  29.073  1.00  0.00     0.074 A 
ATOM     36  C   UNL A   1      39.665  28.908  28.935  1.00  0.00     0.049 A 
ATOM     37  N   UNL A   1      42.557  29.089  29.732  1.00  0.00    -0.248 NA
ATOM     38  C   UNL A   1      42.927  27.056  28.645  1.00  0.00     0.031 C 
ATOM     39  C   UNL A   1      38.247  28.875  28.585  1.00  0.00     0.029 A 
ATOM     40  N   UNL A   1      39.840  30.143  29.511  1.00  0.00    -0.354 N 
ATOM     41  C   UNL A   1      43.902  28.757  29.830  1.00  0.00     0.074 A 
ATOM     42  C   UNL A   1      44.069  27.480  29.168  1.00  0.00     0.031 C 
ATOM     43  C   UNL A   1      37.683  30.044  28.931  1.00  0.00     0.029 A 
ATOM     44  C   UNL A   1      38.684  30.881  29.586  1.00  0.00     0.049 A 
ATOM     45  H   UNL A   1      40.709  30.467  29.839  1.00  0.00     0.167 HD
ATOM     46  C   UNL A   1      44.905  29.454  30.418  1.00  0.00     0.037 A 
ATOM     47  C   UNL A   1      38.447  32.083  30.147  1.00  0.00     0.037 A 
ATOM     48  C   UNL A   1      44.750  30.743  31.043  1.00  0.00     0.049 A 
ATOM     49  C   UNL A   1      39.569  32.817  30.831  1.00  0.00     0.074 A 
ATOM     50  C   UNL A   1      45.715  31.533  31.647  1.00  0.00     0.029 A 
ATOM     51  N   UNL A   1      43.553  31.438  31.135  1.00  0.00    -0.354 N 
ATOM     52  N   UNL A   1      40.829  32.477  30.949  1.00  0.00    -0.248 NA
ATOM     53  C   UNL A   1      39.229  34.095  31.473  1.00  0.00     0.031 C 
ATOM     54  C   UNL A   1      45.095  32.686  32.139  1.00  0.00     0.029 A 
ATOM     55  C   UNL A   1      43.752  32.637  31.804  1.00  0.00     0.049 A 
ATOM     56  H   UNL A   1      42.690  31.126  30.779  1.00  0.00     0.167 HD
ATOM     57  C   UNL A   1      41.433  33.499  31.669  1.00  0.00     0.074 A 
ATOM     58  C   UNL A   1      40.407  34.483  31.941  1.00  0.00     0.031 C 
ATOM     59  C   UNL A   1      42.722  33.607  32.073  1.00  0.00     0.037 A 
BRANCH  46  60
ATOM     60  C   UNL A   1      46.267  28.822  30.448  1.00  0.00     0.064 A 
ATOM     61  C   UNL A   1      47.267  29.171  29.529  1.00  0.00     0.173 A 
ATOM     62  C   UNL A   1      46.586  27.883  31.441  1.00  0.00     0.173 A 
ATOM     63  F   UNL A   1      47.009  30.054  28.553  1.00  0.00    -0.203 F 
ATOM     64  C   UNL A   1      48.531  28.588  29.591  1.00  0.00     0.198 A 
ATOM     65  C   UNL A   1      47.858  27.322  31.516  1.00  0.00     0.198 A 
ATOM     66  F   UNL A   1      45.668  27.519  32.348  1.00  0.00    -0.203 F 
ATOM     67  F   UNL A   1      49.459  28.906  28.678  1.00  0.00    -0.200 F 
ATOM     68  C   UNL A   1      48.827  27.669  30.587  1.00  0.00     0.200 A 
ATOM     69  F   UNL A   1      48.146  26.444  32.487  1.00  0.00    -0.200 F 
ATOM     70  F   UNL A   1      50.046  27.115  30.649  1.00  0.00    -0.200 F 
ENDBRANCH  46  60
BRANCH  47  71
ATOM     71  C   UNL A   1      37.077  32.655  30.114  1.00  0.00     0.064 A 
ATOM     72  C   UNL A   1      36.174  32.434  31.162  1.00  0.00     0.173 A 
ATOM     73  C   UNL A   1      36.642  33.433  29.031  1.00  0.00     0.173 A 
ATOM     74  F   UNL A   1      36.534  31.671  32.205  1.00  0.00    -0.203 F 
ATOM     75  C   UNL A   1      34.886  32.964  31.125  1.00  0.00     0.198 A 
ATOM     76  C   UNL A   1      35.364  33.986  29.008  1.00  0.00     0.198 A 
ATOM     77  F   UNL A   1      37.467  33.669  27.998  1.00  0.00    -0.203 F 
ATOM     78  F   UNL A   1      34.029  32.704  32.122  1.00  0.00    -0.200 F 
ATOM     79  C   UNL A   1      34.485  33.746  30.053  1.00  0.00     0.200 A 
ATOM     80  F   UNL A   1      34.985  34.752  27.976  1.00  0.00    -0.200 F 
ATOM     81  F   UNL A   1      33.249  34.263  30.022  1.00  0.00    -0.200 F 
ENDBRANCH  47  71
BRANCH  59  82
ATOM     82  C   UNL A   1      43.100  34.840  32.840  1.00  0.00     0.064 A 
ATOM     83  C   UNL A   1      43.511  36.011  32.185  1.00  0.00     0.173 A 
ATOM     84  C   UNL A   1      43.025  34.861  34.240  1.00  0.00     0.173 A 
ATOM     85  F   UNL A   1      43.615  36.036  30.848  1.00  0.00    -0.203 F 
ATOM     86  C   UNL A   1      43.855  37.151  32.907  1.00  0.00     0.198 A 
ATOM     87  C   UNL A   1      43.345  36.011  34.958  1.00  0.00     0.198 A 
ATOM     88  F   UNL A   1      42.634  33.768  34.913  1.00  0.00    -0.203 F 
ATOM     89  F   UNL A   1      44.286  38.245  32.265  1.00  0.00    -0.200 F 
ATOM     90  C   UNL A   1      43.766  37.152  34.292  1.00  0.00     0.200 A 
ATOM     91  F   UNL A   1      43.249  36.013  36.294  1.00  0.00    -0.200 F 
ATOM     92  F   UNL A   1      44.094  38.251  34.985  1.00  0.00    -0.200 F 
ENDBRANCH  59  82
ENDBRANCH  33  34
ENDBRANCH  26  28
ENDBRANCH  25  26
ENDBRANCH  24  25
ENDBRANCH  23  24
ENDBRANCH  22  23
ENDBRANCH   1  22
TORSDOF 17
ENDMDL
MODEL 2
REMARK VINA RESULT:      -9.8      4.210      9.930
REMARK SMILES C[C@H](CC[NH2+]Cc1cc(C(=O)OCCOC(=O)c2ccc(-c3c4nc(c(-c5c(F)c(F)c(F)c(F)c5F)c5ccc([nH]5)c(-c5c(F)c(F)c(F)c(F)c5F)c5nc(c(-c6c(F)c(F)c(F)c(F)c6F)c6ccc3[nH]6)C=C5)C=C4)cc2)cs1)c1ccccc1
REMARK SMILES IDX 10 1 11 2 9 3 7 4 8 5 82 6 81 7 6 8 5 9 4 12 3 13 2 14 1 15
REMARK SMILES IDX 83 16 84 17 88 18 85 19 87 20 86 21 12 22 13 23 14 24 15 25
REMARK SMILES IDX 16 26 17 27 18 28 19 29 80 30 20 31 79 32 21 33 22 34 23 35
REMARK SMILES IDX 73 36 24 37 78 38 72 39 74 40 25 41 77 42 71 43 70 44 26 46
REMARK SMILES IDX 58 47 38 48 57 49 39 50 42 51 56 52 75 53 40 54 41 55 55 57
REMARK SMILES IDX 76 58 43 59 27 60 28 61 36 62 29 63 30 64 34 65 37 66 31 67
REMARK SMILES IDX 32 68 35 69 33 70 59 71 60 72 68 73 61 74 62 75 66 76 69 77
REMARK SMILES IDX 63 78 64 79 67 80 65 81 44 82 45 83 53 84 46 85 47 86 51 87
REMARK SMILES IDX 54 88 48 89 49 90 52 91 50 92
REMARK H PARENT 5 10 5 11 74 45 42 56
REMARK Flexibility Score: inf
ROOT
ATOM      1  C   UNL A   1      34.242  23.325  25.962  1.00  0.00     0.339 C 
ATOM      2  O   UNL A   1      33.735  23.316  27.076  1.00  0.00    -0.246 OA
ENDROOT
BRANCH   1   3
ATOM      3  C   UNL A   1      33.635  24.031  24.833  1.00  0.00     0.071 A 
ATOM      4  C   UNL A   1      33.276  25.620  23.131  1.00  0.00     0.059 A 
ATOM      5  C   UNL A   1      34.090  25.229  24.182  1.00  0.00     0.037 A 
ATOM      6  S   UNL A   1      31.975  24.525  22.916  1.00  0.00    -0.142 S 
ATOM      7  C   UNL A   1      32.470  23.577  24.240  1.00  0.00     0.081 A 
BRANCH   4   8
ATOM      8  C   UNL A   1      33.439  26.793  22.204  1.00  0.00     0.308 C 
BRANCH   8   9
ATOM      9  N   UNL A   1      32.303  27.724  22.223  1.00  0.00    -0.342 N 
ATOM     10  H   UNL A   1      32.365  28.331  21.405  1.00  0.00     0.346 HD
ATOM     11  H   UNL A   1      31.448  27.169  22.215  1.00  0.00     0.346 HD
BRANCH   9  12
ATOM     12  C   UNL A   1      32.281  28.556  23.423  1.00  0.00     0.261 C 
BRANCH  12  13
ATOM     13  C   UNL A   1      31.062  28.280  24.320  1.00  0.00     0.069 C 
BRANCH  13  14
ATOM     14  C   UNL A   1      31.298  28.018  25.827  1.00  0.00     0.021 C 
ATOM     15  C   UNL A   1      31.252  26.523  26.175  1.00  0.00     0.013 C 
BRANCH  14  16
ATOM     16  C   UNL A   1      32.479  28.787  26.401  1.00  0.00    -0.045 A 
ATOM     17  C   UNL A   1      33.733  28.200  26.628  1.00  0.00     0.004 A 
ATOM     18  C   UNL A   1      32.311  30.141  26.738  1.00  0.00     0.004 A 
ATOM     19  C   UNL A   1      34.776  28.938  27.192  1.00  0.00     0.000 A 
ATOM     20  C   UNL A   1      33.354  30.878  27.302  1.00  0.00     0.000 A 
ATOM     21  C   UNL A   1      34.581  30.270  27.541  1.00  0.00     0.000 A 
ENDBRANCH  14  16
ENDBRANCH  13  14
ENDBRANCH  12  13
ENDBRANCH   9  12
ENDBRANCH   8   9
ENDBRANCH   4   8
ENDBRANCH   1   3
BRANCH   1  22
ATOM     22  O   UNL A   1      35.416  22.705  25.646  1.00  0.00    -0.458 OA
BRANCH  22  23
ATOM     23  C   UNL A   1      35.308  21.309  25.305  1.00  0.00     0.275 C 
BRANCH  23  24
ATOM     24  C   UNL A   1      36.676  20.674  25.048  1.00  0.00     0.275 C 
BRANCH  24  25
ATOM     25  O   UNL A   1      37.740  21.639  25.145  1.00  0.00    -0.458 OA
BRANCH  25  26
ATOM     26  C   UNL A   1      38.774  21.281  25.940  1.00  0.00     0.338 C 
ATOM     27  O   UNL A   1      39.204  20.159  26.140  1.00  0.00    -0.246 OA
BRANCH  26  28
ATOM     28  C   UNL A   1      39.412  22.488  26.485  1.00  0.00     0.060 A 
ATOM     29  C   UNL A   1      38.918  23.729  26.084  1.00  0.00     0.016 A 
ATOM     30  C   UNL A   1      40.544  22.407  27.297  1.00  0.00     0.016 A 
ATOM     31  C   UNL A   1      39.560  24.897  26.487  1.00  0.00     0.010 A 
ATOM     32  C   UNL A   1      41.186  23.584  27.705  1.00  0.00     0.010 A 
ATOM     33  C   UNL A   1      40.711  24.840  27.287  1.00  0.00    -0.014 A 
BRANCH  33  34
ATOM     34  C   UNL A   1      41.435  26.094  27.634  1.00  0.00     0.031 A 
ATOM     35  C   UNL A   1      40.771  27.146  28.482  1.00  0.00     0.074 A 
ATOM     36  C   UNL A   1      42.706  26.279  27.226  1.00  0.00     0.049 A 
ATOM     37  N   UNL A   1      41.198  28.340  28.810  1.00  0.00    -0.248 NA
ATOM     38  C   UNL A   1      39.450  26.810  29.033  1.00  0.00     0.031 C 
ATOM     39  C   UNL A   1      43.487  25.323  26.444  1.00  0.00     0.029 A 
ATOM     40  N   UNL A   1      43.565  27.333  27.421  1.00  0.00    -0.354 N 
ATOM     41  C   UNL A   1      40.186  28.912  29.570  1.00  0.00     0.074 A 
ATOM     42  C   UNL A   1      39.120  27.935  29.653  1.00  0.00     0.031 C 
ATOM     43  C   UNL A   1      44.717  25.822  26.244  1.00  0.00     0.029 A 
ATOM     44  C   UNL A   1      44.791  27.159  26.827  1.00  0.00     0.049 A 
ATOM     45  H   UNL A   1      43.325  28.137  27.937  1.00  0.00     0.167 HD
ATOM     46  C   UNL A   1      40.150  30.138  30.146  1.00  0.00     0.037 A 
ATOM     47  C   UNL A   1      45.845  27.993  26.732  1.00  0.00     0.037 A 
ATOM     48  C   UNL A   1      41.226  31.097  30.100  1.00  0.00     0.049 A 
ATOM     49  C   UNL A   1      45.763  29.364  27.345  1.00  0.00     0.074 A 
ATOM     50  C   UNL A   1      41.285  32.357  30.673  1.00  0.00     0.029 A 
ATOM     51  N   UNL A   1      42.434  30.898  29.451  1.00  0.00    -0.354 N 
ATOM     52  N   UNL A   1      44.788  29.907  28.032  1.00  0.00    -0.248 NA
ATOM     53  C   UNL A   1      46.926  30.244  27.155  1.00  0.00     0.031 C 
ATOM     54  C   UNL A   1      42.514  32.935  30.337  1.00  0.00     0.029 A 
ATOM     55  C   UNL A   1      43.239  32.019  29.593  1.00  0.00     0.049 A 
ATOM     56  H   UNL A   1      42.685  30.081  28.962  1.00  0.00     0.167 HD
ATOM     57  C   UNL A   1      45.220  31.185  28.362  1.00  0.00     0.074 A 
ATOM     58  C   UNL A   1      46.555  31.329  27.821  1.00  0.00     0.031 C 
ATOM     59  C   UNL A   1      44.564  32.153  29.046  1.00  0.00     0.037 A 
BRANCH  46  60
ATOM     60  C   UNL A   1      38.889  30.536  30.857  1.00  0.00     0.064 A 
ATOM     61  C   UNL A   1      38.765  30.457  32.251  1.00  0.00     0.173 A 
ATOM     62  C   UNL A   1      37.802  31.047  30.129  1.00  0.00     0.173 A 
ATOM     63  F   UNL A   1      39.770  29.965  32.991  1.00  0.00    -0.203 F 
ATOM     64  C   UNL A   1      37.592  30.854  32.890  1.00  0.00     0.198 A 
ATOM     65  C   UNL A   1      36.642  31.467  30.773  1.00  0.00     0.198 A 
ATOM     66  F   UNL A   1      37.871  31.150  28.794  1.00  0.00    -0.203 F 
ATOM     67  F   UNL A   1      37.481  30.732  34.220  1.00  0.00    -0.200 F 
ATOM     68  C   UNL A   1      36.535  31.365  32.151  1.00  0.00     0.200 A 
ATOM     69  F   UNL A   1      35.625  31.972  30.059  1.00  0.00    -0.200 F 
ATOM     70  F   UNL A   1      35.410  31.753  32.769  1.00  0.00    -0.200 F 
ENDBRANCH  46  60
BRANCH  47  71
ATOM     71  C   UNL A   1      47.062  27.561  25.998  1.00  0.00     0.064 A 
ATOM     72  C   UNL A   1      47.144  27.675  24.604  1.00  0.00     0.173 A 
ATOM     73  C   UNL A   1      48.167  27.026  26.676  1.00  0.00     0.173 A 
ATOM     74  F   UNL A   1      46.102  28.153  23.909  1.00  0.00    -0.203 F 
ATOM     75  C   UNL A   1      48.283  27.262  23.915  1.00  0.00     0.198 A 
ATOM     76  C   UNL A   1      49.316  26.640  25.990  1.00  0.00     0.198 A 
ATOM     77  F   UNL A   1      48.136  26.890  28.011  1.00  0.00    -0.203 F 
ATOM     78  F   UNL A   1      48.321  27.344  22.578  1.00  0.00    -0.200 F 
ATOM     79  C   UNL A   1      49.371  26.753  24.609  1.00  0.00     0.200 A 
ATOM     80  F   UNL A   1      50.369  26.160  26.666  1.00  0.00    -0.200 F 
ATOM     81  F   UNL A   1      50.469  26.365  23.947  1.00  0.00    -0.200 F 
ENDBRANCH  47  71
BRANCH  59  82
ATOM     82  C   UNL A   1      45.287  33.450  29.263  1.00  0.00     0.064 A 
ATOM     83  C   UNL A   1      46.101  33.654  30.387  1.00  0.00     0.173 A 
ATOM     84  C   UNL A   1      45.188  34.489  28.325  1.00  0.00     0.173 A 
ATOM     85  F   UNL A   1      46.216  32.697  31.321  1.00  0.00    -0.203 F 
ATOM     86  C   UNL A   1      46.772  34.860  30.575  1.00  0.00     0.198 A 
ATOM     87  C   UNL A   1      45.880  35.684  28.504  1.00  0.00     0.198 A 
ATOM     88  F   UNL A   1      44.425  34.341  27.231  1.00  0.00    -0.203 F 
ATOM     89  F   UNL A   1      47.509  35.051  31.678  1.00  0.00    -0.200 F 
ATOM     90  C   UNL A   1      46.665  35.871  29.632  1.00  0.00     0.200 A 
ATOM     91  F   UNL A   1      45.783  36.656  27.587  1.00  0.00    -0.200 F 
ATOM     92  F   UNL A   1      47.312  37.030  29.813  1.00  0.00    -0.200 F 
ENDBRANCH  59  82
ENDBRANCH  33  34
ENDBRANCH  26  28
ENDBRANCH  25  26
ENDBRANCH  24  25
ENDBRANCH  23  24
ENDBRANCH  22  23
ENDBRANCH   1  22
TORSDOF 17
ENDMDL
MODEL 3
REMARK VINA RESULT:      -9.6      4.400     10.287
REMARK SMILES C[C@H](CC[NH2+]Cc1cc(C(=O)OCCOC(=O)c2ccc(-c3c4nc(c(-c5c(F)c(F)c(F)c(F)c5F)c5ccc([nH]5)c(-c5c(F)c(F)c(F)c(F)c5F)c5nc(c(-c6c(F)c(F)c(F)c(F)c6F)c6ccc3[nH]6)C=C5)C=C4)cc2)cs1)c1ccccc1
REMARK SMILES IDX 10 1 11 2 9 3 7 4 8 5 82 6 81 7 6 8 5 9 4 12 3 13 2 14 1 15
REMARK SMILES IDX 83 16 84 17 88 18 85 19 87 20 86 21 12 22 13 23 14 24 15 25
REMARK SMILES IDX 16 26 17 27 18 28 19 29 80 30 20 31 79 32 21 33 22 34 23 35
REMARK SMILES IDX 73 36 24 37 78 38 72 39 74 40 25 41 77 42 71 43 70 44 26 46
REMARK SMILES IDX 58 47 38 48 57 49 39 50 42 51 56 52 75 53 40 54 41 55 55 57
REMARK SMILES IDX 76 58 43 59 27 60 28 61 36 62 29 63 30 64 34 65 37 66 31 67
REMARK SMILES IDX 32 68 35 69 33 70 59 71 60 72 68 73 61 74 62 75 66 76 69 77
REMARK SMILES IDX 63 78 64 79 67 80 65 81 44 82 45 83 53 84 46 85 47 86 51 87
REMARK SMILES IDX 54 88 48 89 49 90 52 91 50 92
REMARK H PARENT 5 10 5 11 74 45 42 56
REMARK Flexibility Score: inf
ROOT
ATOM      1  C   UNL A   1      37.418  23.103  25.693  1.00  0.00     0.339 C 
ATOM      2  O   UNL A   1      38.240  23.940  26.039  1.00  0.00    -0.246 OA
ENDROOT
BRANCH   1   3
ATOM      3  C   UNL A   1      36.166  23.465  25.027  1.00  0.00     0.071 A 
ATOM      4  C   UNL A   1      34.437  23.555  23.430  1.00  0.00     0.059 A 
ATOM      5  C   UNL A   1      35.671  23.017  23.754  1.00  0.00     0.037 A 
ATOM      6  S   UNL A   1      33.864  24.584  24.675  1.00  0.00    -0.142 S 
ATOM      7  C   UNL A   1      35.271  24.348  25.603  1.00  0.00     0.081 A 
BRANCH   4   8
ATOM      8  C   UNL A   1      33.595  23.304  22.208  1.00  0.00     0.308 C 
BRANCH   8   9
ATOM      9  N   UNL A   1      32.268  22.752  22.506  1.00  0.00    -0.342 N 
ATOM     10  H   UNL A   1      31.882  23.247  23.311  1.00  0.00     0.346 HD
ATOM     11  H   UNL A   1      31.689  22.874  21.676  1.00  0.00     0.346 HD
BRANCH   9  12
ATOM     12  C   UNL A   1      32.311  21.324  22.811  1.00  0.00     0.261 C 
BRANCH  12  13
ATOM     13  C   UNL A   1      32.211  21.030  24.316  1.00  0.00     0.069 C 
BRANCH  13  14
ATOM     14  C   UNL A   1      33.443  20.430  25.035  1.00  0.00     0.021 C 
ATOM     15  C   UNL A   1      33.652  21.024  26.435  1.00  0.00     0.013 C 
BRANCH  14  16
ATOM     16  C   UNL A   1      33.517  18.912  24.952  1.00  0.00    -0.045 A 
ATOM     17  C   UNL A   1      34.523  18.235  24.247  1.00  0.00     0.004 A 
ATOM     18  C   UNL A   1      32.527  18.145  25.592  1.00  0.00     0.004 A 
ATOM     19  C   UNL A   1      34.528  16.840  24.168  1.00  0.00     0.000 A 
ATOM     20  C   UNL A   1      32.533  16.752  25.513  1.00  0.00     0.000 A 
ATOM     21  C   UNL A   1      33.525  16.102  24.789  1.00  0.00     0.000 A 
ENDBRANCH  14  16
ENDBRANCH  13  14
ENDBRANCH  12  13
ENDBRANCH   9  12
ENDBRANCH   8   9
ENDBRANCH   4   8
ENDBRANCH   1   3
BRANCH   1  22
ATOM     22  O   UNL A   1      37.568  21.758  25.870  1.00  0.00    -0.458 OA
BRANCH  22  23
ATOM     23  C   UNL A   1      38.712  21.172  25.221  1.00  0.00     0.275 C 
BRANCH  23  24
ATOM     24  C   UNL A   1      39.445  20.184  26.132  1.00  0.00     0.275 C 
BRANCH  24  25
ATOM     25  O   UNL A   1      40.460  19.453  25.421  1.00  0.00    -0.458 OA
BRANCH  25  26
ATOM     26  C   UNL A   1      41.622  19.274  26.092  1.00  0.00     0.338 C 
ATOM     27  O   UNL A   1      42.140  18.218  26.411  1.00  0.00    -0.246 OA
BRANCH  26  28
ATOM     28  C   UNL A   1      42.265  20.577  26.312  1.00  0.00     0.060 A 
ATOM     29  C   UNL A   1      42.375  21.040  27.622  1.00  0.00     0.016 A 
ATOM     30  C   UNL A   1      42.662  21.380  25.242  1.00  0.00     0.016 A 
ATOM     31  C   UNL A   1      42.877  22.316  27.869  1.00  0.00     0.010 A 
ATOM     32  C   UNL A   1      43.170  22.662  25.494  1.00  0.00     0.010 A 
ATOM     33  C   UNL A   1      43.263  23.150  26.810  1.00  0.00    -0.014 A 
BRANCH  33  34
ATOM     34  C   UNL A   1      43.713  24.542  27.087  1.00  0.00     0.031 A 
ATOM     35  C   UNL A   1      42.758  25.546  27.676  1.00  0.00     0.074 A 
ATOM     36  C   UNL A   1      44.990  24.901  26.853  1.00  0.00     0.049 A 
ATOM     37  N   UNL A   1      42.932  26.825  27.898  1.00  0.00    -0.248 NA
ATOM     38  C   UNL A   1      41.431  25.045  28.064  1.00  0.00     0.031 C 
ATOM     39  C   UNL A   1      46.032  24.018  26.334  1.00  0.00     0.029 A 
ATOM     40  N   UNL A   1      45.628  26.105  27.029  1.00  0.00    -0.354 N 
ATOM     41  C   UNL A   1      41.729  27.290  28.414  1.00  0.00     0.074 A 
ATOM     42  C   UNL A   1      40.830  26.155  28.468  1.00  0.00     0.031 C 
ATOM     43  C   UNL A   1      47.185  24.701  26.254  1.00  0.00     0.029 A 
ATOM     44  C   UNL A   1      46.949  26.085  26.654  1.00  0.00     0.049 A 
ATOM     45  H   UNL A   1      45.181  26.905  27.389  1.00  0.00     0.167 HD
ATOM     46  C   UNL A   1      41.404  28.546  28.806  1.00  0.00     0.037 A 
ATOM     47  C   UNL A   1      47.861  27.076  26.606  1.00  0.00     0.037 A 
ATOM     48  C   UNL A   1      42.309  29.667  28.792  1.00  0.00     0.049 A 
ATOM     49  C   UNL A   1      47.463  28.471  27.008  1.00  0.00     0.074 A 
ATOM     50  C   UNL A   1      42.072  30.973  29.191  1.00  0.00     0.029 A 
ATOM     51  N   UNL A   1      43.626  29.615  28.364  1.00  0.00    -0.354 N 
ATOM     52  N   UNL A   1      46.313  28.905  27.461  1.00  0.00    -0.248 NA
ATOM     53  C   UNL A   1      48.489  29.515  26.876  1.00  0.00     0.031 C 
ATOM     54  C   UNL A   1      43.235  31.719  28.967  1.00  0.00     0.029 A 
ATOM     55  C   UNL A   1      44.210  30.869  28.470  1.00  0.00     0.049 A 
ATOM     56  H   UNL A   1      44.081  28.807  28.034  1.00  0.00     0.167 HD
ATOM     57  C   UNL A   1      46.477  30.267  27.675  1.00  0.00     0.074 A 
ATOM     58  C   UNL A   1      47.846  30.584  27.325  1.00  0.00     0.031 C 
ATOM     59  C   UNL A   1      45.571  31.174  28.115  1.00  0.00     0.037 A 
BRANCH  46  60
ATOM     60  C   UNL A   1      39.993  28.790  29.259  1.00  0.00     0.064 A 
ATOM     61  C   UNL A   1      38.987  29.190  28.368  1.00  0.00     0.173 A 
ATOM     62  C   UNL A   1      39.637  28.578  30.600  1.00  0.00     0.173 A 
ATOM     63  F   UNL A   1      39.278  29.419  27.079  1.00  0.00    -0.203 F 
ATOM     64  C   UNL A   1      37.680  29.389  28.807  1.00  0.00     0.198 A 
ATOM     65  C   UNL A   1      38.324  28.751  31.030  1.00  0.00     0.198 A 
ATOM     66  F   UNL A   1      40.560  28.188  31.491  1.00  0.00    -0.203 F 
ATOM     67  F   UNL A   1      36.742  29.810  27.947  1.00  0.00    -0.200 F 
ATOM     68  C   UNL A   1      37.348  29.163  30.136  1.00  0.00     0.200 A 
ATOM     69  F   UNL A   1      38.004  28.520  32.311  1.00  0.00    -0.200 F 
ATOM     70  F   UNL A   1      36.088  29.348  30.554  1.00  0.00    -0.200 F 
ENDBRANCH  46  60
BRANCH  47  71
ATOM     71  C   UNL A   1      49.237  26.789  26.128  1.00  0.00     0.064 A 
ATOM     72  C   UNL A   1      49.590  26.976  24.785  1.00  0.00     0.173 A 
ATOM     73  C   UNL A   1      50.227  26.319  27.004  1.00  0.00     0.173 A 
ATOM     74  F   UNL A   1      48.671  27.394  23.904  1.00  0.00    -0.203 F 
ATOM     75  C   UNL A   1      50.879  26.697  24.335  1.00  0.00     0.198 A 
ATOM     76  C   UNL A   1      51.522  26.069  26.560  1.00  0.00     0.198 A 
ATOM     77  F   UNL A   1      49.937  26.118  28.299  1.00  0.00    -0.203 F 
ATOM     78  F   UNL A   1      51.181  26.847  23.038  1.00  0.00    -0.200 F 
ATOM     79  C   UNL A   1      51.846  26.252  25.224  1.00  0.00     0.200 A 
ATOM     80  F   UNL A   1      52.457  25.651  27.425  1.00  0.00    -0.200 F 
ATOM     81  F   UNL A   1      53.089  25.994  24.793  1.00  0.00    -0.200 F 
ENDBRANCH  47  71
BRANCH  59  82
ATOM     82  C   UNL A   1      46.036  32.593  28.260  1.00  0.00     0.064 A 
ATOM     83  C   UNL A   1      46.636  33.049  29.442  1.00  0.00     0.173 A 
ATOM     84  C   UNL A   1      45.904  33.499  27.196  1.00  0.00     0.173 A 
ATOM     85  F   UNL A   1      46.770  32.226  30.493  1.00  0.00    -0.203 F 
ATOM     86  C   UNL A   1      47.068  34.368  29.563  1.00  0.00     0.198 A 
ATOM     87  C   UNL A   1      46.360  34.810  27.312  1.00  0.00     0.198 A 
ATOM     88  F   UNL A   1      45.340  33.111  26.043  1.00  0.00    -0.203 F 
ATOM     89  F   UNL A   1      47.600  34.795  30.717  1.00  0.00    -0.200 F 
ATOM     90  C   UNL A   1      46.934  35.245  28.497  1.00  0.00     0.200 A 
ATOM     91  F   UNL A   1      46.239  35.653  26.278  1.00  0.00    -0.200 F 
ATOM     92  F   UNL A   1      47.353  36.513  28.613  1.00  0.00    -0.200 F 
ENDBRANCH  59  82
ENDBRANCH  33  34
ENDBRANCH  26  28
ENDBRANCH  25  26
ENDBRANCH  24  25
ENDBRANCH  23  24
ENDBRANCH  22  23
ENDBRANCH   1  22
TORSDOF 17
ENDMDL
