MODEL 1
REMARK VINA RESULT:     -16.0      0.000      0.000
REMARK SMILES O=C(OCCOC(=O)[C@@H]1[C@H](C(=O)Nc2ccccc2OC(F)F)[C@@H]2C=C[C@H]1C2)c1ccc(-c2c3nc(c(-c4c(F)c(F)c(F)c(F)c4F)c4ccc([nH]4)c(-c4c(F)c(F)c(F)c(F)c4F)c4nc(c(-c5c(F)c(F)c(F)c(F)c5F)c5ccc2[nH]5)C=C4)C=C3)cc1
REMARK SMILES IDX 5 1 4 2 3 3 2 4 1 5 29 6 30 7 91 8 31 9 90 10 32 11 33 12
REMARK SMILES IDX 34 13 84 14 35 15 89 16 83 17 85 18 36 19 88 20 82 21 81 22
REMARK SMILES IDX 37 24 69 25 49 26 68 27 50 28 53 29 67 30 86 31 51 32 52 33
REMARK SMILES IDX 66 35 87 36 54 37 38 38 39 39 47 40 40 41 41 42 45 43 48 44
REMARK SMILES IDX 42 45 43 46 46 47 44 48 70 49 71 50 79 51 72 52 73 53 77 54
REMARK SMILES IDX 80 55 74 56 75 57 78 58 76 59 55 60 56 61 64 62 57 63 58 64
REMARK SMILES IDX 62 65 65 66 59 67 60 68 63 69 61 70 6 71 7 72 8 73 9 74
REMARK SMILES IDX 10 75 27 76 24 77 26 78 28 79 25 80 11 81 12 82 13 83 14 85
REMARK SMILES IDX 15 86 19 87 16 88 18 89 17 90 20 91 21 92 22 93 23 94
REMARK H PARENT 85 23 53 34 13 84
REMARK Flexibility Score: inf
ROOT
ATOM      1  C   UNL A   1      44.714  19.915  24.794  1.00  0.00     0.274 C 
ENDROOT
BRANCH   1   2
ATOM      2  C   UNL A   1      46.000  20.816  24.625  1.00  0.00     0.275 C 
BRANCH   2   3
ATOM      3  O   UNL A   1      46.057  21.792  25.611  1.00  0.00    -0.458 OA
BRANCH   3   4
ATOM      4  C   UNL A   1      45.692  22.979  25.108  1.00  0.00     0.338 C 
ATOM      5  O   UNL A   1      45.757  23.152  23.895  1.00  0.00    -0.246 OA
BRANCH   4   6
ATOM      6  C   UNL A   1      45.297  24.128  26.049  1.00  0.00     0.060 A 
ATOM      7  C   UNL A   1      44.969  25.938  25.961  1.00  0.00     0.016 A 
ATOM      8  C   UNL A   1      44.698  23.341  27.500  1.00  0.00     0.016 A 
ATOM      9  C   UNL A   1      43.884  26.574  27.510  1.00  0.00     0.010 A 
ATOM     10  C   UNL A   1      44.001  24.227  28.846  1.00  0.00     0.010 A 
ATOM     11  C   UNL A   1      43.506  25.868  28.879  1.00  0.00    -0.014 A 
BRANCH  11  12
ATOM     12  C   UNL A   1      42.819  27.168  29.932  1.00  0.00     0.031 A 
ATOM     13  C   UNL A   1      43.436  27.252  31.297  1.00  0.00     0.074 A 
ATOM     14  C   UNL A   1      41.838  28.218  29.753  1.00  0.00     0.049 A 
ATOM     15  N   UNL A   1      43.035  27.930  32.342  1.00  0.00    -0.248 NA
ATOM     16  C   UNL A   1      44.675  26.508  31.487  1.00  0.00     0.031 C 
ATOM     17  C   UNL A   1      41.092  28.700  28.572  1.00  0.00     0.029 A 
ATOM     18  N   UNL A   1      41.109  29.026  30.688  1.00  0.00    -0.354 N 
ATOM     19  C   UNL A   1      43.946  27.652  33.341  1.00  0.00     0.074 A 
ATOM     20  C   UNL A   1      44.915  26.736  32.769  1.00  0.00     0.031 C 
ATOM     21  C   UNL A   1      40.034  29.460  28.790  1.00  0.00     0.029 A 
ATOM     22  C   UNL A   1      39.938  29.646  30.179  1.00  0.00     0.049 A 
ATOM     23  H   UNL A   1      41.401  29.143  31.620  1.00  0.00     0.167 HD
ATOM     24  C   UNL A   1      43.973  28.120  34.612  1.00  0.00     0.037 A 
ATOM     25  C   UNL A   1      38.839  30.322  30.591  1.00  0.00     0.037 A 
ATOM     26  C   UNL A   1      43.046  29.072  35.183  1.00  0.00     0.049 A 
ATOM     27  C   UNL A   1      38.852  30.761  31.988  1.00  0.00     0.074 A 
ATOM     28  C   UNL A   1      43.087  29.624  36.454  1.00  0.00     0.029 A 
ATOM     29  N   UNL A   1      41.926  29.611  34.563  1.00  0.00    -0.354 N 
ATOM     30  N   UNL A   1      39.754  30.462  32.874  1.00  0.00    -0.248 NA
ATOM     31  C   UNL A   1      37.801  31.680  32.429  1.00  0.00     0.031 C 
ATOM     32  C   UNL A   1      41.954  30.416  36.638  1.00  0.00     0.029 A 
ATOM     33  C   UNL A   1      41.248  30.441  35.452  1.00  0.00     0.049 A 
ATOM     34  H   UNL A   1      41.653  29.433  33.634  1.00  0.00     0.167 HD
ATOM     35  C   UNL A   1      39.412  31.188  33.982  1.00  0.00     0.074 A 
ATOM     36  C   UNL A   1      38.233  31.964  33.648  1.00  0.00     0.031 C 
ATOM     37  C   UNL A   1      40.053  31.188  35.165  1.00  0.00     0.037 A 
BRANCH  24  38
ATOM     38  C   UNL A   1      45.030  27.557  35.520  1.00  0.00     0.064 A 
ATOM     39  C   UNL A   1      46.290  28.155  35.668  1.00  0.00     0.173 A 
ATOM     40  C   UNL A   1      44.750  26.419  36.295  1.00  0.00     0.173 A 
ATOM     41  F   UNL A   1      46.612  29.243  34.953  1.00  0.00    -0.203 F 
ATOM     42  C   UNL A   1      47.244  27.607  36.519  1.00  0.00     0.198 A 
ATOM     43  C   UNL A   1      45.687  25.908  37.185  1.00  0.00     0.198 A 
ATOM     44  F   UNL A   1      43.553  25.817  36.208  1.00  0.00    -0.203 F 
ATOM     45  F   UNL A   1      48.466  28.153  36.588  1.00  0.00    -0.200 F 
ATOM     46  C   UNL A   1      46.939  26.492  37.285  1.00  0.00     0.200 A 
ATOM     47  F   UNL A   1      45.376  24.851  37.948  1.00  0.00    -0.200 F 
ATOM     48  F   UNL A   1      47.855  25.976  38.115  1.00  0.00    -0.200 F 
ENDBRANCH  24  38
BRANCH  25  49
ATOM     49  C   UNL A   1      37.701  30.710  29.659  1.00  0.00     0.064 A 
ATOM     50  C   UNL A   1      36.688  29.803  29.298  1.00  0.00     0.173 A 
ATOM     51  C   UNL A   1      37.577  32.018  29.148  1.00  0.00     0.173 A 
ATOM     52  F   UNL A   1      36.725  28.545  29.757  1.00  0.00    -0.203 F 
ATOM     53  C   UNL A   1      35.637  30.168  28.446  1.00  0.00     0.198 A 
ATOM     54  C   UNL A   1      36.506  32.392  28.325  1.00  0.00     0.198 A 
ATOM     55  F   UNL A   1      38.479  32.954  29.479  1.00  0.00    -0.203 F 
ATOM     56  F   UNL A   1      34.716  29.261  28.091  1.00  0.00    -0.200 F 
ATOM     57  C   UNL A   1      35.545  31.463  27.962  1.00  0.00     0.200 A 
ATOM     58  F   UNL A   1      36.400  33.658  27.891  1.00  0.00    -0.200 F 
ATOM     59  F   UNL A   1      34.532  31.814  27.154  1.00  0.00    -0.200 F 
ENDBRANCH  25  49
BRANCH  37  60
ATOM     60  C   UNL A   1      39.458  32.057  36.213  1.00  0.00     0.064 A 
ATOM     61  C   UNL A   1      39.976  33.334  36.476  1.00  0.00     0.173 A 
ATOM     62  C   UNL A   1      38.371  31.605  36.968  1.00  0.00     0.173 A 
ATOM     63  F   UNL A   1      41.047  33.783  35.801  1.00  0.00    -0.203 F 
ATOM     64  C   UNL A   1      39.433  34.122  37.479  1.00  0.00     0.198 A 
ATOM     65  C   UNL A   1      37.799  32.418  37.937  1.00  0.00     0.198 A 
ATOM     66  F   UNL A   1      37.866  30.379  36.765  1.00  0.00    -0.203 F 
ATOM     67  F   UNL A   1      39.986  35.309  37.765  1.00  0.00    -0.200 F 
ATOM     68  C   UNL A   1      38.335  33.671  38.197  1.00  0.00     0.200 A 
ATOM     69  F   UNL A   1      36.732  31.986  38.622  1.00  0.00    -0.200 F 
ATOM     70  F   UNL A   1      37.799  34.443  39.151  1.00  0.00    -0.200 F 
ENDBRANCH  37  60
ENDBRANCH  11  12
ENDBRANCH   4   6
ENDBRANCH   3   4
ENDBRANCH   2   3
ENDBRANCH   1   2
BRANCH   1  71
ATOM     71  O   UNL A   1      43.191  20.592  25.334  1.00  0.00    -0.462 OA
BRANCH  71  72
ATOM     72  C   UNL A   1      42.128  20.786  26.305  1.00  0.00     0.310 C 
ATOM     73  O   UNL A   1      42.102  19.914  27.189  1.00  0.00    -0.252 OA
BRANCH  72  74
ATOM     74  C   UNL A   1      40.802  22.025  26.505  1.00  0.00     0.119 C 
ATOM     75  C   UNL A   1      38.954  22.169  26.271  1.00  0.00     0.100 C 
ATOM     76  C   UNL A   1      41.312  23.601  26.822  1.00  0.00     0.027 C 
ATOM     77  C   UNL A   1      39.038  23.861  27.051  1.00  0.00     0.025 C 
ATOM     78  C   UNL A   1      40.869  24.915  26.132  1.00  0.00    -0.027 C 
ATOM     79  C   UNL A   1      40.327  23.915  27.944  1.00  0.00     0.017 C 
ATOM     80  C   UNL A   1      39.553  25.082  26.291  1.00  0.00    -0.027 C 
BRANCH  75  81
ATOM     81  C   UNL A   1      37.608  21.059  25.174  1.00  0.00     0.229 C 
ATOM     82  O   UNL A   1      37.977  19.967  24.685  1.00  0.00    -0.274 OA
ATOM     83  N   UNL A   1      35.925  21.414  24.610  1.00  0.00    -0.323 N 
ATOM     84  H   UNL A   1      35.491  20.709  24.077  1.00  0.00     0.170 HD
BRANCH  83  85
ATOM     85  C   UNL A   1      34.924  22.929  24.910  1.00  0.00     0.084 A 
ATOM     86  C   UNL A   1      35.397  24.084  25.461  1.00  0.00     0.030 A 
ATOM     87  C   UNL A   1      33.272  23.062  24.217  1.00  0.00     0.149 A 
ATOM     88  C   UNL A   1      34.489  25.204  25.460  1.00  0.00     0.002 A 
ATOM     89  C   UNL A   1      32.456  24.210  24.390  1.00  0.00     0.049 A 
ATOM     90  C   UNL A   1      33.114  25.258  25.004  1.00  0.00     0.004 A 
BRANCH  87  91
ATOM     91  O   UNL A   1      32.665  21.288  23.461  1.00  0.00    -0.433 OA
BRANCH  91  92
ATOM     92  C   UNL A   1      32.958  19.639  24.418  1.00  0.00     0.542 C 
ATOM     93  F   UNL A   1      34.020  18.818  24.179  1.00  0.00    -0.167 F 
ATOM     94  F   UNL A   1      32.709  19.544  25.769  1.00  0.00    -0.167 F 
ENDBRANCH  91  92
ENDBRANCH  87  91
ENDBRANCH  83  85
ENDBRANCH  75  81
ENDBRANCH  72  74
ENDBRANCH  71  72
ENDBRANCH   1  71
TORSDOF 15
ENDMDL
MODEL 2
REMARK VINA RESULT:     -15.9      3.490      8.594
REMARK SMILES O=C(OCCOC(=O)[C@@H]1[C@H](C(=O)Nc2ccccc2OC(F)F)[C@@H]2C=C[C@H]1C2)c1ccc(-c2c3nc(c(-c4c(F)c(F)c(F)c(F)c4F)c4ccc([nH]4)c(-c4c(F)c(F)c(F)c(F)c4F)c4nc(c(-c5c(F)c(F)c(F)c(F)c5F)c5ccc2[nH]5)C=C4)C=C3)cc1
REMARK SMILES IDX 5 1 4 2 3 3 2 4 1 5 29 6 30 7 91 8 31 9 90 10 32 11 33 12
REMARK SMILES IDX 34 13 84 14 35 15 89 16 83 17 85 18 36 19 88 20 82 21 81 22
REMARK SMILES IDX 37 24 69 25 49 26 68 27 50 28 53 29 67 30 86 31 51 32 52 33
REMARK SMILES IDX 66 35 87 36 54 37 38 38 39 39 47 40 40 41 41 42 45 43 48 44
REMARK SMILES IDX 42 45 43 46 46 47 44 48 70 49 71 50 79 51 72 52 73 53 77 54
REMARK SMILES IDX 80 55 74 56 75 57 78 58 76 59 55 60 56 61 64 62 57 63 58 64
REMARK SMILES IDX 62 65 65 66 59 67 60 68 63 69 61 70 6 71 7 72 8 73 9 74
REMARK SMILES IDX 10 75 27 76 24 77 26 78 28 79 25 80 11 81 12 82 13 83 14 85
REMARK SMILES IDX 15 86 19 87 16 88 18 89 17 90 20 91 21 92 22 93 23 94
REMARK H PARENT 85 23 53 34 13 84
REMARK Flexibility Score: inf
ROOT
ATOM      1  C   UNL A   1      32.876  28.055  23.420  1.00  0.00     0.274 C 
ENDROOT
BRANCH   1   2
ATOM      2  C   UNL A   1      32.968  29.319  24.362  1.00  0.00     0.275 C 
BRANCH   2   3
ATOM      3  O   UNL A   1      31.721  29.646  24.879  1.00  0.00    -0.458 OA
BRANCH   3   4
ATOM      4  C   UNL A   1      31.857  30.476  25.923  1.00  0.00     0.338 C 
ATOM      5  O   UNL A   1      31.122  31.455  25.999  1.00  0.00    -0.246 OA
BRANCH   4   6
ATOM      6  C   UNL A   1      32.983  30.252  26.944  1.00  0.00     0.060 A 
ATOM      7  C   UNL A   1      33.971  28.857  27.629  1.00  0.00     0.016 A 
ATOM      8  C   UNL A   1      33.664  31.846  27.227  1.00  0.00     0.016 A 
ATOM      9  C   UNL A   1      35.679  29.487  28.447  1.00  0.00     0.010 A 
ATOM     10  C   UNL A   1      35.076  32.113  28.236  1.00  0.00     0.010 A 
ATOM     11  C   UNL A   1      36.178  30.942  28.831  1.00  0.00    -0.014 A 
BRANCH  11  12
ATOM     12  C   UNL A   1      37.651  30.706  29.853  1.00  0.00     0.031 A 
ATOM     13  C   UNL A   1      38.658  29.753  29.281  1.00  0.00     0.074 A 
ATOM     14  C   UNL A   1      38.140  31.278  31.091  1.00  0.00     0.049 A 
ATOM     15  N   UNL A   1      39.707  29.221  29.853  1.00  0.00    -0.248 NA
ATOM     16  C   UNL A   1      38.472  29.388  27.881  1.00  0.00     0.031 C 
ATOM     17  C   UNL A   1      37.652  32.379  31.946  1.00  0.00     0.029 A 
ATOM     18  N   UNL A   1      39.152  30.854  32.015  1.00  0.00    -0.354 N 
ATOM     19  C   UNL A   1      40.285  28.409  28.898  1.00  0.00     0.074 A 
ATOM     20  C   UNL A   1      39.456  28.519  27.711  1.00  0.00     0.031 C 
ATOM     21  C   UNL A   1      38.130  32.454  33.174  1.00  0.00     0.029 A 
ATOM     22  C   UNL A   1      39.069  31.418  33.315  1.00  0.00     0.049 A 
ATOM     23  H   UNL A   1      39.856  30.215  31.764  1.00  0.00     0.167 HD
ATOM     24  C   UNL A   1      41.400  27.648  29.000  1.00  0.00     0.037 A 
ATOM     25  C   UNL A   1      39.588  31.281  34.558  1.00  0.00     0.037 A 
ATOM     26  C   UNL A   1      42.267  27.567  30.156  1.00  0.00     0.049 A 
ATOM     27  C   UNL A   1      40.753  30.400  34.665  1.00  0.00     0.074 A 
ATOM     28  C   UNL A   1      43.451  26.855  30.269  1.00  0.00     0.029 A 
ATOM     29  N   UNL A   1      42.067  28.184  31.384  1.00  0.00    -0.354 N 
ATOM     30  N   UNL A   1      41.245  29.665  33.713  1.00  0.00    -0.248 NA
ATOM     31  C   UNL A   1      41.489  30.384  35.931  1.00  0.00     0.031 C 
ATOM     32  C   UNL A   1      43.918  26.963  31.578  1.00  0.00     0.029 A 
ATOM     33  C   UNL A   1      43.081  27.818  32.266  1.00  0.00     0.049 A 
ATOM     34  H   UNL A   1      41.322  28.790  31.599  1.00  0.00     0.167 HD
ATOM     35  C   UNL A   1      42.383  29.120  34.243  1.00  0.00     0.074 A 
ATOM     36  C   UNL A   1      42.523  29.629  35.593  1.00  0.00     0.031 C 
ATOM     37  C   UNL A   1      43.223  28.270  33.624  1.00  0.00     0.037 A 
BRANCH  24  38
ATOM     38  C   UNL A   1      41.736  26.774  27.825  1.00  0.00     0.064 A 
ATOM     39  C   UNL A   1      42.693  27.137  26.867  1.00  0.00     0.173 A 
ATOM     40  C   UNL A   1      41.115  25.521  27.688  1.00  0.00     0.173 A 
ATOM     41  F   UNL A   1      43.318  28.322  26.947  1.00  0.00    -0.203 F 
ATOM     42  C   UNL A   1      42.980  26.302  25.792  1.00  0.00     0.198 A 
ATOM     43  C   UNL A   1      41.444  24.667  26.643  1.00  0.00     0.198 A 
ATOM     44  F   UNL A   1      40.205  25.114  28.586  1.00  0.00    -0.203 F 
ATOM     45  F   UNL A   1      43.844  26.703  24.849  1.00  0.00    -0.200 F 
ATOM     46  C   UNL A   1      42.365  25.064  25.686  1.00  0.00     0.200 A 
ATOM     47  F   UNL A   1      40.873  23.457  26.563  1.00  0.00    -0.200 F 
ATOM     48  F   UNL A   1      42.654  24.255  24.658  1.00  0.00    -0.200 F 
ENDBRANCH  24  38
BRANCH  25  49
ATOM     49  C   UNL A   1      39.085  32.063  35.762  1.00  0.00     0.064 A 
ATOM     50  C   UNL A   1      38.216  31.496  36.712  1.00  0.00     0.173 A 
ATOM     51  C   UNL A   1      39.506  33.385  36.015  1.00  0.00     0.173 A 
ATOM     52  F   UNL A   1      37.784  30.237  36.552  1.00  0.00    -0.203 F 
ATOM     53  C   UNL A   1      37.762  32.217  37.824  1.00  0.00     0.198 A 
ATOM     54  C   UNL A   1      39.080  34.093  37.146  1.00  0.00     0.198 A 
ATOM     55  F   UNL A   1      40.368  33.983  35.179  1.00  0.00    -0.203 F 
ATOM     56  F   UNL A   1      36.899  31.654  38.681  1.00  0.00    -0.200 F 
ATOM     57  C   UNL A   1      38.196  33.515  38.042  1.00  0.00     0.200 A 
ATOM     58  F   UNL A   1      39.535  35.335  37.373  1.00  0.00    -0.200 F 
ATOM     59  F   UNL A   1      37.769  34.201  39.113  1.00  0.00    -0.200 F 
ENDBRANCH  25  49
BRANCH  37  60
ATOM     60  C   UNL A   1      44.379  27.811  34.437  1.00  0.00     0.064 A 
ATOM     61  C   UNL A   1      45.591  28.517  34.435  1.00  0.00     0.173 A 
ATOM     62  C   UNL A   1      44.277  26.652  35.212  1.00  0.00     0.173 A 
ATOM     63  F   UNL A   1      45.739  29.609  33.668  1.00  0.00    -0.203 F 
ATOM     64  C   UNL A   1      46.674  28.060  35.171  1.00  0.00     0.198 A 
ATOM     65  C   UNL A   1      45.347  26.227  35.987  1.00  0.00     0.198 A 
ATOM     66  F   UNL A   1      43.143  25.935  35.218  1.00  0.00    -0.203 F 
ATOM     67  F   UNL A   1      47.846  28.705  35.101  1.00  0.00    -0.200 F 
ATOM     68  C   UNL A   1      46.546  26.926  35.959  1.00  0.00     0.200 A 
ATOM     69  F   UNL A   1      45.220  25.138  36.757  1.00  0.00    -0.200 F 
ATOM     70  F   UNL A   1      47.586  26.499  36.687  1.00  0.00    -0.200 F 
ENDBRANCH  37  60
ENDBRANCH  11  12
ENDBRANCH   4   6
ENDBRANCH   3   4
ENDBRANCH   2   3
ENDBRANCH   1   2
BRANCH   1  71
ATOM     71  O   UNL A   1      33.840  26.623  23.721  1.00  0.00    -0.462 OA
BRANCH  71  72
ATOM     72  C   UNL A   1      34.263  25.261  23.445  1.00  0.00     0.310 C 
ATOM     73  O   UNL A   1      34.073  24.915  22.267  1.00  0.00    -0.252 OA
BRANCH  72  74
ATOM     74  C   UNL A   1      35.000  23.931  24.455  1.00  0.00     0.119 C 
ATOM     75  C   UNL A   1      34.527  22.795  25.859  1.00  0.00     0.100 C 
ATOM     76  C   UNL A   1      36.661  23.702  24.267  1.00  0.00     0.027 C 
ATOM     77  C   UNL A   1      36.163  21.926  25.642  1.00  0.00     0.025 C 
ATOM     78  C   UNL A   1      37.747  23.575  25.363  1.00  0.00    -0.027 C 
ATOM     79  C   UNL A   1      36.649  22.179  24.171  1.00  0.00     0.017 C 
ATOM     80  C   UNL A   1      37.476  22.525  26.144  1.00  0.00    -0.027 C 
BRANCH  75  81
ATOM     81  C   UNL A   1      33.022  22.884  27.265  1.00  0.00     0.229 C 
ATOM     82  O   UNL A   1      33.127  22.202  28.311  1.00  0.00    -0.274 OA
ATOM     83  N   UNL A   1      31.402  23.689  27.251  1.00  0.00    -0.323 N 
ATOM     84  H   UNL A   1      30.852  23.567  28.058  1.00  0.00     0.170 HD
BRANCH  83  85
ATOM     85  C   UNL A   1      30.653  24.710  25.913  1.00  0.00     0.084 A 
ATOM     86  C   UNL A   1      30.165  25.973  26.073  1.00  0.00     0.030 A 
ATOM     87  C   UNL A   1      30.778  24.174  24.203  1.00  0.00     0.149 A 
ATOM     88  C   UNL A   1      29.769  26.656  24.866  1.00  0.00     0.002 A 
ATOM     89  C   UNL A   1      30.243  24.924  23.123  1.00  0.00     0.049 A 
ATOM     90  C   UNL A   1      29.765  26.161  23.504  1.00  0.00     0.004 A 
BRANCH  87  91
ATOM     91  O   UNL A   1      31.481  22.283  24.092  1.00  0.00    -0.433 OA
BRANCH  91  92
ATOM     92  C   UNL A   1      32.377  21.639  22.509  1.00  0.00     0.542 C 
ATOM     93  F   UNL A   1      31.983  20.524  21.831  1.00  0.00    -0.167 F 
ATOM     94  F   UNL A   1      32.851  22.510  21.553  1.00  0.00    -0.167 F 
ENDBRANCH  91  92
ENDBRANCH  87  91
ENDBRANCH  83  85
ENDBRANCH  75  81
ENDBRANCH  72  74
ENDBRANCH  71  72
ENDBRANCH   1  71
TORSDOF 15
ENDMDL
MODEL 3
REMARK VINA RESULT:     -15.9      2.613      4.692
REMARK SMILES O=C(OCCOC(=O)[C@@H]1[C@H](C(=O)Nc2ccccc2OC(F)F)[C@@H]2C=C[C@H]1C2)c1ccc(-c2c3nc(c(-c4c(F)c(F)c(F)c(F)c4F)c4ccc([nH]4)c(-c4c(F)c(F)c(F)c(F)c4F)c4nc(c(-c5c(F)c(F)c(F)c(F)c5F)c5ccc2[nH]5)C=C4)C=C3)cc1
REMARK SMILES IDX 5 1 4 2 3 3 2 4 1 5 29 6 30 7 91 8 31 9 90 10 32 11 33 12
REMARK SMILES IDX 34 13 84 14 35 15 89 16 83 17 85 18 36 19 88 20 82 21 81 22
REMARK SMILES IDX 37 24 69 25 49 26 68 27 50 28 53 29 67 30 86 31 51 32 52 33
REMARK SMILES IDX 66 35 87 36 54 37 38 38 39 39 47 40 40 41 41 42 45 43 48 44
REMARK SMILES IDX 42 45 43 46 46 47 44 48 70 49 71 50 79 51 72 52 73 53 77 54
REMARK SMILES IDX 80 55 74 56 75 57 78 58 76 59 55 60 56 61 64 62 57 63 58 64
REMARK SMILES IDX 62 65 65 66 59 67 60 68 63 69 61 70 6 71 7 72 8 73 9 74
REMARK SMILES IDX 10 75 27 76 24 77 26 78 28 79 25 80 11 81 12 82 13 83 14 85
REMARK SMILES IDX 15 86 19 87 16 88 18 89 17 90 20 91 21 92 22 93 23 94
REMARK H PARENT 85 23 53 34 13 84
REMARK Flexibility Score: inf
ROOT
ATOM      1  C   UNL A   1      38.562  21.203  25.386  1.00  0.00     0.274 C 
ENDROOT
BRANCH   1   2
ATOM      2  C   UNL A   1      39.650  21.790  26.370  1.00  0.00     0.275 C 
BRANCH   2   3
ATOM      3  O   UNL A   1      40.925  21.380  26.003  1.00  0.00    -0.458 OA
BRANCH   3   4
ATOM      4  C   UNL A   1      41.699  22.446  25.755  1.00  0.00     0.338 C 
ATOM      5  O   UNL A   1      42.660  22.316  25.004  1.00  0.00    -0.246 OA
BRANCH   4   6
ATOM      6  C   UNL A   1      41.436  23.774  26.481  1.00  0.00     0.060 A 
ATOM      7  C   UNL A   1      40.010  24.857  26.911  1.00  0.00     0.016 A 
ATOM      8  C   UNL A   1      42.902  24.090  27.395  1.00  0.00     0.016 A 
ATOM      9  C   UNL A   1      40.437  26.083  28.427  1.00  0.00     0.010 A 
ATOM     10  C   UNL A   1      43.061  25.443  28.503  1.00  0.00     0.010 A 
ATOM     11  C   UNL A   1      41.818  26.453  29.113  1.00  0.00    -0.014 A 
BRANCH  11  12
ATOM     12  C   UNL A   1      41.480  27.887  30.161  1.00  0.00     0.031 A 
ATOM     13  C   UNL A   1      42.258  27.915  31.444  1.00  0.00     0.074 A 
ATOM     14  C   UNL A   1      40.670  29.080  30.033  1.00  0.00     0.049 A 
ATOM     15  N   UNL A   1      42.098  28.688  32.488  1.00  0.00    -0.248 NA
ATOM     16  C   UNL A   1      43.372  26.980  31.538  1.00  0.00     0.031 C 
ATOM     17  C   UNL A   1      39.880  29.639  28.916  1.00  0.00     0.029 A 
ATOM     18  N   UNL A   1      40.197  30.033  30.996  1.00  0.00    -0.354 N 
ATOM     19  C   UNL A   1      43.062  28.296  33.396  1.00  0.00     0.074 A 
ATOM     20  C   UNL A   1      43.794  27.210  32.772  1.00  0.00     0.031 C 
ATOM     21  C   UNL A   1      38.993  30.573  29.205  1.00  0.00     0.029 A 
ATOM     22  C   UNL A   1      39.092  30.823  30.584  1.00  0.00     0.049 A 
ATOM     23  H   UNL A   1      40.612  30.132  31.882  1.00  0.00     0.167 HD
ATOM     24  C   UNL A   1      43.312  28.798  34.628  1.00  0.00     0.037 A 
ATOM     25  C   UNL A   1      38.174  31.689  31.076  1.00  0.00     0.037 A 
ATOM     26  C   UNL A   1      42.627  29.913  35.244  1.00  0.00     0.049 A 
ATOM     27  C   UNL A   1      38.422  32.170  32.437  1.00  0.00     0.074 A 
ATOM     28  C   UNL A   1      42.905  30.495  36.471  1.00  0.00     0.029 A 
ATOM     29  N   UNL A   1      41.546  30.610  34.721  1.00  0.00    -0.354 N 
ATOM     30  N   UNL A   1      39.360  31.755  33.235  1.00  0.00    -0.248 NA
ATOM     31  C   UNL A   1      37.594  33.268  32.939  1.00  0.00     0.031 C 
ATOM     32  C   UNL A   1      41.946  31.473  36.733  1.00  0.00     0.029 A 
ATOM     33  C   UNL A   1      41.121  31.575  35.631  1.00  0.00     0.049 A 
ATOM     34  H   UNL A   1      41.140  30.448  33.838  1.00  0.00     0.167 HD
ATOM     35  C   UNL A   1      39.272  32.567  34.332  1.00  0.00     0.074 A 
ATOM     36  C   UNL A   1      38.206  33.519  34.087  1.00  0.00     0.031 C 
ATOM     37  C   UNL A   1      40.038  32.502  35.436  1.00  0.00     0.037 A 
BRANCH  24  38
ATOM     38  C   UNL A   1      44.361  28.098  35.445  1.00  0.00     0.064 A 
ATOM     39  C   UNL A   1      45.710  28.481  35.423  1.00  0.00     0.173 A 
ATOM     40  C   UNL A   1      43.992  27.051  36.306  1.00  0.00     0.173 A 
ATOM     41  F   UNL A   1      46.121  29.474  34.619  1.00  0.00    -0.203 F 
ATOM     42  C   UNL A   1      46.655  27.811  36.194  1.00  0.00     0.198 A 
ATOM     43  C   UNL A   1      44.930  26.421  37.115  1.00  0.00     0.198 A 
ATOM     44  F   UNL A   1      42.711  26.656  36.382  1.00  0.00    -0.203 F 
ATOM     45  F   UNL A   1      47.950  28.146  36.100  1.00  0.00    -0.200 F 
ATOM     46  C   UNL A   1      46.264  26.790  37.047  1.00  0.00     0.200 A 
ATOM     47  F   UNL A   1      44.542  25.459  37.964  1.00  0.00    -0.200 F 
ATOM     48  F   UNL A   1      47.174  26.157  37.800  1.00  0.00    -0.200 F 
ENDBRANCH  24  38
BRANCH  25  49
ATOM     49  C   UNL A   1      37.015  32.230  30.254  1.00  0.00     0.064 A 
ATOM     50  C   UNL A   1      36.985  33.557  29.787  1.00  0.00     0.173 A 
ATOM     51  C   UNL A   1      35.930  31.413  29.875  1.00  0.00     0.173 A 
ATOM     52  F   UNL A   1      37.989  34.393  30.089  1.00  0.00    -0.203 F 
ATOM     53  C   UNL A   1      35.919  34.049  29.022  1.00  0.00     0.198 A 
ATOM     54  C   UNL A   1      34.881  31.896  29.081  1.00  0.00     0.198 A 
ATOM     55  F   UNL A   1      35.903  30.125  30.246  1.00  0.00    -0.203 F 
ATOM     56  F   UNL A   1      35.910  35.332  28.634  1.00  0.00    -0.200 F 
ATOM     57  C   UNL A   1      34.869  33.218  28.667  1.00  0.00     0.200 A 
ATOM     58  F   UNL A   1      33.887  31.077  28.707  1.00  0.00    -0.200 F 
ATOM     59  F   UNL A   1      33.854  33.688  27.926  1.00  0.00    -0.200 F 
ENDBRANCH  25  49
BRANCH  37  60
ATOM     60  C   UNL A   1      39.720  33.496  36.494  1.00  0.00     0.064 A 
ATOM     61  C   UNL A   1      38.843  33.183  37.542  1.00  0.00     0.173 A 
ATOM     62  C   UNL A   1      40.287  34.774  36.451  1.00  0.00     0.173 A 
ATOM     63  F   UNL A   1      38.246  31.981  37.590  1.00  0.00    -0.203 F 
ATOM     64  C   UNL A   1      38.527  34.129  38.504  1.00  0.00     0.198 A 
ATOM     65  C   UNL A   1      40.007  35.701  37.445  1.00  0.00     0.198 A 
ATOM     66  F   UNL A   1      41.109  35.119  35.449  1.00  0.00    -0.203 F 
ATOM     67  F   UNL A   1      37.632  33.838  39.457  1.00  0.00    -0.200 F 
ATOM     68  C   UNL A   1      39.122  35.382  38.465  1.00  0.00     0.200 A 
ATOM     69  F   UNL A   1      40.591  36.907  37.412  1.00  0.00    -0.200 F 
ATOM     70  F   UNL A   1      38.833  36.288  39.407  1.00  0.00    -0.200 F 
ENDBRANCH  37  60
ENDBRANCH  11  12
ENDBRANCH   4   6
ENDBRANCH   3   4
ENDBRANCH   2   3
ENDBRANCH   1   2
BRANCH   1  71
ATOM     71  O   UNL A   1      37.267  22.202  24.759  1.00  0.00    -0.462 OA
BRANCH  71  72
ATOM     72  C   UNL A   1      36.312  22.601  23.739  1.00  0.00     0.310 C 
ATOM     73  O   UNL A   1      36.847  23.029  22.703  1.00  0.00    -0.252 OA
BRANCH  72  74
ATOM     74  C   UNL A   1      34.489  22.630  23.649  1.00  0.00     0.119 C 
ATOM     75  C   UNL A   1      33.130  23.596  22.807  1.00  0.00     0.100 C 
ATOM     76  C   UNL A   1      33.684  21.648  24.760  1.00  0.00     0.027 C 
ATOM     77  C   UNL A   1      31.902  22.376  23.500  1.00  0.00     0.025 C 
ATOM     78  C   UNL A   1      32.505  22.015  25.694  1.00  0.00    -0.027 C 
ATOM     79  C   UNL A   1      32.668  21.039  23.798  1.00  0.00     0.017 C 
ATOM     80  C   UNL A   1      31.458  22.409  24.962  1.00  0.00    -0.027 C 
BRANCH  75  81
ATOM     81  C   UNL A   1      33.098  25.457  21.924  1.00  0.00     0.229 C 
ATOM     82  O   UNL A   1      33.275  25.546  20.687  1.00  0.00    -0.274 OA
ATOM     83  N   UNL A   1      32.999  27.124  22.621  1.00  0.00    -0.323 N 
ATOM     84  H   UNL A   1      33.016  27.865  21.973  1.00  0.00     0.170 HD
BRANCH  83  85
ATOM     85  C   UNL A   1      32.869  27.607  24.393  1.00  0.00     0.084 A 
ATOM     86  C   UNL A   1      33.702  27.178  25.384  1.00  0.00     0.030 A 
ATOM     87  C   UNL A   1      31.760  28.933  24.881  1.00  0.00     0.149 A 
ATOM     88  C   UNL A   1      33.526  27.800  26.673  1.00  0.00     0.002 A 
ATOM     89  C   UNL A   1      31.628  29.371  26.225  1.00  0.00     0.049 A 
ATOM     90  C   UNL A   1      32.542  28.785  27.079  1.00  0.00     0.004 A 
BRANCH  87  91
ATOM     91  O   UNL A   1      30.557  29.464  23.346  1.00  0.00    -0.433 OA
BRANCH  91  92
ATOM     92  C   UNL A   1      29.160  30.775  23.576  1.00  0.00     0.542 C 
ATOM     93  F   UNL A   1      27.837  30.450  23.634  1.00  0.00    -0.167 F 
ATOM     94  F   UNL A   1      29.319  31.847  24.426  1.00  0.00    -0.167 F 
ENDBRANCH  91  92
ENDBRANCH  87  91
ENDBRANCH  83  85
ENDBRANCH  75  81
ENDBRANCH  72  74
ENDBRANCH  71  72
ENDBRANCH   1  71
TORSDOF 15
ENDMDL
