MODEL 1
REMARK VINA RESULT:     -12.6      0.000      0.000
REMARK SMILES N#Cc1ccc(C[N@H+]2CCCC[C@H]2C(=O)OCCOC(=O)c2ccc(-c3c4nc(c(-c5c(F)c(F)c(F)c(F)c5F)c5ccc([nH]5)c(-c5c(F)c(F)c(F)c(F)c5F)c5nc(c(-c6c(F)c(F)c(F)c(F)c6F)c6ccc3[nH]6)C=C5)C=C4)cc2)c(F)c1
REMARK SMILES IDX 17 1 16 2 14 3 15 4 13 5 8 6 9 7 10 9 12 10 11 11 7 12 6 13
REMARK SMILES IDX 3 14 4 15 87 16 5 17 85 18 86 19 2 20 1 21 18 22 19 23 20 24
REMARK SMILES IDX 21 25 22 26 23 27 84 28 24 29 83 30 25 31 26 32 27 33 77 34
REMARK SMILES IDX 28 35 82 36 76 37 78 38 29 39 81 40 75 41 74 42 30 44 62 45
REMARK SMILES IDX 42 46 61 47 43 48 46 49 60 50 79 51 44 52 45 53 59 55 80 56
REMARK SMILES IDX 47 57 31 58 32 59 40 60 33 61 34 62 38 63 41 64 35 65 36 66
REMARK SMILES IDX 39 67 37 68 63 69 64 70 72 71 65 72 66 73 70 74 73 75 67 76
REMARK SMILES IDX 68 77 71 78 69 79 48 80 49 81 57 82 50 83 51 84 55 85 58 86
REMARK SMILES IDX 52 87 53 88 56 89 54 90
REMARK H PARENT 8 8 78 43 46 54
REMARK Flexibility Score: inf
ROOT
ATOM      1  C   UNL A   1      31.640  27.875  27.315  1.00  0.00     0.274 C 
ENDROOT
BRANCH   1   2
ATOM      2  O   UNL A   1      31.905  27.163  26.074  1.00  0.00    -0.458 OA
BRANCH   2   3
ATOM      3  C   UNL A   1      30.890  26.330  25.760  1.00  0.00     0.365 C 
ATOM      4  O   UNL A   1      30.565  25.456  26.546  1.00  0.00    -0.245 OA
BRANCH   3   5
ATOM      5  C   UNL A   1      30.236  26.467  24.379  1.00  0.00     0.295 C 
ATOM      6  N   UNL A   1      30.998  27.414  23.503  1.00  0.00    -0.319 N 
ATOM      7  C   UNL A   1      32.315  26.887  23.128  1.00  0.00     0.263 C 
ATOM      8  H   UNL A   1      30.449  27.434  22.643  1.00  0.00     0.349 HD
ATOM      9  C   UNL A   1      32.328  25.460  22.559  1.00  0.00     0.062 C 
ATOM     10  C   UNL A   1      30.130  25.101  23.680  1.00  0.00     0.078 C 
ATOM     11  C   UNL A   1      31.502  24.496  23.400  1.00  0.00     0.013 C 
BRANCH   6  12
ATOM     12  C   UNL A   1      30.911  28.890  23.791  1.00  0.00     0.302 C 
BRANCH  12  13
ATOM     13  C   UNL A   1      29.771  29.785  23.287  1.00  0.00     0.042 A 
ATOM     14  C   UNL A   1      28.217  31.727  21.933  1.00  0.00     0.055 A 
ATOM     15  C   UNL A   1      28.248  30.412  21.470  1.00  0.00     0.020 A 
ATOM     16  C   UNL A   1      28.766  32.014  23.182  1.00  0.00     0.059 A 
ATOM     17  C   UNL A   1      28.988  29.438  22.170  1.00  0.00     0.014 A 
ATOM     18  C   UNL A   1      29.514  31.039  23.854  1.00  0.00     0.133 A 
ATOM     19  F   UNL A   1      30.131  31.394  24.989  1.00  0.00    -0.206 F 
BRANCH  14  20
ATOM     20  C   UNL A   1      27.723  32.788  21.097  1.00  0.00     0.099 C 
ATOM     21  N   UNL A   1      27.377  33.662  20.421  1.00  0.00    -0.192 NA
ENDBRANCH  14  20
ENDBRANCH  12  13
ENDBRANCH   6  12
ENDBRANCH   3   5
ENDBRANCH   2   3
ENDBRANCH   1   2
BRANCH   1  22
ATOM     22  C   UNL A   1      31.722  29.430  27.258  1.00  0.00     0.275 C 
BRANCH  22  23
ATOM     23  O   UNL A   1      32.909  29.992  26.613  1.00  0.00    -0.458 OA
BRANCH  23  24
ATOM     24  C   UNL A   1      33.491  31.072  27.206  1.00  0.00     0.338 C 
ATOM     25  O   UNL A   1      32.902  32.078  27.579  1.00  0.00    -0.246 OA
BRANCH  24  26
ATOM     26  C   UNL A   1      34.957  30.917  27.491  1.00  0.00     0.060 A 
ATOM     27  C   UNL A   1      35.471  29.652  27.690  1.00  0.00     0.016 A 
ATOM     28  C   UNL A   1      35.761  31.980  27.897  1.00  0.00     0.016 A 
ATOM     29  C   UNL A   1      36.611  29.412  28.460  1.00  0.00     0.010 A 
ATOM     30  C   UNL A   1      37.025  31.742  28.501  1.00  0.00     0.010 A 
ATOM     31  C   UNL A   1      37.450  30.443  28.845  1.00  0.00    -0.014 A 
BRANCH  31  32
ATOM     32  C   UNL A   1      38.677  30.143  29.663  1.00  0.00     0.031 A 
ATOM     33  C   UNL A   1      39.769  29.290  29.074  1.00  0.00     0.074 A 
ATOM     34  C   UNL A   1      38.886  30.665  30.895  1.00  0.00     0.049 A 
ATOM     35  N   UNL A   1      40.742  28.647  29.670  1.00  0.00    -0.248 NA
ATOM     36  C   UNL A   1      39.756  29.136  27.613  1.00  0.00     0.031 C 
ATOM     37  C   UNL A   1      38.038  31.649  31.568  1.00  0.00     0.029 A 
ATOM     38  N   UNL A   1      39.895  30.443  31.810  1.00  0.00    -0.354 N 
ATOM     39  C   UNL A   1      41.390  27.931  28.670  1.00  0.00     0.074 A 
ATOM     40  C   UNL A   1      40.709  28.235  27.430  1.00  0.00     0.031 C 
ATOM     41  C   UNL A   1      38.578  31.983  32.748  1.00  0.00     0.029 A 
ATOM     42  C   UNL A   1      39.715  31.113  33.000  1.00  0.00     0.049 A 
ATOM     43  H   UNL A   1      40.667  29.862  31.631  1.00  0.00     0.167 HD
ATOM     44  C   UNL A   1      42.441  27.082  28.791  1.00  0.00     0.037 A 
ATOM     45  C   UNL A   1      40.323  30.983  34.197  1.00  0.00     0.037 A 
ATOM     46  C   UNL A   1      43.140  26.838  30.028  1.00  0.00     0.049 A 
ATOM     47  C   UNL A   1      41.386  29.934  34.355  1.00  0.00     0.074 A 
ATOM     48  C   UNL A   1      44.204  25.987  30.270  1.00  0.00     0.029 A 
ATOM     49  N   UNL A   1      42.846  27.458  31.237  1.00  0.00    -0.354 N 
ATOM     50  N   UNL A   1      41.910  29.146  33.448  1.00  0.00    -0.248 NA
ATOM     51  C   UNL A   1      41.921  29.734  35.708  1.00  0.00     0.031 C 
ATOM     52  C   UNL A   1      44.502  26.034  31.637  1.00  0.00     0.029 A 
ATOM     53  C   UNL A   1      43.685  26.980  32.234  1.00  0.00     0.049 A 
ATOM     54  H   UNL A   1      42.146  28.138  31.367  1.00  0.00     0.167 HD
ATOM     55  C   UNL A   1      42.858  28.379  34.110  1.00  0.00     0.074 A 
ATOM     56  C   UNL A   1      42.843  28.806  35.496  1.00  0.00     0.031 C 
ATOM     57  C   UNL A   1      43.668  27.414  33.610  1.00  0.00     0.037 A 
BRANCH  44  58
ATOM     58  C   UNL A   1      42.817  26.278  27.574  1.00  0.00     0.064 A 
ATOM     59  C   UNL A   1      42.235  25.039  27.267  1.00  0.00     0.173 A 
ATOM     60  C   UNL A   1      43.824  26.751  26.714  1.00  0.00     0.173 A 
ATOM     61  F   UNL A   1      41.274  24.530  28.055  1.00  0.00    -0.203 F 
ATOM     62  C   UNL A   1      42.691  24.276  26.194  1.00  0.00     0.198 A 
ATOM     63  C   UNL A   1      44.244  26.008  25.614  1.00  0.00     0.198 A 
ATOM     64  F   UNL A   1      44.411  27.935  26.946  1.00  0.00    -0.203 F 
ATOM     65  F   UNL A   1      42.185  23.052  25.981  1.00  0.00    -0.200 F 
ATOM     66  C   UNL A   1      43.693  24.762  25.367  1.00  0.00     0.200 A 
ATOM     67  F   UNL A   1      45.198  26.492  24.806  1.00  0.00    -0.200 F 
ATOM     68  F   UNL A   1      44.138  24.021  24.343  1.00  0.00    -0.200 F 
ENDBRANCH  44  58
BRANCH  45  69
ATOM     69  C   UNL A   1      39.889  31.814  35.358  1.00  0.00     0.064 A 
ATOM     70  C   UNL A   1      40.547  33.011  35.670  1.00  0.00     0.173 A 
ATOM     71  C   UNL A   1      38.807  31.439  36.173  1.00  0.00     0.173 A 
ATOM     72  F   UNL A   1      41.608  33.399  34.947  1.00  0.00    -0.203 F 
ATOM     73  C   UNL A   1      40.141  33.800  36.745  1.00  0.00     0.198 A 
ATOM     74  C   UNL A   1      38.378  32.249  37.224  1.00  0.00     0.198 A 
ATOM     75  F   UNL A   1      38.143  30.300  35.929  1.00  0.00    -0.203 F 
ATOM     76  F   UNL A   1      40.812  34.922  37.041  1.00  0.00    -0.200 F 
ATOM     77  C   UNL A   1      39.049  33.425  37.514  1.00  0.00     0.200 A 
ATOM     78  F   UNL A   1      37.311  31.890  37.951  1.00  0.00    -0.200 F 
ATOM     79  F   UNL A   1      38.646  34.196  38.533  1.00  0.00    -0.200 F 
ENDBRANCH  45  69
BRANCH  57  80
ATOM     80  C   UNL A   1      44.659  26.793  34.556  1.00  0.00     0.064 A 
ATOM     81  C   UNL A   1      45.924  27.354  34.785  1.00  0.00     0.173 A 
ATOM     82  C   UNL A   1      44.321  25.627  35.260  1.00  0.00     0.173 A 
ATOM     83  F   UNL A   1      46.304  28.457  34.123  1.00  0.00    -0.203 F 
ATOM     84  C   UNL A   1      46.824  26.752  35.660  1.00  0.00     0.198 A 
ATOM     85  C   UNL A   1      45.209  25.051  36.164  1.00  0.00     0.198 A 
ATOM     86  F   UNL A   1      43.124  25.050  35.080  1.00  0.00    -0.203 F 
ATOM     87  F   UNL A   1      48.051  27.270  35.815  1.00  0.00    -0.200 F 
ATOM     88  C   UNL A   1      46.464  25.608  36.355  1.00  0.00     0.200 A 
ATOM     89  F   UNL A   1      44.849  23.955  36.847  1.00  0.00    -0.200 F 
ATOM     90  F   UNL A   1      47.329  25.035  37.203  1.00  0.00    -0.200 F 
ENDBRANCH  57  80
ENDBRANCH  31  32
ENDBRANCH  24  26
ENDBRANCH  23  24
ENDBRANCH  22  23
ENDBRANCH   1  22
TORSDOF 14
ENDMDL
MODEL 2
REMARK VINA RESULT:     -12.4      2.070      4.019
REMARK SMILES N#Cc1ccc(C[N@H+]2CCCC[C@H]2C(=O)OCCOC(=O)c2ccc(-c3c4nc(c(-c5c(F)c(F)c(F)c(F)c5F)c5ccc([nH]5)c(-c5c(F)c(F)c(F)c(F)c5F)c5nc(c(-c6c(F)c(F)c(F)c(F)c6F)c6ccc3[nH]6)C=C5)C=C4)cc2)c(F)c1
REMARK SMILES IDX 17 1 16 2 14 3 15 4 13 5 8 6 9 7 10 9 12 10 11 11 7 12 6 13
REMARK SMILES IDX 3 14 4 15 87 16 5 17 85 18 86 19 2 20 1 21 18 22 19 23 20 24
REMARK SMILES IDX 21 25 22 26 23 27 84 28 24 29 83 30 25 31 26 32 27 33 77 34
REMARK SMILES IDX 28 35 82 36 76 37 78 38 29 39 81 40 75 41 74 42 30 44 62 45
REMARK SMILES IDX 42 46 61 47 43 48 46 49 60 50 79 51 44 52 45 53 59 55 80 56
REMARK SMILES IDX 47 57 31 58 32 59 40 60 33 61 34 62 38 63 41 64 35 65 36 66
REMARK SMILES IDX 39 67 37 68 63 69 64 70 72 71 65 72 66 73 70 74 73 75 67 76
REMARK SMILES IDX 68 77 71 78 69 79 48 80 49 81 57 82 50 83 51 84 55 85 58 86
REMARK SMILES IDX 52 87 53 88 56 89 54 90
REMARK H PARENT 8 8 78 43 46 54
REMARK Flexibility Score: inf
ROOT
ATOM      1  C   UNL A   1      32.891  29.332  24.732  1.00  0.00     0.274 C 
ENDROOT
BRANCH   1   2
ATOM      2  O   UNL A   1      33.225  27.918  24.657  1.00  0.00    -0.458 OA
BRANCH   2   3
ATOM      3  C   UNL A   1      33.319  27.505  23.374  1.00  0.00     0.365 C 
ATOM      4  O   UNL A   1      33.969  28.160  22.578  1.00  0.00    -0.245 OA
BRANCH   3   5
ATOM      5  C   UNL A   1      32.528  26.260  22.951  1.00  0.00     0.295 C 
ATOM      6  N   UNL A   1      32.049  25.484  24.139  1.00  0.00    -0.319 N 
ATOM      7  C   UNL A   1      31.025  26.209  24.901  1.00  0.00     0.263 C 
ATOM      8  H   UNL A   1      31.574  24.683  23.722  1.00  0.00     0.349 HD
ATOM      9  C   UNL A   1      29.851  26.767  24.081  1.00  0.00     0.062 C 
ATOM     10  C   UNL A   1      31.324  26.642  22.073  1.00  0.00     0.078 C 
ATOM     11  C   UNL A   1      30.317  27.501  22.832  1.00  0.00     0.013 C 
BRANCH   6  12
ATOM     12  C   UNL A   1      33.051  24.688  24.932  1.00  0.00     0.302 C 
BRANCH  12  13
ATOM     13  C   UNL A   1      33.270  23.180  24.750  1.00  0.00     0.042 A 
ATOM     14  C   UNL A   1      33.032  20.359  24.799  1.00  0.00     0.055 A 
ATOM     15  C   UNL A   1      32.586  21.078  23.690  1.00  0.00     0.020 A 
ATOM     16  C   UNL A   1      33.793  21.015  25.764  1.00  0.00     0.059 A 
ATOM     17  C   UNL A   1      32.745  22.477  23.650  1.00  0.00     0.014 A 
ATOM     18  C   UNL A   1      33.925  22.409  25.719  1.00  0.00     0.133 A 
ATOM     19  F   UNL A   1      34.556  23.013  26.734  1.00  0.00    -0.206 F 
BRANCH  14  20
ATOM     20  C   UNL A   1      32.627  18.993  24.998  1.00  0.00     0.099 C 
ATOM     21  N   UNL A   1      32.265  17.912  25.196  1.00  0.00    -0.192 NA
ENDBRANCH  14  20
ENDBRANCH  12  13
ENDBRANCH   6  12
ENDBRANCH   3   5
ENDBRANCH   2   3
ENDBRANCH   1   2
BRANCH   1  22
ATOM     22  C   UNL A   1      31.870  29.750  25.833  1.00  0.00     0.275 C 
BRANCH  22  23
ATOM     23  O   UNL A   1      32.427  30.041  27.154  1.00  0.00    -0.458 OA
BRANCH  23  24
ATOM     24  C   UNL A   1      33.133  31.199  27.293  1.00  0.00     0.338 C 
ATOM     25  O   UNL A   1      32.654  32.323  27.303  1.00  0.00    -0.246 OA
BRANCH  24  26
ATOM     26  C   UNL A   1      34.601  31.009  27.553  1.00  0.00     0.060 A 
ATOM     27  C   UNL A   1      35.071  29.747  27.854  1.00  0.00     0.016 A 
ATOM     28  C   UNL A   1      35.456  32.071  27.840  1.00  0.00     0.016 A 
ATOM     29  C   UNL A   1      36.224  29.531  28.613  1.00  0.00     0.010 A 
ATOM     30  C   UNL A   1      36.727  31.837  28.431  1.00  0.00     0.010 A 
ATOM     31  C   UNL A   1      37.112  30.558  28.881  1.00  0.00    -0.014 A 
BRANCH  31  32
ATOM     32  C   UNL A   1      38.349  30.282  29.691  1.00  0.00     0.031 A 
ATOM     33  C   UNL A   1      39.447  29.436  29.103  1.00  0.00     0.074 A 
ATOM     34  C   UNL A   1      38.564  30.823  30.914  1.00  0.00     0.049 A 
ATOM     35  N   UNL A   1      40.432  28.811  29.698  1.00  0.00    -0.248 NA
ATOM     36  C   UNL A   1      39.422  29.263  27.644  1.00  0.00     0.031 C 
ATOM     37  C   UNL A   1      37.710  31.805  31.583  1.00  0.00     0.029 A 
ATOM     38  N   UNL A   1      39.583  30.625  31.823  1.00  0.00    -0.354 N 
ATOM     39  C   UNL A   1      41.079  28.090  28.701  1.00  0.00     0.074 A 
ATOM     40  C   UNL A   1      40.383  28.370  27.464  1.00  0.00     0.031 C 
ATOM     41  C   UNL A   1      38.257  32.161  32.753  1.00  0.00     0.029 A 
ATOM     42  C   UNL A   1      39.406  31.307  33.006  1.00  0.00     0.049 A 
ATOM     43  H   UNL A   1      40.361  30.050  31.643  1.00  0.00     0.167 HD
ATOM     44  C   UNL A   1      42.142  27.255  28.823  1.00  0.00     0.037 A 
ATOM     45  C   UNL A   1      40.027  31.200  34.199  1.00  0.00     0.037 A 
ATOM     46  C   UNL A   1      42.854  27.036  30.057  1.00  0.00     0.049 A 
ATOM     47  C   UNL A   1      41.104  30.166  34.360  1.00  0.00     0.074 A 
ATOM     48  C   UNL A   1      43.931  26.200  30.300  1.00  0.00     0.029 A 
ATOM     49  N   UNL A   1      42.565  27.668  31.260  1.00  0.00    -0.354 N 
ATOM     50  N   UNL A   1      41.628  29.373  33.459  1.00  0.00    -0.248 NA
ATOM     51  C   UNL A   1      41.654  29.989  35.711  1.00  0.00     0.031 C 
ATOM     52  C   UNL A   1      44.241  26.269  31.663  1.00  0.00     0.029 A 
ATOM     53  C   UNL A   1      43.418  27.212  32.255  1.00  0.00     0.049 A 
ATOM     54  H   UNL A   1      41.858  28.340  31.388  1.00  0.00     0.167 HD
ATOM     55  C   UNL A   1      42.591  28.626  34.121  1.00  0.00     0.074 A 
ATOM     56  C   UNL A   1      42.585  29.069  35.502  1.00  0.00     0.031 C 
ATOM     57  C   UNL A   1      43.408  27.663  33.626  1.00  0.00     0.037 A 
BRANCH  44  58
ATOM     58  C   UNL A   1      42.516  26.440  27.613  1.00  0.00     0.064 A 
ATOM     59  C   UNL A   1      41.926  25.204  27.313  1.00  0.00     0.173 A 
ATOM     60  C   UNL A   1      43.529  26.900  26.753  1.00  0.00     0.173 A 
ATOM     61  F   UNL A   1      40.959  24.707  28.101  1.00  0.00    -0.203 F 
ATOM     62  C   UNL A   1      42.380  24.430  26.246  1.00  0.00     0.198 A 
ATOM     63  C   UNL A   1      43.947  26.146  25.660  1.00  0.00     0.198 A 
ATOM     64  F   UNL A   1      44.124  28.081  26.979  1.00  0.00    -0.203 F 
ATOM     65  F   UNL A   1      41.866  23.208  26.040  1.00  0.00    -0.200 F 
ATOM     66  C   UNL A   1      43.388  24.903  25.419  1.00  0.00     0.200 A 
ATOM     67  F   UNL A   1      44.908  26.618  24.852  1.00  0.00    -0.200 F 
ATOM     68  F   UNL A   1      43.832  24.152  24.402  1.00  0.00    -0.200 F 
ENDBRANCH  44  58
BRANCH  45  69
ATOM     69  C   UNL A   1      39.594  32.041  35.353  1.00  0.00     0.064 A 
ATOM     70  C   UNL A   1      40.131  33.320  35.551  1.00  0.00     0.173 A 
ATOM     71  C   UNL A   1      38.632  31.593  36.275  1.00  0.00     0.173 A 
ATOM     72  F   UNL A   1      41.076  33.784  34.721  1.00  0.00    -0.203 F 
ATOM     73  C   UNL A   1      39.723  34.118  36.619  1.00  0.00     0.198 A 
ATOM     74  C   UNL A   1      38.198  32.407  37.321  1.00  0.00     0.198 A 
ATOM     75  F   UNL A   1      38.089  30.374  36.143  1.00  0.00    -0.203 F 
ATOM     76  F   UNL A   1      40.280  35.323  36.803  1.00  0.00    -0.200 F 
ATOM     77  C   UNL A   1      38.748  33.666  37.496  1.00  0.00     0.200 A 
ATOM     78  F   UNL A   1      37.242  31.971  38.153  1.00  0.00    -0.200 F 
ATOM     79  F   UNL A   1      38.341  34.442  38.509  1.00  0.00    -0.200 F 
ENDBRANCH  45  69
BRANCH  57  80
ATOM     80  C   UNL A   1      44.415  27.067  34.570  1.00  0.00     0.064 A 
ATOM     81  C   UNL A   1      45.708  27.591  34.711  1.00  0.00     0.173 A 
ATOM     82  C   UNL A   1      44.066  25.962  35.363  1.00  0.00     0.173 A 
ATOM     83  F   UNL A   1      46.101  28.633  33.963  1.00  0.00    -0.203 F 
ATOM     84  C   UNL A   1      46.623  27.011  35.587  1.00  0.00     0.198 A 
ATOM     85  C   UNL A   1      44.969  25.412  36.266  1.00  0.00     0.198 A 
ATOM     86  F   UNL A   1      42.841  25.422  35.269  1.00  0.00    -0.203 F 
ATOM     87  F   UNL A   1      47.873  27.490  35.659  1.00  0.00    -0.200 F 
ATOM     88  C   UNL A   1      46.251  25.929  36.371  1.00  0.00     0.200 A 
ATOM     89  F   UNL A   1      44.599  24.377  37.034  1.00  0.00    -0.200 F 
ATOM     90  F   UNL A   1      47.129  25.379  37.219  1.00  0.00    -0.200 F 
ENDBRANCH  57  80
ENDBRANCH  31  32
ENDBRANCH  24  26
ENDBRANCH  23  24
ENDBRANCH  22  23
ENDBRANCH   1  22
TORSDOF 14
ENDMDL
MODEL 3
REMARK VINA RESULT:     -12.3      5.178     10.631
REMARK SMILES N#Cc1ccc(C[N@H+]2CCCC[C@H]2C(=O)OCCOC(=O)c2ccc(-c3c4nc(c(-c5c(F)c(F)c(F)c(F)c5F)c5ccc([nH]5)c(-c5c(F)c(F)c(F)c(F)c5F)c5nc(c(-c6c(F)c(F)c(F)c(F)c6F)c6ccc3[nH]6)C=C5)C=C4)cc2)c(F)c1
REMARK SMILES IDX 17 1 16 2 14 3 15 4 13 5 8 6 9 7 10 9 12 10 11 11 7 12 6 13
REMARK SMILES IDX 3 14 4 15 87 16 5 17 85 18 86 19 2 20 1 21 18 22 19 23 20 24
REMARK SMILES IDX 21 25 22 26 23 27 84 28 24 29 83 30 25 31 26 32 27 33 77 34
REMARK SMILES IDX 28 35 82 36 76 37 78 38 29 39 81 40 75 41 74 42 30 44 62 45
REMARK SMILES IDX 42 46 61 47 43 48 46 49 60 50 79 51 44 52 45 53 59 55 80 56
REMARK SMILES IDX 47 57 31 58 32 59 40 60 33 61 34 62 38 63 41 64 35 65 36 66
REMARK SMILES IDX 39 67 37 68 63 69 64 70 72 71 65 72 66 73 70 74 73 75 67 76
REMARK SMILES IDX 68 77 71 78 69 79 48 80 49 81 57 82 50 83 51 84 55 85 58 86
REMARK SMILES IDX 52 87 53 88 56 89 54 90
REMARK H PARENT 8 8 78 43 46 54
REMARK Flexibility Score: inf
ROOT
ATOM      1  C   UNL A   1      36.015  23.315  23.363  1.00  0.00     0.274 C 
ENDROOT
BRANCH   1   2
ATOM      2  O   UNL A   1      34.715  22.914  22.846  1.00  0.00    -0.458 OA
BRANCH   2   3
ATOM      3  C   UNL A   1      33.823  23.924  22.928  1.00  0.00     0.365 C 
ATOM      4  O   UNL A   1      34.074  24.993  22.401  1.00  0.00    -0.245 OA
BRANCH   3   5
ATOM      5  C   UNL A   1      32.552  23.707  23.761  1.00  0.00     0.295 C 
ATOM      6  N   UNL A   1      32.507  22.326  24.343  1.00  0.00    -0.319 N 
ATOM      7  C   UNL A   1      33.540  22.120  25.365  1.00  0.00     0.263 C 
ATOM      8  H   UNL A   1      31.615  22.308  24.838  1.00  0.00     0.349 HD
ATOM      9  C   UNL A   1      33.620  23.192  26.463  1.00  0.00     0.062 C 
ATOM     10  C   UNL A   1      32.452  24.740  24.896  1.00  0.00     0.078 C 
ATOM     11  C   UNL A   1      33.597  24.604  25.894  1.00  0.00     0.013 C 
BRANCH   6  12
ATOM     12  C   UNL A   1      32.214  21.168  23.427  1.00  0.00     0.302 C 
BRANCH  12  13
ATOM     13  C   UNL A   1      32.394  19.699  23.835  1.00  0.00     0.042 A 
ATOM     14  C   UNL A   1      33.453  17.175  24.559  1.00  0.00     0.055 A 
ATOM     15  C   UNL A   1      33.035  18.065  25.548  1.00  0.00     0.020 A 
ATOM     16  C   UNL A   1      33.134  17.446  23.230  1.00  0.00     0.059 A 
ATOM     17  C   UNL A   1      32.468  19.303  25.184  1.00  0.00     0.014 A 
ATOM     18  C   UNL A   1      32.589  18.689  22.885  1.00  0.00     0.133 A 
ATOM     19  F   UNL A   1      32.415  18.959  21.584  1.00  0.00    -0.206 F 
BRANCH  14  20
ATOM     20  C   UNL A   1      34.289  16.051  24.890  1.00  0.00     0.099 C 
ATOM     21  N   UNL A   1      35.002  15.183  25.166  1.00  0.00    -0.192 NA
ENDBRANCH  14  20
ENDBRANCH  12  13
ENDBRANCH   6  12
ENDBRANCH   3   5
ENDBRANCH   2   3
ENDBRANCH   1   2
BRANCH   1  22
ATOM     22  C   UNL A   1      36.953  22.172  23.856  1.00  0.00     0.275 C 
BRANCH  22  23
ATOM     23  O   UNL A   1      37.137  22.067  25.303  1.00  0.00    -0.458 OA
BRANCH  23  24
ATOM     24  C   UNL A   1      38.393  21.788  25.755  1.00  0.00     0.338 C 
ATOM     25  O   UNL A   1      39.067  20.824  25.420  1.00  0.00    -0.246 OA
BRANCH  24  26
ATOM     26  C   UNL A   1      38.981  22.835  26.657  1.00  0.00     0.060 A 
ATOM     27  C   UNL A   1      38.564  24.144  26.525  1.00  0.00     0.016 A 
ATOM     28  C   UNL A   1      40.154  22.631  27.381  1.00  0.00     0.016 A 
ATOM     29  C   UNL A   1      39.367  25.231  26.878  1.00  0.00     0.010 A 
ATOM     30  C   UNL A   1      40.872  23.732  27.921  1.00  0.00     0.010 A 
ATOM     31  C   UNL A   1      40.516  25.064  27.629  1.00  0.00    -0.014 A 
BRANCH  31  32
ATOM     32  C   UNL A   1      41.347  26.262  28.000  1.00  0.00     0.031 A 
ATOM     33  C   UNL A   1      40.761  27.323  28.894  1.00  0.00     0.074 A 
ATOM     34  C   UNL A   1      42.641  26.406  27.626  1.00  0.00     0.049 A 
ATOM     35  N   UNL A   1      41.145  28.559  29.089  1.00  0.00    -0.248 NA
ATOM     36  C   UNL A   1      39.571  26.937  29.665  1.00  0.00     0.031 C 
ATOM     37  C   UNL A   1      43.445  25.413  26.912  1.00  0.00     0.029 A 
ATOM     38  N   UNL A   1      43.521  27.454  27.800  1.00  0.00    -0.354 N 
ATOM     39  C   UNL A   1      40.188  29.127  29.921  1.00  0.00     0.074 A 
ATOM     40  C   UNL A   1      39.216  28.092  30.205  1.00  0.00     0.031 C 
ATOM     41  C   UNL A   1      44.696  25.868  26.758  1.00  0.00     0.029 A 
ATOM     42  C   UNL A   1      44.744  27.251  27.201  1.00  0.00     0.049 A 
ATOM     43  H   UNL A   1      43.296  28.268  28.305  1.00  0.00     0.167 HD
ATOM     44  C   UNL A   1      40.122  30.401  30.381  1.00  0.00     0.037 A 
ATOM     45  C   UNL A   1      45.761  28.099  26.941  1.00  0.00     0.037 A 
ATOM     46  C   UNL A   1      41.132  31.399  30.131  1.00  0.00     0.049 A 
ATOM     47  C   UNL A   1      45.612  29.543  27.326  1.00  0.00     0.074 A 
ATOM     48  C   UNL A   1      41.160  32.724  30.530  1.00  0.00     0.029 A 
ATOM     49  N   UNL A   1      42.304  31.176  29.418  1.00  0.00    -0.354 N 
ATOM     50  N   UNL A   1      44.642  30.125  27.988  1.00  0.00    -0.248 NA
ATOM     51  C   UNL A   1      46.682  30.454  26.899  1.00  0.00     0.031 C 
ATOM     52  C   UNL A   1      42.308  33.320  29.996  1.00  0.00     0.029 A 
ATOM     53  C   UNL A   1      43.043  32.348  29.337  1.00  0.00     0.049 A 
ATOM     54  H   UNL A   1      42.572  30.313  29.029  1.00  0.00     0.167 HD
ATOM     55  C   UNL A   1      44.997  31.462  28.087  1.00  0.00     0.074 A 
ATOM     56  C   UNL A   1      46.279  31.603  27.425  1.00  0.00     0.031 C 
ATOM     57  C   UNL A   1      44.321  32.478  28.680  1.00  0.00     0.037 A 
BRANCH  44  58
ATOM     58  C   UNL A   1      38.863  30.807  31.101  1.00  0.00     0.064 A 
ATOM     59  C   UNL A   1      37.735  31.315  30.441  1.00  0.00     0.173 A 
ATOM     60  C   UNL A   1      38.808  30.718  32.504  1.00  0.00     0.173 A 
ATOM     61  F   UNL A   1      37.730  31.433  29.104  1.00  0.00    -0.203 F 
ATOM     62  C   UNL A   1      36.633  31.783  31.156  1.00  0.00     0.198 A 
ATOM     63  C   UNL A   1      37.687  31.142  33.212  1.00  0.00     0.198 A 
ATOM     64  F   UNL A   1      39.850  30.228  33.193  1.00  0.00    -0.203 F 
ATOM     65  F   UNL A   1      35.609  32.355  30.507  1.00  0.00    -0.200 F 
ATOM     66  C   UNL A   1      36.609  31.694  32.540  1.00  0.00     0.200 A 
ATOM     67  F   UNL A   1      37.660  31.034  34.548  1.00  0.00    -0.200 F 
ATOM     68  F   UNL A   1      35.555  32.155  33.226  1.00  0.00    -0.200 F 
ENDBRANCH  44  58
BRANCH  45  69
ATOM     69  C   UNL A   1      46.975  27.621  26.216  1.00  0.00     0.064 A 
ATOM     70  C   UNL A   1      47.031  27.648  24.816  1.00  0.00     0.173 A 
ATOM     71  C   UNL A   1      48.104  27.139  26.900  1.00  0.00     0.173 A 
ATOM     72  F   UNL A   1      45.970  28.067  24.112  1.00  0.00    -0.203 F 
ATOM     73  C   UNL A   1      48.165  27.215  24.130  1.00  0.00     0.198 A 
ATOM     74  C   UNL A   1      49.251  26.742  26.214  1.00  0.00     0.198 A 
ATOM     75  F   UNL A   1      48.105  27.081  28.240  1.00  0.00    -0.203 F 
ATOM     76  F   UNL A   1      48.177  27.220  22.790  1.00  0.00    -0.200 F 
ATOM     77  C   UNL A   1      49.279  26.775  24.829  1.00  0.00     0.200 A 
ATOM     78  F   UNL A   1      50.330  26.336  26.897  1.00  0.00    -0.200 F 
ATOM     79  F   UNL A   1      50.377  26.381  24.170  1.00  0.00    -0.200 F 
ENDBRANCH  45  69
BRANCH  57  80
ATOM     80  C   UNL A   1      44.987  33.825  28.697  1.00  0.00     0.064 A 
ATOM     81  C   UNL A   1      45.887  34.200  29.706  1.00  0.00     0.173 A 
ATOM     82  C   UNL A   1      44.733  34.748  27.670  1.00  0.00     0.173 A 
ATOM     83  F   UNL A   1      46.150  33.364  30.722  1.00  0.00    -0.203 F 
ATOM     84  C   UNL A   1      46.482  35.459  29.701  1.00  0.00     0.198 A 
ATOM     85  C   UNL A   1      45.361  35.989  27.648  1.00  0.00     0.198 A 
ATOM     86  F   UNL A   1      43.882  34.441  26.680  1.00  0.00    -0.203 F 
ATOM     87  F   UNL A   1      47.290  35.819  30.709  1.00  0.00    -0.200 F 
ATOM     88  C   UNL A   1      46.227  36.349  28.669  1.00  0.00     0.200 A 
ATOM     89  F   UNL A   1      45.125  36.839  26.638  1.00  0.00    -0.200 F 
ATOM     90  F   UNL A   1      46.807  37.556  28.662  1.00  0.00    -0.200 F 
ENDBRANCH  57  80
ENDBRANCH  31  32
ENDBRANCH  24  26
ENDBRANCH  23  24
ENDBRANCH  22  23
ENDBRANCH   1  22
TORSDOF 14
ENDMDL
