MODEL 1
REMARK VINA RESULT:     -14.5      0.000      0.000
REMARK SMILES O=C(OCCOC(=O)c1ccc(-c2c3nc(c(-c4c(F)c(F)c(F)c(F)c4F)c4ccc([nH]4)c(-c4c(F)c(F)c(F)c(F)c4F)c4nc(c(-c5c(F)c(F)c(F)c(F)c5F)c5ccc2[nH]5)C=C4)C=C3)cc1)C1=Cc2cc(OC(F)(F)F)ccc2O[C@@H]1C(F)(F)F
REMARK SMILES IDX 4 1 3 2 2 3 1 4 72 5 73 6 86 7 74 8 85 9 75 10 84 11 76 12
REMARK SMILES IDX 83 13 82 14 87 15 88 16 89 17 90 18 77 19 78 20 79 21 80 22
REMARK SMILES IDX 81 23 5 24 6 25 7 26 8 27 9 28 10 29 71 30 11 31 70 32 12 33
REMARK SMILES IDX 13 34 14 35 64 36 15 37 69 38 63 39 65 40 16 41 68 42 62 43
REMARK SMILES IDX 61 44 17 46 49 47 29 48 48 49 30 50 33 51 47 52 66 53 31 54
REMARK SMILES IDX 32 55 46 57 67 58 34 59 18 60 19 61 27 62 20 63 21 64 25 65
REMARK SMILES IDX 28 66 22 67 23 68 26 69 24 70 50 71 51 72 59 73 52 74 53 75
REMARK SMILES IDX 57 76 60 77 54 78 55 79 58 80 56 81 35 82 36 83 44 84 37 85
REMARK SMILES IDX 38 86 42 87 45 88 39 89 40 90 43 91 41 92
REMARK H PARENT 65 45 33 56
REMARK Flexibility Score: inf
ROOT
ATOM      1  C   UNL A   1      32.255  30.291  25.948  1.00  0.00     0.275 C 
ENDROOT
BRANCH   1   2
ATOM      2  O   UNL A   1      32.599  29.002  26.755  1.00  0.00    -0.459 OA
BRANCH   2   3
ATOM      3  C   UNL A   1      31.783  27.978  26.483  1.00  0.00     0.338 C 
ATOM      4  O   UNL A   1      31.065  27.337  27.208  1.00  0.00    -0.246 OA
BRANCH   3   5
ATOM      5  C   UNL A   1      32.379  27.679  25.206  1.00  0.00     0.087 C 
ATOM      6  C   UNL A   1      33.616  26.929  25.328  1.00  0.00     0.027 C 
ATOM      7  C   UNL A   1      30.759  27.064  24.361  1.00  0.00     0.316 C 
ATOM      8  C   UNL A   1      33.752  25.211  24.879  1.00  0.00     0.021 A 
ATOM      9  O   UNL A   1      30.873  25.172  23.936  1.00  0.00    -0.475 OA
ATOM     10  C   UNL A   1      34.911  24.591  25.223  1.00  0.00     0.058 A 
ATOM     11  C   UNL A   1      32.425  24.274  24.300  1.00  0.00     0.128 A 
ATOM     12  C   UNL A   1      34.923  23.196  25.102  1.00  0.00     0.130 A 
ATOM     13  C   UNL A   1      32.504  22.911  24.208  1.00  0.00     0.051 A 
ATOM     14  C   UNL A   1      33.785  22.401  24.636  1.00  0.00     0.050 A 
BRANCH   7  15
ATOM     15  C   UNL A   1      30.584  28.416  23.526  1.00  0.00     0.430 C 
ATOM     16  F   UNL A   1      31.736  28.792  22.953  1.00  0.00    -0.167 F 
ATOM     17  F   UNL A   1      29.768  28.185  22.447  1.00  0.00    -0.167 F 
ATOM     18  F   UNL A   1      29.964  29.452  24.110  1.00  0.00    -0.167 F 
ENDBRANCH   7  15
BRANCH  12  19
ATOM     19  O   UNL A   1      36.156  22.753  25.506  1.00  0.00    -0.406 OA
BRANCH  19  20
ATOM     20  C   UNL A   1      36.991  21.998  24.665  1.00  0.00     0.573 C 
ATOM     21  F   UNL A   1      38.276  22.105  25.050  1.00  0.00    -0.132 F 
ATOM     22  F   UNL A   1      36.616  20.706  24.641  1.00  0.00    -0.132 F 
ATOM     23  F   UNL A   1      36.876  22.500  23.413  1.00  0.00    -0.132 F 
ENDBRANCH  19  20
ENDBRANCH  12  19
ENDBRANCH   3   5
ENDBRANCH   2   3
ENDBRANCH   1   2
BRANCH   1  24
ATOM     24  C   UNL A   1      31.598  32.183  26.778  1.00  0.00     0.275 C 
BRANCH  24  25
ATOM     25  O   UNL A   1      32.519  33.152  27.904  1.00  0.00    -0.458 OA
BRANCH  25  26
ATOM     26  C   UNL A   1      33.629  33.959  28.025  1.00  0.00     0.338 C 
ATOM     27  O   UNL A   1      33.719  35.108  28.420  1.00  0.00    -0.246 OA
BRANCH  26  28
ATOM     28  C   UNL A   1      34.810  33.033  28.030  1.00  0.00     0.060 A 
ATOM     29  C   UNL A   1      36.096  33.603  28.107  1.00  0.00     0.016 A 
ATOM     30  C   UNL A   1      34.627  31.698  28.387  1.00  0.00     0.016 A 
ATOM     31  C   UNL A   1      37.125  32.919  28.785  1.00  0.00     0.010 A 
ATOM     32  C   UNL A   1      35.656  31.018  29.047  1.00  0.00     0.010 A 
ATOM     33  C   UNL A   1      36.883  31.650  29.329  1.00  0.00    -0.014 A 
BRANCH  33  34
ATOM     34  C   UNL A   1      37.974  30.849  29.950  1.00  0.00     0.031 A 
ATOM     35  C   UNL A   1      38.245  31.161  31.389  1.00  0.00     0.074 A 
ATOM     36  C   UNL A   1      38.755  29.968  29.287  1.00  0.00     0.049 A 
ATOM     37  N   UNL A   1      39.191  30.736  32.180  1.00  0.00    -0.248 NA
ATOM     38  C   UNL A   1      37.327  32.136  32.005  1.00  0.00     0.031 C 
ATOM     39  C   UNL A   1      38.619  29.573  27.887  1.00  0.00     0.029 A 
ATOM     40  N   UNL A   1      39.854  29.252  29.720  1.00  0.00    -0.354 N 
ATOM     41  C   UNL A   1      38.979  31.393  33.381  1.00  0.00     0.074 A 
ATOM     42  C   UNL A   1      37.872  32.302  33.193  1.00  0.00     0.031 C 
ATOM     43  C   UNL A   1      39.599  28.698  27.575  1.00  0.00     0.029 A 
ATOM     44  C   UNL A   1      40.447  28.479  28.746  1.00  0.00     0.049 A 
ATOM     45  H   UNL A   1      40.186  29.292  30.647  1.00  0.00     0.167 HD
ATOM     46  C   UNL A   1      39.626  31.240  34.557  1.00  0.00     0.037 A 
ATOM     47  C   UNL A   1      41.546  27.693  28.806  1.00  0.00     0.037 A 
ATOM     48  C   UNL A   1      40.746  30.367  34.741  1.00  0.00     0.049 A 
ATOM     49  C   UNL A   1      42.305  27.588  30.115  1.00  0.00     0.074 A 
ATOM     50  C   UNL A   1      41.480  30.138  35.888  1.00  0.00     0.029 A 
ATOM     51  N   UNL A   1      41.303  29.591  33.736  1.00  0.00    -0.354 N 
ATOM     52  N   UNL A   1      42.051  28.152  31.273  1.00  0.00    -0.248 NA
ATOM     53  C   UNL A   1      43.504  26.732  30.130  1.00  0.00     0.031 C 
ATOM     54  C   UNL A   1      42.516  29.256  35.564  1.00  0.00     0.029 A 
ATOM     55  C   UNL A   1      42.388  28.892  34.232  1.00  0.00     0.049 A 
ATOM     56  H   UNL A   1      40.976  29.545  32.808  1.00  0.00     0.167 HD
ATOM     57  C   UNL A   1      43.022  27.687  32.155  1.00  0.00     0.074 A 
ATOM     58  C   UNL A   1      43.869  26.788  31.402  1.00  0.00     0.031 C 
ATOM     59  C   UNL A   1      43.198  27.976  33.468  1.00  0.00     0.037 A 
BRANCH  46  60
ATOM     60  C   UNL A   1      39.121  32.068  35.697  1.00  0.00     0.064 A 
ATOM     61  C   UNL A   1      39.594  33.373  35.913  1.00  0.00     0.173 A 
ATOM     62  C   UNL A   1      38.237  31.522  36.636  1.00  0.00     0.173 A 
ATOM     63  F   UNL A   1      40.474  33.923  35.062  1.00  0.00    -0.203 F 
ATOM     64  C   UNL A   1      39.244  34.078  37.060  1.00  0.00     0.198 A 
ATOM     65  C   UNL A   1      37.858  32.247  37.762  1.00  0.00     0.198 A 
ATOM     66  F   UNL A   1      37.768  30.274  36.481  1.00  0.00    -0.203 F 
ATOM     67  F   UNL A   1      39.786  35.281  37.295  1.00  0.00    -0.200 F 
ATOM     68  C   UNL A   1      38.375  33.516  37.981  1.00  0.00     0.200 A 
ATOM     69  F   UNL A   1      37.018  31.704  38.653  1.00  0.00    -0.200 F 
ATOM     70  F   UNL A   1      38.054  34.187  39.095  1.00  0.00    -0.200 F 
ENDBRANCH  46  60
BRANCH  47  71
ATOM     71  C   UNL A   1      42.021  26.914  27.619  1.00  0.00     0.064 A 
ATOM     72  C   UNL A   1      41.546  25.615  27.371  1.00  0.00     0.173 A 
ATOM     73  C   UNL A   1      43.020  27.404  26.764  1.00  0.00     0.173 A 
ATOM     74  F   UNL A   1      40.623  25.075  28.181  1.00  0.00    -0.203 F 
ATOM     75  C   UNL A   1      42.070  24.831  26.342  1.00  0.00     0.198 A 
ATOM     76  C   UNL A   1      43.524  26.628  25.716  1.00  0.00     0.198 A 
ATOM     77  F   UNL A   1      43.530  28.628  26.958  1.00  0.00    -0.203 F 
ATOM     78  F   UNL A   1      41.646  23.570  26.180  1.00  0.00    -0.200 F 
ATOM     79  C   UNL A   1      43.057  25.338  25.513  1.00  0.00     0.200 A 
ATOM     80  F   UNL A   1      44.481  27.122  24.918  1.00  0.00    -0.200 F 
ATOM     81  F   UNL A   1      43.572  24.580  24.535  1.00  0.00    -0.200 F 
ENDBRANCH  47  71
BRANCH  59  82
ATOM     82  C   UNL A   1      44.306  27.279  34.202  1.00  0.00     0.064 A 
ATOM     83  C   UNL A   1      44.130  26.015  34.785  1.00  0.00     0.173 A 
ATOM     84  C   UNL A   1      45.592  27.843  34.234  1.00  0.00     0.173 A 
ATOM     85  F   UNL A   1      42.920  25.436  34.788  1.00  0.00    -0.203 F 
ATOM     86  C   UNL A   1      45.196  25.350  35.383  1.00  0.00     0.198 A 
ATOM     87  C   UNL A   1      46.662  27.160  34.802  1.00  0.00     0.198 A 
ATOM     88  F   UNL A   1      45.817  29.044  33.679  1.00  0.00    -0.203 F 
ATOM     89  F   UNL A   1      44.998  24.159  35.964  1.00  0.00    -0.200 F 
ATOM     90  C   UNL A   1      46.463  25.917  35.381  1.00  0.00     0.200 A 
ATOM     91  F   UNL A   1      47.889  27.699  34.777  1.00  0.00    -0.200 F 
ATOM     92  F   UNL A   1      47.492  25.263  35.936  1.00  0.00    -0.200 F 
ENDBRANCH  59  82
ENDBRANCH  33  34
ENDBRANCH  26  28
ENDBRANCH  25  26
ENDBRANCH  24  25
ENDBRANCH   1  24
TORSDOF 14
ENDMDL
MODEL 2
REMARK VINA RESULT:     -14.3      4.135     10.148
REMARK SMILES O=C(OCCOC(=O)c1ccc(-c2c3nc(c(-c4c(F)c(F)c(F)c(F)c4F)c4ccc([nH]4)c(-c4c(F)c(F)c(F)c(F)c4F)c4nc(c(-c5c(F)c(F)c(F)c(F)c5F)c5ccc2[nH]5)C=C4)C=C3)cc1)C1=Cc2cc(OC(F)(F)F)ccc2O[C@@H]1C(F)(F)F
REMARK SMILES IDX 4 1 3 2 2 3 1 4 72 5 73 6 86 7 74 8 85 9 75 10 84 11 76 12
REMARK SMILES IDX 83 13 82 14 87 15 88 16 89 17 90 18 77 19 78 20 79 21 80 22
REMARK SMILES IDX 81 23 5 24 6 25 7 26 8 27 9 28 10 29 71 30 11 31 70 32 12 33
REMARK SMILES IDX 13 34 14 35 64 36 15 37 69 38 63 39 65 40 16 41 68 42 62 43
REMARK SMILES IDX 61 44 17 46 49 47 29 48 48 49 30 50 33 51 47 52 66 53 31 54
REMARK SMILES IDX 32 55 46 57 67 58 34 59 18 60 19 61 27 62 20 63 21 64 25 65
REMARK SMILES IDX 28 66 22 67 23 68 26 69 24 70 50 71 51 72 59 73 52 74 53 75
REMARK SMILES IDX 57 76 60 77 54 78 55 79 58 80 56 81 35 82 36 83 44 84 37 85
REMARK SMILES IDX 38 86 42 87 45 88 39 89 40 90 43 91 41 92
REMARK H PARENT 65 45 33 56
REMARK Flexibility Score: inf
ROOT
ATOM      1  C   UNL A   1      35.592  20.981  25.699  1.00  0.00     0.275 C 
ENDROOT
BRANCH   1   2
ATOM      2  O   UNL A   1      35.215  22.476  25.935  1.00  0.00    -0.459 OA
BRANCH   2   3
ATOM      3  C   UNL A   1      35.381  23.238  24.848  1.00  0.00     0.338 C 
ATOM      4  O   UNL A   1      36.388  23.652  24.331  1.00  0.00    -0.246 OA
BRANCH   3   5
ATOM      5  C   UNL A   1      34.016  23.695  24.806  1.00  0.00     0.087 C 
ATOM      6  C   UNL A   1      33.807  24.905  25.579  1.00  0.00     0.027 C 
ATOM      7  C   UNL A   1      33.798  23.518  22.898  1.00  0.00     0.316 C 
ATOM      8  C   UNL A   1      33.508  26.492  24.829  1.00  0.00     0.021 A 
ATOM      9  O   UNL A   1      33.544  25.254  22.064  1.00  0.00    -0.475 OA
ATOM     10  C   UNL A   1      33.521  27.564  25.665  1.00  0.00     0.058 A 
ATOM     11  C   UNL A   1      33.478  26.744  23.123  1.00  0.00     0.128 A 
ATOM     12  C   UNL A   1      33.539  28.823  25.052  1.00  0.00     0.130 A 
ATOM     13  C   UNL A   1      33.498  28.004  22.590  1.00  0.00     0.051 A 
ATOM     14  C   UNL A   1      33.541  29.033  23.603  1.00  0.00     0.050 A 
BRANCH   7  15
ATOM     15  C   UNL A   1      32.936  22.179  23.039  1.00  0.00     0.430 C 
ATOM     16  F   UNL A   1      31.780  22.403  23.680  1.00  0.00    -0.167 F 
ATOM     17  F   UNL A   1      32.520  21.770  21.796  1.00  0.00    -0.167 F 
ATOM     18  F   UNL A   1      33.543  21.072  23.493  1.00  0.00    -0.167 F 
ENDBRANCH   7  15
BRANCH  12  19
ATOM     19  O   UNL A   1      33.568  29.769  26.044  1.00  0.00    -0.406 OA
BRANCH  19  20
ATOM     20  C   UNL A   1      32.395  30.339  26.567  1.00  0.00     0.573 C 
ATOM     21  F   UNL A   1      32.626  31.593  26.997  1.00  0.00    -0.132 F 
ATOM     22  F   UNL A   1      31.404  30.332  25.657  1.00  0.00    -0.132 F 
ATOM     23  F   UNL A   1      32.009  29.588  27.625  1.00  0.00    -0.132 F 
ENDBRANCH  19  20
ENDBRANCH  12  19
ENDBRANCH   3   5
ENDBRANCH   2   3
ENDBRANCH   1   2
BRANCH   1  24
ATOM     24  C   UNL A   1      37.475  20.245  24.919  1.00  0.00     0.275 C 
BRANCH  24  25
ATOM     25  O   UNL A   1      39.051  20.837  25.390  1.00  0.00    -0.458 OA
BRANCH  25  26
ATOM     26  C   UNL A   1      40.032  20.740  26.354  1.00  0.00     0.338 C 
ATOM     27  O   UNL A   1      40.972  19.971  26.434  1.00  0.00    -0.246 OA
BRANCH  26  28
ATOM     28  C   UNL A   1      40.032  22.057  27.073  1.00  0.00     0.060 A 
ATOM     29  C   UNL A   1      41.062  22.302  28.002  1.00  0.00     0.016 A 
ATOM     30  C   UNL A   1      39.326  23.130  26.530  1.00  0.00     0.016 A 
ATOM     31  C   UNL A   1      41.549  23.613  28.176  1.00  0.00     0.010 A 
ATOM     32  C   UNL A   1      39.806  24.431  26.716  1.00  0.00     0.010 A 
ATOM     33  C   UNL A   1      40.971  24.676  27.470  1.00  0.00    -0.014 A 
BRANCH  33  34
ATOM     34  C   UNL A   1      41.381  26.087  27.713  1.00  0.00     0.031 A 
ATOM     35  C   UNL A   1      42.765  26.429  27.255  1.00  0.00     0.074 A 
ATOM     36  C   UNL A   1      40.641  27.000  28.379  1.00  0.00     0.049 A 
ATOM     37  N   UNL A   1      43.462  27.519  27.421  1.00  0.00    -0.248 NA
ATOM     38  C   UNL A   1      43.475  25.353  26.540  1.00  0.00     0.031 C 
ATOM     39  C   UNL A   1      39.286  26.808  28.893  1.00  0.00     0.029 A 
ATOM     40  N   UNL A   1      40.951  28.291  28.758  1.00  0.00    -0.354 N 
ATOM     41  C   UNL A   1      44.688  27.255  26.832  1.00  0.00     0.074 A 
ATOM     42  C   UNL A   1      44.671  25.883  26.380  1.00  0.00     0.031 C 
ATOM     43  C   UNL A   1      38.888  27.932  29.526  1.00  0.00     0.029 A 
ATOM     44  C   UNL A   1      39.962  28.923  29.480  1.00  0.00     0.049 A 
ATOM     45  H   UNL A   1      41.806  28.723  28.531  1.00  0.00     0.167 HD
ATOM     46  C   UNL A   1      45.737  28.086  26.651  1.00  0.00     0.037 A 
ATOM     47  C   UNL A   1      39.941  30.156  30.037  1.00  0.00     0.037 A 
ATOM     48  C   UNL A   1      45.775  29.436  27.127  1.00  0.00     0.049 A 
ATOM     49  C   UNL A   1      41.157  31.051  29.887  1.00  0.00     0.074 A 
ATOM     50  C   UNL A   1      46.789  30.365  27.003  1.00  0.00     0.029 A 
ATOM     51  N   UNL A   1      44.749  30.041  27.838  1.00  0.00    -0.354 N 
ATOM     52  N   UNL A   1      42.286  30.824  29.257  1.00  0.00    -0.248 NA
ATOM     53  C   UNL A   1      41.095  32.380  30.521  1.00  0.00     0.031 C 
ATOM     54  C   UNL A   1      46.396  31.521  27.683  1.00  0.00     0.029 A 
ATOM     55  C   UNL A   1      45.114  31.330  28.178  1.00  0.00     0.049 A 
ATOM     56  H   UNL A   1      43.892  29.615  28.067  1.00  0.00     0.167 HD
ATOM     57  C   UNL A   1      43.042  31.986  29.380  1.00  0.00     0.074 A 
ATOM     58  C   UNL A   1      42.242  32.923  30.139  1.00  0.00     0.031 C 
ATOM     59  C   UNL A   1      44.284  32.256  28.908  1.00  0.00     0.037 A 
BRANCH  46  60
ATOM     60  C   UNL A   1      46.913  27.511  25.925  1.00  0.00     0.064 A 
ATOM     61  C   UNL A   1      47.984  26.928  26.623  1.00  0.00     0.173 A 
ATOM     62  C   UNL A   1      47.019  27.630  24.534  1.00  0.00     0.173 A 
ATOM     63  F   UNL A   1      47.946  26.829  27.961  1.00  0.00    -0.203 F 
ATOM     64  C   UNL A   1      49.143  26.540  25.958  1.00  0.00     0.198 A 
ATOM     65  C   UNL A   1      48.164  27.204  23.868  1.00  0.00     0.198 A 
ATOM     66  F   UNL A   1      46.028  28.192  23.824  1.00  0.00    -0.203 F 
ATOM     67  F   UNL A   1      50.191  26.080  26.656  1.00  0.00    -0.200 F 
ATOM     68  C   UNL A   1      49.231  26.676  24.582  1.00  0.00     0.200 A 
ATOM     69  F   UNL A   1      48.249  27.335  22.537  1.00  0.00    -0.200 F 
ATOM     70  F   UNL A   1      50.354  26.320  23.944  1.00  0.00    -0.200 F 
ENDBRANCH  46  60
BRANCH  47  71
ATOM     71  C   UNL A   1      38.745  30.662  30.781  1.00  0.00     0.064 A 
ATOM     72  C   UNL A   1      37.771  31.442  30.135  1.00  0.00     0.173 A 
ATOM     73  C   UNL A   1      38.593  30.463  32.161  1.00  0.00     0.173 A 
ATOM     74  F   UNL A   1      37.886  31.705  28.824  1.00  0.00    -0.203 F 
ATOM     75  C   UNL A   1      36.717  32.025  30.842  1.00  0.00     0.198 A 
ATOM     76  C   UNL A   1      37.522  31.023  32.862  1.00  0.00     0.198 A 
ATOM     77  F   UNL A   1      39.499  29.745  32.840  1.00  0.00    -0.203 F 
ATOM     78  F   UNL A   1      35.847  32.823  30.207  1.00  0.00    -0.200 F 
ATOM     79  C   UNL A   1      36.591  31.813  32.205  1.00  0.00     0.200 A 
ATOM     80  F   UNL A   1      37.406  30.818  34.182  1.00  0.00    -0.200 F 
ATOM     81  F   UNL A   1      35.589  32.384  32.886  1.00  0.00    -0.200 F 
ENDBRANCH  47  71
BRANCH  59  82
ATOM     82  C   UNL A   1      44.844  33.630  29.139  1.00  0.00     0.064 A 
ATOM     83  C   UNL A   1      45.591  33.944  30.283  1.00  0.00     0.173 A 
ATOM     84  C   UNL A   1      44.712  34.618  28.149  1.00  0.00     0.173 A 
ATOM     85  F   UNL A   1      45.740  33.039  31.262  1.00  0.00    -0.203 F 
ATOM     86  C   UNL A   1      46.175  35.199  30.433  1.00  0.00     0.198 A 
ATOM     87  C   UNL A   1      45.325  35.858  28.287  1.00  0.00     0.198 A 
ATOM     88  F   UNL A   1      44.018  34.363  27.029  1.00  0.00    -0.203 F 
ATOM     89  F   UNL A   1      46.856  35.489  31.549  1.00  0.00    -0.200 F 
ATOM     90  C   UNL A   1      46.052  36.150  29.430  1.00  0.00     0.200 A 
ATOM     91  F   UNL A   1      45.225  36.767  27.306  1.00  0.00    -0.200 F 
ATOM     92  F   UNL A   1      46.635  37.349  29.566  1.00  0.00    -0.200 F 
ENDBRANCH  59  82
ENDBRANCH  33  34
ENDBRANCH  26  28
ENDBRANCH  25  26
ENDBRANCH  24  25
ENDBRANCH   1  24
TORSDOF 14
ENDMDL
MODEL 3
REMARK VINA RESULT:     -14.2      1.253      7.385
REMARK SMILES O=C(OCCOC(=O)c1ccc(-c2c3nc(c(-c4c(F)c(F)c(F)c(F)c4F)c4ccc([nH]4)c(-c4c(F)c(F)c(F)c(F)c4F)c4nc(c(-c5c(F)c(F)c(F)c(F)c5F)c5ccc2[nH]5)C=C4)C=C3)cc1)C1=Cc2cc(OC(F)(F)F)ccc2O[C@@H]1C(F)(F)F
REMARK SMILES IDX 4 1 3 2 2 3 1 4 72 5 73 6 86 7 74 8 85 9 75 10 84 11 76 12
REMARK SMILES IDX 83 13 82 14 87 15 88 16 89 17 90 18 77 19 78 20 79 21 80 22
REMARK SMILES IDX 81 23 5 24 6 25 7 26 8 27 9 28 10 29 71 30 11 31 70 32 12 33
REMARK SMILES IDX 13 34 14 35 64 36 15 37 69 38 63 39 65 40 16 41 68 42 62 43
REMARK SMILES IDX 61 44 17 46 49 47 29 48 48 49 30 50 33 51 47 52 66 53 31 54
REMARK SMILES IDX 32 55 46 57 67 58 34 59 18 60 19 61 27 62 20 63 21 64 25 65
REMARK SMILES IDX 28 66 22 67 23 68 26 69 24 70 50 71 51 72 59 73 52 74 53 75
REMARK SMILES IDX 57 76 60 77 54 78 55 79 58 80 56 81 35 82 36 83 44 84 37 85
REMARK SMILES IDX 38 86 42 87 45 88 39 89 40 90 43 91 41 92
REMARK H PARENT 65 45 33 56
REMARK Flexibility Score: inf
ROOT
ATOM      1  C   UNL A   1      32.482  30.390  26.135  1.00  0.00     0.275 C 
ENDROOT
BRANCH   1   2
ATOM      2  O   UNL A   1      32.746  29.085  26.948  1.00  0.00    -0.459 OA
BRANCH   2   3
ATOM      3  C   UNL A   1      31.841  28.128  26.713  1.00  0.00     0.338 C 
ATOM      4  O   UNL A   1      31.065  27.586  27.459  1.00  0.00    -0.246 OA
BRANCH   3   5
ATOM      5  C   UNL A   1      32.412  27.723  25.453  1.00  0.00     0.087 C 
ATOM      6  C   UNL A   1      33.619  26.934  25.614  1.00  0.00     0.027 C 
ATOM      7  C   UNL A   1      30.760  27.120  24.663  1.00  0.00     0.316 C 
ATOM      8  C   UNL A   1      33.682  25.186  25.277  1.00  0.00     0.021 A 
ATOM      9  O   UNL A   1      30.794  25.202  24.361  1.00  0.00    -0.475 OA
ATOM     10  C   UNL A   1      34.819  24.544  25.652  1.00  0.00     0.058 A 
ATOM     11  C   UNL A   1      32.313  24.267  24.771  1.00  0.00     0.128 A 
ATOM     12  C   UNL A   1      34.775  23.144  25.622  1.00  0.00     0.130 A 
ATOM     13  C   UNL A   1      32.337  22.899  24.768  1.00  0.00     0.051 A 
ATOM     14  C   UNL A   1      33.601  22.367  25.218  1.00  0.00     0.050 A 
BRANCH   7  15
ATOM     15  C   UNL A   1      30.630  28.421  23.742  1.00  0.00     0.430 C 
ATOM     16  F   UNL A   1      31.785  28.702  23.122  1.00  0.00    -0.167 F 
ATOM     17  F   UNL A   1      29.778  28.159  22.698  1.00  0.00    -0.167 F 
ATOM     18  F   UNL A   1      30.074  29.523  24.268  1.00  0.00    -0.167 F 
ENDBRANCH   7  15
BRANCH  12  19
ATOM     19  O   UNL A   1      35.994  22.679  26.045  1.00  0.00    -0.406 OA
BRANCH  19  20
ATOM     20  C   UNL A   1      37.053  22.443  25.153  1.00  0.00     0.573 C 
ATOM     21  F   UNL A   1      36.585  22.073  23.947  1.00  0.00    -0.132 F 
ATOM     22  F   UNL A   1      37.840  23.528  25.036  1.00  0.00    -0.132 F 
ATOM     23  F   UNL A   1      37.795  21.428  25.654  1.00  0.00    -0.132 F 
ENDBRANCH  19  20
ENDBRANCH  12  19
ENDBRANCH   3   5
ENDBRANCH   2   3
ENDBRANCH   1   2
BRANCH   1  24
ATOM     24  C   UNL A   1      31.440  32.152  26.847  1.00  0.00     0.275 C 
BRANCH  24  25
ATOM     25  O   UNL A   1      32.203  33.677  27.230  1.00  0.00    -0.458 OA
BRANCH  25  26
ATOM     26  C   UNL A   1      32.885  34.361  28.213  1.00  0.00     0.338 C 
ATOM     27  O   UNL A   1      32.476  35.165  29.031  1.00  0.00    -0.246 OA
BRANCH  26  28
ATOM     28  C   UNL A   1      34.161  33.602  28.431  1.00  0.00     0.060 A 
ATOM     29  C   UNL A   1      35.376  34.302  28.301  1.00  0.00     0.016 A 
ATOM     30  C   UNL A   1      34.129  32.406  29.147  1.00  0.00     0.016 A 
ATOM     31  C   UNL A   1      36.479  33.944  29.104  1.00  0.00     0.010 A 
ATOM     32  C   UNL A   1      35.230  32.047  29.932  1.00  0.00     0.010 A 
ATOM     33  C   UNL A   1      36.382  32.857  29.984  1.00  0.00    -0.014 A 
BRANCH  33  34
ATOM     34  C   UNL A   1      37.558  32.379  30.762  1.00  0.00     0.031 A 
ATOM     35  C   UNL A   1      38.330  31.269  30.118  1.00  0.00     0.074 A 
ATOM     36  C   UNL A   1      37.890  32.808  31.999  1.00  0.00     0.049 A 
ATOM     37  N   UNL A   1      39.322  30.556  30.577  1.00  0.00    -0.248 NA
ATOM     38  C   UNL A   1      37.877  30.887  28.769  1.00  0.00     0.031 C 
ATOM     39  C   UNL A   1      37.225  33.870  32.754  1.00  0.00     0.029 A 
ATOM     40  N   UNL A   1      38.880  32.373  32.856  1.00  0.00    -0.354 N 
ATOM     41  C   UNL A   1      39.605  29.644  29.572  1.00  0.00     0.074 A 
ATOM     42  C   UNL A   1      38.634  29.838  28.520  1.00  0.00     0.031 C 
ATOM     43  C   UNL A   1      37.819  33.994  33.960  1.00  0.00     0.029 A 
ATOM     44  C   UNL A   1      38.896  33.012  34.077  1.00  0.00     0.049 A 
ATOM     45  H   UNL A   1      39.521  31.665  32.616  1.00  0.00     0.167 HD
ATOM     46  C   UNL A   1      40.603  28.737  29.508  1.00  0.00     0.037 A 
ATOM     47  C   UNL A   1      39.690  32.815  35.154  1.00  0.00     0.037 A 
ATOM     48  C   UNL A   1      41.547  28.516  30.562  1.00  0.00     0.049 A 
ATOM     49  C   UNL A   1      40.760  31.742  35.093  1.00  0.00     0.074 A 
ATOM     50  C   UNL A   1      42.596  27.620  30.605  1.00  0.00     0.029 A 
ATOM     51  N   UNL A   1      41.537  29.195  31.772  1.00  0.00    -0.354 N 
ATOM     52  N   UNL A   1      41.075  30.936  34.106  1.00  0.00    -0.248 NA
ATOM     53  C   UNL A   1      41.593  31.554  36.294  1.00  0.00     0.031 C 
ATOM     54  C   UNL A   1      43.195  27.722  31.864  1.00  0.00     0.029 A 
ATOM     55  C   UNL A   1      42.556  28.723  32.580  1.00  0.00     0.049 A 
ATOM     56  H   UNL A   1      40.901  29.904  32.018  1.00  0.00     0.167 HD
ATOM     57  C   UNL A   1      42.160  30.184  34.548  1.00  0.00     0.074 A 
ATOM     58  C   UNL A   1      42.457  30.634  35.892  1.00  0.00     0.031 C 
ATOM     59  C   UNL A   1      42.850  29.211  33.904  1.00  0.00     0.037 A 
BRANCH  46  60
ATOM     60  C   UNL A   1      40.673  27.925  28.253  1.00  0.00     0.064 A 
ATOM     61  C   UNL A   1      40.059  26.665  28.167  1.00  0.00     0.173 A 
ATOM     62  C   UNL A   1      41.438  28.362  27.164  1.00  0.00     0.173 A 
ATOM     63  F   UNL A   1      39.349  26.186  29.201  1.00  0.00    -0.203 F 
ATOM     64  C   UNL A   1      40.260  25.847  27.060  1.00  0.00     0.198 A 
ATOM     65  C   UNL A   1      41.604  27.557  26.042  1.00  0.00     0.198 A 
ATOM     66  F   UNL A   1      42.055  29.553  27.203  1.00  0.00    -0.203 F 
ATOM     67  F   UNL A   1      39.748  24.608  27.044  1.00  0.00    -0.200 F 
ATOM     68  C   UNL A   1      41.029  26.294  25.998  1.00  0.00     0.200 A 
ATOM     69  F   UNL A   1      42.347  27.989  25.015  1.00  0.00    -0.200 F 
ATOM     70  F   UNL A   1      41.238  25.499  24.941  1.00  0.00    -0.200 F 
ENDBRANCH  46  60
BRANCH  47  71
ATOM     71  C   UNL A   1      39.548  33.640  36.396  1.00  0.00     0.064 A 
ATOM     72  C   UNL A   1      38.727  33.214  37.454  1.00  0.00     0.173 A 
ATOM     73  C   UNL A   1      40.145  34.903  36.518  1.00  0.00     0.173 A 
ATOM     74  F   UNL A   1      38.093  32.034  37.376  1.00  0.00    -0.203 F 
ATOM     75  C   UNL A   1      38.487  34.028  38.563  1.00  0.00     0.198 A 
ATOM     76  C   UNL A   1      39.926  35.705  37.641  1.00  0.00     0.198 A 
ATOM     77  F   UNL A   1      40.923  35.376  35.534  1.00  0.00    -0.203 F 
ATOM     78  F   UNL A   1      37.641  33.621  39.520  1.00  0.00    -0.200 F 
ATOM     79  C   UNL A   1      39.088  35.272  38.657  1.00  0.00     0.200 A 
ATOM     80  F   UNL A   1      40.508  36.910  37.727  1.00  0.00    -0.200 F 
ATOM     81  F   UNL A   1      38.846  36.060  39.714  1.00  0.00    -0.200 F 
ENDBRANCH  47  71
BRANCH  59  82
ATOM     82  C   UNL A   1      44.029  28.599  34.604  1.00  0.00     0.064 A 
ATOM     83  C   UNL A   1      43.915  27.422  35.358  1.00  0.00     0.173 A 
ATOM     84  C   UNL A   1      45.311  29.148  34.432  1.00  0.00     0.173 A 
ATOM     85  F   UNL A   1      42.713  26.863  35.559  1.00  0.00    -0.203 F 
ATOM     86  C   UNL A   1      45.038  26.826  35.925  1.00  0.00     0.198 A 
ATOM     87  C   UNL A   1      46.434  28.530  34.971  1.00  0.00     0.198 A 
ATOM     88  F   UNL A   1      45.475  30.265  33.708  1.00  0.00    -0.203 F 
ATOM     89  F   UNL A   1      44.903  25.721  36.670  1.00  0.00    -0.200 F 
ATOM     90  C   UNL A   1      46.297  27.372  35.721  1.00  0.00     0.200 A 
ATOM     91  F   UNL A   1      47.651  29.047  34.752  1.00  0.00    -0.200 F 
ATOM     92  F   UNL A   1      47.379  26.782  36.247  1.00  0.00    -0.200 F 
ENDBRANCH  59  82
ENDBRANCH  33  34
ENDBRANCH  26  28
ENDBRANCH  25  26
ENDBRANCH  24  25
ENDBRANCH   1  24
TORSDOF 14
ENDMDL
