MODEL 1
REMARK VINA RESULT:     -12.4      0.000      0.000
REMARK SMILES O=C(Nc1ccc2c(c1)OCO2)N[C@H]1C=C[C@@H](C(=O)OCCOC(=O)c2ccc(-c3c4nc(c(-c5c(F)c(F)c(F)c(F)c5F)c5ccc([nH]5)c(-c5c(F)c(F)c(F)c(F)c5F)c5nc(c(-c6c(F)c(F)c(F)c(F)c6F)c6ccc3[nH]6)C=C5)C=C4)cc2)C1
REMARK SMILES IDX 21 1 20 2 18 3 19 4 17 5 14 6 15 7 89 8 16 9 13 10 1 11 2 12
REMARK SMILES IDX 3 13 4 16 5 17 9 18 6 19 8 20 7 21 10 22 12 23 11 24 22 25
REMARK SMILES IDX 23 26 24 27 25 28 26 29 27 30 88 31 28 32 87 33 29 34 30 35
REMARK SMILES IDX 31 36 81 37 32 38 86 39 80 40 82 41 33 42 85 43 79 44 78 45
REMARK SMILES IDX 34 47 66 48 46 49 65 50 47 51 50 52 64 53 83 54 48 55 49 56
REMARK SMILES IDX 63 58 84 59 51 60 35 61 36 62 44 63 37 64 38 65 42 66 45 67
REMARK SMILES IDX 39 68 40 69 43 70 41 71 67 72 68 73 76 74 69 75 70 76 74 77
REMARK SMILES IDX 77 78 71 79 72 80 75 81 73 82 52 83 53 84 61 85 54 86 55 87
REMARK SMILES IDX 59 88 62 89 56 90 57 91 60 92 58 93
REMARK H PARENT 3 14 13 15 82 46 50 57
REMARK Flexibility Score: inf
ROOT
ATOM      1  C   UNL A   1      31.966  31.286  26.513  1.00  0.00     0.274 C 
ENDROOT
BRANCH   1   2
ATOM      2  O   UNL A   1      32.588  30.501  27.543  1.00  0.00    -0.462 OA
BRANCH   2   3
ATOM      3  C   UNL A   1      33.721  29.837  27.222  1.00  0.00     0.312 C 
ATOM      4  O   UNL A   1      34.858  30.247  27.439  1.00  0.00    -0.252 OA
BRANCH   3   5
ATOM      5  C   UNL A   1      33.464  28.498  26.543  1.00  0.00     0.124 C 
ATOM      6  C   UNL A   1      31.870  27.598  24.913  1.00  0.00     0.107 C 
ATOM      7  C   UNL A   1      33.167  27.972  24.277  1.00  0.00    -0.006 C 
ATOM      8  C   UNL A   1      32.000  28.057  26.370  1.00  0.00     0.048 C 
ATOM      9  C   UNL A   1      34.034  28.473  25.160  1.00  0.00    -0.014 C 
BRANCH   6  10
ATOM     10  N   UNL A   1      30.799  28.132  24.108  1.00  0.00    -0.332 N 
ATOM     11  O   UNL A   1      29.512  26.262  23.777  1.00  0.00    -0.248 OA
ATOM     12  C   UNL A   1      29.702  27.468  23.653  1.00  0.00     0.319 C 
ATOM     13  N   UNL A   1      28.696  28.230  23.129  1.00  0.00    -0.308 N 
ATOM     14  H   UNL A   1      27.871  27.731  22.930  1.00  0.00     0.171 HD
ATOM     15  H   UNL A   1      30.870  29.081  23.859  1.00  0.00     0.165 HD
BRANCH  13  16
ATOM     16  C   UNL A   1      28.628  29.599  22.824  1.00  0.00     0.046 A 
ATOM     17  C   UNL A   1      28.905  30.617  23.759  1.00  0.00     0.030 A 
ATOM     18  C   UNL A   1      28.249  29.936  21.519  1.00  0.00     0.076 A 
ATOM     19  C   UNL A   1      28.710  31.963  23.434  1.00  0.00     0.053 A 
ATOM     20  C   UNL A   1      28.043  31.269  21.233  1.00  0.00     0.167 A 
ATOM     21  C   UNL A   1      28.255  32.254  22.167  1.00  0.00     0.165 A 
ATOM     22  O   UNL A   1      27.589  31.763  20.051  1.00  0.00    -0.454 OA
ATOM     23  O   UNL A   1      27.962  33.492  21.690  1.00  0.00    -0.454 OA
ATOM     24  C   UNL A   1      27.477  33.166  20.371  1.00  0.00     0.468 C 
ENDBRANCH  13  16
ENDBRANCH   6  10
ENDBRANCH   3   5
ENDBRANCH   2   3
ENDBRANCH   1   2
BRANCH   1  25
ATOM     25  C   UNL A   1      31.792  32.729  26.986  1.00  0.00     0.275 C 
BRANCH  25  26
ATOM     26  O   UNL A   1      33.066  33.394  27.100  1.00  0.00    -0.458 OA
BRANCH  26  27
ATOM     27  C   UNL A   1      33.197  34.204  28.175  1.00  0.00     0.338 C 
ATOM     28  O   UNL A   1      32.482  35.131  28.513  1.00  0.00    -0.246 OA
BRANCH  27  29
ATOM     29  C   UNL A   1      34.306  33.729  29.012  1.00  0.00     0.060 A 
ATOM     30  C   UNL A   1      35.580  34.246  28.765  1.00  0.00     0.016 A 
ATOM     31  C   UNL A   1      34.118  32.722  29.958  1.00  0.00     0.016 A 
ATOM     32  C   UNL A   1      36.680  33.759  29.464  1.00  0.00     0.010 A 
ATOM     33  C   UNL A   1      35.224  32.229  30.659  1.00  0.00     0.010 A 
ATOM     34  C   UNL A   1      36.511  32.738  30.407  1.00  0.00    -0.014 A 
BRANCH  34  35
ATOM     35  C   UNL A   1      37.694  32.169  31.089  1.00  0.00     0.031 A 
ATOM     36  C   UNL A   1      38.518  31.120  30.402  1.00  0.00     0.074 A 
ATOM     37  C   UNL A   1      38.043  32.617  32.308  1.00  0.00     0.049 A 
ATOM     38  N   UNL A   1      39.538  30.438  30.858  1.00  0.00    -0.248 NA
ATOM     39  C   UNL A   1      38.145  30.796  29.017  1.00  0.00     0.031 C 
ATOM     40  C   UNL A   1      37.353  33.674  33.047  1.00  0.00     0.029 A 
ATOM     41  N   UNL A   1      39.066  32.237  33.140  1.00  0.00    -0.354 N 
ATOM     42  C   UNL A   1      39.917  29.593  29.825  1.00  0.00     0.074 A 
ATOM     43  C   UNL A   1      39.013  29.839  28.722  1.00  0.00     0.031 C 
ATOM     44  C   UNL A   1      37.972  33.860  34.224  1.00  0.00     0.029 A 
ATOM     45  C   UNL A   1      39.071  32.904  34.339  1.00  0.00     0.049 A 
ATOM     46  H   UNL A   1      39.732  31.553  32.899  1.00  0.00     0.167 HD
ATOM     47  C   UNL A   1      40.931  28.696  29.803  1.00  0.00     0.037 A 
ATOM     48  C   UNL A   1      39.857  32.740  35.420  1.00  0.00     0.037 A 
ATOM     49  C   UNL A   1      41.835  28.463  30.899  1.00  0.00     0.049 A 
ATOM     50  C   UNL A   1      40.933  31.689  35.393  1.00  0.00     0.074 A 
ATOM     51  C   UNL A   1      42.893  27.575  30.974  1.00  0.00     0.029 A 
ATOM     52  N   UNL A   1      41.785  29.130  32.114  1.00  0.00    -0.354 N 
ATOM     53  N   UNL A   1      41.273  30.878  34.420  1.00  0.00    -0.248 NA
ATOM     54  C   UNL A   1      41.729  31.525  36.617  1.00  0.00     0.031 C 
ATOM     55  C   UNL A   1      43.462  27.679  32.248  1.00  0.00     0.029 A 
ATOM     56  C   UNL A   1      42.783  28.660  32.953  1.00  0.00     0.049 A 
ATOM     57  H   UNL A   1      41.135  29.832  32.348  1.00  0.00     0.167 HD
ATOM     58  C   UNL A   1      42.327  30.120  34.908  1.00  0.00     0.074 A 
ATOM     59  C   UNL A   1      42.583  30.577  36.258  1.00  0.00     0.031 C 
ATOM     60  C   UNL A   1      43.021  29.131  34.293  1.00  0.00     0.037 A 
BRANCH  47  61
ATOM     61  C   UNL A   1      41.098  27.874  28.560  1.00  0.00     0.064 A 
ATOM     62  C   UNL A   1      40.364  26.697  28.353  1.00  0.00     0.173 A 
ATOM     63  C   UNL A   1      41.979  28.288  27.550  1.00  0.00     0.173 A 
ATOM     64  F   UNL A   1      39.520  26.252  29.296  1.00  0.00    -0.203 F 
ATOM     65  C   UNL A   1      40.522  25.953  27.185  1.00  0.00     0.198 A 
ATOM     66  C   UNL A   1      42.117  27.554  26.375  1.00  0.00     0.198 A 
ATOM     67  F   UNL A   1      42.701  29.408  27.701  1.00  0.00    -0.203 F 
ATOM     68  F   UNL A   1      39.838  24.813  27.023  1.00  0.00    -0.200 F 
ATOM     69  C   UNL A   1      41.392  26.385  26.196  1.00  0.00     0.200 A 
ATOM     70  F   UNL A   1      42.953  27.978  25.417  1.00  0.00    -0.200 F 
ATOM     71  F   UNL A   1      41.538  25.672  25.072  1.00  0.00    -0.200 F 
ENDBRANCH  47  61
BRANCH  48  72
ATOM     72  C   UNL A   1      39.638  33.578  36.625  1.00  0.00     0.064 A 
ATOM     73  C   UNL A   1      38.774  33.161  37.646  1.00  0.00     0.173 A 
ATOM     74  C   UNL A   1      40.289  34.811  36.780  1.00  0.00     0.173 A 
ATOM     75  F   UNL A   1      38.111  32.002  37.529  1.00  0.00    -0.203 F 
ATOM     76  C   UNL A   1      38.563  33.950  38.775  1.00  0.00     0.198 A 
ATOM     77  C   UNL A   1      40.096  35.587  37.920  1.00  0.00     0.198 A 
ATOM     78  F   UNL A   1      41.122  35.256  35.827  1.00  0.00    -0.203 F 
ATOM     79  F   UNL A   1      37.704  33.546  39.720  1.00  0.00    -0.200 F 
ATOM     80  C   UNL A   1      39.228  35.159  38.913  1.00  0.00     0.200 A 
ATOM     81  F   UNL A   1      40.746  36.751  38.053  1.00  0.00    -0.200 F 
ATOM     82  F   UNL A   1      39.028  35.916  40.002  1.00  0.00    -0.200 F 
ENDBRANCH  48  72
BRANCH  60  83
ATOM     83  C   UNL A   1      44.137  28.495  35.067  1.00  0.00     0.064 A 
ATOM     84  C   UNL A   1      43.930  27.336  35.827  1.00  0.00     0.173 A 
ATOM     85  C   UNL A   1      45.432  29.029  35.014  1.00  0.00     0.173 A 
ATOM     86  F   UNL A   1      42.704  26.799  35.920  1.00  0.00    -0.203 F 
ATOM     87  C   UNL A   1      44.980  26.744  36.525  1.00  0.00     0.198 A 
ATOM     88  C   UNL A   1      46.483  28.422  35.694  1.00  0.00     0.198 A 
ATOM     89  F   UNL A   1      45.679  30.135  34.295  1.00  0.00    -0.203 F 
ATOM     90  F   UNL A   1      44.754  25.658  37.277  1.00  0.00    -0.200 F 
ATOM     91  C   UNL A   1      46.256  27.284  36.453  1.00  0.00     0.200 A 
ATOM     92  F   UNL A   1      47.718  28.939  35.616  1.00  0.00    -0.200 F 
ATOM     93  F   UNL A   1      47.266  26.710  37.120  1.00  0.00    -0.200 F 
ENDBRANCH  60  83
ENDBRANCH  34  35
ENDBRANCH  27  29
ENDBRANCH  26  27
ENDBRANCH  25  26
ENDBRANCH   1  25
TORSDOF 13
ENDMDL
MODEL 2
REMARK VINA RESULT:     -12.4      0.223      1.962
REMARK SMILES O=C(Nc1ccc2c(c1)OCO2)N[C@H]1C=C[C@@H](C(=O)OCCOC(=O)c2ccc(-c3c4nc(c(-c5c(F)c(F)c(F)c(F)c5F)c5ccc([nH]5)c(-c5c(F)c(F)c(F)c(F)c5F)c5nc(c(-c6c(F)c(F)c(F)c(F)c6F)c6ccc3[nH]6)C=C5)C=C4)cc2)C1
REMARK SMILES IDX 21 1 20 2 18 3 19 4 17 5 14 6 15 7 89 8 16 9 13 10 1 11 2 12
REMARK SMILES IDX 3 13 4 16 5 17 9 18 6 19 8 20 7 21 10 22 12 23 11 24 22 25
REMARK SMILES IDX 23 26 24 27 25 28 26 29 27 30 88 31 28 32 87 33 29 34 30 35
REMARK SMILES IDX 31 36 81 37 32 38 86 39 80 40 82 41 33 42 85 43 79 44 78 45
REMARK SMILES IDX 34 47 66 48 46 49 65 50 47 51 50 52 64 53 83 54 48 55 49 56
REMARK SMILES IDX 63 58 84 59 51 60 35 61 36 62 44 63 37 64 38 65 42 66 45 67
REMARK SMILES IDX 39 68 40 69 43 70 41 71 67 72 68 73 76 74 69 75 70 76 74 77
REMARK SMILES IDX 77 78 71 79 72 80 75 81 73 82 52 83 53 84 61 85 54 86 55 87
REMARK SMILES IDX 59 88 62 89 56 90 57 91 60 92 58 93
REMARK H PARENT 3 14 13 15 82 46 50 57
REMARK Flexibility Score: inf
ROOT
ATOM      1  C   UNL A   1      32.010  31.296  26.525  1.00  0.00     0.274 C 
ENDROOT
BRANCH   1   2
ATOM      2  O   UNL A   1      32.615  30.507  27.563  1.00  0.00    -0.462 OA
BRANCH   2   3
ATOM      3  C   UNL A   1      33.736  29.820  27.250  1.00  0.00     0.312 C 
ATOM      4  O   UNL A   1      34.880  30.218  27.452  1.00  0.00    -0.252 OA
BRANCH   3   5
ATOM      5  C   UNL A   1      33.456  28.471  26.601  1.00  0.00     0.124 C 
ATOM      6  C   UNL A   1      31.848  27.562  24.990  1.00  0.00     0.107 C 
ATOM      7  C   UNL A   1      33.154  27.898  24.348  1.00  0.00    -0.006 C 
ATOM      8  C   UNL A   1      31.985  28.053  26.436  1.00  0.00     0.048 C 
ATOM      9  C   UNL A   1      34.028  28.403  25.221  1.00  0.00    -0.014 C 
BRANCH   6  10
ATOM     10  N   UNL A   1      30.789  28.096  24.170  1.00  0.00    -0.332 N 
ATOM     11  O   UNL A   1      29.484  26.237  23.857  1.00  0.00    -0.248 OA
ATOM     12  C   UNL A   1      29.688  27.438  23.717  1.00  0.00     0.319 C 
ATOM     13  N   UNL A   1      28.693  28.205  23.176  1.00  0.00    -0.308 N 
ATOM     14  H   UNL A   1      27.865  27.712  22.979  1.00  0.00     0.171 HD
ATOM     15  H   UNL A   1      30.873  29.041  23.908  1.00  0.00     0.165 HD
BRANCH  13  16
ATOM     16  C   UNL A   1      28.643  29.570  22.852  1.00  0.00     0.046 A 
ATOM     17  C   UNL A   1      28.921  30.597  23.776  1.00  0.00     0.030 A 
ATOM     18  C   UNL A   1      28.280  29.893  21.538  1.00  0.00     0.076 A 
ATOM     19  C   UNL A   1      28.744  31.941  23.430  1.00  0.00     0.053 A 
ATOM     20  C   UNL A   1      28.091  31.223  21.233  1.00  0.00     0.167 A 
ATOM     21  C   UNL A   1      28.304  32.219  22.155  1.00  0.00     0.165 A 
ATOM     22  O   UNL A   1      27.653  31.706  20.039  1.00  0.00    -0.454 OA
ATOM     23  O   UNL A   1      28.028  33.453  21.659  1.00  0.00    -0.454 OA
ATOM     24  C   UNL A   1      27.552  33.114  20.339  1.00  0.00     0.468 C 
ENDBRANCH  13  16
ENDBRANCH   6  10
ENDBRANCH   3   5
ENDBRANCH   2   3
ENDBRANCH   1   2
BRANCH   1  25
ATOM     25  C   UNL A   1      31.811  32.733  27.007  1.00  0.00     0.275 C 
BRANCH  25  26
ATOM     26  O   UNL A   1      33.069  33.433  27.082  1.00  0.00    -0.458 OA
BRANCH  26  27
ATOM     27  C   UNL A   1      33.221  34.227  28.167  1.00  0.00     0.338 C 
ATOM     28  O   UNL A   1      32.528  35.165  28.518  1.00  0.00    -0.246 OA
BRANCH  27  29
ATOM     29  C   UNL A   1      34.321  33.717  28.995  1.00  0.00     0.060 A 
ATOM     30  C   UNL A   1      35.606  34.207  28.750  1.00  0.00     0.016 A 
ATOM     31  C   UNL A   1      34.113  32.703  29.930  1.00  0.00     0.016 A 
ATOM     32  C   UNL A   1      36.697  33.686  29.439  1.00  0.00     0.010 A 
ATOM     33  C   UNL A   1      35.209  32.177  30.622  1.00  0.00     0.010 A 
ATOM     34  C   UNL A   1      36.507  32.659  30.371  1.00  0.00    -0.014 A 
BRANCH  34  35
ATOM     35  C   UNL A   1      37.679  32.056  31.043  1.00  0.00     0.031 A 
ATOM     36  C   UNL A   1      38.483  31.005  30.337  1.00  0.00     0.074 A 
ATOM     37  C   UNL A   1      38.034  32.473  32.271  1.00  0.00     0.049 A 
ATOM     38  N   UNL A   1      39.490  30.295  30.780  1.00  0.00    -0.248 NA
ATOM     39  C   UNL A   1      38.106  30.714  28.946  1.00  0.00     0.031 C 
ATOM     40  C   UNL A   1      37.363  33.528  33.029  1.00  0.00     0.029 A 
ATOM     41  N   UNL A   1      39.049  32.059  33.096  1.00  0.00    -0.354 N 
ATOM     42  C   UNL A   1      39.855  29.464  29.731  1.00  0.00     0.074 A 
ATOM     43  C   UNL A   1      38.956  29.748  28.632  1.00  0.00     0.031 C 
ATOM     44  C   UNL A   1      37.984  33.680  34.210  1.00  0.00     0.029 A 
ATOM     45  C   UNL A   1      39.066  32.701  34.308  1.00  0.00     0.049 A 
ATOM     46  H   UNL A   1      39.703  31.367  32.842  1.00  0.00     0.167 HD
ATOM     47  C   UNL A   1      40.852  28.548  29.692  1.00  0.00     0.037 A 
ATOM     48  C   UNL A   1      39.847  32.502  35.386  1.00  0.00     0.037 A 
ATOM     49  C   UNL A   1      41.750  28.278  30.784  1.00  0.00     0.049 A 
ATOM     50  C   UNL A   1      40.904  31.433  35.339  1.00  0.00     0.074 A 
ATOM     51  C   UNL A   1      42.792  27.369  30.843  1.00  0.00     0.029 A 
ATOM     52  N   UNL A   1      41.711  28.922  32.012  1.00  0.00    -0.354 N 
ATOM     53  N   UNL A   1      41.230  30.634  34.351  1.00  0.00    -0.248 NA
ATOM     54  C   UNL A   1      41.695  31.230  36.561  1.00  0.00     0.031 C 
ATOM     55  C   UNL A   1      43.361  27.438  32.119  1.00  0.00     0.029 A 
ATOM     56  C   UNL A   1      42.700  28.417  32.842  1.00  0.00     0.049 A 
ATOM     57  H   UNL A   1      41.075  29.631  32.259  1.00  0.00     0.167 HD
ATOM     58  C   UNL A   1      42.269  29.847  34.825  1.00  0.00     0.074 A 
ATOM     59  C   UNL A   1      42.532  30.273  36.184  1.00  0.00     0.031 C 
ATOM     60  C   UNL A   1      42.945  28.857  34.191  1.00  0.00     0.037 A 
BRANCH  47  61
ATOM     61  C   UNL A   1      41.005  27.748  28.434  1.00  0.00     0.064 A 
ATOM     62  C   UNL A   1      41.842  28.168  27.391  1.00  0.00     0.173 A 
ATOM     63  C   UNL A   1      40.330  26.527  28.285  1.00  0.00     0.173 A 
ATOM     64  F   UNL A   1      42.497  29.336  27.480  1.00  0.00    -0.203 F 
ATOM     65  C   UNL A   1      41.982  27.404  26.234  1.00  0.00     0.198 A 
ATOM     66  C   UNL A   1      40.489  25.755  27.138  1.00  0.00     0.198 A 
ATOM     67  F   UNL A   1      39.519  26.080  29.256  1.00  0.00    -0.203 F 
ATOM     68  F   UNL A   1      42.758  27.842  25.234  1.00  0.00    -0.200 F 
ATOM     69  C   UNL A   1      41.311  26.197  26.111  1.00  0.00     0.200 A 
ATOM     70  F   UNL A   1      39.846  24.584  27.025  1.00  0.00    -0.200 F 
ATOM     71  F   UNL A   1      41.451  25.461  25.001  1.00  0.00    -0.200 F 
ENDBRANCH  47  61
BRANCH  48  72
ATOM     72  C   UNL A   1      39.643  33.320  36.607  1.00  0.00     0.064 A 
ATOM     73  C   UNL A   1      40.356  34.510  36.806  1.00  0.00     0.173 A 
ATOM     74  C   UNL A   1      38.731  32.930  37.598  1.00  0.00     0.173 A 
ATOM     75  F   UNL A   1      41.257  34.909  35.897  1.00  0.00    -0.203 F 
ATOM     76  C   UNL A   1      40.170  35.275  37.955  1.00  0.00     0.198 A 
ATOM     77  C   UNL A   1      38.528  33.708  38.735  1.00  0.00     0.198 A 
ATOM     78  F   UNL A   1      38.028  31.796  37.456  1.00  0.00    -0.203 F 
ATOM     79  F   UNL A   1      40.890  36.390  38.139  1.00  0.00    -0.200 F 
ATOM     80  C   UNL A   1      39.251  34.877  38.915  1.00  0.00     0.200 A 
ATOM     81  F   UNL A   1      37.634  33.324  39.656  1.00  0.00    -0.200 F 
ATOM     82  F   UNL A   1      39.069  35.616  40.019  1.00  0.00    -0.200 F 
ENDBRANCH  48  72
BRANCH  60  83
ATOM     83  C   UNL A   1      44.048  28.187  34.954  1.00  0.00     0.064 A 
ATOM     84  C   UNL A   1      45.350  28.704  34.962  1.00  0.00     0.173 A 
ATOM     85  C   UNL A   1      43.788  27.038  35.716  1.00  0.00     0.173 A 
ATOM     86  F   UNL A   1      45.649  29.791  34.235  1.00  0.00    -0.203 F 
ATOM     87  C   UNL A   1      46.360  28.083  35.691  1.00  0.00     0.198 A 
ATOM     88  C   UNL A   1      44.794  26.434  36.462  1.00  0.00     0.198 A 
ATOM     89  F   UNL A   1      42.555  26.510  35.743  1.00  0.00    -0.203 F 
ATOM     90  F   UNL A   1      47.608  28.571  35.656  1.00  0.00    -0.200 F 
ATOM     91  C   UNL A   1      46.080  26.952  36.446  1.00  0.00     0.200 A 
ATOM     92  F   UNL A   1      44.520  25.346  37.198  1.00  0.00    -0.200 F 
ATOM     93  F   UNL A   1      47.052  26.360  37.152  1.00  0.00    -0.200 F 
ENDBRANCH  60  83
ENDBRANCH  34  35
ENDBRANCH  27  29
ENDBRANCH  26  27
ENDBRANCH  25  26
ENDBRANCH   1  25
TORSDOF 13
ENDMDL
MODEL 3
REMARK VINA RESULT:     -12.2      3.484      5.516
REMARK SMILES O=C(Nc1ccc2c(c1)OCO2)N[C@H]1C=C[C@@H](C(=O)OCCOC(=O)c2ccc(-c3c4nc(c(-c5c(F)c(F)c(F)c(F)c5F)c5ccc([nH]5)c(-c5c(F)c(F)c(F)c(F)c5F)c5nc(c(-c6c(F)c(F)c(F)c(F)c6F)c6ccc3[nH]6)C=C5)C=C4)cc2)C1
REMARK SMILES IDX 21 1 20 2 18 3 19 4 17 5 14 6 15 7 89 8 16 9 13 10 1 11 2 12
REMARK SMILES IDX 3 13 4 16 5 17 9 18 6 19 8 20 7 21 10 22 12 23 11 24 22 25
REMARK SMILES IDX 23 26 24 27 25 28 26 29 27 30 88 31 28 32 87 33 29 34 30 35
REMARK SMILES IDX 31 36 81 37 32 38 86 39 80 40 82 41 33 42 85 43 79 44 78 45
REMARK SMILES IDX 34 47 66 48 46 49 65 50 47 51 50 52 64 53 83 54 48 55 49 56
REMARK SMILES IDX 63 58 84 59 51 60 35 61 36 62 44 63 37 64 38 65 42 66 45 67
REMARK SMILES IDX 39 68 40 69 43 70 41 71 67 72 68 73 76 74 69 75 70 76 74 77
REMARK SMILES IDX 77 78 71 79 72 80 75 81 73 82 52 83 53 84 61 85 54 86 55 87
REMARK SMILES IDX 59 88 62 89 56 90 57 91 60 92 58 93
REMARK H PARENT 3 14 13 15 82 46 50 57
REMARK Flexibility Score: inf
ROOT
ATOM      1  C   UNL A   1      31.532  29.438  24.380  1.00  0.00     0.274 C 
ENDROOT
BRANCH   1   2
ATOM      2  O   UNL A   1      30.893  28.158  24.512  1.00  0.00    -0.462 OA
BRANCH   2   3
ATOM      3  C   UNL A   1      31.460  27.108  23.877  1.00  0.00     0.312 C 
ATOM      4  O   UNL A   1      30.980  26.539  22.901  1.00  0.00    -0.252 OA
BRANCH   3   5
ATOM      5  C   UNL A   1      32.782  26.672  24.494  1.00  0.00     0.124 C 
ATOM      6  C   UNL A   1      33.739  24.599  25.387  1.00  0.00     0.107 C 
ATOM      7  C   UNL A   1      34.176  24.857  23.982  1.00  0.00    -0.006 C 
ATOM      8  C   UNL A   1      32.724  25.707  25.691  1.00  0.00     0.048 C 
ATOM      9  C   UNL A   1      33.648  25.979  23.489  1.00  0.00    -0.014 C 
BRANCH   6  10
ATOM     10  N   UNL A   1      33.321  23.224  25.486  1.00  0.00    -0.332 N 
ATOM     11  O   UNL A   1      32.036  23.282  27.385  1.00  0.00    -0.248 OA
ATOM     12  C   UNL A   1      32.484  22.683  26.413  1.00  0.00     0.319 C 
ATOM     13  N   UNL A   1      32.024  21.420  26.163  1.00  0.00    -0.308 N 
ATOM     14  H   UNL A   1      31.325  21.113  26.785  1.00  0.00     0.171 HD
ATOM     15  H   UNL A   1      33.680  22.607  24.809  1.00  0.00     0.165 HD
BRANCH  13  16
ATOM     16  C   UNL A   1      32.372  20.481  25.178  1.00  0.00     0.046 A 
ATOM     17  C   UNL A   1      32.095  20.657  23.807  1.00  0.00     0.030 A 
ATOM     18  C   UNL A   1      33.010  19.314  25.616  1.00  0.00     0.076 A 
ATOM     19  C   UNL A   1      32.359  19.639  22.885  1.00  0.00     0.053 A 
ATOM     20  C   UNL A   1      33.238  18.320  24.690  1.00  0.00     0.167 A 
ATOM     21  C   UNL A   1      32.910  18.472  23.364  1.00  0.00     0.165 A 
ATOM     22  O   UNL A   1      33.762  17.094  24.958  1.00  0.00    -0.454 OA
ATOM     23  O   UNL A   1      33.188  17.362  22.631  1.00  0.00    -0.454 OA
ATOM     24  C   UNL A   1      33.665  16.470  23.660  1.00  0.00     0.468 C 
ENDBRANCH  13  16
ENDBRANCH   6  10
ENDBRANCH   3   5
ENDBRANCH   2   3
ENDBRANCH   1   2
BRANCH   1  25
ATOM     25  C   UNL A   1      31.735  30.068  25.757  1.00  0.00     0.275 C 
BRANCH  25  26
ATOM     26  O   UNL A   1      33.134  30.289  26.026  1.00  0.00    -0.458 OA
BRANCH  26  27
ATOM     27  C   UNL A   1      33.401  31.258  26.931  1.00  0.00     0.338 C 
ATOM     28  O   UNL A   1      32.685  32.178  27.283  1.00  0.00    -0.246 OA
BRANCH  27  29
ATOM     29  C   UNL A   1      34.691  30.983  27.575  1.00  0.00     0.060 A 
ATOM     30  C   UNL A   1      34.956  29.672  27.978  1.00  0.00     0.016 A 
ATOM     31  C   UNL A   1      35.586  32.012  27.869  1.00  0.00     0.016 A 
ATOM     32  C   UNL A   1      36.120  29.377  28.679  1.00  0.00     0.010 A 
ATOM     33  C   UNL A   1      36.757  31.716  28.576  1.00  0.00     0.010 A 
ATOM     34  C   UNL A   1      37.023  30.399  28.993  1.00  0.00    -0.014 A 
BRANCH  34  35
ATOM     35  C   UNL A   1      38.221  30.094  29.807  1.00  0.00     0.031 A 
ATOM     36  C   UNL A   1      39.288  29.196  29.254  1.00  0.00     0.074 A 
ATOM     37  C   UNL A   1      38.361  30.646  31.024  1.00  0.00     0.049 A 
ATOM     38  N   UNL A   1      40.369  28.739  29.834  1.00  0.00    -0.248 NA
ATOM     39  C   UNL A   1      39.117  28.753  27.862  1.00  0.00     0.031 C 
ATOM     40  C   UNL A   1      37.418  31.579  31.640  1.00  0.00     0.029 A 
ATOM     41  N   UNL A   1      39.352  30.501  31.962  1.00  0.00    -0.354 N 
ATOM     42  C   UNL A   1      40.997  27.944  28.887  1.00  0.00     0.074 A 
ATOM     43  C   UNL A   1      40.172  27.969  27.697  1.00  0.00     0.031 C 
ATOM     44  C   UNL A   1      37.876  31.925  32.854  1.00  0.00     0.029 A 
ATOM     45  C   UNL A   1      39.118  31.202  33.118  1.00  0.00     0.049 A 
ATOM     46  H   UNL A   1      40.154  29.948  31.818  1.00  0.00     0.167 HD
ATOM     47  C   UNL A   1      42.158  27.256  29.003  1.00  0.00     0.037 A 
ATOM     48  C   UNL A   1      39.813  31.233  34.270  1.00  0.00     0.037 A 
ATOM     49  C   UNL A   1      42.979  27.243  30.184  1.00  0.00     0.049 A 
ATOM     50  C   UNL A   1      41.064  30.407  34.396  1.00  0.00     0.074 A 
ATOM     51  C   UNL A   1      44.173  26.576  30.401  1.00  0.00     0.029 A 
ATOM     52  N   UNL A   1      42.689  27.933  31.352  1.00  0.00    -0.354 N 
ATOM     53  N   UNL A   1      41.641  29.639  33.503  1.00  0.00    -0.248 NA
ATOM     54  C   UNL A   1      41.755  30.444  35.692  1.00  0.00     0.031 C 
ATOM     55  C   UNL A   1      44.587  26.836  31.712  1.00  0.00     0.029 A 
ATOM     56  C   UNL A   1      43.672  27.695  32.299  1.00  0.00     0.049 A 
ATOM     57  H   UNL A   1      41.901  28.507  31.489  1.00  0.00     0.167 HD
ATOM     58  C   UNL A   1      42.767  29.115  34.123  1.00  0.00     0.074 A 
ATOM     59  C   UNL A   1      42.801  29.663  35.463  1.00  0.00     0.031 C 
ATOM     60  C   UNL A   1      43.689  28.254  33.626  1.00  0.00     0.037 A 
BRANCH  47  61
ATOM     61  C   UNL A   1      42.593  26.434  27.827  1.00  0.00     0.064 A 
ATOM     62  C   UNL A   1      42.117  25.132  27.623  1.00  0.00     0.173 A 
ATOM     63  C   UNL A   1      43.473  26.970  26.876  1.00  0.00     0.173 A 
ATOM     64  F   UNL A   1      41.285  24.569  28.513  1.00  0.00    -0.203 F 
ATOM     65  C   UNL A   1      42.521  24.387  26.517  1.00  0.00     0.198 A 
ATOM     66  C   UNL A   1      43.858  26.232  25.760  1.00  0.00     0.198 A 
ATOM     67  F   UNL A   1      43.955  28.213  27.025  1.00  0.00    -0.203 F 
ATOM     68  F   UNL A   1      42.083  23.131  26.360  1.00  0.00    -0.200 F 
ATOM     69  C   UNL A   1      43.387  24.940  25.584  1.00  0.00     0.200 A 
ATOM     70  F   UNL A   1      44.688  26.771  24.855  1.00  0.00    -0.200 F 
ATOM     71  F   UNL A   1      43.770  24.225  24.518  1.00  0.00    -0.200 F 
ENDBRANCH  47  61
BRANCH  48  72
ATOM     72  C   UNL A   1      39.327  32.059  35.403  1.00  0.00     0.064 A 
ATOM     73  C   UNL A   1      39.688  33.407  35.520  1.00  0.00     0.173 A 
ATOM     74  C   UNL A   1      38.491  31.517  36.391  1.00  0.00     0.173 A 
ATOM     75  F   UNL A   1      40.507  33.961  34.614  1.00  0.00    -0.203 F 
ATOM     76  C   UNL A   1      39.239  34.182  36.587  1.00  0.00     0.198 A 
ATOM     77  C   UNL A   1      38.022  32.298  37.444  1.00  0.00     0.198 A 
ATOM     78  F   UNL A   1      38.122  30.229  36.326  1.00  0.00    -0.203 F 
ATOM     79  F   UNL A   1      39.627  35.459  36.695  1.00  0.00    -0.200 F 
ATOM     80  C   UNL A   1      38.401  33.628  37.544  1.00  0.00     0.200 A 
ATOM     81  F   UNL A   1      37.207  31.762  38.362  1.00  0.00    -0.200 F 
ATOM     82  F   UNL A   1      37.964  34.375  38.568  1.00  0.00    -0.200 F 
ENDBRANCH  48  72
BRANCH  60  83
ATOM     83  C   UNL A   1      44.824  27.873  34.529  1.00  0.00     0.064 A 
ATOM     84  C   UNL A   1      46.014  28.612  34.556  1.00  0.00     0.173 A 
ATOM     85  C   UNL A   1      44.701  26.784  35.404  1.00  0.00     0.173 A 
ATOM     86  F   UNL A   1      46.183  29.652  33.726  1.00  0.00    -0.203 F 
ATOM     87  C   UNL A   1      47.052  28.260  35.415  1.00  0.00     0.198 A 
ATOM     88  C   UNL A   1      45.731  26.449  36.277  1.00  0.00     0.198 A 
ATOM     89  F   UNL A   1      43.577  26.050  35.417  1.00  0.00    -0.203 F 
ATOM     90  F   UNL A   1      48.198  28.955  35.399  1.00  0.00    -0.200 F 
ATOM     91  C   UNL A   1      46.907  27.183  36.279  1.00  0.00     0.200 A 
ATOM     92  F   UNL A   1      45.587  25.414  37.117  1.00  0.00    -0.200 F 
ATOM     93  F   UNL A   1      47.905  26.850  37.108  1.00  0.00    -0.200 F 
ENDBRANCH  60  83
ENDBRANCH  34  35
ENDBRANCH  27  29
ENDBRANCH  26  27
ENDBRANCH  25  26
ENDBRANCH   1  25
TORSDOF 13
ENDMDL
