MODEL 1
REMARK VINA RESULT:     -11.8      0.000      0.000
REMARK SMILES COC(=O)[C@H]1CCN(S(=O)(=O)N2CCC[C@H](C(=O)OCCOC(=O)c3ccc(-c4c5nc(c(-c6c(F)c(F)c(F)c(F)c6F)c6ccc([nH]6)c(-c6c(F)c(F)c(F)c(F)c6F)c6nc(c(-c7c(F)c(F)c(F)c(F)c7F)c7ccc4[nH]7)C=C6)C=C5)cc3)C2)C1
REMARK SMILES IDX 20 1 19 2 17 3 18 4 16 5 12 6 13 7 88 8 14 9 15 10 9 11
REMARK SMILES IDX 10 12 11 13 8 14 5 15 6 16 89 17 7 18 3 19 4 20 2 21 1 22
REMARK SMILES IDX 21 23 22 24 23 25 24 26 25 27 26 28 87 29 27 30 86 31 28 32
REMARK SMILES IDX 29 33 30 34 80 35 31 36 85 37 79 38 81 39 32 40 84 41 78 42
REMARK SMILES IDX 77 43 33 45 65 46 45 47 64 48 46 49 49 50 63 51 82 52 47 53
REMARK SMILES IDX 48 54 62 56 83 57 50 58 34 59 35 60 43 61 36 62 37 63 41 64
REMARK SMILES IDX 44 65 38 66 39 67 42 68 40 69 66 70 67 71 75 72 68 73 69 74
REMARK SMILES IDX 73 75 76 76 70 77 71 78 74 79 72 80 51 81 52 82 60 83 53 84
REMARK SMILES IDX 54 85 58 86 61 87 55 88 56 89 59 90 57 91
REMARK H PARENT 81 44 49 55
REMARK Flexibility Score: inf
ROOT
ATOM      1  C   UNL A   1      31.420  29.617  24.743  1.00  0.00     0.274 C 
ENDROOT
BRANCH   1   2
ATOM      2  O   UNL A   1      32.026  28.326  24.926  1.00  0.00    -0.462 OA
BRANCH   2   3
ATOM      3  C   UNL A   1      31.272  27.410  25.575  1.00  0.00     0.310 C 
ATOM      4  O   UNL A   1      31.359  27.154  26.773  1.00  0.00    -0.252 OA
BRANCH   3   5
ATOM      5  C   UNL A   1      30.233  26.748  24.694  1.00  0.00     0.114 C 
ATOM      6  N   UNL A   1      30.852  24.430  25.148  1.00  0.00    -0.188 NA
ATOM      7  C   UNL A   1      31.109  24.109  23.729  1.00  0.00     0.103 C 
ATOM      8  C   UNL A   1      29.820  25.453  25.345  1.00  0.00     0.118 C 
ATOM      9  C   UNL A   1      31.500  25.382  22.969  1.00  0.00     0.018 C 
ATOM     10  C   UNL A   1      30.546  26.544  23.216  1.00  0.00     0.018 C 
BRANCH   6  11
ATOM     11  S   UNL A   1      30.968  23.202  26.282  1.00  0.00     0.282 S 
ATOM     12  O   UNL A   1      31.101  21.941  25.584  1.00  0.00    -0.195 OA
ATOM     13  O   UNL A   1      29.926  23.403  27.258  1.00  0.00    -0.195 OA
BRANCH  11  14
ATOM     14  N   UNL A   1      32.452  23.516  27.047  1.00  0.00    -0.188 NA
ATOM     15  C   UNL A   1      34.526  22.354  26.506  1.00  0.00     0.116 C 
ATOM     16  C   UNL A   1      34.365  23.571  25.616  1.00  0.00     0.033 C 
ATOM     17  C   UNL A   1      33.232  22.254  27.312  1.00  0.00     0.118 C 
ATOM     18  C   UNL A   1      33.417  24.442  26.403  1.00  0.00     0.104 C 
BRANCH  15  19
ATOM     19  C   UNL A   1      34.778  21.078  25.744  1.00  0.00     0.310 C 
ATOM     20  O   UNL A   1      35.858  20.803  25.237  1.00  0.00    -0.252 OA
BRANCH  19  21
ATOM     21  O   UNL A   1      33.683  20.277  25.731  1.00  0.00    -0.469 OA
ATOM     22  C   UNL A   1      33.605  19.377  24.627  1.00  0.00     0.282 C 
ENDBRANCH  19  21
ENDBRANCH  15  19
ENDBRANCH  11  14
ENDBRANCH   6  11
ENDBRANCH   3   5
ENDBRANCH   2   3
ENDBRANCH   1   2
BRANCH   1  23
ATOM     23  C   UNL A   1      31.675  30.493  25.972  1.00  0.00     0.275 C 
BRANCH  23  24
ATOM     24  O   UNL A   1      33.031  30.360  26.445  1.00  0.00    -0.458 OA
BRANCH  24  25
ATOM     25  C   UNL A   1      33.504  31.417  27.143  1.00  0.00     0.338 C 
ATOM     26  O   UNL A   1      32.949  32.482  27.353  1.00  0.00    -0.246 OA
BRANCH  25  27
ATOM     27  C   UNL A   1      34.809  31.100  27.735  1.00  0.00     0.060 A 
ATOM     28  C   UNL A   1      35.049  29.800  28.182  1.00  0.00     0.016 A 
ATOM     29  C   UNL A   1      35.727  32.112  28.001  1.00  0.00     0.016 A 
ATOM     30  C   UNL A   1      36.161  29.511  28.957  1.00  0.00     0.010 A 
ATOM     31  C   UNL A   1      36.895  31.803  28.706  1.00  0.00     0.010 A 
ATOM     32  C   UNL A   1      37.110  30.505  29.206  1.00  0.00    -0.014 A 
BRANCH  32  33
ATOM     33  C   UNL A   1      38.330  30.172  29.976  1.00  0.00     0.031 A 
ATOM     34  C   UNL A   1      39.355  29.241  29.400  1.00  0.00     0.074 A 
ATOM     35  C   UNL A   1      38.506  30.711  31.198  1.00  0.00     0.049 A 
ATOM     36  N   UNL A   1      40.407  28.713  29.971  1.00  0.00    -0.248 NA
ATOM     37  C   UNL A   1      39.167  28.841  27.997  1.00  0.00     0.031 C 
ATOM     38  C   UNL A   1      37.600  31.668  31.839  1.00  0.00     0.029 A 
ATOM     39  N   UNL A   1      39.502  30.528  32.123  1.00  0.00    -0.354 N 
ATOM     40  C   UNL A   1      40.984  27.892  29.013  1.00  0.00     0.074 A 
ATOM     41  C   UNL A   1      40.158  27.977  27.828  1.00  0.00     0.031 C 
ATOM     42  C   UNL A   1      38.084  31.991  33.047  1.00  0.00     0.029 A 
ATOM     43  C   UNL A   1      39.285  31.206  33.298  1.00  0.00     0.049 A 
ATOM     44  H   UNL A   1      40.293  29.965  31.962  1.00  0.00     0.167 HD
ATOM     45  C   UNL A   1      42.103  27.136  29.121  1.00  0.00     0.037 A 
ATOM     46  C   UNL A   1      39.952  31.161  34.466  1.00  0.00     0.037 A 
ATOM     47  C   UNL A   1      42.924  27.078  30.305  1.00  0.00     0.049 A 
ATOM     48  C   UNL A   1      41.148  30.259  34.580  1.00  0.00     0.074 A 
ATOM     49  C   UNL A   1      44.091  26.366  30.511  1.00  0.00     0.029 A 
ATOM     50  N   UNL A   1      42.655  27.756  31.487  1.00  0.00    -0.354 N 
ATOM     51  N   UNL A   1      41.690  29.483  33.673  1.00  0.00    -0.248 NA
ATOM     52  C   UNL A   1      41.820  30.219  35.884  1.00  0.00     0.031 C 
ATOM     53  C   UNL A   1      44.494  26.562  31.836  1.00  0.00     0.029 A 
ATOM     54  C   UNL A   1      43.618  27.451  32.437  1.00  0.00     0.049 A 
ATOM     55  H   UNL A   1      41.894  28.364  31.628  1.00  0.00     0.167 HD
ATOM     56  C   UNL A   1      42.780  28.881  34.286  1.00  0.00     0.074 A 
ATOM     57  C   UNL A   1      42.833  29.400  35.638  1.00  0.00     0.031 C 
ATOM     58  C   UNL A   1      43.654  27.979  33.778  1.00  0.00     0.037 A 
BRANCH  45  59
ATOM     59  C   UNL A   1      42.484  26.279  27.947  1.00  0.00     0.064 A 
ATOM     60  C   UNL A   1      41.933  25.004  27.745  1.00  0.00     0.173 A 
ATOM     61  C   UNL A   1      43.393  26.757  26.990  1.00  0.00     0.173 A 
ATOM     62  F   UNL A   1      41.069  24.492  28.636  1.00  0.00    -0.203 F 
ATOM     63  C   UNL A   1      42.302  24.230  26.647  1.00  0.00     0.198 A 
ATOM     64  C   UNL A   1      43.733  25.994  25.876  1.00  0.00     0.198 A 
ATOM     65  F   UNL A   1      43.947  27.970  27.130  1.00  0.00    -0.203 F 
ATOM     66  F   UNL A   1      41.802  22.994  26.504  1.00  0.00    -0.200 F 
ATOM     67  C   UNL A   1      43.193  24.728  25.710  1.00  0.00     0.200 A 
ATOM     68  F   UNL A   1      44.584  26.485  24.965  1.00  0.00    -0.200 F 
ATOM     69  F   UNL A   1      43.540  23.985  24.649  1.00  0.00    -0.200 F 
ENDBRANCH  45  59
BRANCH  46  70
ATOM     70  C   UNL A   1      39.477  31.964  35.623  1.00  0.00     0.064 A 
ATOM     71  C   UNL A   1      38.537  31.447  36.523  1.00  0.00     0.173 A 
ATOM     72  C   UNL A   1      39.955  33.263  35.855  1.00  0.00     0.173 A 
ATOM     73  F   UNL A   1      38.035  30.217  36.333  1.00  0.00    -0.203 F 
ATOM     74  C   UNL A   1      38.075  32.204  37.598  1.00  0.00     0.198 A 
ATOM     75  C   UNL A   1      39.520  34.007  36.949  1.00  0.00     0.198 A 
ATOM     76  F   UNL A   1      40.859  33.807  35.027  1.00  0.00    -0.203 F 
ATOM     77  F   UNL A   1      37.138  31.704  38.413  1.00  0.00    -0.200 F 
ATOM     78  C   UNL A   1      38.573  33.481  37.814  1.00  0.00     0.200 A 
ATOM     79  F   UNL A   1      40.017  35.232  37.165  1.00  0.00    -0.200 F 
ATOM     80  F   UNL A   1      38.133  34.206  38.852  1.00  0.00    -0.200 F 
ENDBRANCH  46  70
BRANCH  58  81
ATOM     81  C   UNL A   1      44.765  27.522  34.680  1.00  0.00     0.064 A 
ATOM     82  C   UNL A   1      45.978  28.220  34.770  1.00  0.00     0.173 A 
ATOM     83  C   UNL A   1      44.600  26.385  35.487  1.00  0.00     0.173 A 
ATOM     84  F   UNL A   1      46.194  29.302  34.007  1.00  0.00    -0.203 F 
ATOM     85  C   UNL A   1      46.996  27.781  35.612  1.00  0.00     0.198 A 
ATOM     86  C   UNL A   1      45.605  25.970  36.354  1.00  0.00     0.198 A 
ATOM     87  F   UNL A   1      43.456  25.684  35.443  1.00  0.00    -0.203 F 
ATOM     88  F   UNL A   1      48.168  28.429  35.639  1.00  0.00    -0.200 F 
ATOM     89  C   UNL A   1      46.806  26.661  36.409  1.00  0.00     0.200 A 
ATOM     90  F   UNL A   1      45.412  24.899  37.136  1.00  0.00    -0.200 F 
ATOM     91  F   UNL A   1      47.783  26.244  37.226  1.00  0.00    -0.200 F 
ENDBRANCH  58  81
ENDBRANCH  32  33
ENDBRANCH  25  27
ENDBRANCH  24  25
ENDBRANCH  23  24
ENDBRANCH   1  23
TORSDOF 15
ENDMDL
MODEL 2
REMARK VINA RESULT:     -11.8      1.297      2.382
REMARK SMILES COC(=O)[C@H]1CCN(S(=O)(=O)N2CCC[C@H](C(=O)OCCOC(=O)c3ccc(-c4c5nc(c(-c6c(F)c(F)c(F)c(F)c6F)c6ccc([nH]6)c(-c6c(F)c(F)c(F)c(F)c6F)c6nc(c(-c7c(F)c(F)c(F)c(F)c7F)c7ccc4[nH]7)C=C6)C=C5)cc3)C2)C1
REMARK SMILES IDX 20 1 19 2 17 3 18 4 16 5 12 6 13 7 88 8 14 9 15 10 9 11
REMARK SMILES IDX 10 12 11 13 8 14 5 15 6 16 89 17 7 18 3 19 4 20 2 21 1 22
REMARK SMILES IDX 21 23 22 24 23 25 24 26 25 27 26 28 87 29 27 30 86 31 28 32
REMARK SMILES IDX 29 33 30 34 80 35 31 36 85 37 79 38 81 39 32 40 84 41 78 42
REMARK SMILES IDX 77 43 33 45 65 46 45 47 64 48 46 49 49 50 63 51 82 52 47 53
REMARK SMILES IDX 48 54 62 56 83 57 50 58 34 59 35 60 43 61 36 62 37 63 41 64
REMARK SMILES IDX 44 65 38 66 39 67 42 68 40 69 66 70 67 71 75 72 68 73 69 74
REMARK SMILES IDX 73 75 76 76 70 77 71 78 74 79 72 80 51 81 52 82 60 83 53 84
REMARK SMILES IDX 54 85 58 86 61 87 55 88 56 89 59 90 57 91
REMARK H PARENT 81 44 49 55
REMARK Flexibility Score: inf
ROOT
ATOM      1  C   UNL A   1      31.078  30.504  25.076  1.00  0.00     0.274 C 
ENDROOT
BRANCH   1   2
ATOM      2  O   UNL A   1      31.374  29.100  24.984  1.00  0.00    -0.462 OA
BRANCH   2   3
ATOM      3  C   UNL A   1      32.001  28.705  23.853  1.00  0.00     0.310 C 
ATOM      4  O   UNL A   1      31.455  28.570  22.762  1.00  0.00    -0.252 OA
BRANCH   3   5
ATOM      5  C   UNL A   1      33.491  28.497  24.029  1.00  0.00     0.114 C 
ATOM      6  N   UNL A   1      33.544  26.105  23.541  1.00  0.00    -0.188 NA
ATOM      7  C   UNL A   1      34.143  25.745  24.842  1.00  0.00     0.103 C 
ATOM      8  C   UNL A   1      33.936  27.433  23.057  1.00  0.00     0.118 C 
ATOM      9  C   UNL A   1      33.778  26.799  25.894  1.00  0.00     0.018 C 
ATOM     10  C   UNL A   1      34.035  28.226  25.426  1.00  0.00     0.018 C 
BRANCH   6  11
ATOM     11  S   UNL A   1      33.303  24.895  22.407  1.00  0.00     0.282 S 
ATOM     12  O   UNL A   1      34.206  23.803  22.698  1.00  0.00    -0.195 OA
ATOM     13  O   UNL A   1      33.281  25.511  21.102  1.00  0.00    -0.195 OA
BRANCH  11  14
ATOM     14  N   UNL A   1      31.728  24.354  22.742  1.00  0.00    -0.188 NA
ATOM     15  C   UNL A   1      30.936  23.796  24.979  1.00  0.00     0.116 C 
ATOM     16  C   UNL A   1      30.712  25.270  24.701  1.00  0.00     0.033 C 
ATOM     17  C   UNL A   1      31.712  23.260  23.777  1.00  0.00     0.118 C 
ATOM     18  C   UNL A   1      30.707  25.333  23.194  1.00  0.00     0.104 C 
BRANCH  15  19
ATOM     19  C   UNL A   1      31.687  23.530  26.259  1.00  0.00     0.310 C 
ATOM     20  O   UNL A   1      31.342  23.980  27.344  1.00  0.00    -0.252 OA
BRANCH  19  21
ATOM     21  O   UNL A   1      32.749  22.711  26.056  1.00  0.00    -0.469 OA
ATOM     22  C   UNL A   1      33.360  22.206  27.243  1.00  0.00     0.282 C 
ENDBRANCH  19  21
ENDBRANCH  15  19
ENDBRANCH  11  14
ENDBRANCH   6  11
ENDBRANCH   3   5
ENDBRANCH   2   3
ENDBRANCH   1   2
BRANCH   1  23
ATOM     23  C   UNL A   1      31.416  31.020  26.477  1.00  0.00     0.275 C 
BRANCH  23  24
ATOM     24  O   UNL A   1      32.812  30.836  26.786  1.00  0.00    -0.458 OA
BRANCH  24  25
ATOM     25  C   UNL A   1      33.431  31.915  27.317  1.00  0.00     0.338 C 
ATOM     26  O   UNL A   1      33.002  33.052  27.410  1.00  0.00    -0.246 OA
BRANCH  25  27
ATOM     27  C   UNL A   1      34.730  31.534  27.885  1.00  0.00     0.060 A 
ATOM     28  C   UNL A   1      34.900  30.237  28.370  1.00  0.00     0.016 A 
ATOM     29  C   UNL A   1      35.717  32.493  28.092  1.00  0.00     0.016 A 
ATOM     30  C   UNL A   1      36.013  29.903  29.124  1.00  0.00     0.010 A 
ATOM     31  C   UNL A   1      36.882  32.133  28.777  1.00  0.00     0.010 A 
ATOM     32  C   UNL A   1      37.029  30.841  29.315  1.00  0.00    -0.014 A 
BRANCH  32  33
ATOM     33  C   UNL A   1      38.248  30.456  30.064  1.00  0.00     0.031 A 
ATOM     34  C   UNL A   1      39.246  29.520  29.451  1.00  0.00     0.074 A 
ATOM     35  C   UNL A   1      38.446  30.954  31.299  1.00  0.00     0.049 A 
ATOM     36  N   UNL A   1      40.289  28.950  29.995  1.00  0.00    -0.248 NA
ATOM     37  C   UNL A   1      39.037  29.168  28.038  1.00  0.00     0.031 C 
ATOM     38  C   UNL A   1      37.568  31.911  31.978  1.00  0.00     0.029 A 
ATOM     39  N   UNL A   1      39.445  30.718  32.210  1.00  0.00    -0.354 N 
ATOM     40  C   UNL A   1      40.839  28.145  29.008  1.00  0.00     0.074 A 
ATOM     41  C   UNL A   1      40.005  28.286  27.834  1.00  0.00     0.031 C 
ATOM     42  C   UNL A   1      38.069  32.185  33.191  1.00  0.00     0.029 A 
ATOM     43  C   UNL A   1      39.254  31.365  33.407  1.00  0.00     0.049 A 
ATOM     44  H   UNL A   1      40.221  30.142  32.025  1.00  0.00     0.167 HD
ATOM     45  C   UNL A   1      41.940  27.361  29.083  1.00  0.00     0.037 A 
ATOM     46  C   UNL A   1      39.928  31.269  34.567  1.00  0.00     0.037 A 
ATOM     47  C   UNL A   1      42.769  27.247  30.257  1.00  0.00     0.049 A 
ATOM     48  C   UNL A   1      41.103  30.336  34.643  1.00  0.00     0.074 A 
ATOM     49  C   UNL A   1      43.921  26.501  30.432  1.00  0.00     0.029 A 
ATOM     50  N   UNL A   1      42.526  27.895  31.462  1.00  0.00    -0.354 N 
ATOM     51  N   UNL A   1      41.619  29.575  33.708  1.00  0.00    -0.248 NA
ATOM     52  C   UNL A   1      41.786  30.240  35.940  1.00  0.00     0.031 C 
ATOM     53  C   UNL A   1      44.339  26.647  31.758  1.00  0.00     0.029 A 
ATOM     54  C   UNL A   1      43.489  27.538  32.394  1.00  0.00     0.049 A 
ATOM     55  H   UNL A   1      41.780  28.515  31.629  1.00  0.00     0.167 HD
ATOM     56  C   UNL A   1      42.700  28.930  34.293  1.00  0.00     0.074 A 
ATOM     57  C   UNL A   1      42.776  29.405  35.660  1.00  0.00     0.031 C 
ATOM     58  C   UNL A   1      43.549  28.023  33.750  1.00  0.00     0.037 A 
BRANCH  45  59
ATOM     59  C   UNL A   1      42.291  26.531  27.880  1.00  0.00     0.064 A 
ATOM     60  C   UNL A   1      41.700  25.282  27.638  1.00  0.00     0.173 A 
ATOM     61  C   UNL A   1      43.214  27.011  26.937  1.00  0.00     0.173 A 
ATOM     62  F   UNL A   1      40.822  24.769  28.514  1.00  0.00    -0.203 F 
ATOM     63  C   UNL A   1      42.041  24.533  26.514  1.00  0.00     0.198 A 
ATOM     64  C   UNL A   1      43.527  26.275  25.797  1.00  0.00     0.198 A 
ATOM     65  F   UNL A   1      43.806  28.201  27.116  1.00  0.00    -0.203 F 
ATOM     66  F   UNL A   1      41.502  23.320  26.331  1.00  0.00    -0.200 F 
ATOM     67  C   UNL A   1      42.947  25.034  25.591  1.00  0.00     0.200 A 
ATOM     68  F   UNL A   1      44.391  26.769  24.900  1.00  0.00    -0.200 F 
ATOM     69  F   UNL A   1      43.267  24.315  24.505  1.00  0.00    -0.200 F 
ENDBRANCH  45  59
BRANCH  46  70
ATOM     70  C   UNL A   1      39.482  32.046  35.753  1.00  0.00     0.064 A 
ATOM     71  C   UNL A   1      40.021  33.309  36.032  1.00  0.00     0.173 A 
ATOM     72  C   UNL A   1      38.507  31.546  36.630  1.00  0.00     0.173 A 
ATOM     73  F   UNL A   1      40.971  33.822  35.235  1.00  0.00    -0.203 F 
ATOM     74  C   UNL A   1      39.620  34.031  37.154  1.00  0.00     0.198 A 
ATOM     75  C   UNL A   1      38.081  32.284  37.731  1.00  0.00     0.198 A 
ATOM     76  F   UNL A   1      37.955  30.344  36.408  1.00  0.00    -0.203 F 
ATOM     77  F   UNL A   1      40.189  35.212  37.425  1.00  0.00    -0.200 F 
ATOM     78  C   UNL A   1      38.644  33.522  37.998  1.00  0.00     0.200 A 
ATOM     79  F   UNL A   1      37.125  31.796  38.533  1.00  0.00    -0.200 F 
ATOM     80  F   UNL A   1      38.255  34.220  39.073  1.00  0.00    -0.200 F 
ENDBRANCH  46  70
BRANCH  58  81
ATOM     81  C   UNL A   1      44.656  27.513  34.628  1.00  0.00     0.064 A 
ATOM     82  C   UNL A   1      45.883  28.184  34.735  1.00  0.00     0.173 A 
ATOM     83  C   UNL A   1      44.473  26.351  35.394  1.00  0.00     0.173 A 
ATOM     84  F   UNL A   1      46.114  29.288  34.010  1.00  0.00    -0.203 F 
ATOM     85  C   UNL A   1      46.897  27.695  35.554  1.00  0.00     0.198 A 
ATOM     86  C   UNL A   1      45.475  25.885  36.240  1.00  0.00     0.198 A 
ATOM     87  F   UNL A   1      43.316  25.674  35.333  1.00  0.00    -0.203 F 
ATOM     88  F   UNL A   1      48.081  28.320  35.598  1.00  0.00    -0.200 F 
ATOM     89  C   UNL A   1      46.689  26.551  36.312  1.00  0.00     0.200 A 
ATOM     90  F   UNL A   1      45.266  24.791  36.984  1.00  0.00    -0.200 F 
ATOM     91  F   UNL A   1      47.663  26.086  37.107  1.00  0.00    -0.200 F 
ENDBRANCH  58  81
ENDBRANCH  32  33
ENDBRANCH  25  27
ENDBRANCH  24  25
ENDBRANCH  23  24
ENDBRANCH   1  23
TORSDOF 15
ENDMDL
MODEL 3
REMARK VINA RESULT:     -11.7      1.146      1.794
REMARK SMILES COC(=O)[C@H]1CCN(S(=O)(=O)N2CCC[C@H](C(=O)OCCOC(=O)c3ccc(-c4c5nc(c(-c6c(F)c(F)c(F)c(F)c6F)c6ccc([nH]6)c(-c6c(F)c(F)c(F)c(F)c6F)c6nc(c(-c7c(F)c(F)c(F)c(F)c7F)c7ccc4[nH]7)C=C6)C=C5)cc3)C2)C1
REMARK SMILES IDX 20 1 19 2 17 3 18 4 16 5 12 6 13 7 88 8 14 9 15 10 9 11
REMARK SMILES IDX 10 12 11 13 8 14 5 15 6 16 89 17 7 18 3 19 4 20 2 21 1 22
REMARK SMILES IDX 21 23 22 24 23 25 24 26 25 27 26 28 87 29 27 30 86 31 28 32
REMARK SMILES IDX 29 33 30 34 80 35 31 36 85 37 79 38 81 39 32 40 84 41 78 42
REMARK SMILES IDX 77 43 33 45 65 46 45 47 64 48 46 49 49 50 63 51 82 52 47 53
REMARK SMILES IDX 48 54 62 56 83 57 50 58 34 59 35 60 43 61 36 62 37 63 41 64
REMARK SMILES IDX 44 65 38 66 39 67 42 68 40 69 66 70 67 71 75 72 68 73 69 74
REMARK SMILES IDX 73 75 76 76 70 77 71 78 74 79 72 80 51 81 52 82 60 83 53 84
REMARK SMILES IDX 54 85 58 86 61 87 55 88 56 89 59 90 57 91
REMARK H PARENT 81 44 49 55
REMARK Flexibility Score: inf
ROOT
ATOM      1  C   UNL A   1      31.770  28.615  27.255  1.00  0.00     0.274 C 
ENDROOT
BRANCH   1   2
ATOM      2  O   UNL A   1      32.272  27.695  26.269  1.00  0.00    -0.462 OA
BRANCH   2   3
ATOM      3  C   UNL A   1      31.374  26.811  25.781  1.00  0.00     0.310 C 
ATOM      4  O   UNL A   1      30.819  25.939  26.444  1.00  0.00    -0.252 OA
BRANCH   3   5
ATOM      5  C   UNL A   1      31.047  27.025  24.318  1.00  0.00     0.114 C 
ATOM      6  N   UNL A   1      32.511  25.301  23.401  1.00  0.00    -0.188 NA
ATOM      7  C   UNL A   1      33.268  26.243  22.553  1.00  0.00     0.103 C 
ATOM      8  C   UNL A   1      31.114  25.691  23.619  1.00  0.00     0.118 C 
ATOM      9  C   UNL A   1      33.222  27.648  23.166  1.00  0.00     0.018 C 
ATOM     10  C   UNL A   1      31.813  28.091  23.543  1.00  0.00     0.018 C 
BRANCH   6  11
ATOM     11  S   UNL A   1      32.861  23.665  23.292  1.00  0.00     0.282 S 
ATOM     12  O   UNL A   1      33.963  23.490  22.370  1.00  0.00    -0.195 OA
ATOM     13  O   UNL A   1      31.618  22.959  23.104  1.00  0.00    -0.195 OA
BRANCH  11  14
ATOM     14  N   UNL A   1      33.436  23.284  24.845  1.00  0.00    -0.188 NA
ATOM     15  C   UNL A   1      35.746  22.667  25.319  1.00  0.00     0.116 C 
ATOM     16  C   UNL A   1      35.583  24.172  25.403  1.00  0.00     0.033 C 
ATOM     17  C   UNL A   1      34.404  22.130  24.824  1.00  0.00     0.118 C 
ATOM     18  C   UNL A   1      34.103  24.339  25.648  1.00  0.00     0.104 C 
BRANCH  15  19
ATOM     19  C   UNL A   1      36.864  22.231  24.407  1.00  0.00     0.310 C 
ATOM     20  O   UNL A   1      36.936  22.563  23.231  1.00  0.00    -0.252 OA
BRANCH  19  21
ATOM     21  O   UNL A   1      37.778  21.471  25.061  1.00  0.00    -0.469 OA
ATOM     22  C   UNL A   1      37.711  20.073  24.787  1.00  0.00     0.282 C 
ENDBRANCH  19  21
ENDBRANCH  15  19
ENDBRANCH  11  14
ENDBRANCH   6  11
ENDBRANCH   3   5
ENDBRANCH   2   3
ENDBRANCH   1   2
BRANCH   1  23
ATOM     23  C   UNL A   1      31.783  30.039  26.696  1.00  0.00     0.275 C 
BRANCH  23  24
ATOM     24  O   UNL A   1      33.126  30.488  26.420  1.00  0.00    -0.458 OA
BRANCH  24  25
ATOM     25  C   UNL A   1      33.566  31.501  27.199  1.00  0.00     0.338 C 
ATOM     26  O   UNL A   1      32.987  32.539  27.474  1.00  0.00    -0.246 OA
BRANCH  25  27
ATOM     27  C   UNL A   1      34.867  31.166  27.792  1.00  0.00     0.060 A 
ATOM     28  C   UNL A   1      35.071  29.878  28.287  1.00  0.00     0.016 A 
ATOM     29  C   UNL A   1      35.818  32.158  28.009  1.00  0.00     0.016 A 
ATOM     30  C   UNL A   1      36.181  29.585  29.062  1.00  0.00     0.010 A 
ATOM     31  C   UNL A   1      36.983  31.840  28.714  1.00  0.00     0.010 A 
ATOM     32  C   UNL A   1      37.163  30.557  29.263  1.00  0.00    -0.014 A 
BRANCH  32  33
ATOM     33  C   UNL A   1      38.381  30.216  30.034  1.00  0.00     0.031 A 
ATOM     34  C   UNL A   1      39.405  29.285  29.456  1.00  0.00     0.074 A 
ATOM     35  C   UNL A   1      38.555  30.748  31.259  1.00  0.00     0.049 A 
ATOM     36  N   UNL A   1      40.453  28.752  30.025  1.00  0.00    -0.248 NA
ATOM     37  C   UNL A   1      39.219  28.895  28.049  1.00  0.00     0.031 C 
ATOM     38  C   UNL A   1      37.650  31.703  31.904  1.00  0.00     0.029 A 
ATOM     39  N   UNL A   1      39.548  30.556  32.186  1.00  0.00    -0.354 N 
ATOM     40  C   UNL A   1      41.031  27.934  29.064  1.00  0.00     0.074 A 
ATOM     41  C   UNL A   1      40.207  28.028  27.878  1.00  0.00     0.031 C 
ATOM     42  C   UNL A   1      38.132  32.018  33.115  1.00  0.00     0.029 A 
ATOM     43  C   UNL A   1      39.330  31.228  33.364  1.00  0.00     0.049 A 
ATOM     44  H   UNL A   1      40.338  29.992  32.023  1.00  0.00     0.167 HD
ATOM     45  C   UNL A   1      42.147  27.174  29.171  1.00  0.00     0.037 A 
ATOM     46  C   UNL A   1      39.994  31.174  34.534  1.00  0.00     0.037 A 
ATOM     47  C   UNL A   1      42.964  27.107  30.356  1.00  0.00     0.049 A 
ATOM     48  C   UNL A   1      41.187  30.268  34.646  1.00  0.00     0.074 A 
ATOM     49  C   UNL A   1      44.129  26.390  30.561  1.00  0.00     0.029 A 
ATOM     50  N   UNL A   1      42.695  27.779  31.542  1.00  0.00    -0.354 N 
ATOM     51  N   UNL A   1      41.729  29.496  33.735  1.00  0.00    -0.248 NA
ATOM     52  C   UNL A   1      41.856  30.219  35.951  1.00  0.00     0.031 C 
ATOM     53  C   UNL A   1      44.529  26.577  31.889  1.00  0.00     0.029 A 
ATOM     54  C   UNL A   1      43.654  27.466  32.492  1.00  0.00     0.049 A 
ATOM     55  H   UNL A   1      41.935  28.388  31.685  1.00  0.00     0.167 HD
ATOM     56  C   UNL A   1      42.816  28.887  34.347  1.00  0.00     0.074 A 
ATOM     57  C   UNL A   1      42.867  29.398  35.703  1.00  0.00     0.031 C 
ATOM     58  C   UNL A   1      43.689  27.986  33.836  1.00  0.00     0.037 A 
BRANCH  45  59
ATOM     59  C   UNL A   1      42.528  26.323  27.993  1.00  0.00     0.064 A 
ATOM     60  C   UNL A   1      43.449  26.756  27.027  1.00  0.00     0.173 A 
ATOM     61  C   UNL A   1      41.984  25.036  27.847  1.00  0.00     0.173 A 
ATOM     62  F   UNL A   1      43.990  27.981  27.110  1.00  0.00    -0.203 F 
ATOM     63  C   UNL A   1      43.788  25.945  25.945  1.00  0.00     0.198 A 
ATOM     64  C   UNL A   1      42.350  24.217  26.783  1.00  0.00     0.198 A 
ATOM     65  F   UNL A   1      41.102  24.570  28.742  1.00  0.00    -0.203 F 
ATOM     66  F   UNL A   1      44.630  26.402  25.007  1.00  0.00    -0.200 F 
ATOM     67  C   UNL A   1      43.245  24.675  25.828  1.00  0.00     0.200 A 
ATOM     68  F   UNL A   1      41.835  22.984  26.681  1.00  0.00    -0.200 F 
ATOM     69  F   UNL A   1      43.579  23.894  24.791  1.00  0.00    -0.200 F 
ENDBRANCH  45  59
BRANCH  46  70
ATOM     70  C   UNL A   1      39.519  31.972  35.695  1.00  0.00     0.064 A 
ATOM     71  C   UNL A   1      38.529  31.477  36.554  1.00  0.00     0.173 A 
ATOM     72  C   UNL A   1      40.045  33.244  35.971  1.00  0.00     0.173 A 
ATOM     73  F   UNL A   1      37.981  30.274  36.320  1.00  0.00    -0.203 F 
ATOM     74  C   UNL A   1      38.068  32.230  37.631  1.00  0.00     0.198 A 
ATOM     75  C   UNL A   1      39.608  33.982  37.068  1.00  0.00     0.198 A 
ATOM     76  F   UNL A   1      40.996  33.765  35.183  1.00  0.00    -0.203 F 
ATOM     77  F   UNL A   1      37.085  31.754  38.406  1.00  0.00    -0.200 F 
ATOM     78  C   UNL A   1      38.613  33.479  37.892  1.00  0.00     0.200 A 
ATOM     79  F   UNL A   1      40.150  35.179  37.327  1.00  0.00    -0.200 F 
ATOM     80  F   UNL A   1      38.173  34.200  38.932  1.00  0.00    -0.200 F 
ENDBRANCH  46  70
BRANCH  58  81
ATOM     81  C   UNL A   1      44.796  27.520  34.739  1.00  0.00     0.064 A 
ATOM     82  C   UNL A   1      46.011  28.215  34.837  1.00  0.00     0.173 A 
ATOM     83  C   UNL A   1      44.627  26.378  35.537  1.00  0.00     0.173 A 
ATOM     84  F   UNL A   1      46.230  29.301  34.081  1.00  0.00    -0.203 F 
ATOM     85  C   UNL A   1      47.025  27.767  35.678  1.00  0.00     0.198 A 
ATOM     86  C   UNL A   1      45.628  25.955  36.405  1.00  0.00     0.198 A 
ATOM     87  F   UNL A   1      43.481  25.681  35.486  1.00  0.00    -0.203 F 
ATOM     88  F   UNL A   1      48.198  28.413  35.714  1.00  0.00    -0.200 F 
ATOM     89  C   UNL A   1      46.830  26.643  36.468  1.00  0.00     0.200 A 
ATOM     90  F   UNL A   1      45.430  24.879  37.180  1.00  0.00    -0.200 F 
ATOM     91  F   UNL A   1      47.804  26.219  37.285  1.00  0.00    -0.200 F 
ENDBRANCH  58  81
ENDBRANCH  32  33
ENDBRANCH  25  27
ENDBRANCH  24  25
ENDBRANCH  23  24
ENDBRANCH   1  23
TORSDOF 15
ENDMDL
