MODEL 1
REMARK VINA RESULT:     -11.0      0.000      0.000
REMARK SMILES CC1(C(=O)N[C@H](C(=O)OCCOC(=O)c2ccc(-c3c4nc(c(-c5c(F)c(F)c(F)c(F)c5F)c5ccc([nH]5)c(-c5c(F)c(F)c(F)c(F)c5F)c5nc(c(-c6c(F)c(F)c(F)c(F)c6F)c6ccc3[nH]6)C=C5)C=C4)cc2)C2CC2)CCCC1
REMARK SMILES IDX 10 1 9 2 7 3 8 4 6 5 5 6 3 7 4 8 2 10 1 11 81 12 84 13 82 14
REMARK SMILES IDX 83 15 78 16 79 17 80 18 11 19 12 20 13 21 14 22 15 23 16 24
REMARK SMILES IDX 77 25 17 26 76 27 18 28 19 29 20 30 70 31 21 32 75 33 69 34
REMARK SMILES IDX 71 35 22 36 74 37 68 38 67 39 23 41 55 42 35 43 54 44 36 45
REMARK SMILES IDX 39 46 53 47 72 48 37 49 38 50 52 52 73 53 40 54 24 55 25 56
REMARK SMILES IDX 33 57 26 58 27 59 31 60 34 61 28 62 29 63 32 64 30 65 56 66
REMARK SMILES IDX 57 67 65 68 58 69 59 70 63 71 66 72 60 73 61 74 64 75 62 76
REMARK SMILES IDX 41 77 42 78 50 79 43 80 44 81 48 82 51 83 45 84 46 85 49 86
REMARK SMILES IDX 47 87
REMARK H PARENT 5 9 71 40 39 51
REMARK Flexibility Score: inf
ROOT
ATOM      1  C   UNL A   1      35.512  20.988  25.443  1.00  0.00     0.274 C 
ENDROOT
BRANCH   1   2
ATOM      2  O   UNL A   1      34.966  22.003  24.576  1.00  0.00    -0.461 OA
BRANCH   2   3
ATOM      3  C   UNL A   1      34.688  23.181  25.198  1.00  0.00     0.329 C 
ATOM      4  O   UNL A   1      35.314  23.618  26.162  1.00  0.00    -0.250 OA
BRANCH   3   5
ATOM      5  C   UNL A   1      33.536  23.976  24.543  1.00  0.00     0.195 C 
BRANCH   5   6
ATOM      6  N   UNL A   1      33.852  24.679  23.306  1.00  0.00    -0.342 N 
ATOM      7  C   UNL A   1      33.616  25.950  22.886  1.00  0.00     0.226 C 
ATOM      8  O   UNL A   1      33.800  26.157  21.682  1.00  0.00    -0.274 OA
ATOM      9  H   UNL A   1      34.331  24.126  22.647  1.00  0.00     0.164 HD
BRANCH   7  10
ATOM     10  C   UNL A   1      33.153  27.085  23.828  1.00  0.00     0.046 C 
ATOM     11  C   UNL A   1      33.638  28.470  23.372  1.00  0.00     0.022 C 
ATOM     12  C   UNL A   1      33.689  26.832  25.262  1.00  0.00     0.016 C 
ATOM     13  C   UNL A   1      31.630  27.046  24.042  1.00  0.00     0.016 C 
ATOM     14  C   UNL A   1      32.702  27.537  26.179  1.00  0.00     0.001 C 
ATOM     15  C   UNL A   1      31.355  27.272  25.531  1.00  0.00     0.001 C 
ENDBRANCH   7  10
ENDBRANCH   5   6
BRANCH   5  16
ATOM     16  C   UNL A   1      32.373  23.036  24.277  1.00  0.00     0.023 C 
ATOM     17  C   UNL A   1      31.029  23.278  24.926  1.00  0.00     0.007 C 
ATOM     18  C   UNL A   1      31.176  23.420  23.438  1.00  0.00     0.007 C 
ENDBRANCH   5  16
ENDBRANCH   3   5
ENDBRANCH   2   3
ENDBRANCH   1   2
BRANCH   1  19
ATOM     19  C   UNL A   1      36.885  20.513  24.969  1.00  0.00     0.275 C 
BRANCH  19  20
ATOM     20  O   UNL A   1      37.866  21.562  25.088  1.00  0.00    -0.458 OA
BRANCH  20  21
ATOM     21  C   UNL A   1      38.843  21.329  25.994  1.00  0.00     0.338 C 
ATOM     22  O   UNL A   1      39.294  20.242  26.327  1.00  0.00    -0.246 OA
BRANCH  21  23
ATOM     23  C   UNL A   1      39.355  22.581  26.580  1.00  0.00     0.060 A 
ATOM     24  C   UNL A   1      38.853  23.823  26.194  1.00  0.00     0.016 A 
ATOM     25  C   UNL A   1      40.496  22.504  27.382  1.00  0.00     0.016 A 
ATOM     26  C   UNL A   1      39.557  24.986  26.517  1.00  0.00     0.010 A 
ATOM     27  C   UNL A   1      41.151  23.673  27.776  1.00  0.00     0.010 A 
ATOM     28  C   UNL A   1      40.715  24.921  27.310  1.00  0.00    -0.014 A 
BRANCH  28  29
ATOM     29  C   UNL A   1      41.463  26.155  27.667  1.00  0.00     0.031 A 
ATOM     30  C   UNL A   1      40.824  27.240  28.493  1.00  0.00     0.074 A 
ATOM     31  C   UNL A   1      42.723  26.315  27.223  1.00  0.00     0.049 A 
ATOM     32  N   UNL A   1      41.293  28.422  28.809  1.00  0.00    -0.248 NA
ATOM     33  C   UNL A   1      39.482  26.966  29.029  1.00  0.00     0.031 C 
ATOM     34  C   UNL A   1      43.457  25.345  26.411  1.00  0.00     0.029 A 
ATOM     35  N   UNL A   1      43.607  27.349  27.392  1.00  0.00    -0.354 N 
ATOM     36  C   UNL A   1      40.294  29.047  29.542  1.00  0.00     0.074 A 
ATOM     37  C   UNL A   1      39.189  28.113  29.629  1.00  0.00     0.031 C 
ATOM     38  C   UNL A   1      44.690  25.818  26.174  1.00  0.00     0.029 A 
ATOM     39  C   UNL A   1      44.813  27.145  26.771  1.00  0.00     0.049 A 
ATOM     40  H   UNL A   1      43.396  28.162  27.907  1.00  0.00     0.167 HD
ATOM     41  C   UNL A   1      40.296  30.287  30.090  1.00  0.00     0.037 A 
ATOM     42  C   UNL A   1      45.892  27.940  26.671  1.00  0.00     0.037 A 
ATOM     43  C   UNL A   1      41.405  31.206  30.039  1.00  0.00     0.049 A 
ATOM     44  C   UNL A   1      45.878  29.298  27.303  1.00  0.00     0.074 A 
ATOM     45  C   UNL A   1      41.506  32.469  30.601  1.00  0.00     0.029 A 
ATOM     46  N   UNL A   1      42.608  30.959  29.398  1.00  0.00    -0.354 N 
ATOM     47  N   UNL A   1      44.920  29.883  27.977  1.00  0.00    -0.248 NA
ATOM     48  C   UNL A   1      47.091  30.112  27.148  1.00  0.00     0.031 C 
ATOM     49  C   UNL A   1      42.762  32.996  30.277  1.00  0.00     0.029 A 
ATOM     50  C   UNL A   1      43.453  32.050  29.539  1.00  0.00     0.049 A 
ATOM     51  H   UNL A   1      42.830  30.132  28.913  1.00  0.00     0.167 HD
ATOM     52  C   UNL A   1      45.406  31.133  28.323  1.00  0.00     0.074 A 
ATOM     53  C   UNL A   1      46.758  31.214  27.806  1.00  0.00     0.031 C 
ATOM     54  C   UNL A   1      44.785  32.128  29.001  1.00  0.00     0.037 A 
BRANCH  41  55
ATOM     55  C   UNL A   1      39.049  30.743  30.785  1.00  0.00     0.064 A 
ATOM     56  C   UNL A   1      37.998  31.350  30.086  1.00  0.00     0.173 A 
ATOM     57  C   UNL A   1      38.878  30.504  32.157  1.00  0.00     0.173 A 
ATOM     58  F   UNL A   1      38.119  31.609  28.776  1.00  0.00    -0.203 F 
ATOM     59  C   UNL A   1      36.821  31.712  30.739  1.00  0.00     0.198 A 
ATOM     60  C   UNL A   1      37.695  30.850  32.803  1.00  0.00     0.198 A 
ATOM     61  F   UNL A   1      39.856  29.919  32.868  1.00  0.00    -0.203 F 
ATOM     62  F   UNL A   1      35.835  32.310  30.057  1.00  0.00    -0.200 F 
ATOM     63  C   UNL A   1      36.668  31.455  32.094  1.00  0.00     0.200 A 
ATOM     64  F   UNL A   1      37.545  30.594  34.110  1.00  0.00    -0.200 F 
ATOM     65  F   UNL A   1      35.531  31.793  32.717  1.00  0.00    -0.200 F 
ENDBRANCH  41  55
BRANCH  42  66
ATOM     66  C   UNL A   1      47.077  27.450  25.928  1.00  0.00     0.064 A 
ATOM     67  C   UNL A   1      47.215  27.700  24.558  1.00  0.00     0.173 A 
ATOM     68  C   UNL A   1      48.120  26.783  26.587  1.00  0.00     0.173 A 
ATOM     69  F   UNL A   1      46.232  28.320  23.889  1.00  0.00    -0.203 F 
ATOM     70  C   UNL A   1      48.360  27.305  23.871  1.00  0.00     0.198 A 
ATOM     71  C   UNL A   1      49.272  26.407  25.903  1.00  0.00     0.198 A 
ATOM     72  F   UNL A   1      48.030  26.530  27.900  1.00  0.00    -0.203 F 
ATOM     73  F   UNL A   1      48.466  27.545  22.557  1.00  0.00    -0.200 F 
ATOM     74  C   UNL A   1      49.391  26.667  24.546  1.00  0.00     0.200 A 
ATOM     75  F   UNL A   1      50.271  25.804  26.560  1.00  0.00    -0.200 F 
ATOM     76  F   UNL A   1      50.501  26.306  23.888  1.00  0.00    -0.200 F 
ENDBRANCH  42  66
BRANCH  54  77
ATOM     77  C   UNL A   1      45.564  33.390  29.211  1.00  0.00     0.064 A 
ATOM     78  C   UNL A   1      46.386  33.556  30.334  1.00  0.00     0.173 A 
ATOM     79  C   UNL A   1      45.491  34.438  28.283  1.00  0.00     0.173 A 
ATOM     80  F   UNL A   1      46.472  32.585  31.257  1.00  0.00    -0.203 F 
ATOM     81  C   UNL A   1      47.091  34.740  30.535  1.00  0.00     0.198 A 
ATOM     82  C   UNL A   1      46.210  35.614  28.478  1.00  0.00     0.198 A 
ATOM     83  F   UNL A   1      44.717  34.324  27.193  1.00  0.00    -0.203 F 
ATOM     84  F   UNL A   1      47.837  34.895  31.637  1.00  0.00    -0.200 F 
ATOM     85  C   UNL A   1      47.003  35.766  29.606  1.00  0.00     0.200 A 
ATOM     86  F   UNL A   1      46.127  36.605  27.580  1.00  0.00    -0.200 F 
ATOM     87  F   UNL A   1      47.675  36.908  29.805  1.00  0.00    -0.200 F 
ENDBRANCH  54  77
ENDBRANCH  28  29
ENDBRANCH  21  23
ENDBRANCH  20  21
ENDBRANCH  19  20
ENDBRANCH   1  19
TORSDOF 14
ENDMDL
MODEL 2
REMARK VINA RESULT:     -10.9      5.176      8.648
REMARK SMILES CC1(C(=O)N[C@H](C(=O)OCCOC(=O)c2ccc(-c3c4nc(c(-c5c(F)c(F)c(F)c(F)c5F)c5ccc([nH]5)c(-c5c(F)c(F)c(F)c(F)c5F)c5nc(c(-c6c(F)c(F)c(F)c(F)c6F)c6ccc3[nH]6)C=C5)C=C4)cc2)C2CC2)CCCC1
REMARK SMILES IDX 10 1 9 2 7 3 8 4 6 5 5 6 3 7 4 8 2 10 1 11 81 12 84 13 82 14
REMARK SMILES IDX 83 15 78 16 79 17 80 18 11 19 12 20 13 21 14 22 15 23 16 24
REMARK SMILES IDX 77 25 17 26 76 27 18 28 19 29 20 30 70 31 21 32 75 33 69 34
REMARK SMILES IDX 71 35 22 36 74 37 68 38 67 39 23 41 55 42 35 43 54 44 36 45
REMARK SMILES IDX 39 46 53 47 72 48 37 49 38 50 52 52 73 53 40 54 24 55 25 56
REMARK SMILES IDX 33 57 26 58 27 59 31 60 34 61 28 62 29 63 32 64 30 65 56 66
REMARK SMILES IDX 57 67 65 68 58 69 59 70 63 71 66 72 60 73 61 74 64 75 62 76
REMARK SMILES IDX 41 77 42 78 50 79 43 80 44 81 48 82 51 83 45 84 46 85 49 86
REMARK SMILES IDX 47 87
REMARK H PARENT 5 9 71 40 39 51
REMARK Flexibility Score: inf
ROOT
ATOM      1  C   UNL A   1      33.201  34.218  28.398  1.00  0.00     0.274 C 
ENDROOT
BRANCH   1   2
ATOM      2  O   UNL A   1      34.475  34.587  28.964  1.00  0.00    -0.461 OA
BRANCH   2   3
ATOM      3  C   UNL A   1      34.575  34.379  30.304  1.00  0.00     0.329 C 
ATOM      4  O   UNL A   1      33.653  34.549  31.101  1.00  0.00    -0.250 OA
BRANCH   3   5
ATOM      5  C   UNL A   1      35.952  33.839  30.752  1.00  0.00     0.195 C 
BRANCH   5   6
ATOM      6  N   UNL A   1      35.952  32.565  31.461  1.00  0.00    -0.342 N 
ATOM      7  C   UNL A   1      36.430  32.192  32.677  1.00  0.00     0.226 C 
ATOM      8  O   UNL A   1      36.484  30.974  32.878  1.00  0.00    -0.274 OA
ATOM      9  H   UNL A   1      35.521  31.834  30.962  1.00  0.00     0.164 HD
BRANCH   7  10
ATOM     10  C   UNL A   1      36.877  33.199  33.761  1.00  0.00     0.046 C 
ATOM     11  C   UNL A   1      35.737  34.122  34.220  1.00  0.00     0.022 C 
ATOM     12  C   UNL A   1      38.029  34.084  33.216  1.00  0.00     0.016 C 
ATOM     13  C   UNL A   1      37.553  32.482  34.944  1.00  0.00     0.016 C 
ATOM     14  C   UNL A   1      38.806  34.517  34.449  1.00  0.00     0.001 C 
ATOM     15  C   UNL A   1      38.797  33.284  35.334  1.00  0.00     0.001 C 
ENDBRANCH   7  10
ENDBRANCH   5   6
BRANCH   5  16
ATOM     16  C   UNL A   1      36.853  33.711  29.536  1.00  0.00     0.023 C 
ATOM     17  C   UNL A   1      38.196  34.405  29.502  1.00  0.00     0.007 C 
ATOM     18  C   UNL A   1      38.132  32.905  29.538  1.00  0.00     0.007 C 
ENDBRANCH   5  16
ENDBRANCH   3   5
ENDBRANCH   2   3
ENDBRANCH   1   2
BRANCH   1  19
ATOM     19  C   UNL A   1      33.278  32.894  27.638  1.00  0.00     0.275 C 
BRANCH  19  20
ATOM     20  O   UNL A   1      34.452  32.147  28.013  1.00  0.00    -0.458 OA
BRANCH  20  21
ATOM     21  C   UNL A   1      34.450  30.851  27.628  1.00  0.00     0.338 C 
ATOM     22  O   UNL A   1      33.594  30.281  26.966  1.00  0.00    -0.246 OA
BRANCH  21  23
ATOM     23  C   UNL A   1      35.650  30.138  28.102  1.00  0.00     0.060 A 
ATOM     24  C   UNL A   1      35.763  29.701  29.422  1.00  0.00     0.016 A 
ATOM     25  C   UNL A   1      36.757  30.092  27.251  1.00  0.00     0.016 A 
ATOM     26  C   UNL A   1      37.011  29.321  29.921  1.00  0.00     0.010 A 
ATOM     27  C   UNL A   1      37.985  29.630  27.729  1.00  0.00     0.010 A 
ATOM     28  C   UNL A   1      38.136  29.285  29.080  1.00  0.00    -0.014 A 
BRANCH  28  29
ATOM     29  C   UNL A   1      39.464  28.871  29.602  1.00  0.00     0.031 A 
ATOM     30  C   UNL A   1      40.174  29.682  30.653  1.00  0.00     0.074 A 
ATOM     31  C   UNL A   1      40.051  27.765  29.108  1.00  0.00     0.049 A 
ATOM     32  N   UNL A   1      41.378  29.523  31.145  1.00  0.00    -0.248 NA
ATOM     33  C   UNL A   1      39.440  30.822  31.222  1.00  0.00     0.031 C 
ATOM     34  C   UNL A   1      39.476  26.894  28.084  1.00  0.00     0.029 A 
ATOM     35  N   UNL A   1      41.260  27.188  29.399  1.00  0.00    -0.354 N 
ATOM     36  C   UNL A   1      41.563  30.562  32.047  1.00  0.00     0.074 A 
ATOM     37  C   UNL A   1      40.345  31.347  32.040  1.00  0.00     0.031 C 
ATOM     38  C   UNL A   1      40.319  25.876  27.852  1.00  0.00     0.029 A 
ATOM     39  C   UNL A   1      41.515  26.055  28.670  1.00  0.00     0.049 A 
ATOM     40  H   UNL A   1      41.886  27.552  30.067  1.00  0.00     0.167 HD
ATOM     41  C   UNL A   1      42.650  30.837  32.809  1.00  0.00     0.037 A 
ATOM     42  C   UNL A   1      42.597  25.257  28.641  1.00  0.00     0.037 A 
ATOM     43  C   UNL A   1      43.849  30.039  32.849  1.00  0.00     0.049 A 
ATOM     44  C   UNL A   1      43.778  25.571  29.508  1.00  0.00     0.074 A 
ATOM     45  C   UNL A   1      44.985  30.225  33.622  1.00  0.00     0.029 A 
ATOM     46  N   UNL A   1      44.067  28.900  32.091  1.00  0.00    -0.354 N 
ATOM     47  N   UNL A   1      43.945  26.566  30.342  1.00  0.00    -0.248 NA
ATOM     48  C   UNL A   1      44.924  24.657  29.420  1.00  0.00     0.031 C 
ATOM     49  C   UNL A   1      45.899  29.211  33.312  1.00  0.00     0.029 A 
ATOM     50  C   UNL A   1      45.322  28.379  32.369  1.00  0.00     0.049 A 
ATOM     51  H   UNL A   1      43.426  28.517  31.450  1.00  0.00     0.167 HD
ATOM     52  C   UNL A   1      45.215  26.406  30.875  1.00  0.00     0.074 A 
ATOM     53  C   UNL A   1      45.766  25.201  30.288  1.00  0.00     0.031 C 
ATOM     54  C   UNL A   1      45.868  27.193  31.763  1.00  0.00     0.037 A 
BRANCH  41  55
ATOM     55  C   UNL A   1      42.609  32.070  33.660  1.00  0.00     0.064 A 
ATOM     56  C   UNL A   1      42.276  32.014  35.019  1.00  0.00     0.173 A 
ATOM     57  C   UNL A   1      42.975  33.312  33.121  1.00  0.00     0.173 A 
ATOM     58  F   UNL A   1      41.908  30.851  35.577  1.00  0.00    -0.203 F 
ATOM     59  C   UNL A   1      42.302  33.162  35.809  1.00  0.00     0.198 A 
ATOM     60  C   UNL A   1      43.018  34.454  33.915  1.00  0.00     0.198 A 
ATOM     61  F   UNL A   1      43.308  33.415  31.824  1.00  0.00    -0.203 F 
ATOM     62  F   UNL A   1      41.961  33.091  37.103  1.00  0.00    -0.200 F 
ATOM     63  C   UNL A   1      42.681  34.378  35.258  1.00  0.00     0.200 A 
ATOM     64  F   UNL A   1      43.392  35.627  33.385  1.00  0.00    -0.200 F 
ATOM     65  F   UNL A   1      42.717  35.478  36.022  1.00  0.00    -0.200 F 
ENDBRANCH  41  55
BRANCH  42  66
ATOM     66  C   UNL A   1      42.596  24.080  27.741  1.00  0.00     0.064 A 
ATOM     67  C   UNL A   1      42.980  24.204  26.401  1.00  0.00     0.173 A 
ATOM     68  C   UNL A   1      42.274  22.802  28.221  1.00  0.00     0.173 A 
ATOM     69  F   UNL A   1      43.279  25.412  25.900  1.00  0.00    -0.203 F 
ATOM     70  C   UNL A   1      43.050  23.088  25.571  1.00  0.00     0.198 A 
ATOM     71  C   UNL A   1      42.363  21.685  27.395  1.00  0.00     0.198 A 
ATOM     72  F   UNL A   1      41.906  22.639  29.500  1.00  0.00    -0.203 F 
ATOM     73  F   UNL A   1      43.410  23.232  24.288  1.00  0.00    -0.200 F 
ATOM     74  C   UNL A   1      42.750  21.829  26.071  1.00  0.00     0.200 A 
ATOM     75  F   UNL A   1      42.087  20.470  27.885  1.00  0.00    -0.200 F 
ATOM     76  F   UNL A   1      42.838  20.753  25.277  1.00  0.00    -0.200 F 
ENDBRANCH  42  66
BRANCH  54  77
ATOM     77  C   UNL A   1      47.254  26.774  32.143  1.00  0.00     0.064 A 
ATOM     78  C   UNL A   1      47.476  25.863  33.185  1.00  0.00     0.173 A 
ATOM     79  C   UNL A   1      48.368  27.284  31.462  1.00  0.00     0.173 A 
ATOM     80  F   UNL A   1      46.440  25.363  33.877  1.00  0.00    -0.203 F 
ATOM     81  C   UNL A   1      48.768  25.493  33.549  1.00  0.00     0.198 A 
ATOM     82  C   UNL A   1      49.658  26.900  31.817  1.00  0.00     0.198 A 
ATOM     83  F   UNL A   1      48.205  28.159  30.458  1.00  0.00    -0.203 F 
ATOM     84  F   UNL A   1      48.960  24.654  34.575  1.00  0.00    -0.200 F 
ATOM     85  C   UNL A   1      49.857  26.010  32.863  1.00  0.00     0.200 A 
ATOM     86  F   UNL A   1      50.711  27.398  31.153  1.00  0.00    -0.200 F 
ATOM     87  F   UNL A   1      51.101  25.661  33.220  1.00  0.00    -0.200 F 
ENDBRANCH  54  77
ENDBRANCH  28  29
ENDBRANCH  21  23
ENDBRANCH  20  21
ENDBRANCH  19  20
ENDBRANCH   1  19
TORSDOF 14
ENDMDL
MODEL 3
REMARK VINA RESULT:     -10.9      4.386      9.670
REMARK SMILES CC1(C(=O)N[C@H](C(=O)OCCOC(=O)c2ccc(-c3c4nc(c(-c5c(F)c(F)c(F)c(F)c5F)c5ccc([nH]5)c(-c5c(F)c(F)c(F)c(F)c5F)c5nc(c(-c6c(F)c(F)c(F)c(F)c6F)c6ccc3[nH]6)C=C5)C=C4)cc2)C2CC2)CCCC1
REMARK SMILES IDX 10 1 9 2 7 3 8 4 6 5 5 6 3 7 4 8 2 10 1 11 81 12 84 13 82 14
REMARK SMILES IDX 83 15 78 16 79 17 80 18 11 19 12 20 13 21 14 22 15 23 16 24
REMARK SMILES IDX 77 25 17 26 76 27 18 28 19 29 20 30 70 31 21 32 75 33 69 34
REMARK SMILES IDX 71 35 22 36 74 37 68 38 67 39 23 41 55 42 35 43 54 44 36 45
REMARK SMILES IDX 39 46 53 47 72 48 37 49 38 50 52 52 73 53 40 54 24 55 25 56
REMARK SMILES IDX 33 57 26 58 27 59 31 60 34 61 28 62 29 63 32 64 30 65 56 66
REMARK SMILES IDX 57 67 65 68 58 69 59 70 63 71 66 72 60 73 61 74 64 75 62 76
REMARK SMILES IDX 41 77 42 78 50 79 43 80 44 81 48 82 51 83 45 84 46 85 49 86
REMARK SMILES IDX 47 87
REMARK H PARENT 5 9 71 40 39 51
REMARK Flexibility Score: inf
ROOT
ATOM      1  C   UNL A   1      31.777  28.616  26.946  1.00  0.00     0.274 C 
ENDROOT
BRANCH   1   2
ATOM      2  O   UNL A   1      32.711  28.056  26.001  1.00  0.00    -0.461 OA
BRANCH   2   3
ATOM      3  C   UNL A   1      32.147  27.639  24.835  1.00  0.00     0.329 C 
ATOM      4  O   UNL A   1      31.755  28.394  23.947  1.00  0.00    -0.250 OA
BRANCH   3   5
ATOM      5  C   UNL A   1      32.093  26.101  24.682  1.00  0.00     0.195 C 
BRANCH   5   6
ATOM      6  N   UNL A   1      31.619  25.349  25.838  1.00  0.00    -0.342 N 
ATOM      7  C   UNL A   1      32.056  24.207  26.432  1.00  0.00     0.226 C 
ATOM      8  O   UNL A   1      31.281  23.702  27.251  1.00  0.00    -0.274 OA
ATOM      9  H   UNL A   1      30.830  25.746  26.273  1.00  0.00     0.164 HD
BRANCH   7  10
ATOM     10  C   UNL A   1      33.428  23.563  26.130  1.00  0.00     0.046 C 
ATOM     11  C   UNL A   1      34.025  22.839  27.348  1.00  0.00     0.022 C 
ATOM     12  C   UNL A   1      34.434  24.651  25.673  1.00  0.00     0.016 C 
ATOM     13  C   UNL A   1      33.355  22.650  24.893  1.00  0.00     0.016 C 
ATOM     14  C   UNL A   1      35.441  23.913  24.806  1.00  0.00     0.001 C 
ATOM     15  C   UNL A   1      34.594  22.917  24.035  1.00  0.00     0.001 C 
ENDBRANCH   7  10
ENDBRANCH   5   6
BRANCH   5  16
ATOM     16  C   UNL A   1      31.220  25.751  23.491  1.00  0.00     0.023 C 
ATOM     17  C   UNL A   1      31.757  24.880  22.377  1.00  0.00     0.007 C 
ATOM     18  C   UNL A   1      30.654  24.369  23.260  1.00  0.00     0.007 C 
ENDBRANCH   5  16
ENDBRANCH   3   5
ENDBRANCH   2   3
ENDBRANCH   1   2
BRANCH   1  19
ATOM     19  C   UNL A   1      31.712  30.140  26.848  1.00  0.00     0.275 C 
BRANCH  19  20
ATOM     20  O   UNL A   1      32.966  30.684  26.394  1.00  0.00    -0.458 OA
BRANCH  20  21
ATOM     21  C   UNL A   1      33.529  31.590  27.225  1.00  0.00     0.338 C 
ATOM     22  O   UNL A   1      33.063  32.669  27.562  1.00  0.00    -0.246 OA
BRANCH  21  23
ATOM     23  C   UNL A   1      34.836  31.131  27.729  1.00  0.00     0.060 A 
ATOM     24  C   UNL A   1      35.051  29.800  28.087  1.00  0.00     0.016 A 
ATOM     25  C   UNL A   1      35.793  32.102  28.034  1.00  0.00     0.016 A 
ATOM     26  C   UNL A   1      36.173  29.460  28.848  1.00  0.00     0.010 A 
ATOM     27  C   UNL A   1      36.956  31.745  28.719  1.00  0.00     0.010 A 
ATOM     28  C   UNL A   1      37.135  30.430  29.173  1.00  0.00    -0.014 A 
BRANCH  28  29
ATOM     29  C   UNL A   1      38.337  30.073  29.972  1.00  0.00     0.031 A 
ATOM     30  C   UNL A   1      39.401  29.166  29.412  1.00  0.00     0.074 A 
ATOM     31  C   UNL A   1      38.461  30.548  31.224  1.00  0.00     0.049 A 
ATOM     32  N   UNL A   1      40.458  28.670  30.006  1.00  0.00    -0.248 NA
ATOM     33  C   UNL A   1      39.256  28.758  28.007  1.00  0.00     0.031 C 
ATOM     34  C   UNL A   1      37.502  31.430  31.888  1.00  0.00     0.029 A 
ATOM     35  N   UNL A   1      39.444  30.356  32.160  1.00  0.00    -0.354 N 
ATOM     36  C   UNL A   1      41.082  27.862  29.065  1.00  0.00     0.074 A 
ATOM     37  C   UNL A   1      40.286  27.933  27.856  1.00  0.00     0.031 C 
ATOM     38  C   UNL A   1      37.957  31.726  33.115  1.00  0.00     0.029 A 
ATOM     39  C   UNL A   1      39.210  31.012  33.342  1.00  0.00     0.049 A 
ATOM     40  H   UNL A   1      40.242  29.801  32.001  1.00  0.00     0.167 HD
ATOM     41  C   UNL A   1      42.211  27.125  29.199  1.00  0.00     0.037 A 
ATOM     42  C   UNL A   1      39.908  31.023  34.491  1.00  0.00     0.037 A 
ATOM     43  C   UNL A   1      43.028  27.079  30.385  1.00  0.00     0.049 A 
ATOM     44  C   UNL A   1      41.165  30.217  34.607  1.00  0.00     0.074 A 
ATOM     45  C   UNL A   1      44.211  26.387  30.594  1.00  0.00     0.029 A 
ATOM     46  N   UNL A   1      42.752  27.757  31.562  1.00  0.00    -0.354 N 
ATOM     47  N   UNL A   1      41.732  29.444  33.715  1.00  0.00    -0.248 NA
ATOM     48  C   UNL A   1      41.872  30.275  35.893  1.00  0.00     0.031 C 
ATOM     49  C   UNL A   1      44.636  26.628  31.905  1.00  0.00     0.029 A 
ATOM     50  C   UNL A   1      43.734  27.491  32.504  1.00  0.00     0.049 A 
ATOM     51  H   UNL A   1      41.973  28.340  31.708  1.00  0.00     0.167 HD
ATOM     52  C   UNL A   1      42.858  28.917  34.329  1.00  0.00     0.074 A 
ATOM     53  C   UNL A   1      42.908  29.481  35.664  1.00  0.00     0.031 C 
ATOM     54  C   UNL A   1      43.762  28.039  33.834  1.00  0.00     0.037 A 
BRANCH  41  55
ATOM     55  C   UNL A   1      42.635  26.284  28.033  1.00  0.00     0.064 A 
ATOM     56  C   UNL A   1      42.139  24.988  27.842  1.00  0.00     0.173 A 
ATOM     57  C   UNL A   1      43.496  26.811  27.058  1.00  0.00     0.173 A 
ATOM     58  F   UNL A   1      41.322  24.437  28.751  1.00  0.00    -0.203 F 
ATOM     59  C   UNL A   1      42.497  24.244  26.719  1.00  0.00     0.198 A 
ATOM     60  C   UNL A   1      43.838  26.073  25.929  1.00  0.00     0.198 A 
ATOM     61  F   UNL A   1      43.993  28.051  27.195  1.00  0.00    -0.203 F 
ATOM     62  F   UNL A   1      42.027  22.999  26.565  1.00  0.00    -0.200 F 
ATOM     63  C   UNL A   1      43.340  24.790  25.761  1.00  0.00     0.200 A 
ATOM     64  F   UNL A   1      44.646  26.604  25.000  1.00  0.00    -0.200 F 
ATOM     65  F   UNL A   1      43.673  24.077  24.677  1.00  0.00    -0.200 F 
ENDBRANCH  41  55
BRANCH  42  66
ATOM     66  C   UNL A   1      39.410  31.837  35.625  1.00  0.00     0.064 A 
ATOM     67  C   UNL A   1      38.487  31.307  36.534  1.00  0.00     0.173 A 
ATOM     68  C   UNL A   1      39.896  33.132  35.855  1.00  0.00     0.173 A 
ATOM     69  F   UNL A   1      37.986  30.078  36.338  1.00  0.00    -0.203 F 
ATOM     70  C   UNL A   1      38.071  32.042  37.641  1.00  0.00     0.198 A 
ATOM     71  C   UNL A   1      39.495  33.858  36.973  1.00  0.00     0.198 A 
ATOM     72  F   UNL A   1      40.786  33.675  35.012  1.00  0.00    -0.203 F 
ATOM     73  F   UNL A   1      37.179  31.519  38.492  1.00  0.00    -0.200 F 
ATOM     74  C   UNL A   1      38.583  33.313  37.864  1.00  0.00     0.200 A 
ATOM     75  F   UNL A   1      40.001  35.078  37.194  1.00  0.00    -0.200 F 
ATOM     76  F   UNL A   1      38.198  34.011  38.942  1.00  0.00    -0.200 F 
ENDBRANCH  42  66
BRANCH  54  77
ATOM     77  C   UNL A   1      44.876  27.630  34.748  1.00  0.00     0.064 A 
ATOM     78  C   UNL A   1      44.761  26.499  35.569  1.00  0.00     0.173 A 
ATOM     79  C   UNL A   1      46.066  28.369  34.802  1.00  0.00     0.173 A 
ATOM     80  F   UNL A   1      43.632  25.772  35.563  1.00  0.00    -0.203 F 
ATOM     81  C   UNL A   1      45.791  26.136  36.433  1.00  0.00     0.198 A 
ATOM     82  C   UNL A   1      47.100  27.993  35.655  1.00  0.00     0.198 A 
ATOM     83  F   UNL A   1      46.221  29.458  34.035  1.00  0.00    -0.203 F 
ATOM     84  F   UNL A   1      45.644  25.077  37.240  1.00  0.00    -0.200 F 
ATOM     85  C   UNL A   1      46.959  26.881  36.473  1.00  0.00     0.200 A 
ATOM     86  F   UNL A   1      48.230  28.712  35.693  1.00  0.00    -0.200 F 
ATOM     87  F   UNL A   1      47.946  26.535  37.311  1.00  0.00    -0.200 F 
ENDBRANCH  54  77
ENDBRANCH  28  29
ENDBRANCH  21  23
ENDBRANCH  20  21
ENDBRANCH  19  20
ENDBRANCH   1  19
TORSDOF 14
ENDMDL
