MODEL 1
REMARK VINA RESULT:     -13.0      0.000      0.000
REMARK SMILES Cc1onc(-c2cccc(Br)c2)c1C(=O)OCCOC(=O)c1ccc(-c2c3nc(c(-c4c(F)c(F)c(F)c(F)c4F)c4ccc([nH]4)c(-c4c(F)c(F)c(F)c(F)c4F)c4nc(c(-c5c(F)c(F)c(F)c(F)c5F)c5ccc2[nH]5)C=C4)C=C3)cc1
REMARK SMILES IDX 18 1 17 2 16 3 14 4 15 5 13 6 1 7 2 8 3 9 4 10 5 11 6 12
REMARK SMILES IDX 7 13 12 14 8 15 10 16 9 17 11 18 19 19 20 20 21 21 22 22
REMARK SMILES IDX 23 23 84 24 24 25 83 26 25 27 26 28 27 29 77 30 28 31 82 32
REMARK SMILES IDX 76 33 78 34 29 35 81 36 75 37 74 38 30 40 62 41 42 42 61 43
REMARK SMILES IDX 43 44 46 45 60 46 79 47 44 48 45 49 59 51 80 52 47 53 31 54
REMARK SMILES IDX 32 55 40 56 33 57 34 58 38 59 41 60 35 61 36 62 39 63 37 64
REMARK SMILES IDX 63 65 64 66 72 67 65 68 66 69 70 70 73 71 67 72 68 73 71 74
REMARK SMILES IDX 69 75 48 76 49 77 57 78 50 79 51 80 55 81 58 82 52 83 53 84
REMARK SMILES IDX 56 85 54 86
REMARK H PARENT 78 39 46 50
REMARK Flexibility Score: inf
ROOT
ATOM      1  C   UNL A   1      31.425  29.364  25.078  1.00  0.00     0.275 C 
ENDROOT
BRANCH   1   2
ATOM      2  C   UNL A   1      31.424  28.069  25.889  1.00  0.00     0.275 C 
BRANCH   2   3
ATOM      3  O   UNL A   1      31.581  26.940  24.999  1.00  0.00    -0.458 OA
BRANCH   3   4
ATOM      4  C   UNL A   1      32.855  26.534  24.717  1.00  0.00     0.344 C 
ATOM      5  O   UNL A   1      33.745  26.432  25.549  1.00  0.00    -0.246 OA
BRANCH   4   6
ATOM      6  C   UNL A   1      33.046  26.263  23.309  1.00  0.00     0.130 A 
ATOM      7  C   UNL A   1      34.014  28.586  22.610  1.00  0.00     0.092 C 
ATOM      8  C   UNL A   1      33.534  27.198  22.429  1.00  0.00     0.148 A 
ATOM      9  O   UNL A   1      33.654  26.635  21.198  1.00  0.00    -0.360 OA
ATOM     10  N   UNL A   1      33.274  25.298  21.251  1.00  0.00    -0.079 NA
ATOM     11  C   UNL A   1      32.938  25.057  22.525  1.00  0.00     0.128 A 
BRANCH  11  12
ATOM     12  C   UNL A   1      32.661  23.695  23.027  1.00  0.00     0.006 A 
ATOM     13  C   UNL A   1      31.177  23.344  24.007  1.00  0.00     0.010 A 
ATOM     14  C   UNL A   1      34.138  22.819  23.424  1.00  0.00     0.026 A 
ATOM     15  C   UNL A   1      31.361  22.076  25.576  1.00  0.00     0.002 A 
ATOM     16  C   UNL A   1      34.278  21.700  24.780  1.00  0.00     0.018 A 
ATOM     17  C   UNL A   1      32.973  21.333  25.886  1.00  0.00     0.016 A 
ATOM     18  Br  UNL A   1      35.928  20.798  25.001  1.00  0.00    -0.051 Br
ENDBRANCH  11  12
ENDBRANCH   4   6
ENDBRANCH   3   4
ENDBRANCH   2   3
ENDBRANCH   1   2
BRANCH   1  19
ATOM     19  O   UNL A   1      32.600  30.113  25.426  1.00  0.00    -0.458 OA
BRANCH  19  20
ATOM     20  C   UNL A   1      32.396  30.994  26.421  1.00  0.00     0.338 C 
ATOM     21  O   UNL A   1      31.422  31.700  26.620  1.00  0.00    -0.246 OA
BRANCH  20  22
ATOM     22  C   UNL A   1      33.496  30.953  27.369  1.00  0.00     0.060 A 
ATOM     23  C   UNL A   1      34.479  32.424  27.694  1.00  0.00     0.016 A 
ATOM     24  C   UNL A   1      34.222  29.383  27.653  1.00  0.00     0.016 A 
ATOM     25  C   UNL A   1      36.383  32.167  28.337  1.00  0.00     0.010 A 
ATOM     26  C   UNL A   1      35.868  29.164  28.263  1.00  0.00     0.010 A 
ATOM     27  C   UNL A   1      36.984  30.482  28.625  1.00  0.00    -0.014 A 
BRANCH  27  28
ATOM     28  C   UNL A   1      38.247  30.171  29.412  1.00  0.00     0.031 A 
ATOM     29  C   UNL A   1      39.328  29.247  28.892  1.00  0.00     0.074 A 
ATOM     30  C   UNL A   1      38.361  30.562  30.702  1.00  0.00     0.049 A 
ATOM     31  N   UNL A   1      40.348  28.727  29.538  1.00  0.00    -0.248 NA
ATOM     32  C   UNL A   1      39.216  28.785  27.505  1.00  0.00     0.031 C 
ATOM     33  C   UNL A   1      37.317  31.234  31.441  1.00  0.00     0.029 A 
ATOM     34  N   UNL A   1      39.355  30.442  31.650  1.00  0.00    -0.354 N 
ATOM     35  C   UNL A   1      40.953  27.833  28.661  1.00  0.00     0.074 A 
ATOM     36  C   UNL A   1      40.159  27.851  27.449  1.00  0.00     0.031 C 
ATOM     37  C   UNL A   1      37.729  31.605  32.650  1.00  0.00     0.029 A 
ATOM     38  C   UNL A   1      39.055  31.063  32.847  1.00  0.00     0.049 A 
ATOM     39  H   UNL A   1      40.198  29.960  31.488  1.00  0.00     0.167 HD
ATOM     40  C   UNL A   1      42.071  27.083  28.843  1.00  0.00     0.037 A 
ATOM     41  C   UNL A   1      39.719  31.162  34.013  1.00  0.00     0.037 A 
ATOM     42  C   UNL A   1      42.893  27.116  30.033  1.00  0.00     0.049 A 
ATOM     43  C   UNL A   1      41.012  30.432  34.143  1.00  0.00     0.074 A 
ATOM     44  C   UNL A   1      44.094  26.469  30.275  1.00  0.00     0.029 A 
ATOM     45  N   UNL A   1      42.605  27.849  31.178  1.00  0.00    -0.354 N 
ATOM     46  N   UNL A   1      41.585  29.635  33.278  1.00  0.00    -0.248 NA
ATOM     47  C   UNL A   1      41.736  30.585  35.408  1.00  0.00     0.031 C 
ATOM     48  C   UNL A   1      44.518  26.788  31.570  1.00  0.00     0.029 A 
ATOM     49  C   UNL A   1      43.607  27.671  32.124  1.00  0.00     0.049 A 
ATOM     50  H   UNL A   1      41.806  28.412  31.301  1.00  0.00     0.167 HD
ATOM     51  C   UNL A   1      42.740  29.186  33.889  1.00  0.00     0.074 A 
ATOM     52  C   UNL A   1      42.801  29.828  35.189  1.00  0.00     0.031 C 
ATOM     53  C   UNL A   1      43.656  28.309  33.416  1.00  0.00     0.037 A 
BRANCH  40  54
ATOM     54  C   UNL A   1      42.490  26.165  27.720  1.00  0.00     0.064 A 
ATOM     55  C   UNL A   1      41.898  24.905  27.536  1.00  0.00     0.173 A 
ATOM     56  C   UNL A   1      43.472  26.559  26.796  1.00  0.00     0.173 A 
ATOM     57  F   UNL A   1      40.949  24.477  28.381  1.00  0.00    -0.203 F 
ATOM     58  C   UNL A   1      42.311  24.056  26.511  1.00  0.00     0.198 A 
ATOM     59  C   UNL A   1      43.858  25.721  25.749  1.00  0.00     0.198 A 
ATOM     60  F   UNL A   1      44.060  27.761  26.901  1.00  0.00    -0.203 F 
ATOM     61  F   UNL A   1      41.777  22.831  26.404  1.00  0.00    -0.200 F 
ATOM     62  C   UNL A   1      43.287  24.464  25.617  1.00  0.00     0.200 A 
ATOM     63  F   UNL A   1      44.787  26.127  24.873  1.00  0.00    -0.200 F 
ATOM     64  F   UNL A   1      43.685  23.646  24.633  1.00  0.00    -0.200 F 
ENDBRANCH  40  54
BRANCH  41  65
ATOM     65  C   UNL A   1      39.166  31.990  35.122  1.00  0.00     0.064 A 
ATOM     66  C   UNL A   1      38.435  31.392  36.158  1.00  0.00     0.173 A 
ATOM     67  C   UNL A   1      39.410  33.370  35.214  1.00  0.00     0.173 A 
ATOM     68  F   UNL A   1      38.159  30.081  36.110  1.00  0.00    -0.203 F 
ATOM     69  C   UNL A   1      37.968  32.139  37.239  1.00  0.00     0.198 A 
ATOM     70  C   UNL A   1      38.976  34.108  36.315  1.00  0.00     0.198 A 
ATOM     71  F   UNL A   1      40.118  33.993  34.261  1.00  0.00    -0.203 F 
ATOM     72  F   UNL A   1      37.243  31.546  38.197  1.00  0.00    -0.200 F 
ATOM     73  C   UNL A   1      38.251  33.494  37.323  1.00  0.00     0.200 A 
ATOM     74  F   UNL A   1      39.278  35.411  36.406  1.00  0.00    -0.200 F 
ATOM     75  F   UNL A   1      37.823  34.206  38.374  1.00  0.00    -0.200 F 
ENDBRANCH  41  65
BRANCH  53  76
ATOM     76  C   UNL A   1      44.822  28.027  34.310  1.00  0.00     0.064 A 
ATOM     77  C   UNL A   1      45.987  28.809  34.269  1.00  0.00     0.173 A 
ATOM     78  C   UNL A   1      44.780  26.949  35.206  1.00  0.00     0.173 A 
ATOM     79  F   UNL A   1      46.084  29.832  33.406  1.00  0.00    -0.203 F 
ATOM     80  C   UNL A   1      47.079  28.503  35.074  1.00  0.00     0.198 A 
ATOM     81  C   UNL A   1      45.863  26.664  36.029  1.00  0.00     0.198 A 
ATOM     82  F   UNL A   1      43.691  26.170  35.274  1.00  0.00    -0.203 F 
ATOM     83  F   UNL A   1      48.204  29.225  34.977  1.00  0.00    -0.200 F 
ATOM     84  C   UNL A   1      47.015  27.434  35.958  1.00  0.00     0.200 A 
ATOM     85  F   UNL A   1      45.799  25.634  36.884  1.00  0.00    -0.200 F 
ATOM     86  F   UNL A   1      48.069  27.139  36.730  1.00  0.00    -0.200 F 
ENDBRANCH  53  76
ENDBRANCH  27  28
ENDBRANCH  20  22
ENDBRANCH  19  20
ENDBRANCH   1  19
TORSDOF 12
ENDMDL
MODEL 2
REMARK VINA RESULT:     -12.7      4.215      9.500
REMARK SMILES Cc1onc(-c2cccc(Br)c2)c1C(=O)OCCOC(=O)c1ccc(-c2c3nc(c(-c4c(F)c(F)c(F)c(F)c4F)c4ccc([nH]4)c(-c4c(F)c(F)c(F)c(F)c4F)c4nc(c(-c5c(F)c(F)c(F)c(F)c5F)c5ccc2[nH]5)C=C4)C=C3)cc1
REMARK SMILES IDX 18 1 17 2 16 3 14 4 15 5 13 6 1 7 2 8 3 9 4 10 5 11 6 12
REMARK SMILES IDX 7 13 12 14 8 15 10 16 9 17 11 18 19 19 20 20 21 21 22 22
REMARK SMILES IDX 23 23 84 24 24 25 83 26 25 27 26 28 27 29 77 30 28 31 82 32
REMARK SMILES IDX 76 33 78 34 29 35 81 36 75 37 74 38 30 40 62 41 42 42 61 43
REMARK SMILES IDX 43 44 46 45 60 46 79 47 44 48 45 49 59 51 80 52 47 53 31 54
REMARK SMILES IDX 32 55 40 56 33 57 34 58 38 59 41 60 35 61 36 62 39 63 37 64
REMARK SMILES IDX 63 65 64 66 72 67 65 68 66 69 70 70 73 71 67 72 68 73 71 74
REMARK SMILES IDX 69 75 48 76 49 77 57 78 50 79 51 80 55 81 58 82 52 83 53 84
REMARK SMILES IDX 56 85 54 86
REMARK H PARENT 78 39 46 50
REMARK Flexibility Score: inf
ROOT
ATOM      1  C   UNL A   1      35.325  21.008  24.982  1.00  0.00     0.275 C 
ENDROOT
BRANCH   1   2
ATOM      2  C   UNL A   1      35.123  22.251  24.116  1.00  0.00     0.275 C 
BRANCH   2   3
ATOM      3  O   UNL A   1      33.777  22.751  24.293  1.00  0.00    -0.458 OA
BRANCH   3   4
ATOM      4  C   UNL A   1      33.606  23.808  25.143  1.00  0.00     0.344 C 
ATOM      5  O   UNL A   1      34.389  24.743  25.244  1.00  0.00    -0.246 OA
BRANCH   4   6
ATOM      6  C   UNL A   1      32.405  23.686  25.938  1.00  0.00     0.130 A 
ATOM      7  C   UNL A   1      33.372  22.188  27.848  1.00  0.00     0.092 C 
ATOM      8  C   UNL A   1      32.349  22.950  27.098  1.00  0.00     0.148 A 
ATOM      9  O   UNL A   1      31.112  23.071  27.645  1.00  0.00    -0.360 OA
ATOM     10  N   UNL A   1      30.332  23.921  26.868  1.00  0.00    -0.079 NA
ATOM     11  C   UNL A   1      31.113  24.321  25.857  1.00  0.00     0.128 A 
BRANCH  11  12
ATOM     12  C   UNL A   1      30.706  25.386  24.916  1.00  0.00     0.006 A 
ATOM     13  C   UNL A   1      30.828  25.145  23.124  1.00  0.00     0.010 A 
ATOM     14  C   UNL A   1      31.027  26.997  25.556  1.00  0.00     0.026 A 
ATOM     15  C   UNL A   1      31.460  26.710  22.002  1.00  0.00     0.002 A 
ATOM     16  C   UNL A   1      31.555  28.356  24.564  1.00  0.00     0.018 A 
ATOM     17  C   UNL A   1      31.824  28.264  22.837  1.00  0.00     0.016 A 
ATOM     18  Br  UNL A   1      31.778  30.029  25.424  1.00  0.00    -0.051 Br
ENDBRANCH  11  12
ENDBRANCH   4   6
ENDBRANCH   3   4
ENDBRANCH   2   3
ENDBRANCH   1   2
BRANCH   1  19
ATOM     19  O   UNL A   1      36.388  21.274  25.910  1.00  0.00    -0.458 OA
BRANCH  19  20
ATOM     20  C   UNL A   1      37.595  20.880  25.466  1.00  0.00     0.338 C 
ATOM     21  O   UNL A   1      37.879  19.877  24.834  1.00  0.00    -0.246 OA
BRANCH  20  22
ATOM     22  C   UNL A   1      38.596  21.893  25.751  1.00  0.00     0.060 A 
ATOM     23  C   UNL A   1      40.029  21.503  26.767  1.00  0.00     0.016 A 
ATOM     24  C   UNL A   1      38.065  23.561  25.661  1.00  0.00     0.016 A 
ATOM     25  C   UNL A   1      40.917  23.021  27.773  1.00  0.00     0.010 A 
ATOM     26  C   UNL A   1      38.875  24.891  26.500  1.00  0.00     0.010 A 
ATOM     27  C   UNL A   1      40.281  24.703  27.549  1.00  0.00    -0.014 A 
BRANCH  27  28
ATOM     28  C   UNL A   1      41.049  25.947  27.968  1.00  0.00     0.031 A 
ATOM     29  C   UNL A   1      40.414  27.074  28.752  1.00  0.00     0.074 A 
ATOM     30  C   UNL A   1      42.290  26.178  27.483  1.00  0.00     0.049 A 
ATOM     31  N   UNL A   1      40.883  28.279  28.991  1.00  0.00    -0.248 NA
ATOM     32  C   UNL A   1      39.057  26.862  29.268  1.00  0.00     0.031 C 
ATOM     33  C   UNL A   1      42.954  25.331  26.518  1.00  0.00     0.029 A 
ATOM     34  N   UNL A   1      43.217  27.180  27.675  1.00  0.00    -0.354 N 
ATOM     35  C   UNL A   1      39.861  28.981  29.621  1.00  0.00     0.074 A 
ATOM     36  C   UNL A   1      38.730  28.079  29.689  1.00  0.00     0.031 C 
ATOM     37  C   UNL A   1      44.206  25.724  26.296  1.00  0.00     0.029 A 
ATOM     38  C   UNL A   1      44.408  26.968  27.006  1.00  0.00     0.049 A 
ATOM     39  H   UNL A   1      43.047  27.971  28.236  1.00  0.00     0.167 HD
ATOM     40  C   UNL A   1      39.871  30.249  30.108  1.00  0.00     0.037 A 
ATOM     41  C   UNL A   1      45.536  27.692  26.904  1.00  0.00     0.037 A 
ATOM     42  C   UNL A   1      41.024  31.122  30.090  1.00  0.00     0.049 A 
ATOM     43  C   UNL A   1      45.568  29.030  27.560  1.00  0.00     0.074 A 
ATOM     44  C   UNL A   1      41.163  32.385  30.644  1.00  0.00     0.029 A 
ATOM     45  N   UNL A   1      42.243  30.818  29.498  1.00  0.00    -0.354 N 
ATOM     46  N   UNL A   1      44.603  29.647  28.193  1.00  0.00    -0.248 NA
ATOM     47  C   UNL A   1      46.820  29.785  27.469  1.00  0.00     0.031 C 
ATOM     48  C   UNL A   1      42.452  32.853  30.366  1.00  0.00     0.029 A 
ATOM     49  C   UNL A   1      43.138  31.867  29.677  1.00  0.00     0.049 A 
ATOM     50  H   UNL A   1      42.445  29.981  29.020  1.00  0.00     0.167 HD
ATOM     51  C   UNL A   1      45.126  30.867  28.578  1.00  0.00     0.074 A 
ATOM     52  C   UNL A   1      46.507  30.887  28.135  1.00  0.00     0.031 C 
ATOM     53  C   UNL A   1      44.507  31.880  29.227  1.00  0.00     0.037 A 
BRANCH  40  54
ATOM     54  C   UNL A   1      38.596  30.773  30.723  1.00  0.00     0.064 A 
ATOM     55  C   UNL A   1      38.403  30.797  32.114  1.00  0.00     0.173 A 
ATOM     56  C   UNL A   1      37.565  31.287  29.918  1.00  0.00     0.173 A 
ATOM     57  F   UNL A   1      39.354  30.327  32.935  1.00  0.00    -0.203 F 
ATOM     58  C   UNL A   1      37.211  31.258  32.669  1.00  0.00     0.198 A 
ATOM     59  C   UNL A   1      36.388  31.782  30.479  1.00  0.00     0.198 A 
ATOM     60  F   UNL A   1      37.697  31.315  28.583  1.00  0.00    -0.203 F 
ATOM     61  F   UNL A   1      37.028  31.204  33.996  1.00  0.00    -0.200 F 
ATOM     62  C   UNL A   1      36.206  31.753  31.854  1.00  0.00     0.200 A 
ATOM     63  F   UNL A   1      35.426  32.280  29.690  1.00  0.00    -0.200 F 
ATOM     64  F   UNL A   1      35.060  32.196  32.390  1.00  0.00    -0.200 F 
ENDBRANCH  40  54
BRANCH  41  65
ATOM     65  C   UNL A   1      46.711  27.149  26.165  1.00  0.00     0.064 A 
ATOM     66  C   UNL A   1      46.918  27.484  24.819  1.00  0.00     0.173 A 
ATOM     67  C   UNL A   1      47.683  26.353  26.790  1.00  0.00     0.173 A 
ATOM     68  F   UNL A   1      46.012  28.228  24.168  1.00  0.00    -0.203 F 
ATOM     69  C   UNL A   1      48.046  27.041  24.129  1.00  0.00     0.198 A 
ATOM     70  C   UNL A   1      48.830  25.944  26.111  1.00  0.00     0.198 A 
ATOM     71  F   UNL A   1      47.546  26.015  28.081  1.00  0.00    -0.203 F 
ATOM     72  F   UNL A   1      48.200  27.349  22.834  1.00  0.00    -0.200 F 
ATOM     73  C   UNL A   1      49.007  26.283  24.779  1.00  0.00     0.200 A 
ATOM     74  F   UNL A   1      49.770  25.237  26.752  1.00  0.00    -0.200 F 
ATOM     75  F   UNL A   1      50.103  25.880  24.122  1.00  0.00    -0.200 F 
ENDBRANCH  41  65
BRANCH  53  76
ATOM     76  C   UNL A   1      45.346  33.083  29.524  1.00  0.00     0.064 A 
ATOM     77  C   UNL A   1      45.421  34.167  28.636  1.00  0.00     0.173 A 
ATOM     78  C   UNL A   1      46.101  33.142  30.705  1.00  0.00     0.173 A 
ATOM     79  F   UNL A   1      44.739  34.140  27.480  1.00  0.00    -0.203 F 
ATOM     80  C   UNL A   1      46.243  35.255  28.907  1.00  0.00     0.198 A 
ATOM     81  C   UNL A   1      46.900  34.245  30.986  1.00  0.00     0.198 A 
ATOM     82  F   UNL A   1      46.068  32.126  31.580  1.00  0.00    -0.203 F 
ATOM     83  F   UNL A   1      46.345  36.253  28.018  1.00  0.00    -0.200 F 
ATOM     84  C   UNL A   1      46.978  35.296  30.084  1.00  0.00     0.200 A 
ATOM     85  F   UNL A   1      47.607  34.285  32.124  1.00  0.00    -0.200 F 
ATOM     86  F   UNL A   1      47.772  36.344  30.342  1.00  0.00    -0.200 F 
ENDBRANCH  53  76
ENDBRANCH  27  28
ENDBRANCH  20  22
ENDBRANCH  19  20
ENDBRANCH   1  19
TORSDOF 12
ENDMDL
MODEL 3
REMARK VINA RESULT:     -12.7      0.275      2.026
REMARK SMILES Cc1onc(-c2cccc(Br)c2)c1C(=O)OCCOC(=O)c1ccc(-c2c3nc(c(-c4c(F)c(F)c(F)c(F)c4F)c4ccc([nH]4)c(-c4c(F)c(F)c(F)c(F)c4F)c4nc(c(-c5c(F)c(F)c(F)c(F)c5F)c5ccc2[nH]5)C=C4)C=C3)cc1
REMARK SMILES IDX 18 1 17 2 16 3 14 4 15 5 13 6 1 7 2 8 3 9 4 10 5 11 6 12
REMARK SMILES IDX 7 13 12 14 8 15 10 16 9 17 11 18 19 19 20 20 21 21 22 22
REMARK SMILES IDX 23 23 84 24 24 25 83 26 25 27 26 28 27 29 77 30 28 31 82 32
REMARK SMILES IDX 76 33 78 34 29 35 81 36 75 37 74 38 30 40 62 41 42 42 61 43
REMARK SMILES IDX 43 44 46 45 60 46 79 47 44 48 45 49 59 51 80 52 47 53 31 54
REMARK SMILES IDX 32 55 40 56 33 57 34 58 38 59 41 60 35 61 36 62 39 63 37 64
REMARK SMILES IDX 63 65 64 66 72 67 65 68 66 69 70 70 73 71 67 72 68 73 71 74
REMARK SMILES IDX 69 75 48 76 49 77 57 78 50 79 51 80 55 81 58 82 52 83 53 84
REMARK SMILES IDX 56 85 54 86
REMARK H PARENT 78 39 46 50
REMARK Flexibility Score: inf
ROOT
ATOM      1  C   UNL A   1      31.556  29.373  25.483  1.00  0.00     0.275 C 
ENDROOT
BRANCH   1   2
ATOM      2  C   UNL A   1      31.774  28.018  26.153  1.00  0.00     0.275 C 
BRANCH   2   3
ATOM      3  O   UNL A   1      31.798  26.979  25.146  1.00  0.00    -0.458 OA
BRANCH   3   4
ATOM      4  C   UNL A   1      33.018  26.470  24.798  1.00  0.00     0.344 C 
ATOM      5  O   UNL A   1      33.918  26.234  25.592  1.00  0.00    -0.246 OA
BRANCH   4   6
ATOM      6  C   UNL A   1      33.141  26.266  23.371  1.00  0.00     0.130 A 
ATOM      7  C   UNL A   1      34.031  28.637  22.731  1.00  0.00     0.092 C 
ATOM      8  C   UNL A   1      33.567  27.250  22.511  1.00  0.00     0.148 A 
ATOM      9  O   UNL A   1      33.633  26.745  21.252  1.00  0.00    -0.360 OA
ATOM     10  N   UNL A   1      33.279  25.399  21.262  1.00  0.00    -0.079 NA
ATOM     11  C   UNL A   1      33.014  25.095  22.539  1.00  0.00     0.128 A 
BRANCH  11  12
ATOM     12  C   UNL A   1      32.786  23.707  22.992  1.00  0.00     0.006 A 
ATOM     13  C   UNL A   1      31.288  23.256  23.906  1.00  0.00     0.010 A 
ATOM     14  C   UNL A   1      34.290  22.891  23.419  1.00  0.00     0.026 A 
ATOM     15  C   UNL A   1      31.477  21.951  25.444  1.00  0.00     0.002 A 
ATOM     16  C   UNL A   1      34.436  21.740  24.746  1.00  0.00     0.018 A 
ATOM     17  C   UNL A   1      33.112  21.277  25.793  1.00  0.00     0.016 A 
ATOM     18  Br  UNL A   1      36.120  20.913  25.003  1.00  0.00    -0.051 Br
ENDBRANCH  11  12
ENDBRANCH   4   6
ENDBRANCH   3   4
ENDBRANCH   2   3
ENDBRANCH   1   2
BRANCH   1  19
ATOM     19  O   UNL A   1      32.726  30.177  25.701  1.00  0.00    -0.458 OA
BRANCH  19  20
ATOM     20  C   UNL A   1      32.571  31.094  26.671  1.00  0.00     0.338 C 
ATOM     21  O   UNL A   1      31.622  31.832  26.872  1.00  0.00    -0.246 OA
BRANCH  20  22
ATOM     22  C   UNL A   1      33.694  31.055  27.592  1.00  0.00     0.060 A 
ATOM     23  C   UNL A   1      34.715  32.513  27.853  1.00  0.00     0.016 A 
ATOM     24  C   UNL A   1      34.395  29.477  27.898  1.00  0.00     0.016 A 
ATOM     25  C   UNL A   1      36.630  32.232  28.455  1.00  0.00     0.010 A 
ATOM     26  C   UNL A   1      36.052  29.240  28.472  1.00  0.00     0.010 A 
ATOM     27  C   UNL A   1      37.204  30.543  28.771  1.00  0.00    -0.014 A 
BRANCH  27  28
ATOM     28  C   UNL A   1      38.480  30.226  29.533  1.00  0.00     0.031 A 
ATOM     29  C   UNL A   1      39.558  29.319  28.981  1.00  0.00     0.074 A 
ATOM     30  C   UNL A   1      38.610  30.594  30.828  1.00  0.00     0.049 A 
ATOM     31  N   UNL A   1      40.592  28.793  29.602  1.00  0.00    -0.248 NA
ATOM     32  C   UNL A   1      39.429  28.881  27.587  1.00  0.00     0.031 C 
ATOM     33  C   UNL A   1      37.573  31.246  31.594  1.00  0.00     0.029 A 
ATOM     34  N   UNL A   1      39.619  30.463  31.759  1.00  0.00    -0.354 N 
ATOM     35  C   UNL A   1      41.189  27.919  28.700  1.00  0.00     0.074 A 
ATOM     36  C   UNL A   1      40.376  27.954  27.500  1.00  0.00     0.031 C 
ATOM     37  C   UNL A   1      38.001  31.598  32.804  1.00  0.00     0.029 A 
ATOM     38  C   UNL A   1      39.333  31.061  32.972  1.00  0.00     0.049 A 
ATOM     39  H   UNL A   1      40.462  29.989  31.576  1.00  0.00     0.167 HD
ATOM     40  C   UNL A   1      42.314  27.173  28.852  1.00  0.00     0.037 A 
ATOM     41  C   UNL A   1      40.013  31.142  34.129  1.00  0.00     0.037 A 
ATOM     42  C   UNL A   1      43.153  27.190  30.030  1.00  0.00     0.049 A 
ATOM     43  C   UNL A   1      41.313  30.419  34.227  1.00  0.00     0.074 A 
ATOM     44  C   UNL A   1      44.361  26.546  30.242  1.00  0.00     0.029 A 
ATOM     45  N   UNL A   1      42.877  27.900  31.192  1.00  0.00    -0.354 N 
ATOM     46  N   UNL A   1      41.878  29.641  33.339  1.00  0.00    -0.248 NA
ATOM     47  C   UNL A   1      42.055  30.553  35.483  1.00  0.00     0.031 C 
ATOM     48  C   UNL A   1      44.803  26.844  31.536  1.00  0.00     0.029 A 
ATOM     49  C   UNL A   1      43.894  27.711  32.121  1.00  0.00     0.049 A 
ATOM     50  H   UNL A   1      42.077  28.455  31.338  1.00  0.00     0.167 HD
ATOM     51  C   UNL A   1      43.045  29.188  33.925  1.00  0.00     0.074 A 
ATOM     52  C   UNL A   1      43.121  29.807  35.235  1.00  0.00     0.031 C 
ATOM     53  C   UNL A   1      43.959  28.326  33.423  1.00  0.00     0.037 A 
BRANCH  40  54
ATOM     54  C   UNL A   1      42.721  26.279  27.706  1.00  0.00     0.064 A 
ATOM     55  C   UNL A   1      43.680  26.681  26.761  1.00  0.00     0.173 A 
ATOM     56  C   UNL A   1      42.173  24.993  27.564  1.00  0.00     0.173 A 
ATOM     57  F   UNL A   1      44.245  27.894  26.848  1.00  0.00    -0.203 F 
ATOM     58  C   UNL A   1      44.029  25.857  25.692  1.00  0.00     0.198 A 
ATOM     59  C   UNL A   1      42.551  24.157  26.514  1.00  0.00     0.198 A 
ATOM     60  F   UNL A   1      41.270  24.540  28.447  1.00  0.00    -0.203 F 
ATOM     61  F   UNL A   1      44.895  26.296  24.767  1.00  0.00    -0.200 F 
ATOM     62  C   UNL A   1      43.468  24.596  25.570  1.00  0.00     0.200 A 
ATOM     63  F   UNL A   1      42.024  22.929  26.410  1.00  0.00    -0.200 F 
ATOM     64  F   UNL A   1      43.804  23.806  24.541  1.00  0.00    -0.200 F 
ENDBRANCH  40  54
BRANCH  41  65
ATOM     65  C   UNL A   1      39.472  31.947  35.261  1.00  0.00     0.064 A 
ATOM     66  C   UNL A   1      39.722  33.325  35.335  1.00  0.00     0.173 A 
ATOM     67  C   UNL A   1      38.646  31.385  36.247  1.00  0.00     0.173 A 
ATOM     68  F   UNL A   1      40.519  33.909  34.429  1.00  0.00    -0.203 F 
ATOM     69  C   UNL A   1      39.169  34.106  36.349  1.00  0.00     0.198 A 
ATOM     70  C   UNL A   1      38.062  32.175  37.237  1.00  0.00     0.198 A 
ATOM     71  F   UNL A   1      38.359  30.076  36.217  1.00  0.00    -0.203 F 
ATOM     72  F   UNL A   1      39.453  35.415  36.413  1.00  0.00    -0.200 F 
ATOM     73  C   UNL A   1      38.329  33.533  37.291  1.00  0.00     0.200 A 
ATOM     74  F   UNL A   1      37.227  31.621  38.127  1.00  0.00    -0.200 F 
ATOM     75  F   UNL A   1      37.778  34.290  38.250  1.00  0.00    -0.200 F 
ENDBRANCH  41  65
BRANCH  53  76
ATOM     76  C   UNL A   1      45.140  28.036  34.294  1.00  0.00     0.064 A 
ATOM     77  C   UNL A   1      45.141  26.965  35.201  1.00  0.00     0.173 A 
ATOM     78  C   UNL A   1      46.279  28.852  34.233  1.00  0.00     0.173 A 
ATOM     79  F   UNL A   1      44.061  26.176  35.315  1.00  0.00    -0.203 F 
ATOM     80  C   UNL A   1      46.230  26.739  36.036  1.00  0.00     0.198 A 
ATOM     81  C   UNL A   1      47.377  28.606  35.049  1.00  0.00     0.198 A 
ATOM     82  F   UNL A   1      46.320  29.892  33.387  1.00  0.00    -0.203 F 
ATOM     83  F   UNL A   1      46.187  25.748  36.937  1.00  0.00    -0.200 F 
ATOM     84  C   UNL A   1      47.349  27.556  35.956  1.00  0.00     0.200 A 
ATOM     85  F   UNL A   1      48.458  29.393  34.969  1.00  0.00    -0.200 F 
ATOM     86  F   UNL A   1      48.396  27.340  36.764  1.00  0.00    -0.200 F 
ENDBRANCH  53  76
ENDBRANCH  27  28
ENDBRANCH  20  22
ENDBRANCH  19  20
ENDBRANCH   1  19
TORSDOF 12
ENDMDL
