MODEL 1
REMARK VINA RESULT:     -10.6      0.000      0.000
REMARK SMILES CC(C)(C)c1cc(NC(=O)CSC[C@H]([NH3+])C(=O)OCCOC(=O)c2ccc(-c3c4nc(c(-c5c(F)c(F)c(F)c(F)c5F)c5ccc([nH]5)c(-c5c(F)c(F)c(F)c(F)c5F)c5nc(c(-c6c(F)c(F)c(F)c(F)c6F)c6ccc3[nH]6)C=C5)C=C4)cc2)on1
REMARK SMILES IDX 16 1 17 2 14 3 13 4 12 5 11 6 9 7 8 8 10 10 7 11 5 12 6 13
REMARK SMILES IDX 88 14 87 15 2 16 1 17 3 18 4 19 15 20 18 24 19 25 20 26
REMARK SMILES IDX 21 27 22 28 23 29 24 30 25 31 86 32 26 33 85 34 27 35 28 36
REMARK SMILES IDX 29 37 79 38 30 39 84 40 78 41 80 42 31 43 83 44 77 45 76 46
REMARK SMILES IDX 32 48 64 49 44 50 63 51 45 52 48 53 62 54 81 55 46 56 47 57
REMARK SMILES IDX 61 59 82 60 49 61 33 62 34 63 42 64 35 65 36 66 40 67 43 68
REMARK SMILES IDX 37 69 38 70 41 71 39 72 65 73 66 74 74 75 67 76 68 77 72 78
REMARK SMILES IDX 75 79 69 80 70 81 73 82 71 83 50 84 51 85 59 86 52 87 53 88
REMARK SMILES IDX 57 89 60 90 54 91 55 92 58 93 56 94
REMARK H PARENT 8 9 15 21 15 22 15 23 80 47 48 58
REMARK Flexibility Score: inf
ROOT
ATOM      1  C   UNL A   1      31.362  27.108  25.831  1.00  0.00     0.365 C 
ATOM      2  O   UNL A   1      31.238  26.511  26.895  1.00  0.00    -0.245 OA
ENDROOT
BRANCH   1   3
ATOM      3  C   UNL A   1      31.230  26.414  24.467  1.00  0.00     0.301 C 
BRANCH   3   4
ATOM      4  C   UNL A   1      30.278  25.225  24.594  1.00  0.00     0.147 C 
BRANCH   4   5
ATOM      5  S   UNL A   1      31.028  23.659  24.002  1.00  0.00    -0.145 SA
BRANCH   5   6
ATOM      6  C   UNL A   1      30.686  22.520  25.400  1.00  0.00     0.170 C 
BRANCH   6   7
ATOM      7  C   UNL A   1      30.959  23.115  26.771  1.00  0.00     0.236 C 
ATOM      8  N   UNL A   1      32.176  23.612  27.137  1.00  0.00    -0.294 N 
ATOM      9  H   UNL A   1      32.224  24.043  28.021  1.00  0.00     0.173 HD
ATOM     10  O   UNL A   1      30.034  23.193  27.591  1.00  0.00    -0.274 OA
BRANCH   8  11
ATOM     11  C   UNL A   1      33.340  23.580  26.416  1.00  0.00     0.231 A 
ATOM     12  C   UNL A   1      35.234  23.097  25.388  1.00  0.00     0.091 A 
ATOM     13  C   UNL A   1      34.087  22.511  25.986  1.00  0.00     0.097 A 
ATOM     14  N   UNL A   1      35.121  24.432  25.366  1.00  0.00    -0.082 NA
ATOM     15  O   UNL A   1      33.933  24.724  26.000  1.00  0.00    -0.338 OA
BRANCH  12  16
ATOM     16  C   UNL A   1      36.501  22.421  24.898  1.00  0.00     0.008 C 
ATOM     17  C   UNL A   1      36.405  20.883  25.003  1.00  0.00     0.018 C 
ATOM     18  C   UNL A   1      37.725  22.872  25.719  1.00  0.00     0.018 C 
ATOM     19  C   UNL A   1      36.732  22.794  23.419  1.00  0.00     0.018 C 
ENDBRANCH  12  16
ENDBRANCH   8  11
ENDBRANCH   6   7
ENDBRANCH   5   6
ENDBRANCH   4   5
ENDBRANCH   3   4
BRANCH   3  20
ATOM     20  N   UNL A   1      32.536  26.023  23.885  1.00  0.00    -0.345 N 
ATOM     21  H   UNL A   1      32.411  25.778  22.904  1.00  0.00     0.345 HD
ATOM     22  H   UNL A   1      32.908  25.220  24.393  1.00  0.00     0.345 HD
ATOM     23  H   UNL A   1      33.188  26.804  23.960  1.00  0.00     0.345 HD
ENDBRANCH   3  20
ENDBRANCH   1   3
BRANCH   1  24
ATOM     24  O   UNL A   1      31.537  28.453  25.723  1.00  0.00    -0.458 OA
BRANCH  24  25
ATOM     25  C   UNL A   1      31.776  29.182  26.938  1.00  0.00     0.274 C 
BRANCH  25  26
ATOM     26  C   UNL A   1      31.756  30.686  26.653  1.00  0.00     0.275 C 
BRANCH  26  27
ATOM     27  O   UNL A   1      33.074  31.202  26.379  1.00  0.00    -0.458 OA
BRANCH  27  28
ATOM     28  C   UNL A   1      33.533  32.123  27.259  1.00  0.00     0.338 C 
ATOM     29  O   UNL A   1      32.979  33.146  27.626  1.00  0.00    -0.246 OA
BRANCH  28  30
ATOM     30  C   UNL A   1      34.812  31.677  27.831  1.00  0.00     0.060 A 
ATOM     31  C   UNL A   1      34.918  30.349  28.251  1.00  0.00     0.016 A 
ATOM     32  C   UNL A   1      35.850  32.578  28.067  1.00  0.00     0.016 A 
ATOM     33  C   UNL A   1      36.038  29.925  28.954  1.00  0.00     0.010 A 
ATOM     34  C   UNL A   1      36.992  32.143  28.749  1.00  0.00     0.010 A 
ATOM     35  C   UNL A   1      37.081  30.820  29.219  1.00  0.00    -0.014 A 
BRANCH  35  36
ATOM     36  C   UNL A   1      38.243  30.372  30.024  1.00  0.00     0.031 A 
ATOM     37  C   UNL A   1      39.245  29.424  29.431  1.00  0.00     0.074 A 
ATOM     38  C   UNL A   1      38.416  30.846  31.271  1.00  0.00     0.049 A 
ATOM     39  N   UNL A   1      40.269  28.838  29.999  1.00  0.00    -0.248 NA
ATOM     40  C   UNL A   1      39.073  29.088  28.009  1.00  0.00     0.031 C 
ATOM     41  C   UNL A   1      37.544  31.816  31.934  1.00  0.00     0.029 A 
ATOM     42  N   UNL A   1      39.386  30.576  32.203  1.00  0.00    -0.354 N 
ATOM     43  C   UNL A   1      40.844  28.046  29.016  1.00  0.00     0.074 A 
ATOM     44  C   UNL A   1      40.053  28.217  27.815  1.00  0.00     0.031 C 
ATOM     45  C   UNL A   1      38.023  32.066  33.163  1.00  0.00     0.029 A 
ATOM     46  C   UNL A   1      39.201  31.235  33.392  1.00  0.00     0.049 A 
ATOM     47  H   UNL A   1      40.142  29.969  32.034  1.00  0.00     0.167 HD
ATOM     48  C   UNL A   1      41.936  27.249  29.108  1.00  0.00     0.037 A 
ATOM     49  C   UNL A   1      39.888  31.156  34.546  1.00  0.00     0.037 A 
ATOM     50  C   UNL A   1      42.738  27.105  30.296  1.00  0.00     0.049 A 
ATOM     51  C   UNL A   1      41.069  30.230  34.636  1.00  0.00     0.074 A 
ATOM     52  C   UNL A   1      43.862  26.321  30.491  1.00  0.00     0.029 A 
ATOM     53  N   UNL A   1      42.503  27.771  31.489  1.00  0.00    -0.354 N 
ATOM     54  N   UNL A   1      41.585  29.457  33.713  1.00  0.00    -0.248 NA
ATOM     55  C   UNL A   1      41.756  30.158  35.933  1.00  0.00     0.031 C 
ATOM     56  C   UNL A   1      44.291  26.491  31.812  1.00  0.00     0.029 A 
ATOM     57  C   UNL A   1      43.455  27.407  32.428  1.00  0.00     0.049 A 
ATOM     58  H   UNL A   1      41.768  28.407  31.647  1.00  0.00     0.167 HD
ATOM     59  C   UNL A   1      42.665  28.821  34.308  1.00  0.00     0.074 A 
ATOM     60  C   UNL A   1      42.741  29.310  35.669  1.00  0.00     0.031 C 
ATOM     61  C   UNL A   1      43.517  27.911  33.775  1.00  0.00     0.037 A 
BRANCH  48  62
ATOM     62  C   UNL A   1      42.315  26.448  27.900  1.00  0.00     0.064 A 
ATOM     63  C   UNL A   1      43.276  26.903  26.987  1.00  0.00     0.173 A 
ATOM     64  C   UNL A   1      41.736  25.190  27.677  1.00  0.00     0.173 A 
ATOM     65  F   UNL A   1      43.847  28.106  27.149  1.00  0.00    -0.203 F 
ATOM     66  C   UNL A   1      43.634  26.132  25.883  1.00  0.00     0.198 A 
ATOM     67  C   UNL A   1      42.112  24.413  26.584  1.00  0.00     0.198 A 
ATOM     68  F   UNL A   1      40.813  24.710  28.523  1.00  0.00    -0.203 F 
ATOM     69  F   UNL A   1      44.530  26.599  25.002  1.00  0.00    -0.200 F 
ATOM     70  C   UNL A   1      43.056  24.886  25.685  1.00  0.00     0.200 A 
ATOM     71  F   UNL A   1      41.558  23.206  26.400  1.00  0.00    -0.200 F 
ATOM     72  F   UNL A   1      43.405  24.143  24.626  1.00  0.00    -0.200 F 
ENDBRANCH  48  62
BRANCH  49  73
ATOM     73  C   UNL A   1      39.457  31.958  35.718  1.00  0.00     0.064 A 
ATOM     74  C   UNL A   1      40.028  33.209  35.985  1.00  0.00     0.173 A 
ATOM     75  C   UNL A   1      38.465  31.490  36.593  1.00  0.00     0.173 A 
ATOM     76  F   UNL A   1      40.998  33.686  35.191  1.00  0.00    -0.203 F 
ATOM     77  C   UNL A   1      39.631  33.957  37.092  1.00  0.00     0.198 A 
ATOM     78  C   UNL A   1      38.051  32.250  37.684  1.00  0.00     0.198 A 
ATOM     79  F   UNL A   1      37.890  30.297  36.379  1.00  0.00    -0.203 F 
ATOM     80  F   UNL A   1      40.220  35.133  37.349  1.00  0.00    -0.200 F 
ATOM     81  C   UNL A   1      38.639  33.480  37.936  1.00  0.00     0.200 A 
ATOM     82  F   UNL A   1      37.086  31.791  38.491  1.00  0.00    -0.200 F 
ATOM     83  F   UNL A   1      38.255  34.203  38.998  1.00  0.00    -0.200 F 
ENDBRANCH  49  73
BRANCH  61  84
ATOM     84  C   UNL A   1      44.620  27.411  34.658  1.00  0.00     0.064 A 
ATOM     85  C   UNL A   1      45.845  28.086  34.751  1.00  0.00     0.173 A 
ATOM     86  C   UNL A   1      44.434  26.266  35.445  1.00  0.00     0.173 A 
ATOM     87  F   UNL A   1      46.073  29.176  34.003  1.00  0.00    -0.203 F 
ATOM     88  C   UNL A   1      46.854  27.619  35.587  1.00  0.00     0.198 A 
ATOM     89  C   UNL A   1      45.436  25.815  36.298  1.00  0.00     0.198 A 
ATOM     90  F   UNL A   1      43.276  25.589  35.393  1.00  0.00    -0.203 F 
ATOM     91  F   UNL A   1      48.032  28.256  35.634  1.00  0.00    -0.200 F 
ATOM     92  C   UNL A   1      46.647  26.489  36.365  1.00  0.00     0.200 A 
ATOM     93  F   UNL A   1      45.233  24.727  37.054  1.00  0.00    -0.200 F 
ATOM     94  F   UNL A   1      47.619  26.044  37.173  1.00  0.00    -0.200 F 
ENDBRANCH  61  84
ENDBRANCH  35  36
ENDBRANCH  28  30
ENDBRANCH  27  28
ENDBRANCH  26  27
ENDBRANCH  25  26
ENDBRANCH  24  25
ENDBRANCH   1  24
TORSDOF 18
ENDMDL
MODEL 2
REMARK VINA RESULT:     -10.6      1.231      2.076
REMARK SMILES CC(C)(C)c1cc(NC(=O)CSC[C@H]([NH3+])C(=O)OCCOC(=O)c2ccc(-c3c4nc(c(-c5c(F)c(F)c(F)c(F)c5F)c5ccc([nH]5)c(-c5c(F)c(F)c(F)c(F)c5F)c5nc(c(-c6c(F)c(F)c(F)c(F)c6F)c6ccc3[nH]6)C=C5)C=C4)cc2)on1
REMARK SMILES IDX 16 1 17 2 14 3 13 4 12 5 11 6 9 7 8 8 10 10 7 11 5 12 6 13
REMARK SMILES IDX 88 14 87 15 2 16 1 17 3 18 4 19 15 20 18 24 19 25 20 26
REMARK SMILES IDX 21 27 22 28 23 29 24 30 25 31 86 32 26 33 85 34 27 35 28 36
REMARK SMILES IDX 29 37 79 38 30 39 84 40 78 41 80 42 31 43 83 44 77 45 76 46
REMARK SMILES IDX 32 48 64 49 44 50 63 51 45 52 48 53 62 54 81 55 46 56 47 57
REMARK SMILES IDX 61 59 82 60 49 61 33 62 34 63 42 64 35 65 36 66 40 67 43 68
REMARK SMILES IDX 37 69 38 70 41 71 39 72 65 73 66 74 74 75 67 76 68 77 72 78
REMARK SMILES IDX 75 79 69 80 70 81 73 82 71 83 50 84 51 85 59 86 52 87 53 88
REMARK SMILES IDX 57 89 60 90 54 91 55 92 58 93 56 94
REMARK H PARENT 8 9 15 21 15 22 15 23 80 47 48 58
REMARK Flexibility Score: inf
ROOT
ATOM      1  C   UNL A   1      32.685  27.231  22.467  1.00  0.00     0.365 C 
ATOM      2  O   UNL A   1      33.851  27.326  22.099  1.00  0.00    -0.245 OA
ENDROOT
BRANCH   1   3
ATOM      3  C   UNL A   1      31.742  26.126  21.968  1.00  0.00     0.301 C 
BRANCH   3   4
ATOM      4  C   UNL A   1      31.976  24.854  22.782  1.00  0.00     0.147 C 
BRANCH   4   5
ATOM      5  S   UNL A   1      31.610  25.085  24.565  1.00  0.00    -0.145 SA
BRANCH   5   6
ATOM      6  C   UNL A   1      31.156  23.384  25.084  1.00  0.00     0.170 C 
BRANCH   6   7
ATOM      7  C   UNL A   1      31.209  23.156  26.586  1.00  0.00     0.236 C 
ATOM      8  N   UNL A   1      32.334  22.733  27.235  1.00  0.00    -0.294 N 
ATOM      9  H   UNL A   1      32.280  22.690  28.217  1.00  0.00     0.173 HD
ATOM     10  O   UNL A   1      30.205  23.396  27.270  1.00  0.00    -0.274 OA
BRANCH   8  11
ATOM     11  C   UNL A   1      33.527  22.361  26.676  1.00  0.00     0.231 A 
ATOM     12  C   UNL A   1      35.527  22.205  25.751  1.00  0.00     0.091 A 
ATOM     13  C   UNL A   1      34.668  23.091  26.456  1.00  0.00     0.097 A 
ATOM     14  N   UNL A   1      34.971  20.990  25.657  1.00  0.00    -0.082 NA
ATOM     15  O   UNL A   1      33.729  21.093  26.245  1.00  0.00    -0.338 OA
BRANCH  12  16
ATOM     16  C   UNL A   1      36.853  22.502  25.078  1.00  0.00     0.008 C 
ATOM     17  C   UNL A   1      37.815  21.295  25.153  1.00  0.00     0.018 C 
ATOM     18  C   UNL A   1      37.556  23.704  25.741  1.00  0.00     0.018 C 
ATOM     19  C   UNL A   1      36.602  22.833  23.593  1.00  0.00     0.018 C 
ENDBRANCH  12  16
ENDBRANCH   8  11
ENDBRANCH   6   7
ENDBRANCH   5   6
ENDBRANCH   4   5
ENDBRANCH   3   4
BRANCH   3  20
ATOM     20  N   UNL A   1      31.852  25.884  20.510  1.00  0.00    -0.345 N 
ATOM     21  H   UNL A   1      31.304  25.061  20.259  1.00  0.00     0.345 HD
ATOM     22  H   UNL A   1      32.830  25.729  20.264  1.00  0.00     0.345 HD
ATOM     23  H   UNL A   1      31.498  26.695  20.003  1.00  0.00     0.345 HD
ENDBRANCH   3  20
ENDBRANCH   1   3
BRANCH   1  24
ATOM     24  O   UNL A   1      32.116  28.020  23.417  1.00  0.00    -0.458 OA
BRANCH  24  25
ATOM     25  C   UNL A   1      33.001  28.796  24.241  1.00  0.00     0.274 C 
BRANCH  25  26
ATOM     26  C   UNL A   1      32.187  29.731  25.141  1.00  0.00     0.275 C 
BRANCH  26  27
ATOM     27  O   UNL A   1      32.677  29.736  26.498  1.00  0.00    -0.458 OA
BRANCH  27  28
ATOM     28  C   UNL A   1      33.180  30.916  26.930  1.00  0.00     0.338 C 
ATOM     29  O   UNL A   1      32.626  32.003  26.944  1.00  0.00    -0.246 OA
BRANCH  28  30
ATOM     30  C   UNL A   1      34.517  30.711  27.506  1.00  0.00     0.060 A 
ATOM     31  C   UNL A   1      34.960  29.400  27.696  1.00  0.00     0.016 A 
ATOM     32  C   UNL A   1      35.276  31.787  27.967  1.00  0.00     0.016 A 
ATOM     33  C   UNL A   1      36.135  29.152  28.392  1.00  0.00     0.010 A 
ATOM     34  C   UNL A   1      36.476  31.537  28.642  1.00  0.00     0.010 A 
ATOM     35  C   UNL A   1      36.899  30.217  28.881  1.00  0.00    -0.014 A 
BRANCH  35  36
ATOM     36  C   UNL A   1      38.119  29.938  29.677  1.00  0.00     0.031 A 
ATOM     37  C   UNL A   1      39.186  29.040  29.122  1.00  0.00     0.074 A 
ATOM     38  C   UNL A   1      38.283  30.520  30.879  1.00  0.00     0.049 A 
ATOM     39  N   UNL A   1      40.275  28.593  29.697  1.00  0.00    -0.248 NA
ATOM     40  C   UNL A   1      39.007  28.581  27.736  1.00  0.00     0.031 C 
ATOM     41  C   UNL A   1      37.344  31.458  31.497  1.00  0.00     0.029 A 
ATOM     42  N   UNL A   1      39.299  30.411  31.794  1.00  0.00    -0.354 N 
ATOM     43  C   UNL A   1      40.893  27.781  28.756  1.00  0.00     0.074 A 
ATOM     44  C   UNL A   1      40.057  27.788  27.574  1.00  0.00     0.031 C 
ATOM     45  C   UNL A   1      37.832  31.844  32.686  1.00  0.00     0.029 A 
ATOM     46  C   UNL A   1      39.087  31.141  32.936  1.00  0.00     0.049 A 
ATOM     47  H   UNL A   1      40.102  29.862  31.645  1.00  0.00     0.167 HD
ATOM     48  C   UNL A   1      42.055  27.095  28.870  1.00  0.00     0.037 A 
ATOM     49  C   UNL A   1      39.810  31.212  34.069  1.00  0.00     0.037 A 
ATOM     50  C   UNL A   1      42.899  27.115  30.036  1.00  0.00     0.049 A 
ATOM     51  C   UNL A   1      41.072  30.405  34.187  1.00  0.00     0.074 A 
ATOM     52  C   UNL A   1      44.095  26.451  30.250  1.00  0.00     0.029 A 
ATOM     53  N   UNL A   1      42.637  27.847  31.184  1.00  0.00    -0.354 N 
ATOM     54  N   UNL A   1      41.631  29.612  33.306  1.00  0.00    -0.248 NA
ATOM     55  C   UNL A   1      41.799  30.495  35.460  1.00  0.00     0.031 C 
ATOM     56  C   UNL A   1      44.543  26.760  31.539  1.00  0.00     0.029 A 
ATOM     57  C   UNL A   1      43.644  27.643  32.114  1.00  0.00     0.049 A 
ATOM     58  H   UNL A   1      41.852  28.426  31.319  1.00  0.00     0.167 HD
ATOM     59  C   UNL A   1      42.780  29.123  33.909  1.00  0.00     0.074 A 
ATOM     60  C   UNL A   1      42.849  29.720  35.227  1.00  0.00     0.031 C 
ATOM     61  C   UNL A   1      43.697  28.254  33.417  1.00  0.00     0.037 A 
BRANCH  48  62
ATOM     62  C   UNL A   1      42.472  26.239  27.712  1.00  0.00     0.064 A 
ATOM     63  C   UNL A   1      41.916  24.971  27.496  1.00  0.00     0.173 A 
ATOM     64  C   UNL A   1      43.410  26.715  26.784  1.00  0.00     0.173 A 
ATOM     65  F   UNL A   1      41.026  24.466  28.364  1.00  0.00    -0.203 F 
ATOM     66  C   UNL A   1      42.298  24.201  26.400  1.00  0.00     0.198 A 
ATOM     67  C   UNL A   1      43.772  25.952  25.677  1.00  0.00     0.198 A 
ATOM     68  F   UNL A   1      43.968  27.924  26.945  1.00  0.00    -0.203 F 
ATOM     69  F   UNL A   1      41.781  22.976  26.230  1.00  0.00    -0.200 F 
ATOM     70  C   UNL A   1      43.220  24.694  25.488  1.00  0.00     0.200 A 
ATOM     71  F   UNL A   1      44.657  26.434  24.793  1.00  0.00    -0.200 F 
ATOM     72  F   UNL A   1      43.582  23.955  24.431  1.00  0.00    -0.200 F 
ENDBRANCH  48  62
BRANCH  49  73
ATOM     73  C   UNL A   1      39.340  32.062  35.191  1.00  0.00     0.064 A 
ATOM     74  C   UNL A   1      38.468  31.555  36.163  1.00  0.00     0.173 A 
ATOM     75  C   UNL A   1      39.754  33.396  35.315  1.00  0.00     0.173 A 
ATOM     76  F   UNL A   1      38.025  30.292  36.072  1.00  0.00    -0.203 F 
ATOM     77  C   UNL A   1      38.017  32.356  37.211  1.00  0.00     0.198 A 
ATOM     78  C   UNL A   1      39.324  34.188  36.376  1.00  0.00     0.198 A 
ATOM     79  F   UNL A   1      40.588  33.927  34.408  1.00  0.00    -0.203 F 
ATOM     80  F   UNL A   1      37.151  31.860  38.106  1.00  0.00    -0.200 F 
ATOM     81  C   UNL A   1      38.451  33.669  37.320  1.00  0.00     0.200 A 
ATOM     82  F   UNL A   1      39.752  35.453  36.484  1.00  0.00    -0.200 F 
ATOM     83  F   UNL A   1      38.020  34.437  38.331  1.00  0.00    -0.200 F 
ENDBRANCH  49  73
BRANCH  61  84
ATOM     84  C   UNL A   1      44.865  27.923  34.296  1.00  0.00     0.064 A 
ATOM     85  C   UNL A   1      46.029  28.704  34.289  1.00  0.00     0.173 A 
ATOM     86  C   UNL A   1      44.802  26.837  35.180  1.00  0.00     0.173 A 
ATOM     87  F   UNL A   1      46.140  29.743  33.447  1.00  0.00    -0.203 F 
ATOM     88  C   UNL A   1      47.100  28.395  35.122  1.00  0.00     0.198 A 
ATOM     89  C   UNL A   1      45.865  26.544  36.029  1.00  0.00     0.198 A 
ATOM     90  F   UNL A   1      43.706  26.064  35.226  1.00  0.00    -0.203 F 
ATOM     91  F   UNL A   1      48.219  29.130  35.073  1.00  0.00    -0.200 F 
ATOM     92  C   UNL A   1      47.015  27.320  35.997  1.00  0.00     0.200 A 
ATOM     93  F   UNL A   1      45.779  25.511  36.878  1.00  0.00    -0.200 F 
ATOM     94  F   UNL A   1      48.045  27.028  36.801  1.00  0.00    -0.200 F 
ENDBRANCH  61  84
ENDBRANCH  35  36
ENDBRANCH  28  30
ENDBRANCH  27  28
ENDBRANCH  26  27
ENDBRANCH  25  26
ENDBRANCH  24  25
ENDBRANCH   1  24
TORSDOF 18
ENDMDL
MODEL 3
REMARK VINA RESULT:     -10.5      1.523      2.162
REMARK SMILES CC(C)(C)c1cc(NC(=O)CSC[C@H]([NH3+])C(=O)OCCOC(=O)c2ccc(-c3c4nc(c(-c5c(F)c(F)c(F)c(F)c5F)c5ccc([nH]5)c(-c5c(F)c(F)c(F)c(F)c5F)c5nc(c(-c6c(F)c(F)c(F)c(F)c6F)c6ccc3[nH]6)C=C5)C=C4)cc2)on1
REMARK SMILES IDX 16 1 17 2 14 3 13 4 12 5 11 6 9 7 8 8 10 10 7 11 5 12 6 13
REMARK SMILES IDX 88 14 87 15 2 16 1 17 3 18 4 19 15 20 18 24 19 25 20 26
REMARK SMILES IDX 21 27 22 28 23 29 24 30 25 31 86 32 26 33 85 34 27 35 28 36
REMARK SMILES IDX 29 37 79 38 30 39 84 40 78 41 80 42 31 43 83 44 77 45 76 46
REMARK SMILES IDX 32 48 64 49 44 50 63 51 45 52 48 53 62 54 81 55 46 56 47 57
REMARK SMILES IDX 61 59 82 60 49 61 33 62 34 63 42 64 35 65 36 66 40 67 43 68
REMARK SMILES IDX 37 69 38 70 41 71 39 72 65 73 66 74 74 75 67 76 68 77 72 78
REMARK SMILES IDX 75 79 69 80 70 81 73 82 71 83 50 84 51 85 59 86 52 87 53 88
REMARK SMILES IDX 57 89 60 90 54 91 55 92 58 93 56 94
REMARK H PARENT 8 9 15 21 15 22 15 23 80 47 48 58
REMARK Flexibility Score: inf
ROOT
ATOM      1  C   UNL A   1      32.123  28.241  22.871  1.00  0.00     0.365 C 
ATOM      2  O   UNL A   1      33.235  28.469  22.406  1.00  0.00    -0.245 OA
ENDROOT
BRANCH   1   3
ATOM      3  C   UNL A   1      31.236  27.088  22.379  1.00  0.00     0.301 C 
BRANCH   3   4
ATOM      4  C   UNL A   1      30.837  26.214  23.567  1.00  0.00     0.147 C 
BRANCH   4   5
ATOM      5  S   UNL A   1      32.214  25.151  24.151  1.00  0.00    -0.145 SA
BRANCH   5   6
ATOM      6  C   UNL A   1      31.317  23.711  24.848  1.00  0.00     0.170 C 
BRANCH   6   7
ATOM      7  C   UNL A   1      31.664  23.401  26.296  1.00  0.00     0.236 C 
ATOM      8  N   UNL A   1      32.422  22.328  26.665  1.00  0.00    -0.294 N 
ATOM      9  H   UNL A   1      32.649  22.263  27.620  1.00  0.00     0.173 HD
ATOM     10  O   UNL A   1      31.279  24.170  27.187  1.00  0.00    -0.274 OA
BRANCH   8  11
ATOM     11  C   UNL A   1      32.901  21.330  25.859  1.00  0.00     0.231 A 
ATOM     12  C   UNL A   1      33.305  19.499  24.692  1.00  0.00     0.091 A 
ATOM     13  C   UNL A   1      32.279  20.207  25.373  1.00  0.00     0.097 A 
ATOM     14  N   UNL A   1      34.439  20.212  24.681  1.00  0.00    -0.082 NA
ATOM     15  O   UNL A   1      34.176  21.357  25.402  1.00  0.00    -0.338 OA
BRANCH  12  16
ATOM     16  C   UNL A   1      33.267  18.099  24.108  1.00  0.00     0.008 C 
ATOM     17  C   UNL A   1      34.687  17.537  23.877  1.00  0.00     0.018 C 
ATOM     18  C   UNL A   1      32.530  18.083  22.754  1.00  0.00     0.018 C 
ATOM     19  C   UNL A   1      32.527  17.165  25.086  1.00  0.00     0.018 C 
ENDBRANCH  12  16
ENDBRANCH   8  11
ENDBRANCH   6   7
ENDBRANCH   5   6
ENDBRANCH   4   5
ENDBRANCH   3   4
BRANCH   3  20
ATOM     20  N   UNL A   1      31.859  26.299  21.290  1.00  0.00    -0.345 N 
ATOM     21  H   UNL A   1      31.930  26.875  20.452  1.00  0.00     0.345 HD
ATOM     22  H   UNL A   1      31.285  25.479  21.093  1.00  0.00     0.345 HD
ATOM     23  H   UNL A   1      32.791  26.001  21.578  1.00  0.00     0.345 HD
ENDBRANCH   3  20
ENDBRANCH   1   3
BRANCH   1  24
ATOM     24  O   UNL A   1      31.582  28.910  23.925  1.00  0.00    -0.458 OA
BRANCH  24  25
ATOM     25  C   UNL A   1      32.487  29.375  24.939  1.00  0.00     0.274 C 
BRANCH  25  26
ATOM     26  C   UNL A   1      31.806  30.454  25.787  1.00  0.00     0.275 C 
BRANCH  26  27
ATOM     27  O   UNL A   1      32.423  30.591  27.084  1.00  0.00    -0.458 OA
BRANCH  27  28
ATOM     28  C   UNL A   1      33.182  31.699  27.252  1.00  0.00     0.338 C 
ATOM     29  O   UNL A   1      32.862  32.860  27.058  1.00  0.00    -0.246 OA
BRANCH  28  30
ATOM     30  C   UNL A   1      34.487  31.332  27.822  1.00  0.00     0.060 A 
ATOM     31  C   UNL A   1      34.691  30.002  28.199  1.00  0.00     0.016 A 
ATOM     32  C   UNL A   1      35.452  32.301  28.096  1.00  0.00     0.016 A 
ATOM     33  C   UNL A   1      35.835  29.641  28.899  1.00  0.00     0.010 A 
ATOM     34  C   UNL A   1      36.619  31.930  28.775  1.00  0.00     0.010 A 
ATOM     35  C   UNL A   1      36.805  30.603  29.202  1.00  0.00    -0.014 A 
BRANCH  35  36
ATOM     36  C   UNL A   1      37.992  30.218  30.003  1.00  0.00     0.031 A 
ATOM     37  C   UNL A   1      39.037  29.318  29.409  1.00  0.00     0.074 A 
ATOM     38  C   UNL A   1      38.148  30.706  31.247  1.00  0.00     0.049 A 
ATOM     39  N   UNL A   1      40.091  28.787  29.975  1.00  0.00    -0.248 NA
ATOM     40  C   UNL A   1      38.875  28.967  27.990  1.00  0.00     0.031 C 
ATOM     41  C   UNL A   1      37.231  31.635  31.910  1.00  0.00     0.029 A 
ATOM     42  N   UNL A   1      39.135  30.490  32.175  1.00  0.00    -0.354 N 
ATOM     43  C   UNL A   1      40.701  28.019  28.993  1.00  0.00     0.074 A 
ATOM     44  C   UNL A   1      39.896  28.144  27.795  1.00  0.00     0.031 C 
ATOM     45  C   UNL A   1      37.704  31.915  33.135  1.00  0.00     0.029 A 
ATOM     46  C   UNL A   1      38.923  31.145  33.362  1.00  0.00     0.049 A 
ATOM     47  H   UNL A   1      39.919  29.920  32.005  1.00  0.00     0.167 HD
ATOM     48  C   UNL A   1      41.832  27.279  29.083  1.00  0.00     0.037 A 
ATOM     49  C   UNL A   1      39.619  31.106  34.513  1.00  0.00     0.037 A 
ATOM     50  C   UNL A   1      42.645  27.181  30.267  1.00  0.00     0.049 A 
ATOM     51  C   UNL A   1      40.845  30.240  34.601  1.00  0.00     0.074 A 
ATOM     52  C   UNL A   1      43.808  26.455  30.459  1.00  0.00     0.029 A 
ATOM     53  N   UNL A   1      42.384  27.840  31.458  1.00  0.00    -0.354 N 
ATOM     54  N   UNL A   1      41.394  29.489  33.679  1.00  0.00    -0.248 NA
ATOM     55  C   UNL A   1      41.542  30.210  35.894  1.00  0.00     0.031 C 
ATOM     56  C   UNL A   1      44.235  26.652  31.777  1.00  0.00     0.029 A 
ATOM     57  C   UNL A   1      43.358  27.528  32.394  1.00  0.00     0.049 A 
ATOM     58  H   UNL A   1      41.618  28.440  31.617  1.00  0.00     0.167 HD
ATOM     59  C   UNL A   1      42.507  28.911  34.271  1.00  0.00     0.074 A 
ATOM     60  C   UNL A   1      42.566  29.410  35.630  1.00  0.00     0.031 C 
ATOM     61  C   UNL A   1      43.401  28.043  33.738  1.00  0.00     0.037 A 
BRANCH  48  62
ATOM     62  C   UNL A   1      42.244  26.491  27.876  1.00  0.00     0.064 A 
ATOM     63  C   UNL A   1      43.200  26.975  26.973  1.00  0.00     0.173 A 
ATOM     64  C   UNL A   1      41.702  25.218  27.645  1.00  0.00     0.173 A 
ATOM     65  F   UNL A   1      43.735  28.193  27.143  1.00  0.00    -0.203 F 
ATOM     66  C   UNL A   1      43.589  26.217  25.870  1.00  0.00     0.198 A 
ATOM     67  C   UNL A   1      42.110  24.454  26.554  1.00  0.00     0.198 A 
ATOM     68  F   UNL A   1      40.786  24.711  28.482  1.00  0.00    -0.203 F 
ATOM     69  F   UNL A   1      44.479  26.711  24.999  1.00  0.00    -0.200 F 
ATOM     70  C   UNL A   1      43.049  24.956  25.666  1.00  0.00     0.200 A 
ATOM     71  F   UNL A   1      41.592  23.233  26.363  1.00  0.00    -0.200 F 
ATOM     72  F   UNL A   1      43.428  24.225  24.608  1.00  0.00    -0.200 F 
ENDBRANCH  48  62
BRANCH  49  73
ATOM     73  C   UNL A   1      39.154  31.891  35.683  1.00  0.00     0.064 A 
ATOM     74  C   UNL A   1      39.582  33.210  35.882  1.00  0.00     0.173 A 
ATOM     75  C   UNL A   1      38.273  31.339  36.624  1.00  0.00     0.173 A 
ATOM     76  F   UNL A   1      40.444  33.772  35.022  1.00  0.00    -0.203 F 
ATOM     77  C   UNL A   1      39.154  33.944  36.987  1.00  0.00     0.198 A 
ATOM     78  C   UNL A   1      37.827  32.082  37.714  1.00  0.00     0.198 A 
ATOM     79  F   UNL A   1      37.837  30.079  36.478  1.00  0.00    -0.203 F 
ATOM     80  F   UNL A   1      39.609  35.191  37.177  1.00  0.00    -0.200 F 
ATOM     81  C   UNL A   1      38.272  33.382  37.898  1.00  0.00     0.200 A 
ATOM     82  F   UNL A   1      36.967  31.539  38.586  1.00  0.00    -0.200 F 
ATOM     83  F   UNL A   1      37.859  34.091  38.958  1.00  0.00    -0.200 F 
ENDBRANCH  49  73
BRANCH  61  84
ATOM     84  C   UNL A   1      44.532  27.602  34.617  1.00  0.00     0.064 A 
ATOM     85  C   UNL A   1      44.443  26.440  35.395  1.00  0.00     0.173 A 
ATOM     86  C   UNL A   1      45.729  28.331  34.651  1.00  0.00     0.173 A 
ATOM     87  F   UNL A   1      43.310  25.720  35.406  1.00  0.00    -0.203 F 
ATOM     88  C   UNL A   1      45.507  26.033  36.194  1.00  0.00     0.198 A 
ATOM     89  C   UNL A   1      46.800  27.910  35.434  1.00  0.00     0.198 A 
ATOM     90  F   UNL A   1      45.863  29.448  33.920  1.00  0.00    -0.203 F 
ATOM     91  F   UNL A   1      45.388  24.940  36.961  1.00  0.00    -0.200 F 
ATOM     92  C   UNL A   1      46.686  26.764  36.208  1.00  0.00     0.200 A 
ATOM     93  F   UNL A   1      47.941  28.612  35.441  1.00  0.00    -0.200 F 
ATOM     94  F   UNL A   1      47.711  26.369  36.976  1.00  0.00    -0.200 F 
ENDBRANCH  61  84
ENDBRANCH  35  36
ENDBRANCH  28  30
ENDBRANCH  27  28
ENDBRANCH  26  27
ENDBRANCH  25  26
ENDBRANCH  24  25
ENDBRANCH   1  24
TORSDOF 18
ENDMDL
