MODEL 1
REMARK VINA RESULT:     -12.2      0.000      0.000
REMARK SMILES Cc1ccc(C#N)cc1S(=O)(=O)Nc1cccc(C(=O)OCCOC(=O)c2ccc(-c3c4nc(c(-c5c(F)c(F)c(F)c(F)c5F)c5ccc([nH]5)c(-c5c(F)c(F)c(F)c(F)c5F)c5nc(c(-c6c(F)c(F)c(F)c(F)c6F)c6ccc3[nH]6)C=C5)C=C4)cc2)c1
REMARK SMILES IDX 22 1 21 2 19 3 20 4 18 5 14 6 15 7 90 8 16 9 17 10 13 11
REMARK SMILES IDX 10 13 11 14 12 15 9 16 1 17 2 18 3 19 4 20 8 21 5 22 6 23
REMARK SMILES IDX 7 24 23 25 24 26 25 27 26 28 27 29 28 30 89 31 29 32 88 33
REMARK SMILES IDX 30 34 31 35 32 36 82 37 33 38 87 39 81 40 83 41 34 42 86 43
REMARK SMILES IDX 80 44 79 45 35 47 67 48 47 49 66 50 48 51 51 52 65 53 84 54
REMARK SMILES IDX 49 55 50 56 64 58 85 59 52 60 36 61 37 62 45 63 38 64 39 65
REMARK SMILES IDX 43 66 46 67 40 68 41 69 44 70 42 71 68 72 69 73 77 74 70 75
REMARK SMILES IDX 71 76 75 77 78 78 72 79 73 80 76 81 74 82 53 83 54 84 62 85
REMARK SMILES IDX 55 86 56 87 60 88 63 89 57 90 58 91 61 92 59 93
REMARK H PARENT 13 12 83 46 51 57
REMARK Flexibility Score: inf
ROOT
ATOM      1  C   UNL A   1      31.525  29.254  24.957  1.00  0.00     0.275 C 
ENDROOT
BRANCH   1   2
ATOM      2  O   UNL A   1      31.603  27.875  25.393  1.00  0.00    -0.458 OA
BRANCH   2   3
ATOM      3  C   UNL A   1      32.709  27.191  25.008  1.00  0.00     0.338 C 
ATOM      4  O   UNL A   1      33.583  27.614  24.265  1.00  0.00    -0.246 OA
BRANCH   3   5
ATOM      5  C   UNL A   1      32.825  25.861  25.676  1.00  0.00     0.062 A 
ATOM      6  C   UNL A   1      33.986  23.816  26.272  1.00  0.00     0.050 A 
ATOM      7  C   UNL A   1      32.831  23.315  26.872  1.00  0.00     0.027 A 
ATOM      8  C   UNL A   1      34.001  25.097  25.690  1.00  0.00     0.042 A 
ATOM      9  C   UNL A   1      31.667  24.077  26.876  1.00  0.00     0.003 A 
ATOM     10  C   UNL A   1      31.668  25.344  26.290  1.00  0.00     0.016 A 
BRANCH   6  11
ATOM     11  N   UNL A   1      35.152  23.008  26.297  1.00  0.00    -0.280 N 
ATOM     12  H   UNL A   1      35.763  23.108  27.063  1.00  0.00     0.180 HD
BRANCH  11  13
ATOM     13  S   UNL A   1      35.565  21.882  25.103  1.00  0.00     0.262 S 
ATOM     14  O   UNL A   1      36.585  21.076  25.752  1.00  0.00    -0.201 OA
ATOM     15  O   UNL A   1      35.916  22.660  23.934  1.00  0.00    -0.201 OA
BRANCH  13  16
ATOM     16  C   UNL A   1      34.286  20.734  24.589  1.00  0.00     0.092 A 
ATOM     17  C   UNL A   1      32.752  22.384  23.320  1.00  0.00     0.046 C 
ATOM     18  C   UNL A   1      33.117  21.044  23.876  1.00  0.00    -0.030 A 
ATOM     19  C   UNL A   1      32.206  20.009  23.572  1.00  0.00     0.006 A 
ATOM     20  C   UNL A   1      32.528  18.672  23.779  1.00  0.00     0.020 A 
ATOM     21  C   UNL A   1      34.617  19.366  24.757  1.00  0.00     0.042 A 
ATOM     22  C   UNL A   1      33.768  18.344  24.314  1.00  0.00     0.053 A 
BRANCH  22  23
ATOM     23  C   UNL A   1      34.184  16.973  24.339  1.00  0.00     0.099 C 
ATOM     24  N   UNL A   1      34.474  15.846  24.362  1.00  0.00    -0.192 NA
ENDBRANCH  22  23
ENDBRANCH  13  16
ENDBRANCH  11  13
ENDBRANCH   6  11
ENDBRANCH   3   5
ENDBRANCH   2   3
ENDBRANCH   1   2
BRANCH   1  25
ATOM     25  C   UNL A   1      31.836  30.250  26.081  1.00  0.00     0.275 C 
BRANCH  25  26
ATOM     26  O   UNL A   1      33.251  30.454  26.238  1.00  0.00    -0.458 OA
BRANCH  26  27
ATOM     27  C   UNL A   1      33.591  31.421  27.117  1.00  0.00     0.338 C 
ATOM     28  O   UNL A   1      32.937  32.392  27.456  1.00  0.00    -0.246 OA
BRANCH  27  29
ATOM     29  C   UNL A   1      34.861  31.058  27.755  1.00  0.00     0.060 A 
ATOM     30  C   UNL A   1      35.857  31.999  28.001  1.00  0.00     0.016 A 
ATOM     31  C   UNL A   1      35.004  29.743  28.190  1.00  0.00     0.016 A 
ATOM     32  C   UNL A   1      37.019  31.594  28.664  1.00  0.00     0.010 A 
ATOM     33  C   UNL A   1      36.127  29.358  28.910  1.00  0.00     0.010 A 
ATOM     34  C   UNL A   1      37.161  30.273  29.137  1.00  0.00    -0.014 A 
BRANCH  34  35
ATOM     35  C   UNL A   1      38.374  29.835  29.878  1.00  0.00     0.031 A 
ATOM     36  C   UNL A   1      38.655  30.353  31.267  1.00  0.00     0.074 A 
ATOM     37  C   UNL A   1      39.249  29.003  29.278  1.00  0.00     0.049 A 
ATOM     38  N   UNL A   1      39.670  30.097  32.054  1.00  0.00    -0.248 NA
ATOM     39  C   UNL A   1      37.688  31.303  31.839  1.00  0.00     0.031 C 
ATOM     40  C   UNL A   1      39.119  28.487  27.914  1.00  0.00     0.029 A 
ATOM     41  N   UNL A   1      40.413  28.439  29.735  1.00  0.00    -0.354 N 
ATOM     42  C   UNL A   1      39.462  30.851  33.202  1.00  0.00     0.074 A 
ATOM     43  C   UNL A   1      38.266  31.631  32.985  1.00  0.00     0.031 C 
ATOM     44  C   UNL A   1      40.127  27.639  27.666  1.00  0.00     0.029 A 
ATOM     45  C   UNL A   1      41.006  27.592  28.830  1.00  0.00     0.049 A 
ATOM     46  H   UNL A   1      40.788  28.623  30.626  1.00  0.00     0.167 HD
ATOM     47  C   UNL A   1      40.183  30.862  34.348  1.00  0.00     0.037 A 
ATOM     48  C   UNL A   1      42.133  26.861  28.924  1.00  0.00     0.037 A 
ATOM     49  C   UNL A   1      41.362  30.064  34.566  1.00  0.00     0.049 A 
ATOM     50  C   UNL A   1      42.923  26.905  30.204  1.00  0.00     0.074 A 
ATOM     51  C   UNL A   1      42.139  29.970  35.707  1.00  0.00     0.029 A 
ATOM     52  N   UNL A   1      41.932  29.222  33.622  1.00  0.00    -0.354 N 
ATOM     53  N   UNL A   1      42.679  27.575  31.304  1.00  0.00    -0.248 NA
ATOM     54  C   UNL A   1      44.138  26.082  30.260  1.00  0.00     0.031 C 
ATOM     55  C   UNL A   1      43.214  29.121  35.434  1.00  0.00     0.029 A 
ATOM     56  C   UNL A   1      43.064  28.621  34.150  1.00  0.00     0.049 A 
ATOM     57  H   UNL A   1      41.585  29.073  32.713  1.00  0.00     0.167 HD
ATOM     58  C   UNL A   1      43.687  27.229  32.194  1.00  0.00     0.074 A 
ATOM     59  C   UNL A   1      44.535  26.275  31.509  1.00  0.00     0.031 C 
ATOM     60  C   UNL A   1      43.891  27.662  33.462  1.00  0.00     0.037 A 
BRANCH  47  61
ATOM     61  C   UNL A   1      39.714  31.739  35.477  1.00  0.00     0.064 A 
ATOM     62  C   UNL A   1      40.207  33.042  35.648  1.00  0.00     0.173 A 
ATOM     63  C   UNL A   1      38.687  31.313  36.335  1.00  0.00     0.173 A 
ATOM     64  F   UNL A   1      41.195  33.499  34.863  1.00  0.00    -0.203 F 
ATOM     65  C   UNL A   1      39.698  33.880  36.637  1.00  0.00     0.198 A 
ATOM     66  C   UNL A   1      38.156  32.166  37.300  1.00  0.00     0.198 A 
ATOM     67  F   UNL A   1      38.173  30.079  36.215  1.00  0.00    -0.203 F 
ATOM     68  F   UNL A   1      40.207  35.109  36.798  1.00  0.00    -0.200 F 
ATOM     69  C   UNL A   1      38.662  33.447  37.451  1.00  0.00     0.200 A 
ATOM     70  F   UNL A   1      37.142  31.752  38.073  1.00  0.00    -0.200 F 
ATOM     71  F   UNL A   1      38.153  34.266  38.381  1.00  0.00    -0.200 F 
ENDBRANCH  47  61
BRANCH  48  72
ATOM     72  C   UNL A   1      42.549  25.993  27.789  1.00  0.00     0.064 A 
ATOM     73  C   UNL A   1      41.991  24.719  27.611  1.00  0.00     0.173 A 
ATOM     74  C   UNL A   1      43.492  26.427  26.845  1.00  0.00     0.173 A 
ATOM     75  F   UNL A   1      41.096  24.251  28.494  1.00  0.00    -0.203 F 
ATOM     76  C   UNL A   1      42.371  23.907  26.545  1.00  0.00     0.198 A 
ATOM     77  C   UNL A   1      43.844  25.630  25.758  1.00  0.00     0.198 A 
ATOM     78  F   UNL A   1      44.051  27.641  26.961  1.00  0.00    -0.203 F 
ATOM     79  F   UNL A   1      41.853  22.677  26.424  1.00  0.00    -0.200 F 
ATOM     80  C   UNL A   1      43.290  24.367  25.614  1.00  0.00     0.200 A 
ATOM     81  F   UNL A   1      44.714  26.087  24.848  1.00  0.00    -0.200 F 
ATOM     82  F   UNL A   1      43.642  23.593  24.577  1.00  0.00    -0.200 F 
ENDBRANCH  48  72
BRANCH  60  83
ATOM     83  C   UNL A   1      45.048  27.075  34.220  1.00  0.00     0.064 A 
ATOM     84  C   UNL A   1      46.312  27.683  34.233  1.00  0.00     0.173 A 
ATOM     85  C   UNL A   1      44.872  25.914  34.990  1.00  0.00     0.173 A 
ATOM     86  F   UNL A   1      46.537  28.790  33.509  1.00  0.00    -0.203 F 
ATOM     87  C   UNL A   1      47.364  27.132  34.959  1.00  0.00     0.198 A 
ATOM     88  C   UNL A   1      45.914  25.389  35.748  1.00  0.00     0.198 A 
ATOM     89  F   UNL A   1      43.680  25.299  35.025  1.00  0.00    -0.203 F 
ATOM     90  F   UNL A   1      48.578  27.697  34.910  1.00  0.00    -0.200 F 
ATOM     91  C   UNL A   1      47.162  25.992  35.724  1.00  0.00     0.200 A 
ATOM     92  F   UNL A   1      45.709  24.303  36.505  1.00  0.00    -0.200 F 
ATOM     93  F   UNL A   1      48.172  25.472  36.434  1.00  0.00    -0.200 F 
ENDBRANCH  60  83
ENDBRANCH  34  35
ENDBRANCH  27  29
ENDBRANCH  26  27
ENDBRANCH  25  26
ENDBRANCH   1  25
TORSDOF 15
ENDMDL
MODEL 2
REMARK VINA RESULT:     -12.2      1.001      1.649
REMARK SMILES Cc1ccc(C#N)cc1S(=O)(=O)Nc1cccc(C(=O)OCCOC(=O)c2ccc(-c3c4nc(c(-c5c(F)c(F)c(F)c(F)c5F)c5ccc([nH]5)c(-c5c(F)c(F)c(F)c(F)c5F)c5nc(c(-c6c(F)c(F)c(F)c(F)c6F)c6ccc3[nH]6)C=C5)C=C4)cc2)c1
REMARK SMILES IDX 22 1 21 2 19 3 20 4 18 5 14 6 15 7 90 8 16 9 17 10 13 11
REMARK SMILES IDX 10 13 11 14 12 15 9 16 1 17 2 18 3 19 4 20 8 21 5 22 6 23
REMARK SMILES IDX 7 24 23 25 24 26 25 27 26 28 27 29 28 30 89 31 29 32 88 33
REMARK SMILES IDX 30 34 31 35 32 36 82 37 33 38 87 39 81 40 83 41 34 42 86 43
REMARK SMILES IDX 80 44 79 45 35 47 67 48 47 49 66 50 48 51 51 52 65 53 84 54
REMARK SMILES IDX 49 55 50 56 64 58 85 59 52 60 36 61 37 62 45 63 38 64 39 65
REMARK SMILES IDX 43 66 46 67 40 68 41 69 44 70 42 71 68 72 69 73 77 74 70 75
REMARK SMILES IDX 71 76 75 77 78 78 72 79 73 80 76 81 74 82 53 83 54 84 62 85
REMARK SMILES IDX 55 86 56 87 60 88 63 89 57 90 58 91 61 92 59 93
REMARK H PARENT 13 12 83 46 51 57
REMARK Flexibility Score: inf
ROOT
ATOM      1  C   UNL A   1      31.416  29.177  25.205  1.00  0.00     0.275 C 
ENDROOT
BRANCH   1   2
ATOM      2  O   UNL A   1      32.169  28.022  25.649  1.00  0.00    -0.458 OA
BRANCH   2   3
ATOM      3  C   UNL A   1      31.494  27.131  26.418  1.00  0.00     0.338 C 
ATOM      4  O   UNL A   1      31.057  27.347  27.539  1.00  0.00    -0.246 OA
BRANCH   3   5
ATOM      5  C   UNL A   1      31.231  25.843  25.709  1.00  0.00     0.062 A 
ATOM      6  C   UNL A   1      31.363  23.436  25.444  1.00  0.00     0.050 A 
ATOM      7  C   UNL A   1      30.777  23.525  24.181  1.00  0.00     0.027 A 
ATOM      8  C   UNL A   1      31.574  24.586  26.226  1.00  0.00     0.042 A 
ATOM      9  C   UNL A   1      30.418  24.769  23.672  1.00  0.00     0.003 A 
ATOM     10  C   UNL A   1      30.636  25.917  24.435  1.00  0.00     0.016 A 
BRANCH   6  11
ATOM     11  N   UNL A   1      31.706  22.146  25.927  1.00  0.00    -0.280 N 
ATOM     12  H   UNL A   1      31.072  21.700  26.533  1.00  0.00     0.180 HD
BRANCH  11  13
ATOM     13  S   UNL A   1      33.131  21.322  25.532  1.00  0.00     0.262 S 
ATOM     14  O   UNL A   1      33.626  20.884  26.826  1.00  0.00    -0.201 OA
ATOM     15  O   UNL A   1      33.920  22.251  24.751  1.00  0.00    -0.201 OA
BRANCH  13  16
ATOM     16  C   UNL A   1      32.963  19.835  24.542  1.00  0.00     0.092 A 
ATOM     17  C   UNL A   1      32.009  20.894  22.385  1.00  0.00     0.046 C 
ATOM     18  C   UNL A   1      32.442  19.747  23.242  1.00  0.00    -0.030 A 
ATOM     19  C   UNL A   1      32.368  18.482  22.618  1.00  0.00     0.006 A 
ATOM     20  C   UNL A   1      32.978  17.361  23.172  1.00  0.00     0.020 A 
ATOM     21  C   UNL A   1      33.614  18.694  25.075  1.00  0.00     0.042 A 
ATOM     22  C   UNL A   1      33.662  17.481  24.376  1.00  0.00     0.053 A 
BRANCH  22  23
ATOM     23  C   UNL A   1      34.459  16.387  24.845  1.00  0.00     0.099 C 
ATOM     24  N   UNL A   1      35.139  15.530  25.244  1.00  0.00    -0.192 NA
ENDBRANCH  22  23
ENDBRANCH  13  16
ENDBRANCH  11  13
ENDBRANCH   6  11
ENDBRANCH   3   5
ENDBRANCH   2   3
ENDBRANCH   1   2
BRANCH   1  25
ATOM     25  C   UNL A   1      31.767  30.449  25.986  1.00  0.00     0.275 C 
BRANCH  25  26
ATOM     26  O   UNL A   1      33.164  30.503  26.322  1.00  0.00    -0.458 OA
BRANCH  26  27
ATOM     27  C   UNL A   1      33.514  31.523  27.134  1.00  0.00     0.338 C 
ATOM     28  O   UNL A   1      32.865  32.516  27.416  1.00  0.00    -0.246 OA
BRANCH  27  29
ATOM     29  C   UNL A   1      34.788  31.197  27.784  1.00  0.00     0.060 A 
ATOM     30  C   UNL A   1      35.787  32.149  27.963  1.00  0.00     0.016 A 
ATOM     31  C   UNL A   1      34.933  29.911  28.298  1.00  0.00     0.016 A 
ATOM     32  C   UNL A   1      36.955  31.784  28.640  1.00  0.00     0.010 A 
ATOM     33  C   UNL A   1      36.061  29.569  29.032  1.00  0.00     0.010 A 
ATOM     34  C   UNL A   1      37.098  30.494  29.193  1.00  0.00    -0.014 A 
BRANCH  34  35
ATOM     35  C   UNL A   1      38.316  30.101  29.950  1.00  0.00     0.031 A 
ATOM     36  C   UNL A   1      38.554  30.617  31.347  1.00  0.00     0.074 A 
ATOM     37  C   UNL A   1      39.234  29.310  29.358  1.00  0.00     0.049 A 
ATOM     38  N   UNL A   1      39.566  30.397  32.148  1.00  0.00    -0.248 NA
ATOM     39  C   UNL A   1      37.539  31.523  31.911  1.00  0.00     0.031 C 
ATOM     40  C   UNL A   1      39.147  28.801  27.988  1.00  0.00     0.029 A 
ATOM     41  N   UNL A   1      40.413  28.791  29.829  1.00  0.00    -0.354 N 
ATOM     42  C   UNL A   1      39.309  31.133  33.299  1.00  0.00     0.074 A 
ATOM     43  C   UNL A   1      38.085  31.864  33.069  1.00  0.00     0.031 C 
ATOM     44  C   UNL A   1      40.193  27.997  27.750  1.00  0.00     0.029 A 
ATOM     45  C   UNL A   1      41.055  27.977  28.927  1.00  0.00     0.049 A 
ATOM     46  H   UNL A   1      40.766  28.982  30.728  1.00  0.00     0.167 HD
ATOM     47  C   UNL A   1      40.011  31.164  34.456  1.00  0.00     0.037 A 
ATOM     48  C   UNL A   1      42.210  27.292  29.034  1.00  0.00     0.037 A 
ATOM     49  C   UNL A   1      41.218  30.413  34.687  1.00  0.00     0.049 A 
ATOM     50  C   UNL A   1      42.976  27.357  30.327  1.00  0.00     0.074 A 
ATOM     51  C   UNL A   1      41.980  30.341  35.840  1.00  0.00     0.029 A 
ATOM     52  N   UNL A   1      41.837  29.603  33.746  1.00  0.00    -0.354 N 
ATOM     53  N   UNL A   1      42.688  28.007  31.428  1.00  0.00    -0.248 NA
ATOM     54  C   UNL A   1      44.224  26.585  30.396  1.00  0.00     0.031 C 
ATOM     55  C   UNL A   1      43.093  29.540  35.577  1.00  0.00     0.029 A 
ATOM     56  C   UNL A   1      42.985  29.045  34.287  1.00  0.00     0.049 A 
ATOM     57  H   UNL A   1      41.511  29.448  32.830  1.00  0.00     0.167 HD
ATOM     58  C   UNL A   1      43.695  27.697  32.331  1.00  0.00     0.074 A 
ATOM     59  C   UNL A   1      44.593  26.784  31.652  1.00  0.00     0.031 C 
ATOM     60  C   UNL A   1      43.861  28.127  33.606  1.00  0.00     0.037 A 
BRANCH  47  61
ATOM     61  C   UNL A   1      39.488  32.012  35.585  1.00  0.00     0.064 A 
ATOM     62  C   UNL A   1      38.547  31.515  36.500  1.00  0.00     0.173 A 
ATOM     63  C   UNL A   1      40.009  33.295  35.815  1.00  0.00     0.173 A 
ATOM     64  F   UNL A   1      38.009  30.299  36.324  1.00  0.00    -0.203 F 
ATOM     65  C   UNL A   1      38.141  32.273  37.596  1.00  0.00     0.198 A 
ATOM     66  C   UNL A   1      39.626  34.037  36.931  1.00  0.00     0.198 A 
ATOM     67  F   UNL A   1      40.915  33.819  34.976  1.00  0.00    -0.203 F 
ATOM     68  F   UNL A   1      37.219  31.788  38.438  1.00  0.00    -0.200 F 
ATOM     69  C   UNL A   1      38.692  33.526  37.819  1.00  0.00     0.200 A 
ATOM     70  F   UNL A   1      40.175  35.238  37.155  1.00  0.00    -0.200 F 
ATOM     71  F   UNL A   1      38.323  34.240  38.890  1.00  0.00    -0.200 F 
ENDBRANCH  47  61
BRANCH  48  72
ATOM     72  C   UNL A   1      42.679  26.451  27.899  1.00  0.00     0.064 A 
ATOM     73  C   UNL A   1      42.216  25.138  27.733  1.00  0.00     0.173 A 
ATOM     74  C   UNL A   1      43.578  26.949  26.943  1.00  0.00     0.173 A 
ATOM     75  F   UNL A   1      41.368  24.609  28.627  1.00  0.00    -0.203 F 
ATOM     76  C   UNL A   1      42.646  24.350  26.667  1.00  0.00     0.198 A 
ATOM     77  C   UNL A   1      43.978  26.174  25.857  1.00  0.00     0.198 A 
ATOM     78  F   UNL A   1      44.044  28.202  27.048  1.00  0.00    -0.203 F 
ATOM     79  F   UNL A   1      42.221  23.085  26.557  1.00  0.00    -0.200 F 
ATOM     80  C   UNL A   1      43.519  24.873  25.724  1.00  0.00     0.200 A 
ATOM     81  F   UNL A   1      44.802  26.691  24.936  1.00  0.00    -0.200 F 
ATOM     82  F   UNL A   1      43.918  24.121  24.688  1.00  0.00    -0.200 F 
ENDBRANCH  48  72
BRANCH  60  83
ATOM     83  C   UNL A   1      45.030  27.581  34.377  1.00  0.00     0.064 A 
ATOM     84  C   UNL A   1      46.267  28.241  34.415  1.00  0.00     0.173 A 
ATOM     85  C   UNL A   1      44.889  26.408  35.135  1.00  0.00     0.173 A 
ATOM     86  F   UNL A   1      46.457  29.362  33.703  1.00  0.00    -0.203 F 
ATOM     87  C   UNL A   1      47.329  27.727  35.154  1.00  0.00     0.198 A 
ATOM     88  C   UNL A   1      45.940  25.920  35.906  1.00  0.00     0.198 A 
ATOM     89  F   UNL A   1      43.724  25.744  35.147  1.00  0.00    -0.203 F 
ATOM     90  F   UNL A   1      48.519  28.342  35.128  1.00  0.00    -0.200 F 
ATOM     91  C   UNL A   1      47.162  26.574  35.906  1.00  0.00     0.200 A 
ATOM     92  F   UNL A   1      45.768  24.820  36.651  1.00  0.00    -0.200 F 
ATOM     93  F   UNL A   1      48.182  26.090  36.628  1.00  0.00    -0.200 F 
ENDBRANCH  60  83
ENDBRANCH  34  35
ENDBRANCH  27  29
ENDBRANCH  26  27
ENDBRANCH  25  26
ENDBRANCH   1  25
TORSDOF 15
ENDMDL
MODEL 3
REMARK VINA RESULT:     -12.1      3.304      8.509
REMARK SMILES Cc1ccc(C#N)cc1S(=O)(=O)Nc1cccc(C(=O)OCCOC(=O)c2ccc(-c3c4nc(c(-c5c(F)c(F)c(F)c(F)c5F)c5ccc([nH]5)c(-c5c(F)c(F)c(F)c(F)c5F)c5nc(c(-c6c(F)c(F)c(F)c(F)c6F)c6ccc3[nH]6)C=C5)C=C4)cc2)c1
REMARK SMILES IDX 22 1 21 2 19 3 20 4 18 5 14 6 15 7 90 8 16 9 17 10 13 11
REMARK SMILES IDX 10 13 11 14 12 15 9 16 1 17 2 18 3 19 4 20 8 21 5 22 6 23
REMARK SMILES IDX 7 24 23 25 24 26 25 27 26 28 27 29 28 30 89 31 29 32 88 33
REMARK SMILES IDX 30 34 31 35 32 36 82 37 33 38 87 39 81 40 83 41 34 42 86 43
REMARK SMILES IDX 80 44 79 45 35 47 67 48 47 49 66 50 48 51 51 52 65 53 84 54
REMARK SMILES IDX 49 55 50 56 64 58 85 59 52 60 36 61 37 62 45 63 38 64 39 65
REMARK SMILES IDX 43 66 46 67 40 68 41 69 44 70 42 71 68 72 69 73 77 74 70 75
REMARK SMILES IDX 71 76 75 77 78 78 72 79 73 80 76 81 74 82 53 83 54 84 62 85
REMARK SMILES IDX 55 86 56 87 60 88 63 89 57 90 58 91 61 92 59 93
REMARK H PARENT 13 12 83 46 51 57
REMARK Flexibility Score: inf
ROOT
ATOM      1  C   UNL A   1      42.822  21.015  26.097  1.00  0.00     0.275 C 
ENDROOT
BRANCH   1   2
ATOM      2  O   UNL A   1      41.430  21.124  25.714  1.00  0.00    -0.458 OA
BRANCH   2   3
ATOM      3  C   UNL A   1      40.543  21.273  26.730  1.00  0.00     0.338 C 
ATOM      4  O   UNL A   1      40.706  20.884  27.878  1.00  0.00    -0.246 OA
BRANCH   3   5
ATOM      5  C   UNL A   1      39.348  22.076  26.338  1.00  0.00     0.062 A 
ATOM      6  C   UNL A   1      37.262  22.442  25.154  1.00  0.00     0.050 A 
ATOM      7  C   UNL A   1      37.230  23.769  25.585  1.00  0.00     0.027 A 
ATOM      8  C   UNL A   1      38.304  21.580  25.543  1.00  0.00     0.042 A 
ATOM      9  C   UNL A   1      38.253  24.260  26.388  1.00  0.00     0.003 A 
ATOM     10  C   UNL A   1      39.299  23.416  26.768  1.00  0.00     0.016 A 
BRANCH   6  11
ATOM     11  N   UNL A   1      36.193  21.981  24.342  1.00  0.00    -0.280 N 
ATOM     12  H   UNL A   1      36.376  21.827  23.388  1.00  0.00     0.180 HD
BRANCH  11  13
ATOM     13  S   UNL A   1      34.625  21.676  24.902  1.00  0.00     0.262 S 
ATOM     14  O   UNL A   1      34.704  22.033  26.308  1.00  0.00    -0.201 OA
ATOM     15  O   UNL A   1      34.336  20.306  24.535  1.00  0.00    -0.201 OA
BRANCH  13  16
ATOM     16  C   UNL A   1      33.306  22.680  24.215  1.00  0.00     0.092 A 
ATOM     17  C   UNL A   1      31.361  21.865  25.713  1.00  0.00     0.046 C 
ATOM     18  C   UNL A   1      31.953  22.661  24.593  1.00  0.00    -0.030 A 
ATOM     19  C   UNL A   1      31.044  23.512  23.926  1.00  0.00     0.006 A 
ATOM     20  C   UNL A   1      31.482  24.503  23.054  1.00  0.00     0.020 A 
ATOM     21  C   UNL A   1      33.740  23.720  23.357  1.00  0.00     0.042 A 
ATOM     22  C   UNL A   1      32.843  24.652  22.818  1.00  0.00     0.053 A 
BRANCH  22  23
ATOM     23  C   UNL A   1      33.311  25.792  22.088  1.00  0.00     0.099 C 
ATOM     24  N   UNL A   1      33.736  26.708  21.507  1.00  0.00    -0.192 NA
ENDBRANCH  22  23
ENDBRANCH  13  16
ENDBRANCH  11  13
ENDBRANCH   6  11
ENDBRANCH   3   5
ENDBRANCH   2   3
ENDBRANCH   1   2
BRANCH   1  25
ATOM     25  C   UNL A   1      43.733  21.955  25.297  1.00  0.00     0.275 C 
BRANCH  25  26
ATOM     26  O   UNL A   1      43.092  23.213  25.021  1.00  0.00    -0.458 OA
BRANCH  26  27
ATOM     27  C   UNL A   1      43.870  24.300  25.214  1.00  0.00     0.338 C 
ATOM     28  O   UNL A   1      44.822  24.670  24.549  1.00  0.00    -0.246 OA
BRANCH  27  29
ATOM     29  C   UNL A   1      43.302  25.102  26.303  1.00  0.00     0.060 A 
ATOM     30  C   UNL A   1      42.524  24.533  27.307  1.00  0.00     0.016 A 
ATOM     31  C   UNL A   1      43.643  26.451  26.348  1.00  0.00     0.016 A 
ATOM     32  C   UNL A   1      42.061  25.347  28.346  1.00  0.00     0.010 A 
ATOM     33  C   UNL A   1      43.243  27.243  27.416  1.00  0.00     0.010 A 
ATOM     34  C   UNL A   1      42.427  26.707  28.418  1.00  0.00    -0.014 A 
BRANCH  34  35
ATOM     35  C   UNL A   1      41.976  27.577  29.537  1.00  0.00     0.031 A 
ATOM     36  C   UNL A   1      40.744  28.435  29.395  1.00  0.00     0.074 A 
ATOM     37  C   UNL A   1      42.708  27.628  30.668  1.00  0.00     0.049 A 
ATOM     38  N   UNL A   1      40.215  29.269  30.256  1.00  0.00    -0.248 NA
ATOM     39  C   UNL A   1      40.025  28.374  28.112  1.00  0.00     0.031 C 
ATOM     40  C   UNL A   1      43.954  26.895  30.898  1.00  0.00     0.029 A 
ATOM     41  N   UNL A   1      42.510  28.318  31.838  1.00  0.00    -0.354 N 
ATOM     42  C   UNL A   1      39.112  29.825  29.619  1.00  0.00     0.074 A 
ATOM     43  C   UNL A   1      39.086  29.294  28.276  1.00  0.00     0.031 C 
ATOM     44  C   UNL A   1      44.377  27.126  32.149  1.00  0.00     0.029 A 
ATOM     45  C   UNL A   1      43.466  28.068  32.793  1.00  0.00     0.049 A 
ATOM     46  H   UNL A   1      41.756  28.935  31.980  1.00  0.00     0.167 HD
ATOM     47  C   UNL A   1      38.183  30.672  30.123  1.00  0.00     0.037 A 
ATOM     48  C   UNL A   1      43.597  28.543  34.046  1.00  0.00     0.037 A 
ATOM     49  C   UNL A   1      38.202  31.179  31.470  1.00  0.00     0.049 A 
ATOM     50  C   UNL A   1      42.558  29.495  34.574  1.00  0.00     0.074 A 
ATOM     51  C   UNL A   1      37.284  32.008  32.091  1.00  0.00     0.029 A 
ATOM     52  N   UNL A   1      39.190  30.904  32.405  1.00  0.00    -0.354 N 
ATOM     53  N   UNL A   1      41.487  29.963  33.981  1.00  0.00    -0.248 NA
ATOM     54  C   UNL A   1      42.741  29.976  35.949  1.00  0.00     0.031 C 
ATOM     55  C   UNL A   1      37.748  32.284  33.379  1.00  0.00     0.029 A 
ATOM     56  C   UNL A   1      38.914  31.565  33.591  1.00  0.00     0.049 A 
ATOM     57  H   UNL A   1      39.971  30.325  32.249  1.00  0.00     0.167 HD
ATOM     58  C   UNL A   1      40.850  30.764  34.918  1.00  0.00     0.074 A 
ATOM     59  C   UNL A   1      41.647  30.703  36.126  1.00  0.00     0.031 C 
ATOM     60  C   UNL A   1      39.707  31.483  34.791  1.00  0.00     0.037 A 
BRANCH  47  61
ATOM     61  C   UNL A   1      37.044  31.092  29.233  1.00  0.00     0.064 A 
ATOM     62  C   UNL A   1      35.966  30.234  28.969  1.00  0.00     0.173 A 
ATOM     63  C   UNL A   1      36.978  32.399  28.725  1.00  0.00     0.173 A 
ATOM     64  F   UNL A   1      35.979  28.971  29.422  1.00  0.00    -0.203 F 
ATOM     65  C   UNL A   1      34.871  30.664  28.223  1.00  0.00     0.198 A 
ATOM     66  C   UNL A   1      35.866  32.837  28.009  1.00  0.00     0.198 A 
ATOM     67  F   UNL A   1      37.978  33.265  28.951  1.00  0.00    -0.203 F 
ATOM     68  F   UNL A   1      33.867  29.816  27.959  1.00  0.00    -0.200 F 
ATOM     69  C   UNL A   1      34.814  31.969  27.758  1.00  0.00     0.200 A 
ATOM     70  F   UNL A   1      35.805  34.104  27.578  1.00  0.00    -0.200 F 
ATOM     71  F   UNL A   1      33.746  32.390  27.068  1.00  0.00    -0.200 F 
ENDBRANCH  47  61
BRANCH  48  72
ATOM     72  C   UNL A   1      44.729  28.086  34.896  1.00  0.00     0.064 A 
ATOM     73  C   UNL A   1      45.947  28.780  34.913  1.00  0.00     0.173 A 
ATOM     74  C   UNL A   1      44.611  26.962  35.729  1.00  0.00     0.173 A 
ATOM     75  F   UNL A   1      46.117  29.852  34.124  1.00  0.00    -0.203 F 
ATOM     76  C   UNL A   1      47.007  28.361  35.714  1.00  0.00     0.198 A 
ATOM     77  C   UNL A   1      45.657  26.566  36.558  1.00  0.00     0.198 A 
ATOM     78  F   UNL A   1      43.464  26.267  35.760  1.00  0.00    -0.203 F 
ATOM     79  F   UNL A   1      48.173  29.019  35.677  1.00  0.00    -0.200 F 
ATOM     80  C   UNL A   1      46.857  27.260  36.544  1.00  0.00     0.200 A 
ATOM     81  F   UNL A   1      45.501  25.516  37.376  1.00  0.00    -0.200 F 
ATOM     82  F   UNL A   1      47.871  26.867  37.329  1.00  0.00    -0.200 F 
ENDBRANCH  48  72
BRANCH  60  83
ATOM     83  C   UNL A   1      39.216  32.228  36.000  1.00  0.00     0.064 A 
ATOM     84  C   UNL A   1      39.574  33.561  36.247  1.00  0.00     0.173 A 
ATOM     85  C   UNL A   1      38.327  31.611  36.895  1.00  0.00     0.173 A 
ATOM     86  F   UNL A   1      40.426  34.195  35.426  1.00  0.00    -0.203 F 
ATOM     87  C   UNL A   1      39.089  34.237  37.363  1.00  0.00     0.198 A 
ATOM     88  C   UNL A   1      37.811  32.304  37.987  1.00  0.00     0.198 A 
ATOM     89  F   UNL A   1      37.940  30.342  36.700  1.00  0.00    -0.203 F 
ATOM     90  F   UNL A   1      39.492  35.491  37.611  1.00  0.00    -0.200 F 
ATOM     91  C   UNL A   1      38.202  33.612  38.226  1.00  0.00     0.200 A 
ATOM     92  F   UNL A   1      36.935  31.705  38.804  1.00  0.00    -0.200 F 
ATOM     93  F   UNL A   1      37.725  34.270  39.291  1.00  0.00    -0.200 F 
ENDBRANCH  60  83
ENDBRANCH  34  35
ENDBRANCH  27  29
ENDBRANCH  26  27
ENDBRANCH  25  26
ENDBRANCH   1  25
TORSDOF 15
ENDMDL
