MODEL 1
REMARK VINA RESULT:     -11.4      0.000      0.000
REMARK SMILES COc1cccc(O[C@@H](C)c2nnc(SCC(=O)OCCOC(=O)c3ccc(-c4c5nc(c(-c6c(F)c(F)c(F)c(F)c6F)c6ccc([nH]6)c(-c6c(F)c(F)c(F)c(F)c6F)c6nc(c(-c7c(F)c(F)c(F)c(F)c7F)c7ccc4[nH]7)C=C6)C=C5)cc3)n2C)c1
REMARK SMILES IDX 17 1 18 2 16 3 15 4 14 5 11 6 12 7 88 8 13 9 89 10 9 11
REMARK SMILES IDX 10 12 8 13 7 14 3 15 4 16 90 17 5 18 6 19 2 20 1 21 19 22
REMARK SMILES IDX 20 23 21 24 22 25 23 26 24 27 25 28 26 29 87 30 27 31 86 32
REMARK SMILES IDX 28 33 29 34 30 35 80 36 31 37 85 38 79 39 81 40 32 41 84 42
REMARK SMILES IDX 78 43 77 44 33 46 65 47 45 48 64 49 46 50 49 51 63 52 82 53
REMARK SMILES IDX 47 54 48 55 62 57 83 58 50 59 34 60 35 61 43 62 36 63 37 64
REMARK SMILES IDX 41 65 44 66 38 67 39 68 42 69 40 70 66 71 67 72 75 73 68 74
REMARK SMILES IDX 69 75 73 76 76 77 70 78 71 79 74 80 72 81 51 82 52 83 60 84
REMARK SMILES IDX 53 85 54 86 58 87 61 88 55 89 56 90 59 91 57 92
REMARK H PARENT 81 45 49 56
REMARK Flexibility Score: inf
ROOT
ATOM      1  C   UNL A   1      33.296  34.604  29.649  1.00  0.00     0.316 C 
ATOM      2  O   UNL A   1      32.573  35.577  29.848  1.00  0.00    -0.251 OA
ENDROOT
BRANCH   1   3
ATOM      3  C   UNL A   1      33.478  34.017  28.258  1.00  0.00     0.200 C 
BRANCH   3   4
ATOM      4  S   UNL A   1      34.977  33.055  28.051  1.00  0.00    -0.074 SA
BRANCH   4   5
ATOM      5  C   UNL A   1      34.626  31.388  27.749  1.00  0.00     0.191 A 
ATOM      6  C   UNL A   1      33.972  29.493  26.831  1.00  0.00     0.174 A 
ATOM      7  N   UNL A   1      35.146  29.307  27.405  1.00  0.00    -0.130 NA
ATOM      8  N   UNL A   1      33.560  30.787  27.122  1.00  0.00    -0.306 N 
ATOM      9  N   UNL A   1      35.548  30.480  27.969  1.00  0.00    -0.123 NA
ATOM     10  C   UNL A   1      32.252  31.314  26.899  1.00  0.00     0.154 C 
BRANCH   6  11
ATOM     11  C   UNL A   1      33.319  28.436  25.978  1.00  0.00     0.238 C 
ATOM     12  C   UNL A   1      33.864  27.017  25.953  1.00  0.00     0.062 C 
BRANCH  11  13
ATOM     13  O   UNL A   1      32.997  28.956  24.672  1.00  0.00    -0.483 OA
BRANCH  13  14
ATOM     14  C   UNL A   1      31.825  28.607  24.072  1.00  0.00     0.124 A 
ATOM     15  C   UNL A   1      29.991  28.911  22.536  1.00  0.00     0.122 A 
ATOM     16  C   UNL A   1      29.309  27.844  23.109  1.00  0.00     0.046 A 
ATOM     17  C   UNL A   1      31.220  29.327  23.048  1.00  0.00     0.092 A 
ATOM     18  C   UNL A   1      29.882  27.170  24.184  1.00  0.00     0.008 A 
ATOM     19  C   UNL A   1      31.145  27.535  24.650  1.00  0.00     0.047 A 
BRANCH  15  20
ATOM     20  O   UNL A   1      29.390  29.634  21.543  1.00  0.00    -0.497 OA
ATOM     21  C   UNL A   1      29.075  30.947  22.006  1.00  0.00     0.278 C 
ENDBRANCH  15  20
ENDBRANCH  13  14
ENDBRANCH  11  13
ENDBRANCH   6  11
ENDBRANCH   4   5
ENDBRANCH   3   4
ENDBRANCH   1   3
BRANCH   1  22
ATOM     22  O   UNL A   1      33.951  33.930  30.629  1.00  0.00    -0.461 OA
BRANCH  22  23
ATOM     23  C   UNL A   1      34.088  34.579  31.909  1.00  0.00     0.274 C 
BRANCH  23  24
ATOM     24  C   UNL A   1      34.402  33.582  33.022  1.00  0.00     0.275 C 
BRANCH  24  25
ATOM     25  O   UNL A   1      35.136  32.452  32.508  1.00  0.00    -0.458 OA
BRANCH  25  26
ATOM     26  C   UNL A   1      36.255  32.140  33.185  1.00  0.00     0.338 C 
ATOM     27  O   UNL A   1      36.483  32.337  34.376  1.00  0.00    -0.246 OA
BRANCH  26  28
ATOM     28  C   UNL A   1      37.245  31.450  32.340  1.00  0.00     0.060 A 
ATOM     29  C   UNL A   1      38.346  30.817  32.920  1.00  0.00     0.016 A 
ATOM     30  C   UNL A   1      37.212  31.670  30.960  1.00  0.00     0.016 A 
ATOM     31  C   UNL A   1      39.446  30.477  32.126  1.00  0.00     0.010 A 
ATOM     32  C   UNL A   1      38.279  31.251  30.157  1.00  0.00     0.010 A 
ATOM     33  C   UNL A   1      39.423  30.675  30.733  1.00  0.00    -0.014 A 
BRANCH  33  34
ATOM     34  C   UNL A   1      40.552  30.204  29.880  1.00  0.00     0.031 A 
ATOM     35  C   UNL A   1      40.650  28.785  29.377  1.00  0.00     0.074 A 
ATOM     36  C   UNL A   1      41.536  31.071  29.570  1.00  0.00     0.049 A 
ATOM     37  N   UNL A   1      41.599  28.228  28.664  1.00  0.00    -0.248 NA
ATOM     38  C   UNL A   1      39.542  27.874  29.699  1.00  0.00     0.031 C 
ATOM     39  C   UNL A   1      41.587  32.473  29.986  1.00  0.00     0.029 A 
ATOM     40  N   UNL A   1      42.689  30.898  28.842  1.00  0.00    -0.354 N 
ATOM     41  C   UNL A   1      41.203  26.915  28.446  1.00  0.00     0.074 A 
ATOM     42  C   UNL A   1      39.935  26.744  29.124  1.00  0.00     0.031 C 
ATOM     43  C   UNL A   1      42.704  33.035  29.503  1.00  0.00     0.029 A 
ATOM     44  C   UNL A   1      43.481  32.018  28.801  1.00  0.00     0.049 A 
ATOM     45  H   UNL A   1      42.923  30.053  28.394  1.00  0.00     0.167 HD
ATOM     46  C   UNL A   1      41.828  25.947  27.733  1.00  0.00     0.037 A 
ATOM     47  C   UNL A   1      44.716  32.207  28.301  1.00  0.00     0.037 A 
ATOM     48  C   UNL A   1      43.081  26.100  27.044  1.00  0.00     0.049 A 
ATOM     49  C   UNL A   1      45.440  31.077  27.635  1.00  0.00     0.074 A 
ATOM     50  C   UNL A   1      43.727  25.191  26.220  1.00  0.00     0.029 A 
ATOM     51  N   UNL A   1      43.890  27.219  27.115  1.00  0.00    -0.354 N 
ATOM     52  N   UNL A   1      45.019  29.863  27.385  1.00  0.00    -0.248 NA
ATOM     53  C   UNL A   1      46.819  31.339  27.199  1.00  0.00     0.031 C 
ATOM     54  C   UNL A   1      44.948  25.746  25.824  1.00  0.00     0.029 A 
ATOM     55  C   UNL A   1      45.052  27.006  26.387  1.00  0.00     0.049 A 
ATOM     56  H   UNL A   1      43.675  28.043  27.607  1.00  0.00     0.167 HD
ATOM     57  C   UNL A   1      46.073  29.221  26.752  1.00  0.00     0.074 A 
ATOM     58  C   UNL A   1      47.152  30.179  26.648  1.00  0.00     0.031 C 
ATOM     59  C   UNL A   1      46.134  27.947  26.299  1.00  0.00     0.037 A 
BRANCH  46  60
ATOM     60  C   UNL A   1      41.172  24.608  27.614  1.00  0.00     0.064 A 
ATOM     61  C   UNL A   1      40.087  24.428  26.746  1.00  0.00     0.173 A 
ATOM     62  C   UNL A   1      41.722  23.478  28.229  1.00  0.00     0.173 A 
ATOM     63  F   UNL A   1      39.543  25.483  26.120  1.00  0.00    -0.203 F 
ATOM     64  C   UNL A   1      39.565  23.160  26.507  1.00  0.00     0.198 A 
ATOM     65  C   UNL A   1      41.204  22.208  27.981  1.00  0.00     0.198 A 
ATOM     66  F   UNL A   1      42.779  23.601  29.045  1.00  0.00    -0.203 F 
ATOM     67  F   UNL A   1      38.520  23.013  25.682  1.00  0.00    -0.200 F 
ATOM     68  C   UNL A   1      40.127  22.050  27.120  1.00  0.00     0.200 A 
ATOM     69  F   UNL A   1      41.759  21.134  28.559  1.00  0.00    -0.200 F 
ATOM     70  F   UNL A   1      39.635  20.829  26.876  1.00  0.00    -0.200 F 
ENDBRANCH  46  60
BRANCH  47  71
ATOM     71  C   UNL A   1      45.367  33.528  28.468  1.00  0.00     0.064 A 
ATOM     72  C   UNL A   1      45.224  34.530  27.503  1.00  0.00     0.173 A 
ATOM     73  C   UNL A   1      46.126  33.816  29.613  1.00  0.00     0.173 A 
ATOM     74  F   UNL A   1      44.526  34.287  26.384  1.00  0.00    -0.203 F 
ATOM     75  C   UNL A   1      45.816  35.778  27.676  1.00  0.00     0.198 A 
ATOM     76  C   UNL A   1      46.697  35.071  29.796  1.00  0.00     0.198 A 
ATOM     77  F   UNL A   1      46.289  32.883  30.562  1.00  0.00    -0.203 F 
ATOM     78  F   UNL A   1      45.687  36.716  26.728  1.00  0.00    -0.200 F 
ATOM     79  C   UNL A   1      46.544  36.050  28.826  1.00  0.00     0.200 A 
ATOM     80  F   UNL A   1      47.387  35.333  30.915  1.00  0.00    -0.200 F 
ATOM     81  F   UNL A   1      47.102  37.256  28.998  1.00  0.00    -0.200 F 
ENDBRANCH  47  71
BRANCH  59  82
ATOM     82  C   UNL A   1      47.407  27.507  25.648  1.00  0.00     0.064 A 
ATOM     83  C   UNL A   1      47.602  27.654  24.268  1.00  0.00     0.173 A 
ATOM     84  C   UNL A   1      48.449  26.957  26.408  1.00  0.00     0.173 A 
ATOM     85  F   UNL A   1      46.626  28.161  23.498  1.00  0.00    -0.203 F 
ATOM     86  C   UNL A   1      48.790  27.246  23.667  1.00  0.00     0.198 A 
ATOM     87  C   UNL A   1      49.644  26.569  25.808  1.00  0.00     0.198 A 
ATOM     88  F   UNL A   1      48.310  26.801  27.732  1.00  0.00    -0.203 F 
ATOM     89  F   UNL A   1      48.942  27.360  22.341  1.00  0.00    -0.200 F 
ATOM     90  C   UNL A   1      49.811  26.709  24.438  1.00  0.00     0.200 A 
ATOM     91  F   UNL A   1      50.632  26.058  26.553  1.00  0.00    -0.200 F 
ATOM     92  F   UNL A   1      50.954  26.317  23.858  1.00  0.00    -0.200 F 
ENDBRANCH  59  82
ENDBRANCH  33  34
ENDBRANCH  26  28
ENDBRANCH  25  26
ENDBRANCH  24  25
ENDBRANCH  23  24
ENDBRANCH  22  23
ENDBRANCH   1  22
TORSDOF 17
ENDMDL
MODEL 2
REMARK VINA RESULT:     -11.2      5.884     11.099
REMARK SMILES COc1cccc(O[C@@H](C)c2nnc(SCC(=O)OCCOC(=O)c3ccc(-c4c5nc(c(-c6c(F)c(F)c(F)c(F)c6F)c6ccc([nH]6)c(-c6c(F)c(F)c(F)c(F)c6F)c6nc(c(-c7c(F)c(F)c(F)c(F)c7F)c7ccc4[nH]7)C=C6)C=C5)cc3)n2C)c1
REMARK SMILES IDX 17 1 18 2 16 3 15 4 14 5 11 6 12 7 88 8 13 9 89 10 9 11
REMARK SMILES IDX 10 12 8 13 7 14 3 15 4 16 90 17 5 18 6 19 2 20 1 21 19 22
REMARK SMILES IDX 20 23 21 24 22 25 23 26 24 27 25 28 26 29 87 30 27 31 86 32
REMARK SMILES IDX 28 33 29 34 30 35 80 36 31 37 85 38 79 39 81 40 32 41 84 42
REMARK SMILES IDX 78 43 77 44 33 46 65 47 45 48 64 49 46 50 49 51 63 52 82 53
REMARK SMILES IDX 47 54 48 55 62 57 83 58 50 59 34 60 35 61 43 62 36 63 37 64
REMARK SMILES IDX 41 65 44 66 38 67 39 68 42 69 40 70 66 71 67 72 75 73 68 74
REMARK SMILES IDX 69 75 73 76 76 77 70 78 71 79 74 80 72 81 51 82 52 83 60 84
REMARK SMILES IDX 53 85 54 86 58 87 61 88 55 89 56 90 59 91 57 92
REMARK H PARENT 81 45 49 56
REMARK Flexibility Score: inf
ROOT
ATOM      1  C   UNL A   1      42.645  21.959  26.975  1.00  0.00     0.316 C 
ATOM      2  O   UNL A   1      42.398  21.804  28.168  1.00  0.00    -0.251 OA
ENDROOT
BRANCH   1   3
ATOM      3  C   UNL A   1      41.542  21.981  25.929  1.00  0.00     0.200 C 
BRANCH   3   4
ATOM      4  S   UNL A   1      40.041  21.130  26.416  1.00  0.00    -0.074 SA
BRANCH   4   5
ATOM      5  C   UNL A   1      38.630  22.029  25.979  1.00  0.00     0.191 A 
ATOM      6  C   UNL A   1      36.548  22.701  25.697  1.00  0.00     0.174 A 
ATOM      7  N   UNL A   1      37.283  23.731  26.073  1.00  0.00    -0.130 NA
ATOM      8  N   UNL A   1      37.399  21.617  25.525  1.00  0.00    -0.306 N 
ATOM      9  N   UNL A   1      38.567  23.312  26.248  1.00  0.00    -0.123 NA
ATOM     10  C   UNL A   1      37.055  20.380  24.900  1.00  0.00     0.154 C 
BRANCH   6  11
ATOM     11  C   UNL A   1      35.048  22.786  25.573  1.00  0.00     0.238 C 
ATOM     12  C   UNL A   1      34.387  22.814  24.204  1.00  0.00     0.062 C 
BRANCH  11  13
ATOM     13  O   UNL A   1      34.511  23.754  26.497  1.00  0.00    -0.483 OA
BRANCH  13  14
ATOM     14  C   UNL A   1      33.701  24.751  26.041  1.00  0.00     0.124 A 
ATOM     15  C   UNL A   1      33.241  26.931  25.119  1.00  0.00     0.122 A 
ATOM     16  C   UNL A   1      31.881  26.763  25.352  1.00  0.00     0.046 A 
ATOM     17  C   UNL A   1      34.155  25.953  25.511  1.00  0.00     0.092 A 
ATOM     18  C   UNL A   1      31.434  25.589  25.953  1.00  0.00     0.008 A 
ATOM     19  C   UNL A   1      32.337  24.577  26.276  1.00  0.00     0.047 A 
BRANCH  15  20
ATOM     20  O   UNL A   1      33.693  28.120  24.618  1.00  0.00    -0.497 OA
ATOM     21  C   UNL A   1      32.679  28.747  23.835  1.00  0.00     0.278 C 
ENDBRANCH  15  20
ENDBRANCH  13  14
ENDBRANCH  11  13
ENDBRANCH   6  11
ENDBRANCH   4   5
ENDBRANCH   3   4
ENDBRANCH   1   3
BRANCH   1  22
ATOM     22  O   UNL A   1      43.899  22.069  26.467  1.00  0.00    -0.461 OA
BRANCH  22  23
ATOM     23  C   UNL A   1      44.068  21.845  25.053  1.00  0.00     0.274 C 
BRANCH  23  24
ATOM     24  C   UNL A   1      44.644  23.070  24.347  1.00  0.00     0.275 C 
BRANCH  24  25
ATOM     25  O   UNL A   1      43.832  24.236  24.596  1.00  0.00    -0.458 OA
BRANCH  25  26
ATOM     26  C   UNL A   1      44.499  25.308  25.061  1.00  0.00     0.338 C 
ATOM     27  O   UNL A   1      45.613  25.697  24.719  1.00  0.00    -0.246 OA
BRANCH  26  28
ATOM     28  C   UNL A   1      43.715  26.067  26.050  1.00  0.00     0.060 A 
ATOM     29  C   UNL A   1      44.133  27.336  26.457  1.00  0.00     0.016 A 
ATOM     30  C   UNL A   1      42.717  25.398  26.764  1.00  0.00     0.016 A 
ATOM     31  C   UNL A   1      43.607  27.896  27.626  1.00  0.00     0.010 A 
ATOM     32  C   UNL A   1      42.132  26.000  27.884  1.00  0.00     0.010 A 
ATOM     33  C   UNL A   1      42.589  27.244  28.347  1.00  0.00    -0.014 A 
BRANCH  33  34
ATOM     34  C   UNL A   1      41.953  27.902  29.524  1.00  0.00     0.031 A 
ATOM     35  C   UNL A   1      40.731  28.779  29.400  1.00  0.00     0.074 A 
ATOM     36  C   UNL A   1      42.506  27.728  30.741  1.00  0.00     0.049 A 
ATOM     37  N   UNL A   1      40.100  29.448  30.336  1.00  0.00    -0.248 NA
ATOM     38  C   UNL A   1      40.129  28.916  28.067  1.00  0.00     0.031 C 
ATOM     39  C   UNL A   1      43.690  26.916  31.021  1.00  0.00     0.029 A 
ATOM     40  N   UNL A   1      42.152  28.235  31.968  1.00  0.00    -0.354 N 
ATOM     41  C   UNL A   1      39.030  30.075  29.710  1.00  0.00     0.074 A 
ATOM     42  C   UNL A   1      39.106  29.729  28.307  1.00  0.00     0.031 C 
ATOM     43  C   UNL A   1      43.961  26.971  32.333  1.00  0.00     0.029 A 
ATOM     44  C   UNL A   1      43.012  27.875  32.975  1.00  0.00     0.049 A 
ATOM     45  H   UNL A   1      41.359  28.801  32.111  1.00  0.00     0.167 HD
ATOM     46  C   UNL A   1      38.064  30.851  30.258  1.00  0.00     0.037 A 
ATOM     47  C   UNL A   1      43.071  28.259  34.264  1.00  0.00     0.037 A 
ATOM     48  C   UNL A   1      37.965  31.197  31.650  1.00  0.00     0.049 A 
ATOM     49  C   UNL A   1      42.066  29.227  34.808  1.00  0.00     0.074 A 
ATOM     50  C   UNL A   1      36.958  31.900  32.293  1.00  0.00     0.029 A 
ATOM     51  N   UNL A   1      38.912  30.891  32.610  1.00  0.00    -0.354 N 
ATOM     52  N   UNL A   1      41.026  29.756  34.215  1.00  0.00    -0.248 NA
ATOM     53  C   UNL A   1      42.255  29.666  36.199  1.00  0.00     0.031 C 
ATOM     54  C   UNL A   1      37.315  32.054  33.636  1.00  0.00     0.029 A 
ATOM     55  C   UNL A   1      38.536  31.431  33.830  1.00  0.00     0.049 A 
ATOM     56  H   UNL A   1      39.730  30.368  32.451  1.00  0.00     0.167 HD
ATOM     57  C   UNL A   1      40.430  30.578  35.160  1.00  0.00     0.074 A 
ATOM     58  C   UNL A   1      41.217  30.475  36.369  1.00  0.00     0.031 C 
ATOM     59  C   UNL A   1      39.325  31.348  35.028  1.00  0.00     0.037 A 
BRANCH  46  60
ATOM     60  C   UNL A   1      36.985  31.384  29.369  1.00  0.00     0.064 A 
ATOM     61  C   UNL A   1      35.917  30.563  28.985  1.00  0.00     0.173 A 
ATOM     62  C   UNL A   1      36.926  32.744  29.042  1.00  0.00     0.173 A 
ATOM     63  F   UNL A   1      35.924  29.258  29.297  1.00  0.00    -0.203 F 
ATOM     64  C   UNL A   1      34.829  31.084  28.290  1.00  0.00     0.198 A 
ATOM     65  C   UNL A   1      35.831  33.265  28.355  1.00  0.00     0.198 A 
ATOM     66  F   UNL A   1      37.913  33.571  29.416  1.00  0.00    -0.203 F 
ATOM     67  F   UNL A   1      33.824  30.277  27.922  1.00  0.00    -0.200 F 
ATOM     68  C   UNL A   1      34.783  32.435  27.980  1.00  0.00     0.200 A 
ATOM     69  F   UNL A   1      35.779  34.573  28.071  1.00  0.00    -0.200 F 
ATOM     70  F   UNL A   1      33.728  32.937  27.326  1.00  0.00    -0.200 F 
ENDBRANCH  46  60
BRANCH  47  71
ATOM     71  C   UNL A   1      44.174  27.754  35.116  1.00  0.00     0.064 A 
ATOM     72  C   UNL A   1      45.374  28.462  35.239  1.00  0.00     0.173 A 
ATOM     73  C   UNL A   1      44.034  26.560  35.841  1.00  0.00     0.173 A 
ATOM     74  F   UNL A   1      45.557  29.595  34.545  1.00  0.00    -0.203 F 
ATOM     75  C   UNL A   1      46.398  27.997  36.059  1.00  0.00     0.198 A 
ATOM     76  C   UNL A   1      45.047  26.109  36.679  1.00  0.00     0.198 A 
ATOM     77  F   UNL A   1      42.900  25.850  35.750  1.00  0.00    -0.203 F 
ATOM     78  F   UNL A   1      47.548  28.678  36.144  1.00  0.00    -0.200 F 
ATOM     79  C   UNL A   1      46.230  26.826  36.785  1.00  0.00     0.200 A 
ATOM     80  F   UNL A   1      44.875  24.986  37.390  1.00  0.00    -0.200 F 
ATOM     81  F   UNL A   1      47.210  26.386  37.586  1.00  0.00    -0.200 F 
ENDBRANCH  47  71
BRANCH  59  82
ATOM     82  C   UNL A   1      38.896  32.146  36.219  1.00  0.00     0.064 A 
ATOM     83  C   UNL A   1      38.069  31.588  37.203  1.00  0.00     0.173 A 
ATOM     84  C   UNL A   1      39.330  33.468  36.392  1.00  0.00     0.173 A 
ATOM     85  F   UNL A   1      37.616  30.331  37.071  1.00  0.00    -0.203 F 
ATOM     86  C   UNL A   1      37.675  32.333  38.311  1.00  0.00     0.198 A 
ATOM     87  C   UNL A   1      38.951  34.203  37.512  1.00  0.00     0.198 A 
ATOM     88  F   UNL A   1      40.126  34.043  35.479  1.00  0.00    -0.203 F 
ATOM     89  F   UNL A   1      36.853  31.793  39.222  1.00  0.00    -0.200 F 
ATOM     90  C   UNL A   1      38.120  33.637  38.467  1.00  0.00     0.200 A 
ATOM     91  F   UNL A   1      39.387  35.461  37.665  1.00  0.00    -0.200 F 
ATOM     92  F   UNL A   1      37.739  34.354  39.534  1.00  0.00    -0.200 F 
ENDBRANCH  59  82
ENDBRANCH  33  34
ENDBRANCH  26  28
ENDBRANCH  25  26
ENDBRANCH  24  25
ENDBRANCH  23  24
ENDBRANCH  22  23
ENDBRANCH   1  22
TORSDOF 17
ENDMDL
MODEL 3
REMARK VINA RESULT:     -11.2      5.393      8.358
REMARK SMILES COc1cccc(O[C@@H](C)c2nnc(SCC(=O)OCCOC(=O)c3ccc(-c4c5nc(c(-c6c(F)c(F)c(F)c(F)c6F)c6ccc([nH]6)c(-c6c(F)c(F)c(F)c(F)c6F)c6nc(c(-c7c(F)c(F)c(F)c(F)c7F)c7ccc4[nH]7)C=C6)C=C5)cc3)n2C)c1
REMARK SMILES IDX 17 1 18 2 16 3 15 4 14 5 11 6 12 7 88 8 13 9 89 10 9 11
REMARK SMILES IDX 10 12 8 13 7 14 3 15 4 16 90 17 5 18 6 19 2 20 1 21 19 22
REMARK SMILES IDX 20 23 21 24 22 25 23 26 24 27 25 28 26 29 87 30 27 31 86 32
REMARK SMILES IDX 28 33 29 34 30 35 80 36 31 37 85 38 79 39 81 40 32 41 84 42
REMARK SMILES IDX 78 43 77 44 33 46 65 47 45 48 64 49 46 50 49 51 63 52 82 53
REMARK SMILES IDX 47 54 48 55 62 57 83 58 50 59 34 60 35 61 43 62 36 63 37 64
REMARK SMILES IDX 41 65 44 66 38 67 39 68 42 69 40 70 66 71 67 72 75 73 68 74
REMARK SMILES IDX 69 75 73 76 76 77 70 78 71 79 74 80 72 81 51 82 52 83 60 84
REMARK SMILES IDX 53 85 54 86 58 87 61 88 55 89 56 90 59 91 57 92
REMARK H PARENT 81 45 49 56
REMARK Flexibility Score: inf
ROOT
ATOM      1  C   UNL A   1      31.711  28.163  22.792  1.00  0.00     0.316 C 
ATOM      2  O   UNL A   1      30.665  28.131  22.150  1.00  0.00    -0.251 OA
ENDROOT
BRANCH   1   3
ATOM      3  C   UNL A   1      32.820  27.149  22.560  1.00  0.00     0.200 C 
BRANCH   3   4
ATOM      4  S   UNL A   1      33.633  26.586  24.056  1.00  0.00    -0.074 SA
BRANCH   4   5
ATOM      5  C   UNL A   1      33.328  24.910  24.353  1.00  0.00     0.191 A 
ATOM      6  C   UNL A   1      33.318  22.876  25.207  1.00  0.00     0.174 A 
ATOM      7  N   UNL A   1      32.084  23.206  24.874  1.00  0.00    -0.130 NA
ATOM      8  N   UNL A   1      34.156  23.903  24.790  1.00  0.00    -0.306 N 
ATOM      9  N   UNL A   1      32.093  24.463  24.349  1.00  0.00    -0.123 NA
ATOM     10  C   UNL A   1      35.582  23.845  24.740  1.00  0.00     0.154 C 
BRANCH   6  11
ATOM     11  C   UNL A   1      33.635  21.611  25.962  1.00  0.00     0.238 C 
ATOM     12  C   UNL A   1      34.029  21.666  27.430  1.00  0.00     0.062 C 
BRANCH  11  13
ATOM     13  O   UNL A   1      34.464  20.735  25.172  1.00  0.00    -0.483 OA
BRANCH  13  14
ATOM     14  C   UNL A   1      33.931  19.607  24.625  1.00  0.00     0.124 A 
ATOM     15  C   UNL A   1      33.934  17.275  24.010  1.00  0.00     0.122 A 
ATOM     16  C   UNL A   1      32.775  17.451  23.264  1.00  0.00     0.046 A 
ATOM     17  C   UNL A   1      34.543  18.358  24.645  1.00  0.00     0.092 A 
ATOM     18  C   UNL A   1      32.204  18.718  23.183  1.00  0.00     0.008 A 
ATOM     19  C   UNL A   1      32.767  19.788  23.879  1.00  0.00     0.047 A 
BRANCH  15  20
ATOM     20  O   UNL A   1      34.550  16.054  24.013  1.00  0.00    -0.497 OA
ATOM     21  C   UNL A   1      35.137  15.796  25.288  1.00  0.00     0.278 C 
ENDBRANCH  15  20
ENDBRANCH  13  14
ENDBRANCH  11  13
ENDBRANCH   6  11
ENDBRANCH   4   5
ENDBRANCH   3   4
ENDBRANCH   1   3
BRANCH   1  22
ATOM     22  O   UNL A   1      31.964  29.049  23.789  1.00  0.00    -0.461 OA
BRANCH  22  23
ATOM     23  C   UNL A   1      31.060  29.068  24.911  1.00  0.00     0.274 C 
BRANCH  23  24
ATOM     24  C   UNL A   1      31.743  29.557  26.186  1.00  0.00     0.275 C 
BRANCH  24  25
ATOM     25  O   UNL A   1      32.917  30.335  25.874  1.00  0.00    -0.458 OA
BRANCH  25  26
ATOM     26  C   UNL A   1      33.326  31.169  26.846  1.00  0.00     0.338 C 
ATOM     27  O   UNL A   1      32.711  32.124  27.314  1.00  0.00    -0.246 OA
BRANCH  26  28
ATOM     28  C   UNL A   1      34.645  30.795  27.385  1.00  0.00     0.060 A 
ATOM     29  C   UNL A   1      34.893  29.482  27.790  1.00  0.00     0.016 A 
ATOM     30  C   UNL A   1      35.536  31.814  27.732  1.00  0.00     0.016 A 
ATOM     31  C   UNL A   1      35.993  29.208  28.611  1.00  0.00     0.010 A 
ATOM     32  C   UNL A   1      36.681  31.520  28.482  1.00  0.00     0.010 A 
ATOM     33  C   UNL A   1      36.909  30.218  28.956  1.00  0.00    -0.014 A 
BRANCH  33  34
ATOM     34  C   UNL A   1      38.140  29.894  29.733  1.00  0.00     0.031 A 
ATOM     35  C   UNL A   1      39.176  28.914  29.239  1.00  0.00     0.074 A 
ATOM     36  C   UNL A   1      38.320  30.478  30.934  1.00  0.00     0.049 A 
ATOM     37  N   UNL A   1      40.271  28.506  29.833  1.00  0.00    -0.248 NA
ATOM     38  C   UNL A   1      38.970  28.325  27.909  1.00  0.00     0.031 C 
ATOM     39  C   UNL A   1      37.407  31.441  31.550  1.00  0.00     0.029 A 
ATOM     40  N   UNL A   1      39.328  30.337  31.858  1.00  0.00    -0.354 N 
ATOM     41  C   UNL A   1      40.885  27.625  28.952  1.00  0.00     0.074 A 
ATOM     42  C   UNL A   1      40.030  27.534  27.788  1.00  0.00     0.031 C 
ATOM     43  C   UNL A   1      37.895  31.811  32.742  1.00  0.00     0.029 A 
ATOM     44  C   UNL A   1      39.121  31.063  33.005  1.00  0.00     0.049 A 
ATOM     45  H   UNL A   1      40.120  29.773  31.711  1.00  0.00     0.167 HD
ATOM     46  C   UNL A   1      42.062  26.967  29.093  1.00  0.00     0.037 A 
ATOM     47  C   UNL A   1      39.804  31.095  34.164  1.00  0.00     0.037 A 
ATOM     48  C   UNL A   1      42.931  27.052  30.236  1.00  0.00     0.049 A 
ATOM     49  C   UNL A   1      41.030  30.251  34.339  1.00  0.00     0.074 A 
ATOM     50  C   UNL A   1      44.186  26.489  30.407  1.00  0.00     0.029 A 
ATOM     51  N   UNL A   1      42.630  27.720  31.409  1.00  0.00    -0.354 N 
ATOM     52  N   UNL A   1      41.627  29.475  33.470  1.00  0.00    -0.248 NA
ATOM     53  C   UNL A   1      41.666  30.274  35.664  1.00  0.00     0.031 C 
ATOM     54  C   UNL A   1      44.629  26.783  31.700  1.00  0.00     0.029 A 
ATOM     55  C   UNL A   1      43.656  27.543  32.326  1.00  0.00     0.049 A 
ATOM     56  H   UNL A   1      41.812  28.241  31.570  1.00  0.00     0.167 HD
ATOM     57  C   UNL A   1      42.713  28.928  34.136  1.00  0.00     0.074 A 
ATOM     58  C   UNL A   1      42.701  29.464  35.480  1.00  0.00     0.031 C 
ATOM     59  C   UNL A   1      43.637  28.057  33.667  1.00  0.00     0.037 A 
BRANCH  46  60
ATOM     60  C   UNL A   1      42.532  26.094  27.973  1.00  0.00     0.064 A 
ATOM     61  C   UNL A   1      42.008  24.805  27.814  1.00  0.00     0.173 A 
ATOM     62  C   UNL A   1      43.371  26.597  26.970  1.00  0.00     0.173 A 
ATOM     63  F   UNL A   1      41.184  24.294  28.742  1.00  0.00    -0.203 F 
ATOM     64  C   UNL A   1      42.318  24.040  26.693  1.00  0.00     0.198 A 
ATOM     65  C   UNL A   1      43.671  25.832  25.844  1.00  0.00     0.198 A 
ATOM     66  F   UNL A   1      43.871  27.837  27.068  1.00  0.00    -0.203 F 
ATOM     67  F   UNL A   1      41.814  22.805  26.568  1.00  0.00    -0.200 F 
ATOM     68  C   UNL A   1      43.144  24.556  25.706  1.00  0.00     0.200 A 
ATOM     69  F   UNL A   1      44.456  26.337  24.882  1.00  0.00    -0.200 F 
ATOM     70  F   UNL A   1      43.428  23.825  24.620  1.00  0.00    -0.200 F 
ENDBRANCH  46  60
BRANCH  47  71
ATOM     71  C   UNL A   1      39.297  31.932  35.276  1.00  0.00     0.064 A 
ATOM     72  C   UNL A   1      39.600  33.296  35.350  1.00  0.00     0.173 A 
ATOM     73  C   UNL A   1      38.480  31.382  36.276  1.00  0.00     0.173 A 
ATOM     74  F   UNL A   1      40.397  33.855  34.428  1.00  0.00    -0.203 F 
ATOM     75  C   UNL A   1      39.101  34.084  36.383  1.00  0.00     0.198 A 
ATOM     76  C   UNL A   1      37.962  32.175  37.293  1.00  0.00     0.198 A 
ATOM     77  F   UNL A   1      38.166  30.078  36.244  1.00  0.00    -0.203 F 
ATOM     78  F   UNL A   1      39.422  35.383  36.448  1.00  0.00    -0.200 F 
ATOM     79  C   UNL A   1      38.275  33.525  37.349  1.00  0.00     0.200 A 
ATOM     80  F   UNL A   1      37.153  31.634  38.215  1.00  0.00    -0.200 F 
ATOM     81  F   UNL A   1      37.784  34.287  38.335  1.00  0.00    -0.200 F 
ENDBRANCH  47  71
BRANCH  59  82
ATOM     82  C   UNL A   1      44.715  27.623  34.610  1.00  0.00     0.064 A 
ATOM     83  C   UNL A   1      44.580  26.456  35.375  1.00  0.00     0.173 A 
ATOM     84  C   UNL A   1      45.901  28.362  34.734  1.00  0.00     0.173 A 
ATOM     85  F   UNL A   1      43.456  25.726  35.300  1.00  0.00    -0.203 F 
ATOM     86  C   UNL A   1      45.587  26.054  36.248  1.00  0.00     0.198 A 
ATOM     87  C   UNL A   1      46.914  27.945  35.593  1.00  0.00     0.198 A 
ATOM     88  F   UNL A   1      46.077  29.482  34.019  1.00  0.00    -0.203 F 
ATOM     89  F   UNL A   1      45.423  24.956  36.998  1.00  0.00    -0.200 F 
ATOM     90  C   UNL A   1      46.755  26.796  36.352  1.00  0.00     0.200 A 
ATOM     91  F   UNL A   1      48.045  28.658  35.688  1.00  0.00    -0.200 F 
ATOM     92  F   UNL A   1      47.724  26.408  37.193  1.00  0.00    -0.200 F 
ENDBRANCH  59  82
ENDBRANCH  33  34
ENDBRANCH  26  28
ENDBRANCH  25  26
ENDBRANCH  24  25
ENDBRANCH  23  24
ENDBRANCH  22  23
ENDBRANCH   1  22
TORSDOF 17
ENDMDL
