MODEL 1
REMARK VINA RESULT:     -13.2      0.000      0.000
REMARK SMILES Cc1cc2n(n1)[C@H](C(F)(F)F)CCN2C(=O)c1cnn([C@@H](C)C(=O)OCCOC(=O)c2ccc(-c3c4nc(c(-c5c(F)c(F)c(F)c(F)c5F)c5ccc([nH]5)c(-c5c(F)c(F)c(F)c(F)c5F)c5nc(c(-c6c(F)c(F)c(F)c(F)c6F)c6ccc3[nH]6)C=C5)C=C4)cc2)c1
REMARK SMILES IDX 26 1 25 2 23 3 24 4 21 5 22 6 20 7 17 8 18 9 94 10 19 11
REMARK SMILES IDX 15 12 16 13 14 14 1 15 2 16 3 17 6 18 4 19 5 20 7 21 13 22
REMARK SMILES IDX 12 23 8 24 9 25 10 26 11 27 27 28 28 29 29 30 30 31 31 32
REMARK SMILES IDX 32 33 93 34 33 35 92 36 34 37 35 38 36 39 86 40 37 41 91 42
REMARK SMILES IDX 85 43 87 44 38 45 90 46 84 47 83 48 39 50 71 51 51 52 70 53
REMARK SMILES IDX 52 54 55 55 69 56 88 57 53 58 54 59 68 61 89 62 56 63 40 64
REMARK SMILES IDX 41 65 49 66 42 67 43 68 47 69 50 70 44 71 45 72 48 73 46 74
REMARK SMILES IDX 72 75 73 76 81 77 74 78 75 79 79 80 82 81 76 82 77 83 80 84
REMARK SMILES IDX 78 85 57 86 58 87 66 88 59 89 60 90 64 91 67 92 61 93 62 94
REMARK SMILES IDX 65 95 63 96
REMARK H PARENT 87 49 55 60
REMARK Flexibility Score: inf
ROOT
ATOM      1  C   UNL A   1      37.771  21.552  24.985  1.00  0.00     0.274 C 
ENDROOT
BRANCH   1   2
ATOM      2  O   UNL A   1      36.432  21.313  25.466  1.00  0.00    -0.460 OA
BRANCH   2   3
ATOM      3  C   UNL A   1      35.626  22.396  25.615  1.00  0.00     0.330 C 
ATOM      4  O   UNL A   1      35.790  23.259  26.477  1.00  0.00    -0.250 OA
BRANCH   3   5
ATOM      5  C   UNL A   1      34.455  22.453  24.659  1.00  0.00     0.213 C 
ATOM      6  C   UNL A   1      34.859  23.203  23.402  1.00  0.00     0.046 C 
BRANCH   5   7
ATOM      7  N   UNL A   1      33.192  22.930  25.224  1.00  0.00    -0.258 N 
ATOM      8  C   UNL A   1      31.481  24.229  25.791  1.00  0.00     0.078 A 
ATOM      9  C   UNL A   1      31.373  22.916  26.301  1.00  0.00     0.149 A 
ATOM     10  C   UNL A   1      32.667  24.194  25.075  1.00  0.00     0.123 A 
ATOM     11  N   UNL A   1      32.477  22.193  26.101  1.00  0.00    -0.180 NA
BRANCH   8  12
ATOM     12  C   UNL A   1      30.560  25.331  25.864  1.00  0.00     0.262 C 
ATOM     13  O   UNL A   1      29.595  25.351  26.641  1.00  0.00    -0.269 OA
BRANCH  12  14
ATOM     14  N   UNL A   1      30.761  26.387  24.876  1.00  0.00    -0.293 N 
ATOM     15  C   UNL A   1      32.783  30.392  27.189  1.00  0.00     0.069 C 
ATOM     16  C   UNL A   1      32.219  29.408  26.231  1.00  0.00     0.062 A 
ATOM     17  C   UNL A   1      31.805  28.070  26.468  1.00  0.00     0.072 A 
ATOM     18  N   UNL A   1      32.036  29.754  24.953  1.00  0.00    -0.176 NA
ATOM     19  C   UNL A   1      31.304  27.621  25.265  1.00  0.00     0.134 A 
ATOM     20  N   UNL A   1      31.428  28.690  24.421  1.00  0.00    -0.237 N 
ATOM     21  C   UNL A   1      31.052  28.687  23.029  1.00  0.00     0.216 C 
ATOM     22  C   UNL A   1      30.191  26.299  23.502  1.00  0.00     0.130 C 
ATOM     23  C   UNL A   1      30.885  27.251  22.514  1.00  0.00     0.059 C 
BRANCH  21  24
ATOM     24  C   UNL A   1      29.819  29.532  22.784  1.00  0.00     0.410 C 
ATOM     25  F   UNL A   1      29.448  30.188  23.910  1.00  0.00    -0.169 F 
ATOM     26  F   UNL A   1      29.953  30.445  21.806  1.00  0.00    -0.169 F 
ATOM     27  F   UNL A   1      28.782  28.728  22.439  1.00  0.00    -0.169 F 
ENDBRANCH  21  24
ENDBRANCH  12  14
ENDBRANCH   8  12
ENDBRANCH   5   7
ENDBRANCH   3   5
ENDBRANCH   2   3
ENDBRANCH   1   2
BRANCH   1  28
ATOM     28  C   UNL A   1      38.800  21.444  26.105  1.00  0.00     0.275 C 
BRANCH  28  29
ATOM     29  O   UNL A   1      39.214  22.744  26.522  1.00  0.00    -0.458 OA
BRANCH  29  30
ATOM     30  C   UNL A   1      40.350  22.765  27.254  1.00  0.00     0.338 C 
ATOM     31  O   UNL A   1      40.725  21.936  28.055  1.00  0.00    -0.246 OA
BRANCH  30  32
ATOM     32  C   UNL A   1      41.036  24.047  27.084  1.00  0.00     0.060 A 
ATOM     33  C   UNL A   1      42.108  24.280  27.954  1.00  0.00     0.016 A 
ATOM     34  C   UNL A   1      40.349  25.078  26.437  1.00  0.00     0.016 A 
ATOM     35  C   UNL A   1      42.284  25.557  28.423  1.00  0.00     0.010 A 
ATOM     36  C   UNL A   1      40.519  26.349  26.913  1.00  0.00     0.010 A 
ATOM     37  C   UNL A   1      41.393  26.536  27.982  1.00  0.00    -0.014 A 
BRANCH  37  38
ATOM     38  C   UNL A   1      41.358  27.795  28.682  1.00  0.00     0.031 A 
ATOM     39  C   UNL A   1      42.478  28.684  28.328  1.00  0.00     0.074 A 
ATOM     40  C   UNL A   1      40.308  28.128  29.455  1.00  0.00     0.049 A 
ATOM     41  N   UNL A   1      43.447  29.076  29.085  1.00  0.00    -0.248 NA
ATOM     42  C   UNL A   1      42.635  29.031  26.907  1.00  0.00     0.031 C 
ATOM     43  C   UNL A   1      39.037  27.419  29.640  1.00  0.00     0.029 A 
ATOM     44  N   UNL A   1      40.128  29.263  30.173  1.00  0.00    -0.354 N 
ATOM     45  C   UNL A   1      44.240  29.877  28.273  1.00  0.00     0.074 A 
ATOM     46  C   UNL A   1      43.815  29.647  26.918  1.00  0.00     0.031 C 
ATOM     47  C   UNL A   1      38.144  28.253  30.224  1.00  0.00     0.029 A 
ATOM     48  C   UNL A   1      38.818  29.493  30.563  1.00  0.00     0.049 A 
ATOM     49  H   UNL A   1      40.867  29.873  30.399  1.00  0.00     0.167 HD
ATOM     50  C   UNL A   1      45.007  30.871  28.791  1.00  0.00     0.037 A 
ATOM     51  C   UNL A   1      38.343  30.680  31.016  1.00  0.00     0.037 A 
ATOM     52  C   UNL A   1      45.190  30.720  30.210  1.00  0.00     0.049 A 
ATOM     53  C   UNL A   1      39.519  31.473  31.475  1.00  0.00     0.074 A 
ATOM     54  C   UNL A   1      45.788  29.766  31.010  1.00  0.00     0.029 A 
ATOM     55  N   UNL A   1      44.376  31.449  31.043  1.00  0.00    -0.354 N 
ATOM     56  N   UNL A   1      40.259  31.136  32.498  1.00  0.00    -0.248 NA
ATOM     57  C   UNL A   1      40.167  32.344  30.501  1.00  0.00     0.031 C 
ATOM     58  C   UNL A   1      44.950  29.667  32.159  1.00  0.00     0.029 A 
ATOM     59  C   UNL A   1      43.921  30.599  32.020  1.00  0.00     0.049 A 
ATOM     60  H   UNL A   1      44.159  32.405  30.956  1.00  0.00     0.167 HD
ATOM     61  C   UNL A   1      41.563  31.402  32.104  1.00  0.00     0.074 A 
ATOM     62  C   UNL A   1      41.440  32.203  30.888  1.00  0.00     0.031 C 
ATOM     63  C   UNL A   1      42.615  30.705  32.628  1.00  0.00     0.037 A 
BRANCH  50  64
ATOM     64  C   UNL A   1      45.271  32.163  28.073  1.00  0.00     0.064 A 
ATOM     65  C   UNL A   1      44.208  33.047  27.833  1.00  0.00     0.173 A 
ATOM     66  C   UNL A   1      46.468  32.430  27.371  1.00  0.00     0.173 A 
ATOM     67  F   UNL A   1      43.020  32.861  28.430  1.00  0.00    -0.203 F 
ATOM     68  C   UNL A   1      44.318  34.091  26.912  1.00  0.00     0.198 A 
ATOM     69  C   UNL A   1      46.593  33.508  26.500  1.00  0.00     0.198 A 
ATOM     70  F   UNL A   1      47.517  31.601  27.408  1.00  0.00    -0.203 F 
ATOM     71  F   UNL A   1      43.244  34.837  26.624  1.00  0.00    -0.200 F 
ATOM     72  C   UNL A   1      45.510  34.319  26.246  1.00  0.00     0.200 A 
ATOM     73  F   UNL A   1      47.751  33.698  25.852  1.00  0.00    -0.200 F 
ATOM     74  F   UNL A   1      45.599  35.283  25.322  1.00  0.00    -0.200 F 
ENDBRANCH  50  64
BRANCH  51  75
ATOM     75  C   UNL A   1      37.039  31.296  30.669  1.00  0.00     0.064 A 
ATOM     76  C   UNL A   1      36.110  31.650  31.659  1.00  0.00     0.173 A 
ATOM     77  C   UNL A   1      36.788  31.789  29.371  1.00  0.00     0.173 A 
ATOM     78  F   UNL A   1      36.304  31.270  32.929  1.00  0.00    -0.203 F 
ATOM     79  C   UNL A   1      34.999  32.453  31.368  1.00  0.00     0.198 A 
ATOM     80  C   UNL A   1      35.678  32.584  29.081  1.00  0.00     0.198 A 
ATOM     81  F   UNL A   1      37.663  31.587  28.376  1.00  0.00    -0.203 F 
ATOM     82  F   UNL A   1      34.158  32.813  32.349  1.00  0.00    -0.200 F 
ATOM     83  C   UNL A   1      34.789  32.924  30.082  1.00  0.00     0.200 A 
ATOM     84  F   UNL A   1      35.512  33.064  27.841  1.00  0.00    -0.200 F 
ATOM     85  F   UNL A   1      33.755  33.736  29.815  1.00  0.00    -0.200 F 
ENDBRANCH  51  75
BRANCH  63  86
ATOM     86  C   UNL A   1      42.329  29.787  33.785  1.00  0.00     0.064 A 
ATOM     87  C   UNL A   1      41.915  28.451  33.634  1.00  0.00     0.173 A 
ATOM     88  C   UNL A   1      42.630  30.222  35.080  1.00  0.00     0.173 A 
ATOM     89  F   UNL A   1      41.720  27.925  32.420  1.00  0.00    -0.203 F 
ATOM     90  C   UNL A   1      41.762  27.608  34.733  1.00  0.00     0.198 A 
ATOM     91  C   UNL A   1      42.511  29.367  36.175  1.00  0.00     0.198 A 
ATOM     92  F   UNL A   1      43.096  31.464  35.280  1.00  0.00    -0.203 F 
ATOM     93  F   UNL A   1      41.363  26.339  34.558  1.00  0.00    -0.200 F 
ATOM     94  C   UNL A   1      42.067  28.066  36.002  1.00  0.00     0.200 A 
ATOM     95  F   UNL A   1      42.863  29.795  37.394  1.00  0.00    -0.200 F 
ATOM     96  F   UNL A   1      41.969  27.242  37.056  1.00  0.00    -0.200 F 
ENDBRANCH  63  86
ENDBRANCH  37  38
ENDBRANCH  30  32
ENDBRANCH  29  30
ENDBRANCH  28  29
ENDBRANCH   1  28
TORSDOF 15
ENDMDL
MODEL 2
REMARK VINA RESULT:     -12.9      5.463     10.958
REMARK SMILES Cc1cc2n(n1)[C@H](C(F)(F)F)CCN2C(=O)c1cnn([C@@H](C)C(=O)OCCOC(=O)c2ccc(-c3c4nc(c(-c5c(F)c(F)c(F)c(F)c5F)c5ccc([nH]5)c(-c5c(F)c(F)c(F)c(F)c5F)c5nc(c(-c6c(F)c(F)c(F)c(F)c6F)c6ccc3[nH]6)C=C5)C=C4)cc2)c1
REMARK SMILES IDX 26 1 25 2 23 3 24 4 21 5 22 6 20 7 17 8 18 9 94 10 19 11
REMARK SMILES IDX 15 12 16 13 14 14 1 15 2 16 3 17 6 18 4 19 5 20 7 21 13 22
REMARK SMILES IDX 12 23 8 24 9 25 10 26 11 27 27 28 28 29 29 30 30 31 31 32
REMARK SMILES IDX 32 33 93 34 33 35 92 36 34 37 35 38 36 39 86 40 37 41 91 42
REMARK SMILES IDX 85 43 87 44 38 45 90 46 84 47 83 48 39 50 71 51 51 52 70 53
REMARK SMILES IDX 52 54 55 55 69 56 88 57 53 58 54 59 68 61 89 62 56 63 40 64
REMARK SMILES IDX 41 65 49 66 42 67 43 68 47 69 50 70 44 71 45 72 48 73 46 74
REMARK SMILES IDX 72 75 73 76 81 77 74 78 75 79 79 80 82 81 76 82 77 83 80 84
REMARK SMILES IDX 78 85 57 86 58 87 66 88 59 89 60 90 64 91 67 92 61 93 62 94
REMARK SMILES IDX 65 95 63 96
REMARK H PARENT 87 49 55 60
REMARK Flexibility Score: inf
ROOT
ATOM      1  C   UNL A   1      34.145  34.857  28.638  1.00  0.00     0.274 C 
ENDROOT
BRANCH   1   2
ATOM      2  O   UNL A   1      32.875  35.338  29.125  1.00  0.00    -0.460 OA
BRANCH   2   3
ATOM      3  C   UNL A   1      32.895  36.108  30.244  1.00  0.00     0.330 C 
ATOM      4  O   UNL A   1      33.049  37.329  30.234  1.00  0.00    -0.250 OA
BRANCH   3   5
ATOM      5  C   UNL A   1      32.759  35.345  31.544  1.00  0.00     0.213 C 
ATOM      6  C   UNL A   1      31.804  36.079  32.468  1.00  0.00     0.046 C 
BRANCH   5   7
ATOM      7  N   UNL A   1      34.014  34.975  32.200  1.00  0.00    -0.258 N 
ATOM      8  C   UNL A   1      35.726  33.800  32.989  1.00  0.00     0.078 A 
ATOM      9  C   UNL A   1      35.808  35.175  33.299  1.00  0.00     0.149 A 
ATOM     10  C   UNL A   1      34.556  33.710  32.251  1.00  0.00     0.123 A 
ATOM     11  N   UNL A   1      34.701  35.844  32.971  1.00  0.00    -0.180 NA
BRANCH   8  12
ATOM     12  C   UNL A   1      36.657  32.734  33.244  1.00  0.00     0.262 C 
ATOM     13  O   UNL A   1      36.468  31.570  32.863  1.00  0.00    -0.269 OA
BRANCH  12  14
ATOM     14  N   UNL A   1      37.798  33.081  34.087  1.00  0.00    -0.293 N 
ATOM     15  C   UNL A   1      41.739  34.133  31.114  1.00  0.00     0.069 C 
ATOM     16  C   UNL A   1      40.796  33.905  32.238  1.00  0.00     0.062 A 
ATOM     17  C   UNL A   1      39.419  33.559  32.189  1.00  0.00     0.072 A 
ATOM     18  N   UNL A   1      41.227  34.012  33.499  1.00  0.00    -0.176 NA
ATOM     19  C   UNL A   1      39.032  33.406  33.504  1.00  0.00     0.134 A 
ATOM     20  N   UNL A   1      40.168  33.644  34.227  1.00  0.00    -0.237 N 
ATOM     21  C   UNL A   1      40.247  33.620  35.667  1.00  0.00     0.216 C 
ATOM     22  C   UNL A   1      37.778  32.874  35.562  1.00  0.00     0.130 C 
ATOM     23  C   UNL A   1      38.847  33.706  36.289  1.00  0.00     0.059 C 
BRANCH  21  24
ATOM     24  C   UNL A   1      41.024  32.419  36.163  1.00  0.00     0.410 C 
ATOM     25  F   UNL A   1      40.768  31.327  35.402  1.00  0.00    -0.169 F 
ATOM     26  F   UNL A   1      42.357  32.589  36.194  1.00  0.00    -0.169 F 
ATOM     27  F   UNL A   1      40.630  32.117  37.425  1.00  0.00    -0.169 F 
ENDBRANCH  21  24
ENDBRANCH  12  14
ENDBRANCH   8  12
ENDBRANCH   5   7
ENDBRANCH   3   5
ENDBRANCH   2   3
ENDBRANCH   1   2
BRANCH   1  28
ATOM     28  C   UNL A   1      34.069  33.393  28.218  1.00  0.00     0.275 C 
BRANCH  28  29
ATOM     29  O   UNL A   1      35.378  32.881  27.972  1.00  0.00    -0.458 OA
BRANCH  29  30
ATOM     30  C   UNL A   1      35.465  31.532  27.987  1.00  0.00     0.338 C 
ATOM     31  O   UNL A   1      34.826  30.745  27.323  1.00  0.00    -0.246 OA
BRANCH  30  32
ATOM     32  C   UNL A   1      36.348  31.097  29.071  1.00  0.00     0.060 A 
ATOM     33  C   UNL A   1      37.434  31.939  29.342  1.00  0.00     0.016 A 
ATOM     34  C   UNL A   1      36.330  29.747  29.431  1.00  0.00     0.016 A 
ATOM     35  C   UNL A   1      38.627  31.352  29.684  1.00  0.00     0.010 A 
ATOM     36  C   UNL A   1      37.521  29.163  29.763  1.00  0.00     0.010 A 
ATOM     37  C   UNL A   1      38.664  29.959  29.758  1.00  0.00    -0.014 A 
BRANCH  37  38
ATOM     38  C   UNL A   1      39.950  29.311  29.808  1.00  0.00     0.031 A 
ATOM     39  C   UNL A   1      40.482  29.186  31.176  1.00  0.00     0.074 A 
ATOM     40  C   UNL A   1      40.494  28.767  28.704  1.00  0.00     0.049 A 
ATOM     41  N   UNL A   1      41.522  29.762  31.677  1.00  0.00    -0.248 NA
ATOM     42  C   UNL A   1      39.646  28.474  32.156  1.00  0.00     0.031 C 
ATOM     43  C   UNL A   1      39.908  28.609  27.368  1.00  0.00     0.029 A 
ATOM     44  N   UNL A   1      41.684  28.130  28.588  1.00  0.00    -0.354 N 
ATOM     45  C   UNL A   1      41.575  29.332  32.996  1.00  0.00     0.074 A 
ATOM     46  C   UNL A   1      40.304  28.722  33.287  1.00  0.00     0.031 C 
ATOM     47  C   UNL A   1      40.646  27.722  26.660  1.00  0.00     0.029 A 
ATOM     48  C   UNL A   1      41.813  27.357  27.444  1.00  0.00     0.049 A 
ATOM     49  H   UNL A   1      42.398  28.209  29.261  1.00  0.00     0.167 HD
ATOM     50  C   UNL A   1      42.750  29.267  33.674  1.00  0.00     0.037 A 
ATOM     51  C   UNL A   1      42.764  26.410  27.253  1.00  0.00     0.037 A 
ATOM     52  C   UNL A   1      43.781  30.034  33.029  1.00  0.00     0.049 A 
ATOM     53  C   UNL A   1      43.869  26.702  28.211  1.00  0.00     0.074 A 
ATOM     54  C   UNL A   1      43.954  31.376  32.747  1.00  0.00     0.029 A 
ATOM     55  N   UNL A   1      44.665  29.366  32.216  1.00  0.00    -0.354 N 
ATOM     56  N   UNL A   1      44.617  27.771  28.139  1.00  0.00    -0.248 NA
ATOM     57  C   UNL A   1      43.806  26.076  29.525  1.00  0.00     0.031 C 
ATOM     58  C   UNL A   1      44.571  31.409  31.463  1.00  0.00     0.029 A 
ATOM     59  C   UNL A   1      44.788  30.092  31.058  1.00  0.00     0.049 A 
ATOM     60  H   UNL A   1      45.126  28.522  32.426  1.00  0.00     0.167 HD
ATOM     61  C   UNL A   1      44.784  28.183  29.455  1.00  0.00     0.074 A 
ATOM     62  C   UNL A   1      44.314  27.065  30.269  1.00  0.00     0.031 C 
ATOM     63  C   UNL A   1      45.008  29.496  29.761  1.00  0.00     0.037 A 
BRANCH  50  64
ATOM     64  C   UNL A   1      43.047  28.216  34.704  1.00  0.00     0.064 A 
ATOM     65  C   UNL A   1      43.457  28.606  35.988  1.00  0.00     0.173 A 
ATOM     66  C   UNL A   1      43.213  26.847  34.391  1.00  0.00     0.173 A 
ATOM     67  F   UNL A   1      43.368  29.889  36.370  1.00  0.00    -0.203 F 
ATOM     68  C   UNL A   1      44.046  27.701  36.875  1.00  0.00     0.198 A 
ATOM     69  C   UNL A   1      43.742  25.937  35.300  1.00  0.00     0.198 A 
ATOM     70  F   UNL A   1      42.981  26.362  33.166  1.00  0.00    -0.203 F 
ATOM     71  F   UNL A   1      44.532  28.139  38.043  1.00  0.00    -0.200 F 
ATOM     72  C   UNL A   1      44.188  26.369  36.529  1.00  0.00     0.200 A 
ATOM     73  F   UNL A   1      43.889  24.654  34.936  1.00  0.00    -0.200 F 
ATOM     74  F   UNL A   1      44.802  25.513  37.355  1.00  0.00    -0.200 F 
ENDBRANCH  50  64
BRANCH  51  75
ATOM     75  C   UNL A   1      42.566  25.077  26.631  1.00  0.00     0.064 A 
ATOM     76  C   UNL A   1      43.331  24.663  25.529  1.00  0.00     0.173 A 
ATOM     77  C   UNL A   1      41.799  24.081  27.269  1.00  0.00     0.173 A 
ATOM     78  F   UNL A   1      44.130  25.536  24.901  1.00  0.00    -0.203 F 
ATOM     79  C   UNL A   1      43.331  23.330  25.097  1.00  0.00     0.198 A 
ATOM     80  C   UNL A   1      41.796  22.754  26.835  1.00  0.00     0.198 A 
ATOM     81  F   UNL A   1      41.109  24.353  28.386  1.00  0.00    -0.203 F 
ATOM     82  F   UNL A   1      44.112  22.960  24.072  1.00  0.00    -0.200 F 
ATOM     83  C   UNL A   1      42.570  22.377  25.755  1.00  0.00     0.200 A 
ATOM     84  F   UNL A   1      41.085  21.838  27.507  1.00  0.00    -0.200 F 
ATOM     85  F   UNL A   1      42.611  21.093  25.374  1.00  0.00    -0.200 F 
ENDBRANCH  51  75
BRANCH  63  86
ATOM     86  C   UNL A   1      45.266  30.438  28.617  1.00  0.00     0.064 A 
ATOM     87  C   UNL A   1      44.253  31.158  27.957  1.00  0.00     0.173 A 
ATOM     88  C   UNL A   1      46.590  30.740  28.278  1.00  0.00     0.173 A 
ATOM     89  F   UNL A   1      42.970  31.012  28.305  1.00  0.00    -0.203 F 
ATOM     90  C   UNL A   1      44.551  32.098  26.972  1.00  0.00     0.198 A 
ATOM     91  C   UNL A   1      46.887  31.706  27.318  1.00  0.00     0.198 A 
ATOM     92  F   UNL A   1      47.601  30.137  28.922  1.00  0.00    -0.203 F 
ATOM     93  F   UNL A   1      43.563  32.767  26.359  1.00  0.00    -0.200 F 
ATOM     94  C   UNL A   1      45.869  32.375  26.658  1.00  0.00     0.200 A 
ATOM     95  F   UNL A   1      48.166  32.014  27.059  1.00  0.00    -0.200 F 
ATOM     96  F   UNL A   1      46.160  33.314  25.746  1.00  0.00    -0.200 F 
ENDBRANCH  63  86
ENDBRANCH  37  38
ENDBRANCH  30  32
ENDBRANCH  29  30
ENDBRANCH  28  29
ENDBRANCH   1  28
TORSDOF 15
ENDMDL
MODEL 3
REMARK VINA RESULT:     -12.8      5.548     11.086
REMARK SMILES Cc1cc2n(n1)[C@H](C(F)(F)F)CCN2C(=O)c1cnn([C@@H](C)C(=O)OCCOC(=O)c2ccc(-c3c4nc(c(-c5c(F)c(F)c(F)c(F)c5F)c5ccc([nH]5)c(-c5c(F)c(F)c(F)c(F)c5F)c5nc(c(-c6c(F)c(F)c(F)c(F)c6F)c6ccc3[nH]6)C=C5)C=C4)cc2)c1
REMARK SMILES IDX 26 1 25 2 23 3 24 4 21 5 22 6 20 7 17 8 18 9 94 10 19 11
REMARK SMILES IDX 15 12 16 13 14 14 1 15 2 16 3 17 6 18 4 19 5 20 7 21 13 22
REMARK SMILES IDX 12 23 8 24 9 25 10 26 11 27 27 28 28 29 29 30 30 31 31 32
REMARK SMILES IDX 32 33 93 34 33 35 92 36 34 37 35 38 36 39 86 40 37 41 91 42
REMARK SMILES IDX 85 43 87 44 38 45 90 46 84 47 83 48 39 50 71 51 51 52 70 53
REMARK SMILES IDX 52 54 55 55 69 56 88 57 53 58 54 59 68 61 89 62 56 63 40 64
REMARK SMILES IDX 41 65 49 66 42 67 43 68 47 69 50 70 44 71 45 72 48 73 46 74
REMARK SMILES IDX 72 75 73 76 81 77 74 78 75 79 79 80 82 81 76 82 77 83 80 84
REMARK SMILES IDX 78 85 57 86 58 87 66 88 59 89 60 90 64 91 67 92 61 93 62 94
REMARK SMILES IDX 65 95 63 96
REMARK H PARENT 87 49 55 60
REMARK Flexibility Score: inf
ROOT
ATOM      1  C   UNL A   1      34.054  34.273  28.901  1.00  0.00     0.274 C 
ENDROOT
BRANCH   1   2
ATOM      2  O   UNL A   1      32.842  34.609  29.607  1.00  0.00    -0.460 OA
BRANCH   2   3
ATOM      3  C   UNL A   1      32.885  35.690  30.429  1.00  0.00     0.330 C 
ATOM      4  O   UNL A   1      33.053  36.844  30.036  1.00  0.00    -0.250 OA
BRANCH   3   5
ATOM      5  C   UNL A   1      32.757  35.373  31.903  1.00  0.00     0.213 C 
ATOM      6  C   UNL A   1      32.400  36.637  32.667  1.00  0.00     0.046 C 
BRANCH   5   7
ATOM      7  N   UNL A   1      33.880  34.647  32.499  1.00  0.00    -0.258 N 
ATOM      8  C   UNL A   1      35.887  34.140  33.303  1.00  0.00     0.078 A 
ATOM      9  C   UNL A   1      34.987  33.051  33.334  1.00  0.00     0.149 A 
ATOM     10  C   UNL A   1      35.123  35.169  32.775  1.00  0.00     0.123 A 
ATOM     11  N   UNL A   1      33.842  33.312  32.699  1.00  0.00    -0.180 NA
BRANCH   8  12
ATOM     12  C   UNL A   1      37.233  34.243  33.797  1.00  0.00     0.262 C 
ATOM     13  O   UNL A   1      37.911  35.276  33.693  1.00  0.00    -0.269 OA
BRANCH  12  14
ATOM     14  N   UNL A   1      37.806  33.011  34.332  1.00  0.00    -0.293 N 
ATOM     15  C   UNL A   1      37.118  32.952  39.333  1.00  0.00     0.069 C 
ATOM     16  C   UNL A   1      37.459  32.664  37.917  1.00  0.00     0.062 A 
ATOM     17  C   UNL A   1      37.168  33.430  36.756  1.00  0.00     0.072 A 
ATOM     18  N   UNL A   1      38.139  31.555  37.609  1.00  0.00    -0.176 NA
ATOM     19  C   UNL A   1      37.758  32.752  35.711  1.00  0.00     0.134 A 
ATOM     20  N   UNL A   1      38.358  31.673  36.296  1.00  0.00    -0.237 N 
ATOM     21  C   UNL A   1      39.088  30.651  35.586  1.00  0.00     0.216 C 
ATOM     22  C   UNL A   1      38.659  32.114  33.503  1.00  0.00     0.130 C 
ATOM     23  C   UNL A   1      38.766  30.696  34.087  1.00  0.00     0.059 C 
BRANCH  21  24
ATOM     24  C   UNL A   1      40.576  30.740  35.857  1.00  0.00     0.410 C 
ATOM     25  F   UNL A   1      41.260  31.016  34.721  1.00  0.00    -0.169 F 
ATOM     26  F   UNL A   1      40.924  31.657  36.776  1.00  0.00    -0.169 F 
ATOM     27  F   UNL A   1      41.025  29.539  36.302  1.00  0.00    -0.169 F 
ENDBRANCH  21  24
ENDBRANCH  12  14
ENDBRANCH   8  12
ENDBRANCH   5   7
ENDBRANCH   3   5
ENDBRANCH   2   3
ENDBRANCH   1   2
BRANCH   1  28
ATOM     28  C   UNL A   1      34.453  32.819  29.127  1.00  0.00     0.275 C 
BRANCH  28  29
ATOM     29  O   UNL A   1      35.809  32.612  28.732  1.00  0.00    -0.458 OA
BRANCH  29  30
ATOM     30  C   UNL A   1      36.130  31.323  28.480  1.00  0.00     0.338 C 
ATOM     31  O   UNL A   1      35.685  30.612  27.605  1.00  0.00    -0.246 OA
BRANCH  30  32
ATOM     32  C   UNL A   1      36.998  30.804  29.538  1.00  0.00     0.060 A 
ATOM     33  C   UNL A   1      38.185  31.515  29.751  1.00  0.00     0.016 A 
ATOM     34  C   UNL A   1      36.835  29.472  29.926  1.00  0.00     0.016 A 
ATOM     35  C   UNL A   1      39.313  30.797  30.060  1.00  0.00     0.010 A 
ATOM     36  C   UNL A   1      37.961  28.756  30.225  1.00  0.00     0.010 A 
ATOM     37  C   UNL A   1      39.190  29.411  30.161  1.00  0.00    -0.014 A 
BRANCH  37  38
ATOM     38  C   UNL A   1      40.391  28.616  30.175  1.00  0.00     0.031 A 
ATOM     39  C   UNL A   1      40.918  28.390  31.532  1.00  0.00     0.074 A 
ATOM     40  C   UNL A   1      40.856  28.044  29.049  1.00  0.00     0.049 A 
ATOM     41  N   UNL A   1      42.023  28.826  32.035  1.00  0.00    -0.248 NA
ATOM     42  C   UNL A   1      40.015  27.752  32.504  1.00  0.00     0.031 C 
ATOM     43  C   UNL A   1      40.242  27.995  27.718  1.00  0.00     0.029 A 
ATOM     44  N   UNL A   1      41.963  27.277  28.900  1.00  0.00    -0.354 N 
ATOM     45  C   UNL A   1      42.039  28.354  33.341  1.00  0.00     0.074 A 
ATOM     46  C   UNL A   1      40.708  27.889  33.632  1.00  0.00     0.031 C 
ATOM     47  C   UNL A   1      40.865  27.049  26.976  1.00  0.00     0.029 A 
ATOM     48  C   UNL A   1      41.988  26.528  27.733  1.00  0.00     0.049 A 
ATOM     49  H   UNL A   1      42.687  27.252  29.565  1.00  0.00     0.167 HD
ATOM     50  C   UNL A   1      43.205  28.133  34.001  1.00  0.00     0.037 A 
ATOM     51  C   UNL A   1      42.820  25.482  27.504  1.00  0.00     0.037 A 
ATOM     52  C   UNL A   1      44.312  28.793  33.363  1.00  0.00     0.049 A 
ATOM     53  C   UNL A   1      43.961  25.616  28.454  1.00  0.00     0.074 A 
ATOM     54  C   UNL A   1      44.638  30.113  33.117  1.00  0.00     0.029 A 
ATOM     55  N   UNL A   1      45.104  28.050  32.521  1.00  0.00    -0.354 N 
ATOM     56  N   UNL A   1      44.829  26.592  28.402  1.00  0.00    -0.248 NA
ATOM     57  C   UNL A   1      43.839  24.962  29.751  1.00  0.00     0.031 C 
ATOM     58  C   UNL A   1      45.242  30.111  31.826  1.00  0.00     0.029 A 
ATOM     59  C   UNL A   1      45.299  28.790  31.382  1.00  0.00     0.049 A 
ATOM     60  H   UNL A   1      45.465  27.153  32.701  1.00  0.00     0.167 HD
ATOM     61  C   UNL A   1      45.056  26.943  29.726  1.00  0.00     0.074 A 
ATOM     62  C   UNL A   1      44.466  25.863  30.515  1.00  0.00     0.031 C 
ATOM     63  C   UNL A   1      45.435  28.211  30.065  1.00  0.00     0.037 A 
BRANCH  50  64
ATOM     64  C   UNL A   1      43.387  27.024  34.997  1.00  0.00     0.064 A 
ATOM     65  C   UNL A   1      43.699  27.340  36.329  1.00  0.00     0.173 A 
ATOM     66  C   UNL A   1      43.543  25.668  34.630  1.00  0.00     0.173 A 
ATOM     67  F   UNL A   1      43.611  28.605  36.767  1.00  0.00    -0.203 F 
ATOM     68  C   UNL A   1      44.187  26.376  37.214  1.00  0.00     0.198 A 
ATOM     69  C   UNL A   1      43.971  24.699  35.532  1.00  0.00     0.198 A 
ATOM     70  F   UNL A   1      43.403  25.251  33.367  1.00  0.00    -0.203 F 
ATOM     71  F   UNL A   1      44.585  26.742  38.439  1.00  0.00    -0.200 F 
ATOM     72  C   UNL A   1      44.323  25.058  36.814  1.00  0.00     0.200 A 
ATOM     73  F   UNL A   1      44.114  23.432  35.117  1.00  0.00    -0.200 F 
ATOM     74  F   UNL A   1      44.843  24.145  37.644  1.00  0.00    -0.200 F 
ENDBRANCH  50  64
BRANCH  51  75
ATOM     75  C   UNL A   1      42.461  24.201  26.847  1.00  0.00     0.064 A 
ATOM     76  C   UNL A   1      43.314  23.594  25.912  1.00  0.00     0.173 A 
ATOM     77  C   UNL A   1      41.391  23.414  27.320  1.00  0.00     0.173 A 
ATOM     78  F   UNL A   1      44.387  24.253  25.454  1.00  0.00    -0.203 F 
ATOM     79  C   UNL A   1      43.108  22.276  25.480  1.00  0.00     0.198 A 
ATOM     80  C   UNL A   1      41.184  22.103  26.885  1.00  0.00     0.198 A 
ATOM     81  F   UNL A   1      40.576  23.866  28.284  1.00  0.00    -0.203 F 
ATOM     82  F   UNL A   1      43.971  21.711  24.623  1.00  0.00    -0.200 F 
ATOM     83  C   UNL A   1      42.049  21.532  25.973  1.00  0.00     0.200 A 
ATOM     84  F   UNL A   1      40.178  21.384  27.402  1.00  0.00    -0.200 F 
ATOM     85  F   UNL A   1      41.883  20.254  25.600  1.00  0.00    -0.200 F 
ENDBRANCH  51  75
BRANCH  63  86
ATOM     86  C   UNL A   1      45.790  29.149  28.945  1.00  0.00     0.064 A 
ATOM     87  C   UNL A   1      44.855  29.975  28.296  1.00  0.00     0.173 A 
ATOM     88  C   UNL A   1      47.139  29.333  28.621  1.00  0.00     0.173 A 
ATOM     89  F   UNL A   1      43.561  29.944  28.632  1.00  0.00    -0.203 F 
ATOM     90  C   UNL A   1      45.247  30.904  27.334  1.00  0.00     0.198 A 
ATOM     91  C   UNL A   1      47.534  30.287  27.685  1.00  0.00     0.198 A 
ATOM     92  F   UNL A   1      48.084  28.623  29.258  1.00  0.00    -0.203 F 
ATOM     93  F   UNL A   1      44.332  31.677  26.730  1.00  0.00    -0.200 F 
ATOM     94  C   UNL A   1      46.589  31.063  27.035  1.00  0.00     0.200 A 
ATOM     95  F   UNL A   1      48.838  30.479  27.441  1.00  0.00    -0.200 F 
ATOM     96  F   UNL A   1      46.975  31.991  26.146  1.00  0.00    -0.200 F 
ENDBRANCH  63  86
ENDBRANCH  37  38
ENDBRANCH  30  32
ENDBRANCH  29  30
ENDBRANCH  28  29
ENDBRANCH   1  28
TORSDOF 15
ENDMDL
