MODEL 1
REMARK VINA RESULT:     -11.9      0.000      0.000
REMARK SMILES Cn1ccc(S(=O)(=O)N2CCO[C@H](CC(=O)OCCOC(=O)c3ccc(-c4c5nc(c(-c6c(F)c(F)c(F)c(F)c6F)c6ccc([nH]6)c(-c6c(F)c(F)c(F)c(F)c6F)c6nc(c(-c7c(F)c(F)c(F)c(F)c7F)c7ccc4[nH]7)C=C6)C=C5)cc3)C2)c1
REMARK SMILES IDX 18 1 17 2 15 3 16 4 14 5 13 6 9 7 10 8 86 9 11 10 12 11 6 12
REMARK SMILES IDX 7 13 8 14 5 15 1 16 2 17 3 18 87 19 4 20 19 21 20 22 21 23
REMARK SMILES IDX 22 24 23 25 24 26 85 27 25 28 84 29 26 30 27 31 28 32 78 33
REMARK SMILES IDX 29 34 83 35 77 36 79 37 30 38 82 39 76 40 75 41 31 43 63 44
REMARK SMILES IDX 43 45 62 46 44 47 47 48 61 49 80 50 45 51 46 52 60 54 81 55
REMARK SMILES IDX 48 56 32 57 33 58 41 59 34 60 35 61 39 62 42 63 36 64 37 65
REMARK SMILES IDX 40 66 38 67 64 68 65 69 73 70 66 71 67 72 71 73 74 74 68 75
REMARK SMILES IDX 69 76 72 77 70 78 49 79 50 80 58 81 51 82 52 83 56 84 59 85
REMARK SMILES IDX 53 86 54 87 57 88 55 89
REMARK H PARENT 79 42 47 53
REMARK Flexibility Score: inf
ROOT
ATOM      1  C   UNL A   1      31.364  29.580  24.999  1.00  0.00     0.274 C 
ENDROOT
BRANCH   1   2
ATOM      2  O   UNL A   1      30.268  29.684  24.069  1.00  0.00    -0.462 OA
BRANCH   2   3
ATOM      3  C   UNL A   1      30.173  28.694  23.148  1.00  0.00     0.308 C 
ATOM      4  O   UNL A   1      29.940  28.868  21.957  1.00  0.00    -0.252 OA
BRANCH   3   5
ATOM      5  C   UNL A   1      30.275  27.313  23.741  1.00  0.00     0.156 C 
BRANCH   5   6
ATOM      6  C   UNL A   1      31.083  26.276  22.947  1.00  0.00     0.144 C 
ATOM      7  N   UNL A   1      31.827  24.813  24.804  1.00  0.00    -0.193 NA
ATOM      8  C   UNL A   1      33.218  25.283  24.631  1.00  0.00     0.131 C 
ATOM      9  C   UNL A   1      31.041  24.847  23.549  1.00  0.00     0.135 C 
ATOM     10  C   UNL A   1      33.183  26.693  24.048  1.00  0.00     0.177 C 
ATOM     11  O   UNL A   1      32.454  26.733  22.810  1.00  0.00    -0.375 OA
BRANCH   7  12
ATOM     12  S   UNL A   1      31.561  23.598  25.938  1.00  0.00     0.244 S 
ATOM     13  O   UNL A   1      30.638  22.629  25.395  1.00  0.00    -0.207 OA
ATOM     14  O   UNL A   1      31.401  24.177  27.251  1.00  0.00    -0.207 OA
BRANCH  12  15
ATOM     15  C   UNL A   1      33.066  22.739  26.034  1.00  0.00     0.100 A 
ATOM     16  C   UNL A   1      35.465  20.233  25.001  1.00  0.00     0.149 C 
ATOM     17  N   UNL A   1      34.707  21.305  25.606  1.00  0.00    -0.356 N 
ATOM     18  C   UNL A   1      35.061  21.983  26.743  1.00  0.00     0.086 A 
ATOM     19  C   UNL A   1      33.507  21.772  25.151  1.00  0.00     0.106 A 
ATOM     20  C   UNL A   1      34.057  22.886  27.036  1.00  0.00     0.041 A 
ENDBRANCH  12  15
ENDBRANCH   7  12
ENDBRANCH   5   6
ENDBRANCH   3   5
ENDBRANCH   2   3
ENDBRANCH   1   2
BRANCH   1  21
ATOM     21  C   UNL A   1      31.496  30.843  25.850  1.00  0.00     0.275 C 
BRANCH  21  22
ATOM     22  O   UNL A   1      32.447  30.655  26.913  1.00  0.00    -0.458 OA
BRANCH  22  23
ATOM     23  C   UNL A   1      33.152  31.757  27.251  1.00  0.00     0.338 C 
ATOM     24  O   UNL A   1      32.765  32.914  27.259  1.00  0.00    -0.246 OA
BRANCH  23  25
ATOM     25  C   UNL A   1      34.495  31.374  27.710  1.00  0.00     0.060 A 
ATOM     26  C   UNL A   1      34.745  30.038  28.014  1.00  0.00     0.016 A 
ATOM     27  C   UNL A   1      35.434  32.359  28.016  1.00  0.00     0.016 A 
ATOM     28  C   UNL A   1      35.904  29.692  28.700  1.00  0.00     0.010 A 
ATOM     29  C   UNL A   1      36.630  31.995  28.646  1.00  0.00     0.010 A 
ATOM     30  C   UNL A   1      36.860  30.663  29.036  1.00  0.00    -0.014 A 
BRANCH  30  31
ATOM     31  C   UNL A   1      38.061  30.287  29.833  1.00  0.00     0.031 A 
ATOM     32  C   UNL A   1      39.128  29.400  29.246  1.00  0.00     0.074 A 
ATOM     33  C   UNL A   1      38.217  30.763  31.084  1.00  0.00     0.049 A 
ATOM     34  N   UNL A   1      40.152  28.832  29.838  1.00  0.00    -0.248 NA
ATOM     35  C   UNL A   1      39.029  29.101  27.811  1.00  0.00     0.031 C 
ATOM     36  C   UNL A   1      37.297  31.677  31.762  1.00  0.00     0.029 A 
ATOM     37  N   UNL A   1      39.211  30.547  32.007  1.00  0.00    -0.354 N 
ATOM     38  C   UNL A   1      40.786  28.076  28.860  1.00  0.00     0.074 A 
ATOM     39  C   UNL A   1      40.034  28.253  27.636  1.00  0.00     0.031 C 
ATOM     40  C   UNL A   1      37.784  31.969  32.977  1.00  0.00     0.029 A 
ATOM     41  C   UNL A   1      39.001  31.195  33.198  1.00  0.00     0.049 A 
ATOM     42  H   UNL A   1      39.998  29.982  31.830  1.00  0.00     0.167 HD
ATOM     43  C   UNL A   1      41.897  27.307  28.974  1.00  0.00     0.037 A 
ATOM     44  C   UNL A   1      39.680  31.141  34.359  1.00  0.00     0.037 A 
ATOM     45  C   UNL A   1      42.682  27.176  30.174  1.00  0.00     0.049 A 
ATOM     46  C   UNL A   1      40.880  30.247  34.474  1.00  0.00     0.074 A 
ATOM     47  C   UNL A   1      43.835  26.434  30.376  1.00  0.00     0.029 A 
ATOM     48  N   UNL A   1      42.406  27.816  31.373  1.00  0.00    -0.354 N 
ATOM     49  N   UNL A   1      41.435  29.487  33.563  1.00  0.00    -0.248 NA
ATOM     50  C   UNL A   1      41.536  30.187  35.787  1.00  0.00     0.031 C 
ATOM     51  C   UNL A   1      44.236  26.598  31.706  1.00  0.00     0.029 A 
ATOM     52  C   UNL A   1      43.357  27.473  32.322  1.00  0.00     0.049 A 
ATOM     53  H   UNL A   1      41.647  28.423  31.526  1.00  0.00     0.167 HD
ATOM     54  C   UNL A   1      42.504  28.862  34.187  1.00  0.00     0.074 A 
ATOM     55  C   UNL A   1      42.536  29.350  35.551  1.00  0.00     0.031 C 
ATOM     56  C   UNL A   1      43.377  27.961  33.676  1.00  0.00     0.037 A 
BRANCH  43  57
ATOM     57  C   UNL A   1      42.325  26.516  27.772  1.00  0.00     0.064 A 
ATOM     58  C   UNL A   1      43.323  26.971  26.901  1.00  0.00     0.173 A 
ATOM     59  C   UNL A   1      41.768  25.249  27.531  1.00  0.00     0.173 A 
ATOM     60  F   UNL A   1      43.883  28.175  27.087  1.00  0.00    -0.203 F 
ATOM     61  C   UNL A   1      43.739  26.195  25.821  1.00  0.00     0.198 A 
ATOM     62  C   UNL A   1      42.203  24.466  26.465  1.00  0.00     0.198 A 
ATOM     63  F   UNL A   1      40.818  24.762  28.344  1.00  0.00    -0.203 F 
ATOM     64  F   UNL A   1      44.675  26.660  24.983  1.00  0.00    -0.200 F 
ATOM     65  C   UNL A   1      43.184  24.941  25.609  1.00  0.00     0.200 A 
ATOM     66  F   UNL A   1      41.678  23.248  26.272  1.00  0.00    -0.200 F 
ATOM     67  F   UNL A   1      43.595  24.189  24.578  1.00  0.00    -0.200 F 
ENDBRANCH  43  57
BRANCH  44  68
ATOM     68  C   UNL A   1      39.203  31.932  35.520  1.00  0.00     0.064 A 
ATOM     69  C   UNL A   1      39.569  33.275  35.678  1.00  0.00     0.173 A 
ATOM     70  C   UNL A   1      38.354  31.366  36.484  1.00  0.00     0.173 A 
ATOM     71  F   UNL A   1      40.400  33.850  34.796  1.00  0.00    -0.203 F 
ATOM     72  C   UNL A   1      39.104  34.022  36.758  1.00  0.00     0.198 A 
ATOM     73  C   UNL A   1      37.866  32.123  37.546  1.00  0.00     0.198 A 
ATOM     74  F   UNL A   1      37.977  30.083  36.376  1.00  0.00    -0.203 F 
ATOM     75  F   UNL A   1      39.492  35.297  36.903  1.00  0.00    -0.200 F 
ATOM     76  C   UNL A   1      38.245  33.449  37.684  1.00  0.00     0.200 A 
ATOM     77  F   UNL A   1      37.025  31.570  38.429  1.00  0.00    -0.200 F 
ATOM     78  F   UNL A   1      37.786  34.174  38.713  1.00  0.00    -0.200 F 
ENDBRANCH  44  68
BRANCH  56  79
ATOM     79  C   UNL A   1      44.451  27.457  34.592  1.00  0.00     0.064 A 
ATOM     80  C   UNL A   1      44.283  26.282  35.339  1.00  0.00     0.173 A 
ATOM     81  C   UNL A   1      45.669  28.144  34.708  1.00  0.00     0.173 A 
ATOM     82  F   UNL A   1      43.129  25.601  35.274  1.00  0.00    -0.203 F 
ATOM     83  C   UNL A   1      45.288  25.825  36.187  1.00  0.00     0.198 A 
ATOM     84  C   UNL A   1      46.681  27.671  35.538  1.00  0.00     0.198 A 
ATOM     85  F   UNL A   1      45.878  29.272  34.012  1.00  0.00    -0.203 F 
ATOM     86  F   UNL A   1      45.090  24.723  36.924  1.00  0.00    -0.200 F 
ATOM     87  C   UNL A   1      46.488  26.516  36.281  1.00  0.00     0.200 A 
ATOM     88  F   UNL A   1      47.841  28.336  35.625  1.00  0.00    -0.200 F 
ATOM     89  F   UNL A   1      47.454  26.074  37.098  1.00  0.00    -0.200 F 
ENDBRANCH  56  79
ENDBRANCH  30  31
ENDBRANCH  23  25
ENDBRANCH  22  23
ENDBRANCH  21  22
ENDBRANCH   1  21
TORSDOF 14
ENDMDL
MODEL 2
REMARK VINA RESULT:     -11.8      1.466      3.450
REMARK SMILES Cn1ccc(S(=O)(=O)N2CCO[C@H](CC(=O)OCCOC(=O)c3ccc(-c4c5nc(c(-c6c(F)c(F)c(F)c(F)c6F)c6ccc([nH]6)c(-c6c(F)c(F)c(F)c(F)c6F)c6nc(c(-c7c(F)c(F)c(F)c(F)c7F)c7ccc4[nH]7)C=C6)C=C5)cc3)C2)c1
REMARK SMILES IDX 18 1 17 2 15 3 16 4 14 5 13 6 9 7 10 8 86 9 11 10 12 11 6 12
REMARK SMILES IDX 7 13 8 14 5 15 1 16 2 17 3 18 87 19 4 20 19 21 20 22 21 23
REMARK SMILES IDX 22 24 23 25 24 26 85 27 25 28 84 29 26 30 27 31 28 32 78 33
REMARK SMILES IDX 29 34 83 35 77 36 79 37 30 38 82 39 76 40 75 41 31 43 63 44
REMARK SMILES IDX 43 45 62 46 44 47 47 48 61 49 80 50 45 51 46 52 60 54 81 55
REMARK SMILES IDX 48 56 32 57 33 58 41 59 34 60 35 61 39 62 42 63 36 64 37 65
REMARK SMILES IDX 40 66 38 67 64 68 65 69 73 70 66 71 67 72 71 73 74 74 68 75
REMARK SMILES IDX 69 76 72 77 70 78 49 79 50 80 58 81 51 82 52 83 56 84 59 85
REMARK SMILES IDX 53 86 54 87 57 88 55 89
REMARK H PARENT 79 42 47 53
REMARK Flexibility Score: inf
ROOT
ATOM      1  C   UNL A   1      31.749  28.716  27.455  1.00  0.00     0.274 C 
ENDROOT
BRANCH   1   2
ATOM      2  O   UNL A   1      32.493  27.665  26.808  1.00  0.00    -0.462 OA
BRANCH   2   3
ATOM      3  C   UNL A   1      31.759  26.659  26.274  1.00  0.00     0.308 C 
ATOM      4  O   UNL A   1      30.604  26.771  25.877  1.00  0.00    -0.252 OA
BRANCH   3   5
ATOM      5  C   UNL A   1      32.459  25.326  26.302  1.00  0.00     0.156 C 
BRANCH   5   6
ATOM      6  C   UNL A   1      33.878  25.275  25.719  1.00  0.00     0.144 C 
ATOM      7  N   UNL A   1      33.351  25.531  23.311  1.00  0.00    -0.193 NA
ATOM      8  C   UNL A   1      33.745  24.128  23.064  1.00  0.00     0.131 C 
ATOM      9  C   UNL A   1      34.070  26.146  24.450  1.00  0.00     0.135 C 
ATOM     10  C   UNL A   1      33.520  23.330  24.346  1.00  0.00     0.177 C 
ATOM     11  O   UNL A   1      34.243  23.895  25.453  1.00  0.00    -0.375 OA
BRANCH   7  12
ATOM     12  S   UNL A   1      32.936  26.460  21.970  1.00  0.00     0.244 S 
ATOM     13  O   UNL A   1      32.280  25.624  20.992  1.00  0.00    -0.207 OA
ATOM     14  O   UNL A   1      34.022  27.350  21.633  1.00  0.00    -0.207 OA
BRANCH  12  15
ATOM     15  C   UNL A   1      31.681  27.519  22.532  1.00  0.00     0.100 A 
ATOM     16  C   UNL A   1      28.238  28.509  23.053  1.00  0.00     0.149 C 
ATOM     17  N   UNL A   1      29.674  28.357  22.984  1.00  0.00    -0.356 N 
ATOM     18  C   UNL A   1      30.591  29.307  23.351  1.00  0.00     0.086 A 
ATOM     19  C   UNL A   1      30.324  27.255  22.506  1.00  0.00     0.106 A 
ATOM     20  C   UNL A   1      31.854  28.813  23.082  1.00  0.00     0.041 A 
ENDBRANCH  12  15
ENDBRANCH   7  12
ENDBRANCH   5   6
ENDBRANCH   3   5
ENDBRANCH   2   3
ENDBRANCH   1   2
BRANCH   1  21
ATOM     21  C   UNL A   1      31.778  30.007  26.637  1.00  0.00     0.275 C 
BRANCH  21  22
ATOM     22  O   UNL A   1      33.130  30.434  26.389  1.00  0.00    -0.458 OA
BRANCH  22  23
ATOM     23  C   UNL A   1      33.585  31.398  27.218  1.00  0.00     0.338 C 
ATOM     24  O   UNL A   1      32.986  32.387  27.609  1.00  0.00    -0.246 OA
BRANCH  23  25
ATOM     25  C   UNL A   1      34.937  31.062  27.687  1.00  0.00     0.060 A 
ATOM     26  C   UNL A   1      35.234  29.733  27.981  1.00  0.00     0.016 A 
ATOM     27  C   UNL A   1      35.836  32.078  28.012  1.00  0.00     0.016 A 
ATOM     28  C   UNL A   1      36.399  29.424  28.676  1.00  0.00     0.010 A 
ATOM     29  C   UNL A   1      37.038  31.753  28.651  1.00  0.00     0.010 A 
ATOM     30  C   UNL A   1      37.314  30.427  29.030  1.00  0.00    -0.014 A 
BRANCH  30  31
ATOM     31  C   UNL A   1      38.520  30.089  29.836  1.00  0.00     0.031 A 
ATOM     32  C   UNL A   1      39.593  29.191  29.276  1.00  0.00     0.074 A 
ATOM     33  C   UNL A   1      38.677  30.609  31.069  1.00  0.00     0.049 A 
ATOM     34  N   UNL A   1      40.624  28.652  29.884  1.00  0.00    -0.248 NA
ATOM     35  C   UNL A   1      39.492  28.841  27.852  1.00  0.00     0.031 C 
ATOM     36  C   UNL A   1      37.752  31.538  31.718  1.00  0.00     0.029 A 
ATOM     37  N   UNL A   1      39.676  30.433  31.995  1.00  0.00    -0.354 N 
ATOM     38  C   UNL A   1      41.261  27.868  28.931  1.00  0.00     0.074 A 
ATOM     39  C   UNL A   1      40.504  27.996  27.704  1.00  0.00     0.031 C 
ATOM     40  C   UNL A   1      38.240  31.876  32.920  1.00  0.00     0.029 A 
ATOM     41  C   UNL A   1      39.464  31.120  33.164  1.00  0.00     0.049 A 
ATOM     42  H   UNL A   1      40.467  29.869  31.836  1.00  0.00     0.167 HD
ATOM     43  C   UNL A   1      42.379  27.112  29.067  1.00  0.00     0.037 A 
ATOM     44  C   UNL A   1      40.147  31.112  34.323  1.00  0.00     0.037 A 
ATOM     45  C   UNL A   1      43.169  27.029  30.268  1.00  0.00     0.049 A 
ATOM     46  C   UNL A   1      41.355  30.232  34.466  1.00  0.00     0.074 A 
ATOM     47  C   UNL A   1      44.328  26.304  30.492  1.00  0.00     0.029 A 
ATOM     48  N   UNL A   1      42.891  27.708  31.445  1.00  0.00    -0.354 N 
ATOM     49  N   UNL A   1      41.912  29.445  33.580  1.00  0.00    -0.248 NA
ATOM     50  C   UNL A   1      42.015  30.223  35.778  1.00  0.00     0.031 C 
ATOM     51  C   UNL A   1      44.732  26.518  31.814  1.00  0.00     0.029 A 
ATOM     52  C   UNL A   1      43.848  27.406  32.402  1.00  0.00     0.049 A 
ATOM     53  H   UNL A   1      42.127  28.314  31.580  1.00  0.00     0.167 HD
ATOM     54  C   UNL A   1      42.989  28.852  34.221  1.00  0.00     0.074 A 
ATOM     55  C   UNL A   1      43.022  29.386  35.567  1.00  0.00     0.031 C 
ATOM     56  C   UNL A   1      43.868  27.940  33.739  1.00  0.00     0.037 A 
BRANCH  43  57
ATOM     57  C   UNL A   1      42.809  26.284  27.892  1.00  0.00     0.064 A 
ATOM     58  C   UNL A   1      42.295  25.001  27.661  1.00  0.00     0.173 A 
ATOM     59  C   UNL A   1      43.703  26.814  26.948  1.00  0.00     0.173 A 
ATOM     60  F   UNL A   1      41.441  24.449  28.535  1.00  0.00    -0.203 F 
ATOM     61  C   UNL A   1      42.671  24.271  26.534  1.00  0.00     0.198 A 
ATOM     62  C   UNL A   1      44.058  26.093  25.811  1.00  0.00     0.198 A 
ATOM     63  F   UNL A   1      44.214  28.043  27.116  1.00  0.00    -0.203 F 
ATOM     64  F   UNL A   1      42.188  23.036  26.346  1.00  0.00    -0.200 F 
ATOM     65  C   UNL A   1      43.545  24.821  25.608  1.00  0.00     0.200 A 
ATOM     66  F   UNL A   1      44.890  26.631  24.909  1.00  0.00    -0.200 F 
ATOM     67  F   UNL A   1      43.895  24.124  24.518  1.00  0.00    -0.200 F 
ENDBRANCH  43  57
BRANCH  44  68
ATOM     68  C   UNL A   1      39.667  31.939  35.459  1.00  0.00     0.064 A 
ATOM     69  C   UNL A   1      38.685  31.459  36.335  1.00  0.00     0.173 A 
ATOM     70  C   UNL A   1      40.197  33.215  35.703  1.00  0.00     0.173 A 
ATOM     71  F   UNL A   1      38.131  30.256  36.126  1.00  0.00    -0.203 F 
ATOM     72  C   UNL A   1      38.249  32.227  37.412  1.00  0.00     0.198 A 
ATOM     73  C   UNL A   1      39.782  33.969  36.797  1.00  0.00     0.198 A 
ATOM     74  F   UNL A   1      41.139  33.718  34.890  1.00  0.00    -0.203 F 
ATOM     75  F   UNL A   1      37.287  31.759  38.219  1.00  0.00    -0.200 F 
ATOM     76  C   UNL A   1      38.805  33.477  37.648  1.00  0.00     0.200 A 
ATOM     77  F   UNL A   1      40.333  35.168  37.030  1.00  0.00    -0.200 F 
ATOM     78  F   UNL A   1      38.396  34.207  38.694  1.00  0.00    -0.200 F 
ENDBRANCH  44  68
BRANCH  56  79
ATOM     79  C   UNL A   1      44.949  27.477  34.668  1.00  0.00     0.064 A 
ATOM     80  C   UNL A   1      46.159  28.177  34.788  1.00  0.00     0.173 A 
ATOM     81  C   UNL A   1      44.765  26.336  35.462  1.00  0.00     0.173 A 
ATOM     82  F   UNL A   1      46.387  29.264  34.037  1.00  0.00    -0.203 F 
ATOM     83  C   UNL A   1      47.155  27.736  35.655  1.00  0.00     0.198 A 
ATOM     84  C   UNL A   1      45.754  25.912  36.345  1.00  0.00     0.198 A 
ATOM     85  F   UNL A   1      43.624  25.634  35.384  1.00  0.00    -0.203 F 
ATOM     86  F   UNL A   1      48.320  28.395  35.723  1.00  0.00    -0.200 F 
ATOM     87  C   UNL A   1      46.950  26.608  36.436  1.00  0.00     0.200 A 
ATOM     88  F   UNL A   1      45.553  24.825  37.103  1.00  0.00    -0.200 F 
ATOM     89  F   UNL A   1      47.911  26.185  37.269  1.00  0.00    -0.200 F 
ENDBRANCH  56  79
ENDBRANCH  30  31
ENDBRANCH  23  25
ENDBRANCH  22  23
ENDBRANCH  21  22
ENDBRANCH   1  21
TORSDOF 14
ENDMDL
MODEL 3
REMARK VINA RESULT:     -11.7      1.371      2.289
REMARK SMILES Cn1ccc(S(=O)(=O)N2CCO[C@H](CC(=O)OCCOC(=O)c3ccc(-c4c5nc(c(-c6c(F)c(F)c(F)c(F)c6F)c6ccc([nH]6)c(-c6c(F)c(F)c(F)c(F)c6F)c6nc(c(-c7c(F)c(F)c(F)c(F)c7F)c7ccc4[nH]7)C=C6)C=C5)cc3)C2)c1
REMARK SMILES IDX 18 1 17 2 15 3 16 4 14 5 13 6 9 7 10 8 86 9 11 10 12 11 6 12
REMARK SMILES IDX 7 13 8 14 5 15 1 16 2 17 3 18 87 19 4 20 19 21 20 22 21 23
REMARK SMILES IDX 22 24 23 25 24 26 85 27 25 28 84 29 26 30 27 31 28 32 78 33
REMARK SMILES IDX 29 34 83 35 77 36 79 37 30 38 82 39 76 40 75 41 31 43 63 44
REMARK SMILES IDX 43 45 62 46 44 47 47 48 61 49 80 50 45 51 46 52 60 54 81 55
REMARK SMILES IDX 48 56 32 57 33 58 41 59 34 60 35 61 39 62 42 63 36 64 37 65
REMARK SMILES IDX 40 66 38 67 64 68 65 69 73 70 66 71 67 72 71 73 74 74 68 75
REMARK SMILES IDX 69 76 72 77 70 78 49 79 50 80 58 81 51 82 52 83 56 84 59 85
REMARK SMILES IDX 53 86 54 87 57 88 55 89
REMARK H PARENT 79 42 47 53
REMARK Flexibility Score: inf
ROOT
ATOM      1  C   UNL A   1      31.481  29.021  25.103  1.00  0.00     0.274 C 
ENDROOT
BRANCH   1   2
ATOM      2  O   UNL A   1      32.241  28.041  25.837  1.00  0.00    -0.462 OA
BRANCH   2   3
ATOM      3  C   UNL A   1      31.532  27.021  26.378  1.00  0.00     0.308 C 
ATOM      4  O   UNL A   1      30.769  27.130  27.332  1.00  0.00    -0.252 OA
BRANCH   3   5
ATOM      5  C   UNL A   1      31.842  25.682  25.762  1.00  0.00     0.156 C 
BRANCH   5   6
ATOM      6  C   UNL A   1      32.307  24.572  26.715  1.00  0.00     0.144 C 
ATOM      7  N   UNL A   1      32.595  22.720  25.093  1.00  0.00    -0.193 NA
ATOM      8  C   UNL A   1      31.423  22.023  25.664  1.00  0.00     0.131 C 
ATOM      9  C   UNL A   1      33.304  23.569  26.077  1.00  0.00     0.135 C 
ATOM     10  C   UNL A   1      30.484  23.067  26.262  1.00  0.00     0.177 C 
ATOM     11  O   UNL A   1      31.150  23.874  27.246  1.00  0.00    -0.375 OA
BRANCH   7  12
ATOM     12  S   UNL A   1      33.456  21.918  23.889  1.00  0.00     0.244 S 
ATOM     13  O   UNL A   1      34.864  21.944  24.208  1.00  0.00    -0.207 OA
ATOM     14  O   UNL A   1      32.943  22.286  22.590  1.00  0.00    -0.207 OA
BRANCH  12  15
ATOM     15  C   UNL A   1      33.014  20.249  24.062  1.00  0.00     0.100 A 
ATOM     16  C   UNL A   1      33.011  17.028  25.714  1.00  0.00     0.149 C 
ATOM     17  N   UNL A   1      32.838  18.185  24.866  1.00  0.00    -0.356 N 
ATOM     18  C   UNL A   1      32.210  18.190  23.648  1.00  0.00     0.086 A 
ATOM     19  C   UNL A   1      33.311  19.437  25.141  1.00  0.00     0.106 A 
ATOM     20  C   UNL A   1      32.301  19.464  23.121  1.00  0.00     0.041 A 
ENDBRANCH  12  15
ENDBRANCH   7  12
ENDBRANCH   5   6
ENDBRANCH   3   5
ENDBRANCH   2   3
ENDBRANCH   1   2
BRANCH   1  21
ATOM     21  C   UNL A   1      31.821  30.442  25.553  1.00  0.00     0.275 C 
BRANCH  21  22
ATOM     22  O   UNL A   1      32.398  30.445  26.871  1.00  0.00    -0.458 OA
BRANCH  22  23
ATOM     23  C   UNL A   1      33.040  31.584  27.212  1.00  0.00     0.338 C 
ATOM     24  O   UNL A   1      32.586  32.716  27.230  1.00  0.00    -0.246 OA
BRANCH  23  25
ATOM     25  C   UNL A   1      34.406  31.277  27.661  1.00  0.00     0.060 A 
ATOM     26  C   UNL A   1      34.763  29.945  27.859  1.00  0.00     0.016 A 
ATOM     27  C   UNL A   1      35.256  32.307  28.062  1.00  0.00     0.016 A 
ATOM     28  C   UNL A   1      35.941  29.641  28.535  1.00  0.00     0.010 A 
ATOM     29  C   UNL A   1      36.472  31.993  28.681  1.00  0.00     0.010 A 
ATOM     30  C   UNL A   1      36.808  30.656  28.964  1.00  0.00    -0.014 A 
BRANCH  30  31
ATOM     31  C   UNL A   1      38.028  30.317  29.749  1.00  0.00     0.031 A 
ATOM     32  C   UNL A   1      39.104  29.442  29.159  1.00  0.00     0.074 A 
ATOM     33  C   UNL A   1      38.194  30.815  30.990  1.00  0.00     0.049 A 
ATOM     34  N   UNL A   1      40.148  28.903  29.743  1.00  0.00    -0.248 NA
ATOM     35  C   UNL A   1      38.989  29.119  27.729  1.00  0.00     0.031 C 
ATOM     36  C   UNL A   1      37.266  31.720  31.668  1.00  0.00     0.029 A 
ATOM     37  N   UNL A   1      39.206  30.632  31.901  1.00  0.00    -0.354 N 
ATOM     38  C   UNL A   1      40.782  28.146  28.767  1.00  0.00     0.074 A 
ATOM     39  C   UNL A   1      40.009  28.289  27.552  1.00  0.00     0.031 C 
ATOM     40  C   UNL A   1      37.766  32.040  32.871  1.00  0.00     0.029 A 
ATOM     41  C   UNL A   1      39.001  31.294  33.085  1.00  0.00     0.049 A 
ATOM     42  H   UNL A   1      40.001  30.080  31.720  1.00  0.00     0.167 HD
ATOM     43  C   UNL A   1      41.911  27.400  28.875  1.00  0.00     0.037 A 
ATOM     44  C   UNL A   1      39.698  31.271  34.236  1.00  0.00     0.037 A 
ATOM     45  C   UNL A   1      42.716  27.303  30.065  1.00  0.00     0.049 A 
ATOM     46  C   UNL A   1      40.917  30.403  34.346  1.00  0.00     0.074 A 
ATOM     47  C   UNL A   1      43.886  26.587  30.260  1.00  0.00     0.029 A 
ATOM     48  N   UNL A   1      42.445  27.955  31.258  1.00  0.00    -0.354 N 
ATOM     49  N   UNL A   1      41.473  29.640  33.438  1.00  0.00    -0.248 NA
ATOM     50  C   UNL A   1      41.594  30.376  35.649  1.00  0.00     0.031 C 
ATOM     51  C   UNL A   1      44.304  26.780  31.582  1.00  0.00     0.029 A 
ATOM     52  C   UNL A   1      43.417  27.646  32.198  1.00  0.00     0.049 A 
ATOM     53  H   UNL A   1      41.676  28.549  31.414  1.00  0.00     0.167 HD
ATOM     54  C   UNL A   1      42.564  29.046  34.055  1.00  0.00     0.074 A 
ATOM     55  C   UNL A   1      42.607  29.555  35.410  1.00  0.00     0.031 C 
ATOM     56  C   UNL A   1      43.447  28.155  33.544  1.00  0.00     0.037 A 
BRANCH  43  57
ATOM     57  C   UNL A   1      42.336  26.600  27.679  1.00  0.00     0.064 A 
ATOM     58  C   UNL A   1      43.314  27.060  26.788  1.00  0.00     0.173 A 
ATOM     59  C   UNL A   1      41.798  25.320  27.463  1.00  0.00     0.173 A 
ATOM     60  F   UNL A   1      43.855  28.276  26.949  1.00  0.00    -0.203 F 
ATOM     61  C   UNL A   1      43.729  26.276  25.713  1.00  0.00     0.198 A 
ATOM     62  C   UNL A   1      42.233  24.530  26.403  1.00  0.00     0.198 A 
ATOM     63  F   UNL A   1      40.868  24.828  28.295  1.00  0.00    -0.203 F 
ATOM     64  F   UNL A   1      44.646  26.745  24.856  1.00  0.00    -0.200 F 
ATOM     65  C   UNL A   1      43.193  25.010  25.527  1.00  0.00     0.200 A 
ATOM     66  F   UNL A   1      41.726  23.300  26.233  1.00  0.00    -0.200 F 
ATOM     67  F   UNL A   1      43.603  24.250  24.501  1.00  0.00    -0.200 F 
ENDBRANCH  43  57
BRANCH  44  68
ATOM     68  C   UNL A   1      39.223  32.070  35.393  1.00  0.00     0.064 A 
ATOM     69  C   UNL A   1      38.411  31.496  36.380  1.00  0.00     0.173 A 
ATOM     70  C   UNL A   1      39.589  33.416  35.545  1.00  0.00     0.173 A 
ATOM     71  F   UNL A   1      38.015  30.221  36.263  1.00  0.00    -0.203 F 
ATOM     72  C   UNL A   1      37.982  32.241  37.476  1.00  0.00     0.198 A 
ATOM     73  C   UNL A   1      39.184  34.150  36.656  1.00  0.00     0.198 A 
ATOM     74  F   UNL A   1      40.364  34.010  34.625  1.00  0.00    -0.203 F 
ATOM     75  F   UNL A   1      37.182  31.678  38.392  1.00  0.00    -0.200 F 
ATOM     76  C   UNL A   1      38.377  33.564  37.619  1.00  0.00     0.200 A 
ATOM     77  F   UNL A   1      39.580  35.422  36.798  1.00  0.00    -0.200 F 
ATOM     78  F   UNL A   1      37.977  34.273  38.682  1.00  0.00    -0.200 F 
ENDBRANCH  44  68
BRANCH  56  79
ATOM     79  C   UNL A   1      44.545  27.686  34.451  1.00  0.00     0.064 A 
ATOM     80  C   UNL A   1      44.404  26.530  35.232  1.00  0.00     0.173 A 
ATOM     81  C   UNL A   1      45.757  28.388  34.523  1.00  0.00     0.173 A 
ATOM     82  F   UNL A   1      43.257  25.836  35.209  1.00  0.00    -0.203 F 
ATOM     83  C   UNL A   1      45.431  26.105  36.071  1.00  0.00     0.198 A 
ATOM     84  C   UNL A   1      46.791  27.947  35.345  1.00  0.00     0.198 A 
ATOM     85  F   UNL A   1      45.941  29.499  33.794  1.00  0.00    -0.203 F 
ATOM     86  F   UNL A   1      45.260  25.022  36.840  1.00  0.00    -0.200 F 
ATOM     87  C   UNL A   1      46.625  26.811  36.122  1.00  0.00     0.200 A 
ATOM     88  F   UNL A   1      47.945  28.626  35.390  1.00  0.00    -0.200 F 
ATOM     89  F   UNL A   1      47.612  26.401  36.931  1.00  0.00    -0.200 F 
ENDBRANCH  56  79
ENDBRANCH  30  31
ENDBRANCH  23  25
ENDBRANCH  22  23
ENDBRANCH  21  22
ENDBRANCH   1  21
TORSDOF 14
ENDMDL
