MODEL 1
REMARK VINA RESULT:     -11.8      0.000      0.000
REMARK SMILES O=C(OCCOC(=O)c1cc(=O)[nH]c2c(Br)cccc12)c1ccc(-c2c3nc(c(-c4c(F)c(F)c(F)c(F)c4F)c4ccc([nH]4)c(-c4c(F)c(F)c(F)c(F)c4F)c4nc(c(-c5c(F)c(F)c(F)c(F)c5F)c5ccc2[nH]5)C=C4)C=C3)cc1
REMARK SMILES IDX 4 1 3 2 2 3 1 4 21 5 22 6 83 7 23 8 82 9 24 10 25 11 26 12
REMARK SMILES IDX 76 13 27 14 81 15 75 16 77 17 28 18 80 19 74 20 73 21 29 23
REMARK SMILES IDX 61 24 41 25 60 26 42 27 45 28 59 29 78 30 43 31 44 32 58 34
REMARK SMILES IDX 79 35 46 36 30 37 31 38 39 39 32 40 33 41 37 42 40 43 34 44
REMARK SMILES IDX 35 45 38 46 36 47 62 48 63 49 71 50 64 51 65 52 69 53 72 54
REMARK SMILES IDX 66 55 67 56 70 57 68 58 47 59 48 60 56 61 49 62 50 63 54 64
REMARK SMILES IDX 57 65 51 66 52 67 55 68 53 69 5 70 6 71 7 72 8 73 9 74 10 75
REMARK SMILES IDX 20 76 11 77 14 78 19 79 12 80 13 81 15 82 18 83 16 85 17 86
REMARK H PARENT 77 22 45 33 13 84
REMARK Flexibility Score: inf
ROOT
ATOM      1  C   UNL A   1      43.735  22.234  25.144  1.00  0.00     0.275 C 
ENDROOT
BRANCH   1   2
ATOM      2  O   UNL A   1      44.604  23.203  25.756  1.00  0.00    -0.458 OA
BRANCH   2   3
ATOM      3  C   UNL A   1      44.587  24.540  25.525  1.00  0.00     0.338 C 
ATOM      4  O   UNL A   1      45.254  25.027  24.618  1.00  0.00    -0.246 OA
BRANCH   3   5
ATOM      5  C   UNL A   1      44.013  25.446  26.558  1.00  0.00     0.060 A 
ATOM      6  C   UNL A   1      43.163  24.854  27.501  1.00  0.00     0.016 A 
ATOM      7  C   UNL A   1      44.254  26.818  26.646  1.00  0.00     0.016 A 
ATOM      8  C   UNL A   1      42.443  25.637  28.402  1.00  0.00     0.010 A 
ATOM      9  C   UNL A   1      43.552  27.606  27.562  1.00  0.00     0.010 A 
ATOM     10  C   UNL A   1      42.624  27.027  28.431  1.00  0.00    -0.014 A 
BRANCH  10  11
ATOM     11  C   UNL A   1      42.034  27.831  29.524  1.00  0.00     0.031 A 
ATOM     12  C   UNL A   1      40.853  28.734  29.328  1.00  0.00     0.074 A 
ATOM     13  C   UNL A   1      42.649  27.767  30.717  1.00  0.00     0.049 A 
ATOM     14  N   UNL A   1      40.152  29.366  30.235  1.00  0.00    -0.248 NA
ATOM     15  C   UNL A   1      40.390  28.959  27.954  1.00  0.00     0.031 C 
ATOM     16  C   UNL A   1      43.854  26.980  30.994  1.00  0.00     0.029 A 
ATOM     17  N   UNL A   1      42.369  28.380  31.907  1.00  0.00    -0.354 N 
ATOM     18  C   UNL A   1      39.110  29.980  29.552  1.00  0.00     0.074 A 
ATOM     19  C   UNL A   1      39.312  29.712  28.146  1.00  0.00     0.031 C 
ATOM     20  C   UNL A   1      44.207  27.156  32.273  1.00  0.00     0.029 A 
ATOM     21  C   UNL A   1      43.277  28.092  32.893  1.00  0.00     0.049 A 
ATOM     22  H   UNL A   1      41.592  28.970  32.042  1.00  0.00     0.167 HD
ATOM     23  C   UNL A   1      38.079  30.690  30.065  1.00  0.00     0.037 A 
ATOM     24  C   UNL A   1      43.363  28.546  34.154  1.00  0.00     0.037 A 
ATOM     25  C   UNL A   1      37.980  31.071  31.450  1.00  0.00     0.049 A 
ATOM     26  C   UNL A   1      42.298  29.471  34.661  1.00  0.00     0.074 A 
ATOM     27  C   UNL A   1      36.988  31.808  32.073  1.00  0.00     0.029 A 
ATOM     28  N   UNL A   1      38.942  30.798  32.411  1.00  0.00    -0.354 N 
ATOM     29  N   UNL A   1      41.226  29.907  34.044  1.00  0.00    -0.248 NA
ATOM     30  C   UNL A   1      42.445  29.963  36.036  1.00  0.00     0.031 C 
ATOM     31  C   UNL A   1      37.396  32.062  33.384  1.00  0.00     0.029 A 
ATOM     32  C   UNL A   1      38.605  31.417  33.601  1.00  0.00     0.049 A 
ATOM     33  H   UNL A   1      39.744  30.247  32.266  1.00  0.00     0.167 HD
ATOM     34  C   UNL A   1      40.556  30.702  34.961  1.00  0.00     0.074 A 
ATOM     35  C   UNL A   1      41.338  30.681  36.180  1.00  0.00     0.031 C 
ATOM     36  C   UNL A   1      39.397  31.385  34.805  1.00  0.00     0.037 A 
BRANCH  23  37
ATOM     37  C   UNL A   1      36.970  31.122  29.151  1.00  0.00     0.064 A 
ATOM     38  C   UNL A   1      35.944  30.231  28.800  1.00  0.00     0.173 A 
ATOM     39  C   UNL A   1      36.835  32.464  28.766  1.00  0.00     0.173 A 
ATOM     40  F   UNL A   1      36.009  28.945  29.176  1.00  0.00    -0.203 F 
ATOM     41  C   UNL A   1      34.822  30.671  28.100  1.00  0.00     0.198 A 
ATOM     42  C   UNL A   1      35.703  32.903  28.085  1.00  0.00     0.198 A 
ATOM     43  F   UNL A   1      37.778  33.360  29.097  1.00  0.00    -0.203 F 
ATOM     44  F   UNL A   1      33.845  29.807  27.786  1.00  0.00    -0.200 F 
ATOM     45  C   UNL A   1      34.697  32.008  27.754  1.00  0.00     0.200 A 
ATOM     46  F   UNL A   1      35.569  34.201  27.775  1.00  0.00    -0.200 F 
ATOM     47  F   UNL A   1      33.598  32.438  27.118  1.00  0.00    -0.200 F 
ENDBRANCH  23  37
BRANCH  24  48
ATOM     48  C   UNL A   1      44.493  28.098  35.004  1.00  0.00     0.064 A 
ATOM     49  C   UNL A   1      44.390  26.940  35.784  1.00  0.00     0.173 A 
ATOM     50  C   UNL A   1      45.722  28.776  34.994  1.00  0.00     0.173 A 
ATOM     51  F   UNL A   1      43.235  26.263  35.828  1.00  0.00    -0.203 F 
ATOM     52  C   UNL A   1      45.474  26.482  36.530  1.00  0.00     0.198 A 
ATOM     53  C   UNL A   1      46.813  28.297  35.715  1.00  0.00     0.198 A 
ATOM     54  F   UNL A   1      45.876  29.880  34.248  1.00  0.00    -0.203 F 
ATOM     55  F   UNL A   1      45.343  25.386  37.290  1.00  0.00    -0.200 F 
ATOM     56  C   UNL A   1      46.686  27.154  36.487  1.00  0.00     0.200 A 
ATOM     57  F   UNL A   1      47.990  28.935  35.646  1.00  0.00    -0.200 F 
ATOM     58  F   UNL A   1      47.732  26.697  37.187  1.00  0.00    -0.200 F 
ENDBRANCH  24  48
BRANCH  36  59
ATOM     59  C   UNL A   1      38.887  32.169  35.976  1.00  0.00     0.064 A 
ATOM     60  C   UNL A   1      38.149  31.555  36.998  1.00  0.00     0.173 A 
ATOM     61  C   UNL A   1      39.235  33.519  36.131  1.00  0.00     0.173 A 
ATOM     62  F   UNL A   1      37.781  30.269  36.886  1.00  0.00    -0.203 F 
ATOM     63  C   UNL A   1      37.777  32.267  38.133  1.00  0.00     0.198 A 
ATOM     64  C   UNL A   1      38.888  34.218  37.281  1.00  0.00     0.198 A 
ATOM     65  F   UNL A   1      39.947  34.147  35.182  1.00  0.00    -0.203 F 
ATOM     66  F   UNL A   1      37.051  31.669  39.087  1.00  0.00    -0.200 F 
ATOM     67  C   UNL A   1      38.159  33.593  38.281  1.00  0.00     0.200 A 
ATOM     68  F   UNL A   1      39.276  35.492  37.432  1.00  0.00    -0.200 F 
ATOM     69  F   UNL A   1      37.826  34.266  39.390  1.00  0.00    -0.200 F 
ENDBRANCH  36  59
ENDBRANCH  10  11
ENDBRANCH   3   5
ENDBRANCH   2   3
ENDBRANCH   1   2
BRANCH   1  70
ATOM     70  C   UNL A   1      42.984  21.328  26.128  1.00  0.00     0.275 C 
BRANCH  70  71
ATOM     71  O   UNL A   1      41.626  21.043  25.758  1.00  0.00    -0.458 OA
BRANCH  71  72
ATOM     72  C   UNL A   1      40.732  21.046  26.786  1.00  0.00     0.339 C 
ATOM     73  O   UNL A   1      40.780  20.333  27.778  1.00  0.00    -0.246 OA
BRANCH  72  74
ATOM     74  C   UNL A   1      39.699  22.085  26.565  1.00  0.00     0.074 A 
ATOM     75  C   UNL A   1      39.964  23.305  27.057  1.00  0.00     0.088 A 
ATOM     76  C   UNL A   1      38.437  21.840  25.841  1.00  0.00     0.014 A 
ATOM     77  C   UNL A   1      39.004  24.416  26.914  1.00  0.00     0.249 A 
ATOM     78  C   UNL A   1      37.479  22.870  25.793  1.00  0.00     0.063 A 
ATOM     79  C   UNL A   1      38.111  20.595  25.280  1.00  0.00     0.011 A 
ATOM     80  O   UNL A   1      39.294  25.534  27.322  1.00  0.00    -0.270 OA
ATOM     81  N   UNL A   1      37.804  24.124  26.340  1.00  0.00    -0.321 N 
ATOM     82  C   UNL A   1      36.219  22.646  25.222  1.00  0.00     0.042 A 
ATOM     83  C   UNL A   1      36.850  20.372  24.721  1.00  0.00     0.002 A 
ATOM     84  H   UNL A   1      37.122  24.833  26.308  1.00  0.00     0.170 HD
ATOM     85  Br  UNL A   1      34.894  24.003  25.171  1.00  0.00    -0.049 Br
ATOM     86  C   UNL A   1      35.901  21.393  24.696  1.00  0.00     0.018 A 
ENDBRANCH  72  74
ENDBRANCH  71  72
ENDBRANCH  70  71
ENDBRANCH   1  70
TORSDOF 11
ENDMDL
MODEL 2
REMARK VINA RESULT:     -11.7      4.854      7.777
REMARK SMILES O=C(OCCOC(=O)c1cc(=O)[nH]c2c(Br)cccc12)c1ccc(-c2c3nc(c(-c4c(F)c(F)c(F)c(F)c4F)c4ccc([nH]4)c(-c4c(F)c(F)c(F)c(F)c4F)c4nc(c(-c5c(F)c(F)c(F)c(F)c5F)c5ccc2[nH]5)C=C4)C=C3)cc1
REMARK SMILES IDX 4 1 3 2 2 3 1 4 21 5 22 6 83 7 23 8 82 9 24 10 25 11 26 12
REMARK SMILES IDX 76 13 27 14 81 15 75 16 77 17 28 18 80 19 74 20 73 21 29 23
REMARK SMILES IDX 61 24 41 25 60 26 42 27 45 28 59 29 78 30 43 31 44 32 58 34
REMARK SMILES IDX 79 35 46 36 30 37 31 38 39 39 32 40 33 41 37 42 40 43 34 44
REMARK SMILES IDX 35 45 38 46 36 47 62 48 63 49 71 50 64 51 65 52 69 53 72 54
REMARK SMILES IDX 66 55 67 56 70 57 68 58 47 59 48 60 56 61 49 62 50 63 54 64
REMARK SMILES IDX 57 65 51 66 52 67 55 68 53 69 5 70 6 71 7 72 8 73 9 74 10 75
REMARK SMILES IDX 20 76 11 77 14 78 19 79 12 80 13 81 15 82 18 83 16 85 17 86
REMARK H PARENT 77 22 45 33 13 84
REMARK Flexibility Score: inf
ROOT
ATOM      1  C   UNL A   1      38.888  19.266  25.715  1.00  0.00     0.275 C 
ENDROOT
BRANCH   1   2
ATOM      2  O   UNL A   1      40.295  19.524  25.870  1.00  0.00    -0.458 OA
BRANCH   2   3
ATOM      3  C   UNL A   1      40.894  19.993  26.993  1.00  0.00     0.338 C 
ATOM      4  O   UNL A   1      40.919  19.318  28.018  1.00  0.00    -0.246 OA
BRANCH   3   5
ATOM      5  C   UNL A   1      41.243  21.437  27.080  1.00  0.00     0.060 A 
ATOM      6  C   UNL A   1      41.961  21.837  28.213  1.00  0.00     0.016 A 
ATOM      7  C   UNL A   1      40.906  22.403  26.130  1.00  0.00     0.016 A 
ATOM      8  C   UNL A   1      42.190  23.188  28.474  1.00  0.00     0.010 A 
ATOM      9  C   UNL A   1      41.152  23.756  26.373  1.00  0.00     0.010 A 
ATOM     10  C   UNL A   1      41.773  24.163  27.557  1.00  0.00    -0.014 A 
BRANCH  10  11
ATOM     11  C   UNL A   1      42.205  25.569  27.719  1.00  0.00     0.031 A 
ATOM     12  C   UNL A   1      41.334  26.626  28.328  1.00  0.00     0.074 A 
ATOM     13  C   UNL A   1      43.419  25.884  27.234  1.00  0.00     0.049 A 
ATOM     14  N   UNL A   1      41.654  27.850  28.665  1.00  0.00    -0.248 NA
ATOM     15  C   UNL A   1      39.934  26.279  28.599  1.00  0.00     0.031 C 
ATOM     16  C   UNL A   1      44.315  24.947  26.551  1.00  0.00     0.029 A 
ATOM     17  N   UNL A   1      44.098  27.071  27.216  1.00  0.00    -0.354 N 
ATOM     18  C   UNL A   1      40.526  28.382  29.277  1.00  0.00     0.074 A 
ATOM     19  C   UNL A   1      39.488  27.380  29.196  1.00  0.00     0.031 C 
ATOM     20  C   UNL A   1      45.428  25.594  26.185  1.00  0.00     0.029 A 
ATOM     21  C   UNL A   1      45.307  26.994  26.574  1.00  0.00     0.049 A 
ATOM     22  H   UNL A   1      43.753  27.898  27.625  1.00  0.00     0.167 HD
ATOM     23  C   UNL A   1      40.388  29.596  29.859  1.00  0.00     0.037 A 
ATOM     24  C   UNL A   1      46.214  27.950  26.311  1.00  0.00     0.037 A 
ATOM     25  C   UNL A   1      41.384  30.633  29.797  1.00  0.00     0.049 A 
ATOM     26  C   UNL A   1      45.965  29.338  26.822  1.00  0.00     0.074 A 
ATOM     27  C   UNL A   1      41.338  31.907  30.335  1.00  0.00     0.029 A 
ATOM     28  N   UNL A   1      42.579  30.534  29.100  1.00  0.00    -0.354 N 
ATOM     29  N   UNL A   1      44.967  29.781  27.546  1.00  0.00    -0.248 NA
ATOM     30  C   UNL A   1      46.968  30.357  26.490  1.00  0.00     0.031 C 
ATOM     31  C   UNL A   1      42.459  32.608  29.884  1.00  0.00     0.029 A 
ATOM     32  C   UNL A   1      43.242  31.748  29.130  1.00  0.00     0.049 A 
ATOM     33  H   UNL A   1      42.906  29.721  28.652  1.00  0.00     0.167 HD
ATOM     34  C   UNL A   1      45.230  31.122  27.779  1.00  0.00     0.074 A 
ATOM     35  C   UNL A   1      46.490  31.418  27.127  1.00  0.00     0.031 C 
ATOM     36  C   UNL A   1      44.495  32.023  28.474  1.00  0.00     0.037 A 
BRANCH  23  37
ATOM     37  C   UNL A   1      39.125  29.899  30.612  1.00  0.00     0.064 A 
ATOM     38  C   UNL A   1      39.051  29.692  31.998  1.00  0.00     0.173 A 
ATOM     39  C   UNL A   1      38.054  30.554  29.987  1.00  0.00     0.173 A 
ATOM     40  F   UNL A   1      40.065  29.102  32.648  1.00  0.00    -0.203 F 
ATOM     41  C   UNL A   1      37.950  30.134  32.730  1.00  0.00     0.198 A 
ATOM     42  C   UNL A   1      36.966  31.012  30.725  1.00  0.00     0.198 A 
ATOM     43  F   UNL A   1      38.087  30.796  28.667  1.00  0.00    -0.203 F 
ATOM     44  F   UNL A   1      37.903  29.939  34.056  1.00  0.00    -0.200 F 
ATOM     45  C   UNL A   1      36.915  30.804  32.096  1.00  0.00     0.200 A 
ATOM     46  F   UNL A   1      35.978  31.684  30.116  1.00  0.00    -0.200 F 
ATOM     47  F   UNL A   1      35.876  31.266  32.807  1.00  0.00    -0.200 F 
ENDBRANCH  23  37
BRANCH  24  48
ATOM     48  C   UNL A   1      47.433  27.594  25.547  1.00  0.00     0.064 A 
ATOM     49  C   UNL A   1      47.464  27.703  24.151  1.00  0.00     0.173 A 
ATOM     50  C   UNL A   1      48.614  27.209  26.201  1.00  0.00     0.173 A 
ATOM     51  F   UNL A   1      46.359  28.062  23.483  1.00  0.00    -0.203 F 
ATOM     52  C   UNL A   1      48.629  27.432  23.438  1.00  0.00     0.198 A 
ATOM     53  C   UNL A   1      49.786  26.971  25.488  1.00  0.00     0.198 A 
ATOM     54  F   UNL A   1      48.639  27.108  27.538  1.00  0.00    -0.203 F 
ATOM     55  F   UNL A   1      48.627  27.518  22.101  1.00  0.00    -0.200 F 
ATOM     56  C   UNL A   1      49.791  27.077  24.107  1.00  0.00     0.200 A 
ATOM     57  F   UNL A   1      50.912  26.656  26.143  1.00  0.00    -0.200 F 
ATOM     58  F   UNL A   1      50.916  26.840  23.420  1.00  0.00    -0.200 F 
ENDBRANCH  24  48
BRANCH  36  59
ATOM     59  C   UNL A   1      45.024  33.422  28.576  1.00  0.00     0.064 A 
ATOM     60  C   UNL A   1      44.635  34.416  27.668  1.00  0.00     0.173 A 
ATOM     61  C   UNL A   1      45.839  33.794  29.656  1.00  0.00     0.173 A 
ATOM     62  F   UNL A   1      43.869  34.103  26.612  1.00  0.00    -0.203 F 
ATOM     63  C   UNL A   1      45.044  35.735  27.838  1.00  0.00     0.198 A 
ATOM     64  C   UNL A   1      46.219  35.118  29.840  1.00  0.00     0.198 A 
ATOM     65  F   UNL A   1      46.231  32.878  30.555  1.00  0.00    -0.203 F 
ATOM     66  F   UNL A   1      44.681  36.666  26.945  1.00  0.00    -0.200 F 
ATOM     67  C   UNL A   1      45.823  36.088  28.930  1.00  0.00     0.200 A 
ATOM     68  F   UNL A   1      46.954  35.462  30.907  1.00  0.00    -0.200 F 
ATOM     69  F   UNL A   1      46.189  37.364  29.108  1.00  0.00    -0.200 F 
ENDBRANCH  36  59
ENDBRANCH  10  11
ENDBRANCH   3   5
ENDBRANCH   2   3
ENDBRANCH   1   2
BRANCH   1  70
ATOM     70  C   UNL A   1      38.153  20.235  24.782  1.00  0.00     0.275 C 
BRANCH  70  71
ATOM     71  O   UNL A   1      37.109  20.992  25.412  1.00  0.00    -0.458 OA
BRANCH  71  72
ATOM     72  C   UNL A   1      36.258  21.629  24.561  1.00  0.00     0.339 C 
ATOM     73  O   UNL A   1      36.574  22.197  23.525  1.00  0.00    -0.246 OA
BRANCH  72  74
ATOM     74  C   UNL A   1      34.861  21.498  25.035  1.00  0.00     0.074 A 
ATOM     75  C   UNL A   1      34.323  20.270  24.975  1.00  0.00     0.088 A 
ATOM     76  C   UNL A   1      34.068  22.626  25.562  1.00  0.00     0.014 A 
ATOM     77  C   UNL A   1      32.933  20.019  25.404  1.00  0.00     0.249 A 
ATOM     78  C   UNL A   1      32.714  22.407  25.876  1.00  0.00     0.063 A 
ATOM     79  C   UNL A   1      34.581  23.928  25.676  1.00  0.00     0.011 A 
ATOM     80  O   UNL A   1      32.485  18.879  25.393  1.00  0.00    -0.270 OA
ATOM     81  N   UNL A   1      32.198  21.103  25.779  1.00  0.00    -0.321 N 
ATOM     82  C   UNL A   1      31.891  23.472  26.266  1.00  0.00     0.042 A 
ATOM     83  C   UNL A   1      33.755  24.989  26.055  1.00  0.00     0.002 A 
ATOM     84  H   UNL A   1      31.247  20.965  25.992  1.00  0.00     0.170 HD
ATOM     85  Br  UNL A   1      30.053  23.216  26.663  1.00  0.00    -0.049 Br
ATOM     86  C   UNL A   1      32.410  24.765  26.344  1.00  0.00     0.018 A 
ENDBRANCH  72  74
ENDBRANCH  71  72
ENDBRANCH  70  71
ENDBRANCH   1  70
TORSDOF 11
ENDMDL
MODEL 3
REMARK VINA RESULT:     -11.7      0.461      7.582
REMARK SMILES O=C(OCCOC(=O)c1cc(=O)[nH]c2c(Br)cccc12)c1ccc(-c2c3nc(c(-c4c(F)c(F)c(F)c(F)c4F)c4ccc([nH]4)c(-c4c(F)c(F)c(F)c(F)c4F)c4nc(c(-c5c(F)c(F)c(F)c(F)c5F)c5ccc2[nH]5)C=C4)C=C3)cc1
REMARK SMILES IDX 4 1 3 2 2 3 1 4 21 5 22 6 83 7 23 8 82 9 24 10 25 11 26 12
REMARK SMILES IDX 76 13 27 14 81 15 75 16 77 17 28 18 80 19 74 20 73 21 29 23
REMARK SMILES IDX 61 24 41 25 60 26 42 27 45 28 59 29 78 30 43 31 44 32 58 34
REMARK SMILES IDX 79 35 46 36 30 37 31 38 39 39 32 40 33 41 37 42 40 43 34 44
REMARK SMILES IDX 35 45 38 46 36 47 62 48 63 49 71 50 64 51 65 52 69 53 72 54
REMARK SMILES IDX 66 55 67 56 70 57 68 58 47 59 48 60 56 61 49 62 50 63 54 64
REMARK SMILES IDX 57 65 51 66 52 67 55 68 53 69 5 70 6 71 7 72 8 73 9 74 10 75
REMARK SMILES IDX 20 76 11 77 14 78 19 79 12 80 13 81 15 82 18 83 16 85 17 86
REMARK H PARENT 77 22 45 33 13 84
REMARK Flexibility Score: inf
ROOT
ATOM      1  C   UNL A   1      43.892  22.602  24.552  1.00  0.00     0.275 C 
ENDROOT
BRANCH   1   2
ATOM      2  O   UNL A   1      43.502  23.984  24.628  1.00  0.00    -0.458 OA
BRANCH   2   3
ATOM      3  C   UNL A   1      44.276  25.002  25.082  1.00  0.00     0.338 C 
ATOM      4  O   UNL A   1      45.450  25.097  24.737  1.00  0.00    -0.246 OA
BRANCH   3   5
ATOM      5  C   UNL A   1      43.801  25.815  26.235  1.00  0.00     0.060 A 
ATOM      6  C   UNL A   1      42.925  25.182  27.124  1.00  0.00     0.016 A 
ATOM      7  C   UNL A   1      44.158  27.142  26.482  1.00  0.00     0.016 A 
ATOM      8  C   UNL A   1      42.291  25.902  28.136  1.00  0.00     0.010 A 
ATOM      9  C   UNL A   1      43.544  27.864  27.509  1.00  0.00     0.010 A 
ATOM     10  C   UNL A   1      42.588  27.258  28.329  1.00  0.00    -0.014 A 
BRANCH  10  11
ATOM     11  C   UNL A   1      42.089  27.965  29.529  1.00  0.00     0.031 A 
ATOM     12  C   UNL A   1      42.710  27.809  30.885  1.00  0.00     0.074 A 
ATOM     13  C   UNL A   1      40.993  28.726  29.367  1.00  0.00     0.049 A 
ATOM     14  N   UNL A   1      42.463  28.490  31.977  1.00  0.00    -0.248 NA
ATOM     15  C   UNL A   1      43.735  26.772  31.048  1.00  0.00     0.031 C 
ATOM     16  C   UNL A   1      40.264  28.882  28.105  1.00  0.00     0.029 A 
ATOM     17  N   UNL A   1      40.288  29.488  30.258  1.00  0.00    -0.354 N 
ATOM     18  C   UNL A   1      43.370  28.030  32.923  1.00  0.00     0.074 A 
ATOM     19  C   UNL A   1      44.120  26.960  32.306  1.00  0.00     0.031 C 
ATOM     20  C   UNL A   1      39.217  29.693  28.302  1.00  0.00     0.029 A 
ATOM     21  C   UNL A   1      39.182  30.082  29.707  1.00  0.00     0.049 A 
ATOM     22  H   UNL A   1      40.549  29.598  31.201  1.00  0.00     0.167 HD
ATOM     23  C   UNL A   1      43.555  28.479  34.187  1.00  0.00     0.037 A 
ATOM     24  C   UNL A   1      38.231  30.843  30.274  1.00  0.00     0.037 A 
ATOM     25  C   UNL A   1      42.699  29.441  34.829  1.00  0.00     0.049 A 
ATOM     26  C   UNL A   1      38.363  31.196  31.725  1.00  0.00     0.074 A 
ATOM     27  C   UNL A   1      42.784  29.950  36.113  1.00  0.00     0.029 A 
ATOM     28  N   UNL A   1      41.562  29.989  34.254  1.00  0.00    -0.354 N 
ATOM     29  N   UNL A   1      39.322  30.887  32.563  1.00  0.00    -0.248 NA
ATOM     30  C   UNL A   1      37.289  32.008  32.311  1.00  0.00     0.031 C 
ATOM     31  C   UNL A   1      41.648  30.729  36.346  1.00  0.00     0.029 A 
ATOM     32  C   UNL A   1      40.896  30.769  35.182  1.00  0.00     0.049 A 
ATOM     33  H   UNL A   1      41.273  29.844  33.325  1.00  0.00     0.167 HD
ATOM     34  C   UNL A   1      38.985  31.485  33.767  1.00  0.00     0.074 A 
ATOM     35  C   UNL A   1      37.735  32.185  33.548  1.00  0.00     0.031 C 
ATOM     36  C   UNL A   1      39.652  31.458  34.945  1.00  0.00     0.037 A 
BRANCH  23  37
ATOM     37  C   UNL A   1      44.711  27.947  34.982  1.00  0.00     0.064 A 
ATOM     38  C   UNL A   1      45.964  28.578  34.934  1.00  0.00     0.173 A 
ATOM     39  C   UNL A   1      44.528  26.920  35.920  1.00  0.00     0.173 A 
ATOM     40  F   UNL A   1      46.178  29.590  34.079  1.00  0.00    -0.203 F 
ATOM     41  C   UNL A   1      46.989  28.201  35.799  1.00  0.00     0.198 A 
ATOM     42  C   UNL A   1      45.549  26.560  36.796  1.00  0.00     0.198 A 
ATOM     43  F   UNL A   1      43.342  26.301  36.021  1.00  0.00    -0.203 F 
ATOM     44  F   UNL A   1      48.175  28.825  35.748  1.00  0.00    -0.200 F 
ATOM     45  C   UNL A   1      46.777  27.202  36.737  1.00  0.00     0.200 A 
ATOM     46  F   UNL A   1      45.335  25.613  37.721  1.00  0.00    -0.200 F 
ATOM     47  F   UNL A   1      47.750  26.869  37.597  1.00  0.00    -0.200 F 
ENDBRANCH  23  37
BRANCH  24  48
ATOM     48  C   UNL A   1      37.103  31.323  29.440  1.00  0.00     0.064 A 
ATOM     49  C   UNL A   1      36.060  30.463  29.078  1.00  0.00     0.173 A 
ATOM     50  C   UNL A   1      37.008  32.669  29.053  1.00  0.00     0.173 A 
ATOM     51  F   UNL A   1      36.110  29.169  29.423  1.00  0.00    -0.203 F 
ATOM     52  C   UNL A   1      34.967  30.929  28.352  1.00  0.00     0.198 A 
ATOM     53  C   UNL A   1      35.899  33.140  28.355  1.00  0.00     0.198 A 
ATOM     54  F   UNL A   1      37.973  33.536  29.391  1.00  0.00    -0.203 F 
ATOM     55  F   UNL A   1      33.993  30.081  27.996  1.00  0.00    -0.200 F 
ATOM     56  C   UNL A   1      34.882  32.268  28.000  1.00  0.00     0.200 A 
ATOM     57  F   UNL A   1      35.809  34.440  28.043  1.00  0.00    -0.200 F 
ATOM     58  F   UNL A   1      33.818  32.718  27.323  1.00  0.00    -0.200 F 
ENDBRANCH  24  48
BRANCH  36  59
ATOM     59  C   UNL A   1      39.058  32.207  36.099  1.00  0.00     0.064 A 
ATOM     60  C   UNL A   1      38.189  31.581  37.004  1.00  0.00     0.173 A 
ATOM     61  C   UNL A   1      39.450  33.528  36.364  1.00  0.00     0.173 A 
ATOM     62  F   UNL A   1      37.776  30.323  36.783  1.00  0.00    -0.203 F 
ATOM     63  C   UNL A   1      37.732  32.253  38.132  1.00  0.00     0.198 A 
ATOM     64  C   UNL A   1      39.015  34.185  37.510  1.00  0.00     0.198 A 
ATOM     65  F   UNL A   1      40.286  34.165  35.531  1.00  0.00    -0.203 F 
ATOM     66  F   UNL A   1      36.882  31.645  38.972  1.00  0.00    -0.200 F 
ATOM     67  C   UNL A   1      38.156  33.548  38.393  1.00  0.00     0.200 A 
ATOM     68  F   UNL A   1      39.443  35.428  37.771  1.00  0.00    -0.200 F 
ATOM     69  F   UNL A   1      37.739  34.181  39.497  1.00  0.00    -0.200 F 
ENDBRANCH  36  59
ENDBRANCH  10  11
ENDBRANCH   3   5
ENDBRANCH   2   3
ENDBRANCH   1   2
BRANCH   1  70
ATOM     70  C   UNL A   1      43.322  21.708  25.660  1.00  0.00     0.275 C 
BRANCH  70  71
ATOM     71  O   UNL A   1      41.966  21.288  25.449  1.00  0.00    -0.458 OA
BRANCH  71  72
ATOM     72  C   UNL A   1      41.211  21.177  26.576  1.00  0.00     0.339 C 
ATOM     73  O   UNL A   1      41.506  20.539  27.576  1.00  0.00    -0.246 OA
BRANCH  72  74
ATOM     74  C   UNL A   1      39.978  21.990  26.451  1.00  0.00     0.074 A 
ATOM     75  C   UNL A   1      40.041  23.245  26.922  1.00  0.00     0.088 A 
ATOM     76  C   UNL A   1      38.730  21.492  25.841  1.00  0.00     0.014 A 
ATOM     77  C   UNL A   1      38.872  24.144  26.868  1.00  0.00     0.249 A 
ATOM     78  C   UNL A   1      37.588  22.314  25.881  1.00  0.00     0.063 A 
ATOM     79  C   UNL A   1      38.608  20.200  25.307  1.00  0.00     0.011 A 
ATOM     80  O   UNL A   1      38.972  25.303  27.253  1.00  0.00    -0.270 OA
ATOM     81  N   UNL A   1      37.707  23.614  26.402  1.00  0.00    -0.321 N 
ATOM     82  C   UNL A   1      36.352  21.839  25.422  1.00  0.00     0.042 A 
ATOM     83  C   UNL A   1      37.371  19.727  24.860  1.00  0.00     0.002 A 
ATOM     84  H   UNL A   1      36.899  24.176  26.432  1.00  0.00     0.170 HD
ATOM     85  Br  UNL A   1      34.787  22.910  25.494  1.00  0.00    -0.049 Br
ATOM     86  C   UNL A   1      36.242  20.541  24.922  1.00  0.00     0.018 A 
ENDBRANCH  72  74
ENDBRANCH  71  72
ENDBRANCH  70  71
ENDBRANCH   1  70
TORSDOF 11
ENDMDL
