MODEL 1
REMARK VINA RESULT:     -12.4      0.000      0.000
REMARK SMILES CC1(C)CN(C(=O)NC[C@H]2CC[C@@H](C(=O)OCCOC(=O)c3ccc(-c4c5nc(c(-c6c(F)c(F)c(F)c(F)c6F)c6ccc([nH]6)c(-c6c(F)c(F)c(F)c(F)c6F)c6nc(c(-c7c(F)c(F)c(F)c(F)c7F)c7ccc4[nH]7)C=C6)C=C5)cc3)CC2)CCO1
REMARK SMILES IDX 17 1 16 2 14 3 15 4 13 5 10 6 11 7 86 8 12 9 85 10 9 11 8 12
REMARK SMILES IDX 6 13 7 14 5 16 1 17 2 18 3 19 4 20 89 21 88 22 87 23 18 24
REMARK SMILES IDX 19 25 20 26 21 27 22 28 23 29 84 30 24 31 83 32 25 33 26 34
REMARK SMILES IDX 27 35 77 36 28 37 82 38 76 39 78 40 29 41 81 42 75 43 74 44
REMARK SMILES IDX 30 46 62 47 42 48 61 49 43 50 46 51 60 52 79 53 44 54 45 55
REMARK SMILES IDX 59 57 80 58 47 59 31 60 32 61 40 62 33 63 34 64 38 65 41 66
REMARK SMILES IDX 35 67 36 68 39 69 37 70 63 71 64 72 72 73 65 74 66 75 70 76
REMARK SMILES IDX 73 77 67 78 68 79 71 80 69 81 48 82 49 83 57 84 50 85 51 86
REMARK SMILES IDX 55 87 58 88 52 89 53 90 56 91 54 92
REMARK H PARENT 8 15 78 45 46 56
REMARK Flexibility Score: inf
ROOT
ATOM      1  C   UNL A   1      31.710  28.221  26.448  1.00  0.00     0.274 C 
ENDROOT
BRANCH   1   2
ATOM      2  O   UNL A   1      31.774  27.217  25.417  1.00  0.00    -0.462 OA
BRANCH   2   3
ATOM      3  C   UNL A   1      32.588  26.153  25.645  1.00  0.00     0.309 C 
ATOM      4  O   UNL A   1      33.691  26.214  26.174  1.00  0.00    -0.252 OA
BRANCH   3   5
ATOM      5  C   UNL A   1      31.966  24.832  25.196  1.00  0.00     0.099 C 
ATOM      6  C   UNL A   1      31.919  21.863  25.475  1.00  0.00     0.008 C 
ATOM      7  C   UNL A   1      30.840  22.728  26.148  1.00  0.00     0.006 C 
ATOM      8  C   UNL A   1      32.359  22.552  24.175  1.00  0.00     0.006 C 
ATOM      9  C   UNL A   1      31.238  24.189  26.376  1.00  0.00     0.015 C 
ATOM     10  C   UNL A   1      32.955  23.923  24.459  1.00  0.00     0.015 C 
BRANCH   6  11
ATOM     11  C   UNL A   1      33.148  21.492  26.342  1.00  0.00     0.121 C 
BRANCH  11  12
ATOM     12  N   UNL A   1      34.156  20.707  25.662  1.00  0.00    -0.338 N 
ATOM     13  C   UNL A   1      34.212  19.546  24.988  1.00  0.00     0.317 C 
ATOM     14  O   UNL A   1      35.352  19.180  24.682  1.00  0.00    -0.249 OA
ATOM     15  H   UNL A   1      35.038  21.142  25.705  1.00  0.00     0.165 HD
BRANCH  13  16
ATOM     16  N   UNL A   1      33.108  18.847  24.600  1.00  0.00    -0.320 N 
ATOM     17  C   UNL A   1      34.854  16.338  25.074  1.00  0.00     0.044 C 
ATOM     18  C   UNL A   1      33.335  16.410  24.849  1.00  0.00     0.080 C 
ATOM     19  C   UNL A   1      32.683  15.200  25.525  1.00  0.00     0.044 C 
ATOM     20  C   UNL A   1      32.725  17.714  25.445  1.00  0.00     0.156 C 
ATOM     21  O   UNL A   1      33.029  16.277  23.434  1.00  0.00    -0.372 OA
ATOM     22  C   UNL A   1      33.276  17.460  22.647  1.00  0.00     0.182 C 
ATOM     23  C   UNL A   1      32.568  18.670  23.261  1.00  0.00     0.150 C 
ENDBRANCH  13  16
ENDBRANCH  11  12
ENDBRANCH   6  11
ENDBRANCH   3   5
ENDBRANCH   2   3
ENDBRANCH   1   2
BRANCH   1  24
ATOM     24  C   UNL A   1      31.817  29.618  25.836  1.00  0.00     0.275 C 
BRANCH  24  25
ATOM     25  O   UNL A   1      33.164  30.115  25.958  1.00  0.00    -0.458 OA
BRANCH  25  26
ATOM     26  C   UNL A   1      33.354  31.092  26.869  1.00  0.00     0.338 C 
ATOM     27  O   UNL A   1      32.589  31.997  27.178  1.00  0.00    -0.246 OA
BRANCH  26  28
ATOM     28  C   UNL A   1      34.637  30.875  27.547  1.00  0.00     0.060 A 
ATOM     29  C   UNL A   1      34.957  29.584  27.960  1.00  0.00     0.016 A 
ATOM     30  C   UNL A   1      35.475  31.941  27.863  1.00  0.00     0.016 A 
ATOM     31  C   UNL A   1      36.092  29.342  28.721  1.00  0.00     0.010 A 
ATOM     32  C   UNL A   1      36.653  31.692  28.577  1.00  0.00     0.010 A 
ATOM     33  C   UNL A   1      36.964  30.392  29.021  1.00  0.00    -0.014 A 
BRANCH  33  34
ATOM     34  C   UNL A   1      38.188  30.125  29.812  1.00  0.00     0.031 A 
ATOM     35  C   UNL A   1      39.276  29.266  29.239  1.00  0.00     0.074 A 
ATOM     36  C   UNL A   1      38.333  30.676  31.032  1.00  0.00     0.049 A 
ATOM     37  N   UNL A   1      40.334  28.770  29.826  1.00  0.00    -0.248 NA
ATOM     38  C   UNL A   1      39.157  28.917  27.814  1.00  0.00     0.031 C 
ATOM     39  C   UNL A   1      37.382  31.591  31.667  1.00  0.00     0.029 A 
ATOM     40  N   UNL A   1      39.336  30.546  31.959  1.00  0.00    -0.354 N 
ATOM     41  C   UNL A   1      40.985  28.018  28.858  1.00  0.00     0.074 A 
ATOM     42  C   UNL A   1      40.206  28.124  27.642  1.00  0.00     0.031 C 
ATOM     43  C   UNL A   1      37.853  31.948  32.871  1.00  0.00     0.029 A 
ATOM     44  C   UNL A   1      39.096  31.229  33.126  1.00  0.00     0.049 A 
ATOM     45  H   UNL A   1      40.150  30.014  31.802  1.00  0.00     0.167 HD
ATOM     46  C   UNL A   1      42.127  27.302  28.981  1.00  0.00     0.037 A 
ATOM     47  C   UNL A   1      39.774  31.233  34.288  1.00  0.00     0.037 A 
ATOM     48  C   UNL A   1      42.911  27.230  30.186  1.00  0.00     0.049 A 
ATOM     49  C   UNL A   1      41.000  30.373  34.420  1.00  0.00     0.074 A 
ATOM     50  C   UNL A   1      44.080  26.527  30.416  1.00  0.00     0.029 A 
ATOM     51  N   UNL A   1      42.608  27.898  31.363  1.00  0.00    -0.354 N 
ATOM     52  N   UNL A   1      41.574  29.610  33.523  1.00  0.00    -0.248 NA
ATOM     53  C   UNL A   1      41.656  30.355  35.735  1.00  0.00     0.031 C 
ATOM     54  C   UNL A   1      44.471  26.747  31.742  1.00  0.00     0.029 A 
ATOM     55  C   UNL A   1      43.561  27.613  32.326  1.00  0.00     0.049 A 
ATOM     56  H   UNL A   1      41.831  28.488  31.493  1.00  0.00     0.167 HD
ATOM     57  C   UNL A   1      42.659  29.026  34.158  1.00  0.00     0.074 A 
ATOM     58  C   UNL A   1      42.678  29.539  35.512  1.00  0.00     0.031 C 
ATOM     59  C   UNL A   1      43.556  28.136  33.668  1.00  0.00     0.037 A 
BRANCH  46  60
ATOM     60  C   UNL A   1      42.582  26.511  27.793  1.00  0.00     0.064 A 
ATOM     61  C   UNL A   1      42.101  25.220  27.539  1.00  0.00     0.173 A 
ATOM     62  C   UNL A   1      43.477  27.076  26.872  1.00  0.00     0.173 A 
ATOM     63  F   UNL A   1      41.256  24.632  28.398  1.00  0.00    -0.203 F 
ATOM     64  C   UNL A   1      42.512  24.516  26.409  1.00  0.00     0.198 A 
ATOM     65  C   UNL A   1      43.869  26.377  25.734  1.00  0.00     0.198 A 
ATOM     66  F   UNL A   1      43.964  28.310  27.072  1.00  0.00    -0.203 F 
ATOM     67  F   UNL A   1      42.065  23.270  26.199  1.00  0.00    -0.200 F 
ATOM     68  C   UNL A   1      43.389  25.097  25.505  1.00  0.00     0.200 A 
ATOM     69  F   UNL A   1      44.712  26.943  24.858  1.00  0.00    -0.200 F 
ATOM     70  F   UNL A   1      43.776  24.420  24.415  1.00  0.00    -0.200 F 
ENDBRANCH  46  60
BRANCH  47  71
ATOM     71  C   UNL A   1      39.273  32.031  35.437  1.00  0.00     0.064 A 
ATOM     72  C   UNL A   1      39.625  33.378  35.588  1.00  0.00     0.173 A 
ATOM     73  C   UNL A   1      38.439  31.459  36.410  1.00  0.00     0.173 A 
ATOM     74  F   UNL A   1      40.444  33.959  34.699  1.00  0.00    -0.203 F 
ATOM     75  C   UNL A   1      39.170  34.121  36.675  1.00  0.00     0.198 A 
ATOM     76  C   UNL A   1      37.962  32.211  37.481  1.00  0.00     0.198 A 
ATOM     77  F   UNL A   1      38.078  30.171  36.313  1.00  0.00    -0.203 F 
ATOM     78  F   UNL A   1      39.554  35.397  36.819  1.00  0.00    -0.200 F 
ATOM     79  C   UNL A   1      38.333  33.540  37.616  1.00  0.00     0.200 A 
ATOM     80  F   UNL A   1      37.146  31.648  38.382  1.00  0.00    -0.200 F 
ATOM     81  F   UNL A   1      37.893  34.258  38.658  1.00  0.00    -0.200 F 
ENDBRANCH  47  71
BRANCH  59  82
ATOM     82  C   UNL A   1      44.635  27.678  34.599  1.00  0.00     0.064 A 
ATOM     83  C   UNL A   1      45.837  28.388  34.725  1.00  0.00     0.173 A 
ATOM     84  C   UNL A   1      44.452  26.539  35.395  1.00  0.00     0.173 A 
ATOM     85  F   UNL A   1      46.061  29.474  33.970  1.00  0.00    -0.203 F 
ATOM     86  C   UNL A   1      46.827  27.964  35.607  1.00  0.00     0.198 A 
ATOM     87  C   UNL A   1      45.435  26.128  36.291  1.00  0.00     0.198 A 
ATOM     88  F   UNL A   1      43.317  25.829  35.309  1.00  0.00    -0.203 F 
ATOM     89  F   UNL A   1      47.984  28.634  35.686  1.00  0.00    -0.200 F 
ATOM     90  C   UNL A   1      46.623  26.838  36.392  1.00  0.00     0.200 A 
ATOM     91  F   UNL A   1      45.235  25.046  37.055  1.00  0.00    -0.200 F 
ATOM     92  F   UNL A   1      47.576  26.432  37.242  1.00  0.00    -0.200 F 
ENDBRANCH  59  82
ENDBRANCH  33  34
ENDBRANCH  26  28
ENDBRANCH  25  26
ENDBRANCH  24  25
ENDBRANCH   1  24
TORSDOF 14
ENDMDL
MODEL 2
REMARK VINA RESULT:     -12.3      3.459      9.001
REMARK SMILES CC1(C)CN(C(=O)NC[C@H]2CC[C@@H](C(=O)OCCOC(=O)c3ccc(-c4c5nc(c(-c6c(F)c(F)c(F)c(F)c6F)c6ccc([nH]6)c(-c6c(F)c(F)c(F)c(F)c6F)c6nc(c(-c7c(F)c(F)c(F)c(F)c7F)c7ccc4[nH]7)C=C6)C=C5)cc3)CC2)CCO1
REMARK SMILES IDX 17 1 16 2 14 3 15 4 13 5 10 6 11 7 86 8 12 9 85 10 9 11 8 12
REMARK SMILES IDX 6 13 7 14 5 16 1 17 2 18 3 19 4 20 89 21 88 22 87 23 18 24
REMARK SMILES IDX 19 25 20 26 21 27 22 28 23 29 84 30 24 31 83 32 25 33 26 34
REMARK SMILES IDX 27 35 77 36 28 37 82 38 76 39 78 40 29 41 81 42 75 43 74 44
REMARK SMILES IDX 30 46 62 47 42 48 61 49 43 50 46 51 60 52 79 53 44 54 45 55
REMARK SMILES IDX 59 57 80 58 47 59 31 60 32 61 40 62 33 63 34 64 38 65 41 66
REMARK SMILES IDX 35 67 36 68 39 69 37 70 63 71 64 72 72 73 65 74 66 75 70 76
REMARK SMILES IDX 73 77 67 78 68 79 71 80 69 81 48 82 49 83 57 84 50 85 51 86
REMARK SMILES IDX 55 87 58 88 52 89 53 90 56 91 54 92
REMARK H PARENT 8 15 78 45 46 56
REMARK Flexibility Score: inf
ROOT
ATOM      1  C   UNL A   1      33.947  35.294  28.635  1.00  0.00     0.274 C 
ENDROOT
BRANCH   1   2
ATOM      2  O   UNL A   1      33.601  33.897  28.660  1.00  0.00    -0.462 OA
BRANCH   2   3
ATOM      3  C   UNL A   1      34.468  33.038  28.061  1.00  0.00     0.309 C 
ATOM      4  O   UNL A   1      35.538  33.360  27.557  1.00  0.00    -0.252 OA
BRANCH   3   5
ATOM      5  C   UNL A   1      33.985  31.590  28.105  1.00  0.00     0.099 C 
ATOM      6  C   UNL A   1      33.492  29.067  26.593  1.00  0.00     0.008 C 
ATOM      7  C   UNL A   1      34.738  29.213  27.484  1.00  0.00     0.006 C 
ATOM      8  C   UNL A   1      32.348  29.882  27.213  1.00  0.00     0.006 C 
ATOM      9  C   UNL A   1      35.151  30.658  27.778  1.00  0.00     0.015 C 
ATOM     10  C   UNL A   1      32.708  31.358  27.290  1.00  0.00     0.015 C 
BRANCH   6  11
ATOM     11  C   UNL A   1      33.670  29.421  25.095  1.00  0.00     0.121 C 
BRANCH  11  12
ATOM     12  N   UNL A   1      32.465  29.313  24.300  1.00  0.00    -0.338 N 
ATOM     13  C   UNL A   1      31.601  28.347  23.946  1.00  0.00     0.317 C 
ATOM     14  O   UNL A   1      30.756  28.690  23.111  1.00  0.00    -0.249 OA
ATOM     15  H   UNL A   1      32.210  30.183  23.916  1.00  0.00     0.165 HD
BRANCH  13  16
ATOM     16  N   UNL A   1      31.594  27.103  24.501  1.00  0.00    -0.320 N 
ATOM     17  C   UNL A   1      31.951  26.091  21.600  1.00  0.00     0.044 C 
ATOM     18  C   UNL A   1      32.100  25.298  22.908  1.00  0.00     0.080 C 
ATOM     19  C   UNL A   1      33.071  24.137  22.668  1.00  0.00     0.044 C 
ATOM     20  C   UNL A   1      32.650  26.188  24.063  1.00  0.00     0.156 C 
ATOM     21  O   UNL A   1      30.835  24.679  23.269  1.00  0.00    -0.372 OA
ATOM     22  C   UNL A   1      29.862  25.578  23.838  1.00  0.00     0.182 C 
ATOM     23  C   UNL A   1      30.465  26.344  25.018  1.00  0.00     0.150 C 
ENDBRANCH  13  16
ENDBRANCH  11  12
ENDBRANCH   6  11
ENDBRANCH   3   5
ENDBRANCH   2   3
ENDBRANCH   1   2
BRANCH   1  24
ATOM     24  C   UNL A   1      32.894  36.116  29.381  1.00  0.00     0.275 C 
BRANCH  24  25
ATOM     25  O   UNL A   1      32.377  35.367  30.498  1.00  0.00    -0.458 OA
BRANCH  25  26
ATOM     26  C   UNL A   1      32.704  35.828  31.722  1.00  0.00     0.338 C 
ATOM     27  O   UNL A   1      32.154  36.711  32.369  1.00  0.00    -0.246 OA
BRANCH  26  28
ATOM     28  C   UNL A   1      33.820  35.037  32.252  1.00  0.00     0.060 A 
ATOM     29  C   UNL A   1      35.111  35.542  32.122  1.00  0.00     0.016 A 
ATOM     30  C   UNL A   1      33.614  33.766  32.783  1.00  0.00     0.016 A 
ATOM     31  C   UNL A   1      36.213  34.781  32.484  1.00  0.00     0.010 A 
ATOM     32  C   UNL A   1      34.719  33.019  33.207  1.00  0.00     0.010 A 
ATOM     33  C   UNL A   1      36.027  33.517  33.049  1.00  0.00    -0.014 A 
BRANCH  33  34
ATOM     34  C   UNL A   1      37.206  32.716  33.458  1.00  0.00     0.031 A 
ATOM     35  C   UNL A   1      37.843  32.952  34.795  1.00  0.00     0.074 A 
ATOM     36  C   UNL A   1      37.686  31.761  32.639  1.00  0.00     0.049 A 
ATOM     37  N   UNL A   1      38.973  32.492  35.266  1.00  0.00    -0.248 NA
ATOM     38  C   UNL A   1      37.111  33.825  35.728  1.00  0.00     0.031 C 
ATOM     39  C   UNL A   1      37.107  31.383  31.347  1.00  0.00     0.029 A 
ATOM     40  N   UNL A   1      38.772  30.933  32.770  1.00  0.00    -0.354 N 
ATOM     41  C   UNL A   1      39.109  33.048  36.530  1.00  0.00     0.074 A 
ATOM     42  C   UNL A   1      37.946  33.880  36.757  1.00  0.00     0.031 C 
ATOM     43  C   UNL A   1      37.836  30.392  30.813  1.00  0.00     0.029 A 
ATOM     44  C   UNL A   1      38.975  30.118  31.684  1.00  0.00     0.049 A 
ATOM     45  H   UNL A   1      39.350  30.923  33.567  1.00  0.00     0.167 HD
ATOM     46  C   UNL A   1      40.120  32.881  37.414  1.00  0.00     0.037 A 
ATOM     47  C   UNL A   1      39.991  29.285  31.397  1.00  0.00     0.037 A 
ATOM     48  C   UNL A   1      41.257  32.027  37.191  1.00  0.00     0.049 A 
ATOM     49  C   UNL A   1      41.135  29.171  32.365  1.00  0.00     0.074 A 
ATOM     50  C   UNL A   1      42.339  31.792  38.022  1.00  0.00     0.029 A 
ATOM     51  N   UNL A   1      41.450  31.254  36.056  1.00  0.00    -0.354 N 
ATOM     52  N   UNL A   1      41.293  29.751  33.529  1.00  0.00    -0.248 NA
ATOM     53  C   UNL A   1      42.255  28.307  31.966  1.00  0.00     0.031 C 
ATOM     54  C   UNL A   1      43.202  30.899  37.376  1.00  0.00     0.029 A 
ATOM     55  C   UNL A   1      42.640  30.553  36.157  1.00  0.00     0.049 A 
ATOM     56  H   UNL A   1      40.832  31.211  35.290  1.00  0.00     0.167 HD
ATOM     57  C   UNL A   1      42.523  29.322  34.005  1.00  0.00     0.074 A 
ATOM     58  C   UNL A   1      43.061  28.414  33.014  1.00  0.00     0.031 C 
ATOM     59  C   UNL A   1      43.155  29.656  35.156  1.00  0.00     0.037 A 
BRANCH  46  60
ATOM     60  C   UNL A   1      40.062  33.661  38.691  1.00  0.00     0.064 A 
ATOM     61  C   UNL A   1      39.340  33.204  39.802  1.00  0.00     0.173 A 
ATOM     62  C   UNL A   1      40.778  34.862  38.817  1.00  0.00     0.173 A 
ATOM     63  F   UNL A   1      38.628  32.071  39.726  1.00  0.00    -0.203 F 
ATOM     64  C   UNL A   1      39.328  33.929  40.992  1.00  0.00     0.198 A 
ATOM     65  C   UNL A   1      40.779  35.572  40.013  1.00  0.00     0.198 A 
ATOM     66  F   UNL A   1      41.484  35.339  37.781  1.00  0.00    -0.203 F 
ATOM     67  F   UNL A   1      38.607  33.491  42.034  1.00  0.00    -0.200 F 
ATOM     68  C   UNL A   1      40.052  35.107  41.099  1.00  0.00     0.200 A 
ATOM     69  F   UNL A   1      41.485  36.707  40.117  1.00  0.00    -0.200 F 
ATOM     70  F   UNL A   1      40.045  35.799  42.247  1.00  0.00    -0.200 F 
ENDBRANCH  46  60
BRANCH  47  71
ATOM     71  C   UNL A   1      40.001  28.540  30.112  1.00  0.00     0.064 A 
ATOM     72  C   UNL A   1      39.412  27.274  30.006  1.00  0.00     0.173 A 
ATOM     73  C   UNL A   1      40.607  29.077  28.965  1.00  0.00     0.173 A 
ATOM     74  F   UNL A   1      38.846  26.707  31.083  1.00  0.00    -0.203 F 
ATOM     75  C   UNL A   1      39.436  26.568  28.805  1.00  0.00     0.198 A 
ATOM     76  C   UNL A   1      40.606  28.383  27.758  1.00  0.00     0.198 A 
ATOM     77  F   UNL A   1      41.190  30.284  29.016  1.00  0.00    -0.203 F 
ATOM     78  F   UNL A   1      38.902  25.341  28.741  1.00  0.00    -0.200 F 
ATOM     79  C   UNL A   1      40.027  27.126  27.681  1.00  0.00     0.200 A 
ATOM     80  F   UNL A   1      41.170  28.929  26.672  1.00  0.00    -0.200 F 
ATOM     81  F   UNL A   1      40.046  26.447  26.525  1.00  0.00    -0.200 F 
ENDBRANCH  47  71
BRANCH  59  82
ATOM     82  C   UNL A   1      44.488  29.023  35.406  1.00  0.00     0.064 A 
ATOM     83  C   UNL A   1      45.671  29.609  34.935  1.00  0.00     0.173 A 
ATOM     84  C   UNL A   1      44.586  27.839  36.150  1.00  0.00     0.173 A 
ATOM     85  F   UNL A   1      45.623  30.734  34.204  1.00  0.00    -0.203 F 
ATOM     86  C   UNL A   1      46.907  29.023  35.188  1.00  0.00     0.198 A 
ATOM     87  C   UNL A   1      45.826  27.266  36.420  1.00  0.00     0.198 A 
ATOM     88  F   UNL A   1      43.481  27.244  36.623  1.00  0.00    -0.203 F 
ATOM     89  F   UNL A   1      48.024  29.578  34.699  1.00  0.00    -0.200 F 
ATOM     90  C   UNL A   1      46.984  27.855  35.934  1.00  0.00     0.200 A 
ATOM     91  F   UNL A   1      45.900  26.143  37.146  1.00  0.00    -0.200 F 
ATOM     92  F   UNL A   1      48.176  27.293  36.179  1.00  0.00    -0.200 F 
ENDBRANCH  59  82
ENDBRANCH  33  34
ENDBRANCH  26  28
ENDBRANCH  25  26
ENDBRANCH  24  25
ENDBRANCH   1  24
TORSDOF 14
ENDMDL
MODEL 3
REMARK VINA RESULT:     -12.2      2.991      8.209
REMARK SMILES CC1(C)CN(C(=O)NC[C@H]2CC[C@@H](C(=O)OCCOC(=O)c3ccc(-c4c5nc(c(-c6c(F)c(F)c(F)c(F)c6F)c6ccc([nH]6)c(-c6c(F)c(F)c(F)c(F)c6F)c6nc(c(-c7c(F)c(F)c(F)c(F)c7F)c7ccc4[nH]7)C=C6)C=C5)cc3)CC2)CCO1
REMARK SMILES IDX 17 1 16 2 14 3 15 4 13 5 10 6 11 7 86 8 12 9 85 10 9 11 8 12
REMARK SMILES IDX 6 13 7 14 5 16 1 17 2 18 3 19 4 20 89 21 88 22 87 23 18 24
REMARK SMILES IDX 19 25 20 26 21 27 22 28 23 29 84 30 24 31 83 32 25 33 26 34
REMARK SMILES IDX 27 35 77 36 28 37 82 38 76 39 78 40 29 41 81 42 75 43 74 44
REMARK SMILES IDX 30 46 62 47 42 48 61 49 43 50 46 51 60 52 79 53 44 54 45 55
REMARK SMILES IDX 59 57 80 58 47 59 31 60 32 61 40 62 33 63 34 64 38 65 41 66
REMARK SMILES IDX 35 67 36 68 39 69 37 70 63 71 64 72 72 73 65 74 66 75 70 76
REMARK SMILES IDX 73 77 67 78 68 79 71 80 69 81 48 82 49 83 57 84 50 85 51 86
REMARK SMILES IDX 55 87 58 88 52 89 53 90 56 91 54 92
REMARK H PARENT 8 15 78 45 46 56
REMARK Flexibility Score: inf
ROOT
ATOM      1  C   UNL A   1      42.610  20.655  26.444  1.00  0.00     0.274 C 
ENDROOT
BRANCH   1   2
ATOM      2  O   UNL A   1      41.235  20.522  26.040  1.00  0.00    -0.462 OA
BRANCH   2   3
ATOM      3  C   UNL A   1      40.321  21.270  26.712  1.00  0.00     0.309 C 
ATOM      4  O   UNL A   1      40.314  21.445  27.925  1.00  0.00    -0.252 OA
BRANCH   3   5
ATOM      5  C   UNL A   1      39.294  21.916  25.785  1.00  0.00     0.099 C 
ATOM      6  C   UNL A   1      36.437  22.641  25.329  1.00  0.00     0.008 C 
ATOM      7  C   UNL A   1      37.450  23.706  25.783  1.00  0.00     0.006 C 
ATOM      8  C   UNL A   1      37.166  21.612  24.452  1.00  0.00     0.006 C 
ATOM      9  C   UNL A   1      38.703  23.150  26.466  1.00  0.00     0.015 C 
ATOM     10  C   UNL A   1      38.272  20.916  25.232  1.00  0.00     0.015 C 
BRANCH   6  11
ATOM     11  C   UNL A   1      35.629  21.935  26.446  1.00  0.00     0.121 C 
BRANCH  11  12
ATOM     12  N   UNL A   1      34.644  20.985  25.975  1.00  0.00    -0.338 N 
ATOM     13  C   UNL A   1      33.304  20.899  25.923  1.00  0.00     0.317 C 
ATOM     14  O   UNL A   1      32.871  19.805  25.543  1.00  0.00    -0.249 OA
ATOM     15  H   UNL A   1      35.071  20.187  25.588  1.00  0.00     0.165 HD
BRANCH  13  16
ATOM     16  N   UNL A   1      32.472  21.943  26.194  1.00  0.00    -0.320 N 
ATOM     17  C   UNL A   1      32.971  22.765  23.255  1.00  0.00     0.044 C 
ATOM     18  C   UNL A   1      31.909  23.307  24.225  1.00  0.00     0.080 C 
ATOM     19  C   UNL A   1      30.716  23.816  23.410  1.00  0.00     0.044 C 
ATOM     20  C   UNL A   1      31.417  22.207  25.213  1.00  0.00     0.156 C 
ATOM     21  O   UNL A   1      32.421  24.469  24.934  1.00  0.00    -0.372 OA
ATOM     22  C   UNL A   1      33.348  24.170  25.997  1.00  0.00     0.182 C 
ATOM     23  C   UNL A   1      32.745  23.148  26.963  1.00  0.00     0.150 C 
ENDBRANCH  13  16
ENDBRANCH  11  12
ENDBRANCH   6  11
ENDBRANCH   3   5
ENDBRANCH   2   3
ENDBRANCH   1   2
BRANCH   1  24
ATOM     24  C   UNL A   1      43.401  21.431  25.390  1.00  0.00     0.275 C 
BRANCH  24  25
ATOM     25  O   UNL A   1      42.717  22.653  25.052  1.00  0.00    -0.458 OA
BRANCH  25  26
ATOM     26  C   UNL A   1      43.475  23.769  25.032  1.00  0.00     0.338 C 
ATOM     27  O   UNL A   1      44.387  24.050  24.265  1.00  0.00    -0.246 OA
BRANCH  26  28
ATOM     28  C   UNL A   1      42.986  24.700  26.056  1.00  0.00     0.060 A 
ATOM     29  C   UNL A   1      43.434  26.018  26.020  1.00  0.00     0.016 A 
ATOM     30  C   UNL A   1      42.174  24.263  27.099  1.00  0.00     0.016 A 
ATOM     31  C   UNL A   1      43.112  26.907  27.036  1.00  0.00     0.010 A 
ATOM     32  C   UNL A   1      41.796  25.173  28.094  1.00  0.00     0.010 A 
ATOM     33  C   UNL A   1      42.272  26.498  28.074  1.00  0.00    -0.014 A 
BRANCH  33  34
ATOM     34  C   UNL A   1      41.909  27.458  29.144  1.00  0.00     0.031 A 
ATOM     35  C   UNL A   1      42.748  27.549  30.384  1.00  0.00     0.074 A 
ATOM     36  C   UNL A   1      40.841  28.263  28.989  1.00  0.00     0.049 A 
ATOM     37  N   UNL A   1      42.507  28.185  31.501  1.00  0.00    -0.248 NA
ATOM     38  C   UNL A   1      44.030  26.827  30.364  1.00  0.00     0.031 C 
ATOM     39  C   UNL A   1      39.991  28.325  27.798  1.00  0.00     0.029 A 
ATOM     40  N   UNL A   1      40.286  29.187  29.840  1.00  0.00    -0.354 N 
ATOM     41  C   UNL A   1      43.584  27.908  32.331  1.00  0.00     0.074 A 
ATOM     42  C   UNL A   1      44.483  27.048  31.591  1.00  0.00     0.031 C 
ATOM     43  C   UNL A   1      39.032  29.244  27.989  1.00  0.00     0.029 A 
ATOM     44  C   UNL A   1      39.152  29.779  29.341  1.00  0.00     0.049 A 
ATOM     45  H   UNL A   1      40.665  29.404  30.722  1.00  0.00     0.167 HD
ATOM     46  C   UNL A   1      43.794  28.333  33.599  1.00  0.00     0.037 A 
ATOM     47  C   UNL A   1      38.277  30.617  29.926  1.00  0.00     0.037 A 
ATOM     48  C   UNL A   1      42.910  29.214  34.315  1.00  0.00     0.049 A 
ATOM     49  C   UNL A   1      38.498  31.016  31.359  1.00  0.00     0.074 A 
ATOM     50  C   UNL A   1      43.030  29.698  35.606  1.00  0.00     0.029 A 
ATOM     51  N   UNL A   1      41.745  29.754  33.792  1.00  0.00    -0.354 N 
ATOM     52  N   UNL A   1      39.481  30.698  32.163  1.00  0.00    -0.248 NA
ATOM     53  C   UNL A   1      37.471  31.870  31.972  1.00  0.00     0.031 C 
ATOM     54  C   UNL A   1      41.921  30.509  35.874  1.00  0.00     0.029 A 
ATOM     55  C   UNL A   1      41.129  30.555  34.738  1.00  0.00     0.049 A 
ATOM     56  H   UNL A   1      41.406  29.591  32.882  1.00  0.00     0.167 HD
ATOM     57  C   UNL A   1      39.199  31.313  33.373  1.00  0.00     0.074 A 
ATOM     58  C   UNL A   1      37.961  32.043  33.192  1.00  0.00     0.031 C 
ATOM     59  C   UNL A   1      39.896  31.271  34.534  1.00  0.00     0.037 A 
BRANCH  46  60
ATOM     60  C   UNL A   1      45.012  27.824  34.308  1.00  0.00     0.064 A 
ATOM     61  C   UNL A   1      46.229  28.518  34.275  1.00  0.00     0.173 A 
ATOM     62  C   UNL A   1      44.944  26.647  35.070  1.00  0.00     0.173 A 
ATOM     63  F   UNL A   1      46.348  29.639  33.548  1.00  0.00    -0.203 F 
ATOM     64  C   UNL A   1      47.340  28.045  34.970  1.00  0.00     0.198 A 
ATOM     65  C   UNL A   1      46.050  26.189  35.780  1.00  0.00     0.198 A 
ATOM     66  F   UNL A   1      43.800  25.949  35.133  1.00  0.00    -0.203 F 
ATOM     67  F   UNL A   1      48.503  28.707  34.901  1.00  0.00    -0.200 F 
ATOM     68  C   UNL A   1      47.247  26.886  35.727  1.00  0.00     0.200 A 
ATOM     69  F   UNL A   1      45.957  25.072  36.516  1.00  0.00    -0.200 F 
ATOM     70  F   UNL A   1      48.315  26.437  36.401  1.00  0.00    -0.200 F 
ENDBRANCH  46  60
BRANCH  47  71
ATOM     71  C   UNL A   1      37.082  31.085  29.178  1.00  0.00     0.064 A 
ATOM     72  C   UNL A   1      36.006  30.226  28.926  1.00  0.00     0.173 A 
ATOM     73  C   UNL A   1      36.997  32.400  28.694  1.00  0.00     0.173 A 
ATOM     74  F   UNL A   1      36.054  28.952  29.344  1.00  0.00    -0.203 F 
ATOM     75  C   UNL A   1      34.892  30.661  28.209  1.00  0.00     0.198 A 
ATOM     76  C   UNL A   1      35.872  32.841  28.002  1.00  0.00     0.198 A 
ATOM     77  F   UNL A   1      38.005  33.260  28.905  1.00  0.00    -0.203 F 
ATOM     78  F   UNL A   1      33.894  29.807  27.946  1.00  0.00    -0.200 F 
ATOM     79  C   UNL A   1      34.824  31.969  27.755  1.00  0.00     0.200 A 
ATOM     80  F   UNL A   1      35.806  34.109  27.573  1.00  0.00    -0.200 F 
ATOM     81  F   UNL A   1      33.750  32.387  27.069  1.00  0.00    -0.200 F 
ENDBRANCH  47  71
BRANCH  59  82
ATOM     82  C   UNL A   1      39.341  32.047  35.687  1.00  0.00     0.064 A 
ATOM     83  C   UNL A   1      39.655  33.400  35.872  1.00  0.00     0.173 A 
ATOM     84  C   UNL A   1      38.462  31.441  36.596  1.00  0.00     0.173 A 
ATOM     85  F   UNL A   1      40.506  34.015  35.036  1.00  0.00    -0.203 F 
ATOM     86  C   UNL A   1      39.120  34.118  36.937  1.00  0.00     0.198 A 
ATOM     87  C   UNL A   1      37.911  32.167  37.648  1.00  0.00     0.198 A 
ATOM     88  F   UNL A   1      38.131  30.148  36.458  1.00  0.00    -0.203 F 
ATOM     89  F   UNL A   1      39.461  35.401  37.118  1.00  0.00    -0.200 F 
ATOM     90  C   UNL A   1      38.245  33.502  37.821  1.00  0.00     0.200 A 
ATOM     91  F   UNL A   1      37.061  31.574  38.497  1.00  0.00    -0.200 F 
ATOM     92  F   UNL A   1      37.728  34.196  38.845  1.00  0.00    -0.200 F 
ENDBRANCH  59  82
ENDBRANCH  33  34
ENDBRANCH  26  28
ENDBRANCH  25  26
ENDBRANCH  24  25
ENDBRANCH   1  24
TORSDOF 14
ENDMDL
