MODEL 1
REMARK VINA RESULT:     -12.3      0.000      0.000
REMARK SMILES O=C(CC1(CC(=O)OCCOC(=O)c2ccc(-c3c4nc(c(-c5c(F)c(F)c(F)c(F)c5F)c5ccc([nH]5)c(-c5c(F)c(F)c(F)c(F)c5F)c5nc(c(-c6c(F)c(F)c(F)c(F)c6F)c6ccc3[nH]6)C=C5)C=C4)cc2)CCCCC1)Nc1ccc2ccccc2n1
REMARK SMILES IDX 9 1 8 2 6 3 7 4 5 5 4 6 77 7 81 8 78 9 80 10 79 11 3 12 2 13
REMARK SMILES IDX 1 14 82 15 83 17 84 18 92 19 85 20 91 21 86 22 90 23 87 24
REMARK SMILES IDX 89 25 88 26 10 27 11 28 12 29 13 30 14 31 15 32 76 33 16 34
REMARK SMILES IDX 75 35 17 36 18 37 19 38 69 39 20 40 74 41 68 42 70 43 21 44
REMARK SMILES IDX 73 45 67 46 66 47 22 49 54 50 34 51 53 52 35 53 38 54 52 55
REMARK SMILES IDX 71 56 36 57 37 58 51 60 72 61 39 62 23 63 24 64 32 65 25 66
REMARK SMILES IDX 26 67 30 68 33 69 27 70 28 71 31 72 29 73 55 74 56 75 64 76
REMARK SMILES IDX 57 77 58 78 62 79 65 80 59 81 60 82 63 83 61 84 40 85 41 86
REMARK SMILES IDX 49 87 42 88 43 89 47 90 50 91 44 92 45 93 48 94 46 95
REMARK H PARENT 82 16 70 48 38 59
REMARK Flexibility Score: inf
ROOT
ATOM      1  C   UNL A   1      31.671  28.543  27.392  1.00  0.00     0.274 C 
ENDROOT
BRANCH   1   2
ATOM      2  O   UNL A   1      32.595  27.654  26.731  1.00  0.00    -0.462 OA
BRANCH   2   3
ATOM      3  C   UNL A   1      32.055  26.508  26.254  1.00  0.00     0.306 C 
ATOM      4  O   UNL A   1      31.264  25.804  26.876  1.00  0.00    -0.252 OA
BRANCH   3   5
ATOM      5  C   UNL A   1      32.570  26.085  24.893  1.00  0.00     0.130 C 
BRANCH   5   6
ATOM      6  C   UNL A   1      31.723  26.245  23.594  1.00  0.00    -0.010 C 
ATOM      7  C   UNL A   1      32.721  26.231  22.391  1.00  0.00     0.008 C 
ATOM      8  C   UNL A   1      30.948  27.582  23.526  1.00  0.00     0.008 C 
ATOM      9  C   UNL A   1      33.650  27.444  22.348  1.00  0.00     0.001 C 
ATOM     10  C   UNL A   1      31.860  28.805  23.527  1.00  0.00     0.001 C 
ATOM     11  C   UNL A   1      32.867  28.752  22.384  1.00  0.00     0.000 C 
BRANCH   6  12
ATOM     12  C   UNL A   1      30.704  25.085  23.506  1.00  0.00     0.108 C 
BRANCH  12  13
ATOM     13  C   UNL A   1      31.259  23.705  23.778  1.00  0.00     0.226 C 
ATOM     14  O   UNL A   1      31.962  23.166  22.926  1.00  0.00    -0.275 OA
ATOM     15  N   UNL A   1      30.971  23.239  25.052  1.00  0.00    -0.311 N 
ATOM     16  H   UNL A   1      30.181  23.560  25.545  1.00  0.00     0.171 HD
BRANCH  15  17
ATOM     17  C   UNL A   1      31.843  22.298  25.615  1.00  0.00     0.133 A 
ATOM     18  C   UNL A   1      33.059  22.814  26.032  1.00  0.00     0.048 A 
ATOM     19  N   UNL A   1      31.636  20.992  25.375  1.00  0.00    -0.231 NA
ATOM     20  C   UNL A   1      34.174  22.003  25.876  1.00  0.00     0.014 A 
ATOM     21  C   UNL A   1      32.708  20.206  25.234  1.00  0.00     0.073 A 
ATOM     22  C   UNL A   1      34.018  20.701  25.387  1.00  0.00     0.000 A 
ATOM     23  C   UNL A   1      32.537  18.889  24.832  1.00  0.00     0.029 A 
ATOM     24  C   UNL A   1      35.113  19.913  25.001  1.00  0.00     0.010 A 
ATOM     25  C   UNL A   1      33.626  18.097  24.464  1.00  0.00     0.002 A 
ATOM     26  C   UNL A   1      34.913  18.623  24.513  1.00  0.00     0.001 A 
ENDBRANCH  15  17
ENDBRANCH  12  13
ENDBRANCH   6  12
ENDBRANCH   5   6
ENDBRANCH   3   5
ENDBRANCH   2   3
ENDBRANCH   1   2
BRANCH   1  27
ATOM     27  C   UNL A   1      31.761  29.976  26.867  1.00  0.00     0.275 C 
BRANCH  27  28
ATOM     28  O   UNL A   1      33.115  30.324  26.533  1.00  0.00    -0.458 OA
BRANCH  28  29
ATOM     29  C   UNL A   1      33.610  31.400  27.179  1.00  0.00     0.338 C 
ATOM     30  O   UNL A   1      33.090  32.501  27.310  1.00  0.00    -0.246 OA
BRANCH  29  31
ATOM     31  C   UNL A   1      34.901  31.055  27.783  1.00  0.00     0.060 A 
ATOM     32  C   UNL A   1      35.113  29.750  28.232  1.00  0.00     0.016 A 
ATOM     33  C   UNL A   1      35.852  32.049  28.011  1.00  0.00     0.016 A 
ATOM     34  C   UNL A   1      36.259  29.439  28.954  1.00  0.00     0.010 A 
ATOM     35  C   UNL A   1      37.026  31.725  28.695  1.00  0.00     0.010 A 
ATOM     36  C   UNL A   1      37.227  30.423  29.189  1.00  0.00    -0.014 A 
BRANCH  36  37
ATOM     37  C   UNL A   1      38.436  30.099  29.980  1.00  0.00     0.031 A 
ATOM     38  C   UNL A   1      39.475  29.176  29.416  1.00  0.00     0.074 A 
ATOM     39  C   UNL A   1      38.596  30.630  31.206  1.00  0.00     0.049 A 
ATOM     40  N   UNL A   1      40.515  28.641  30.002  1.00  0.00    -0.248 NA
ATOM     41  C   UNL A   1      39.314  28.794  28.005  1.00  0.00     0.031 C 
ATOM     42  C   UNL A   1      37.679  31.577  31.840  1.00  0.00     0.029 A 
ATOM     43  N   UNL A   1      39.582  30.439  32.140  1.00  0.00    -0.354 N 
ATOM     44  C   UNL A   1      41.112  27.831  29.046  1.00  0.00     0.074 A 
ATOM     45  C   UNL A   1      40.312  27.937  27.843  1.00  0.00     0.031 C 
ATOM     46  C   UNL A   1      38.145  31.884  33.061  1.00  0.00     0.029 A 
ATOM     47  C   UNL A   1      39.359  31.114  33.314  1.00  0.00     0.049 A 
ATOM     48  H   UNL A   1      40.372  29.874  31.984  1.00  0.00     0.167 HD
ATOM     49  C   UNL A   1      42.225  27.070  29.166  1.00  0.00     0.037 A 
ATOM     50  C   UNL A   1      40.035  31.083  34.476  1.00  0.00     0.037 A 
ATOM     51  C   UNL A   1      43.037  27.004  30.354  1.00  0.00     0.049 A 
ATOM     52  C   UNL A   1      41.248  30.205  34.597  1.00  0.00     0.074 A 
ATOM     53  C   UNL A   1      44.200  26.284  30.568  1.00  0.00     0.029 A 
ATOM     54  N   UNL A   1      42.770  27.690  31.531  1.00  0.00    -0.354 N 
ATOM     55  N   UNL A   1      41.792  29.418  33.700  1.00  0.00    -0.248 NA
ATOM     56  C   UNL A   1      41.936  30.202  35.895  1.00  0.00     0.031 C 
ATOM     57  C   UNL A   1      44.617  26.507  31.886  1.00  0.00     0.029 A 
ATOM     58  C   UNL A   1      43.736  27.397  32.481  1.00  0.00     0.049 A 
ATOM     59  H   UNL A   1      42.007  28.296  31.670  1.00  0.00     0.167 HD
ATOM     60  C   UNL A   1      42.891  28.838  34.317  1.00  0.00     0.074 A 
ATOM     61  C   UNL A   1      42.946  29.375  35.662  1.00  0.00     0.031 C 
ATOM     62  C   UNL A   1      43.773  27.940  33.814  1.00  0.00     0.037 A 
BRANCH  49  63
ATOM     63  C   UNL A   1      42.611  26.219  27.993  1.00  0.00     0.064 A 
ATOM     64  C   UNL A   1      43.524  26.658  27.023  1.00  0.00     0.173 A 
ATOM     65  C   UNL A   1      42.070  24.932  27.849  1.00  0.00     0.173 A 
ATOM     66  F   UNL A   1      44.060  27.885  27.106  1.00  0.00    -0.203 F 
ATOM     67  C   UNL A   1      43.859  25.852  25.938  1.00  0.00     0.198 A 
ATOM     68  C   UNL A   1      42.429  24.117  26.779  1.00  0.00     0.198 A 
ATOM     69  F   UNL A   1      41.194  24.462  28.750  1.00  0.00    -0.203 F 
ATOM     70  F   UNL A   1      44.691  26.313  24.994  1.00  0.00    -0.200 F 
ATOM     71  C   UNL A   1      43.316  24.580  25.820  1.00  0.00     0.200 A 
ATOM     72  F   UNL A   1      41.910  22.886  26.672  1.00  0.00    -0.200 F 
ATOM     73  F   UNL A   1      43.642  23.805  24.776  1.00  0.00    -0.200 F 
ENDBRANCH  49  63
BRANCH  50  74
ATOM     74  C   UNL A   1      39.555  31.895  35.623  1.00  0.00     0.064 A 
ATOM     75  C   UNL A   1      40.040  33.192  35.840  1.00  0.00     0.173 A 
ATOM     76  C   UNL A   1      38.587  31.400  36.508  1.00  0.00     0.173 A 
ATOM     77  F   UNL A   1      40.985  33.697  35.034  1.00  0.00    -0.203 F 
ATOM     78  C   UNL A   1      39.576  33.961  36.904  1.00  0.00     0.198 A 
ATOM     79  C   UNL A   1      38.105  32.179  37.556  1.00  0.00     0.198 A 
ATOM     80  F   UNL A   1      38.095  30.163  36.342  1.00  0.00    -0.203 F 
ATOM     81  F   UNL A   1      40.077  35.187  37.110  1.00  0.00    -0.200 F 
ATOM     82  C   UNL A   1      38.603  33.459  37.756  1.00  0.00     0.200 A 
ATOM     83  F   UNL A   1      37.158  31.694  38.369  1.00  0.00    -0.200 F 
ATOM     84  F   UNL A   1      38.149  34.204  38.773  1.00  0.00    -0.200 F 
ENDBRANCH  50  74
BRANCH  62  85
ATOM     85  C   UNL A   1      44.885  27.498  34.719  1.00  0.00     0.064 A 
ATOM     86  C   UNL A   1      46.103  28.191  34.772  1.00  0.00     0.173 A 
ATOM     87  C   UNL A   1      44.716  26.392  35.564  1.00  0.00     0.173 A 
ATOM     88  F   UNL A   1      46.317  29.245  33.971  1.00  0.00    -0.203 F 
ATOM     89  C   UNL A   1      47.122  27.776  35.627  1.00  0.00     0.198 A 
ATOM     90  C   UNL A   1      45.728  25.996  36.433  1.00  0.00     0.198 A 
ATOM     91  F   UNL A   1      43.566  25.701  35.552  1.00  0.00    -0.203 F 
ATOM     92  F   UNL A   1      48.294  28.426  35.632  1.00  0.00    -0.200 F 
ATOM     93  C   UNL A   1      46.932  26.685  36.460  1.00  0.00     0.200 A 
ATOM     94  F   UNL A   1      45.539  24.946  37.245  1.00  0.00    -0.200 F 
ATOM     95  F   UNL A   1      47.912  26.290  37.284  1.00  0.00    -0.200 F 
ENDBRANCH  62  85
ENDBRANCH  36  37
ENDBRANCH  29  31
ENDBRANCH  28  29
ENDBRANCH  27  28
ENDBRANCH   1  27
TORSDOF 15
ENDMDL
MODEL 2
REMARK VINA RESULT:     -12.0      0.887      1.942
REMARK SMILES O=C(CC1(CC(=O)OCCOC(=O)c2ccc(-c3c4nc(c(-c5c(F)c(F)c(F)c(F)c5F)c5ccc([nH]5)c(-c5c(F)c(F)c(F)c(F)c5F)c5nc(c(-c6c(F)c(F)c(F)c(F)c6F)c6ccc3[nH]6)C=C5)C=C4)cc2)CCCCC1)Nc1ccc2ccccc2n1
REMARK SMILES IDX 9 1 8 2 6 3 7 4 5 5 4 6 77 7 81 8 78 9 80 10 79 11 3 12 2 13
REMARK SMILES IDX 1 14 82 15 83 17 84 18 92 19 85 20 91 21 86 22 90 23 87 24
REMARK SMILES IDX 89 25 88 26 10 27 11 28 12 29 13 30 14 31 15 32 76 33 16 34
REMARK SMILES IDX 75 35 17 36 18 37 19 38 69 39 20 40 74 41 68 42 70 43 21 44
REMARK SMILES IDX 73 45 67 46 66 47 22 49 54 50 34 51 53 52 35 53 38 54 52 55
REMARK SMILES IDX 71 56 36 57 37 58 51 60 72 61 39 62 23 63 24 64 32 65 25 66
REMARK SMILES IDX 26 67 30 68 33 69 27 70 28 71 31 72 29 73 55 74 56 75 64 76
REMARK SMILES IDX 57 77 58 78 62 79 65 80 59 81 60 82 63 83 61 84 40 85 41 86
REMARK SMILES IDX 49 87 42 88 43 89 47 90 50 91 44 92 45 93 48 94 46 95
REMARK H PARENT 82 16 70 48 38 59
REMARK Flexibility Score: inf
ROOT
ATOM      1  C   UNL A   1      33.404  29.082  24.923  1.00  0.00     0.274 C 
ENDROOT
BRANCH   1   2
ATOM      2  O   UNL A   1      33.401  27.816  25.614  1.00  0.00    -0.462 OA
BRANCH   2   3
ATOM      3  C   UNL A   1      33.138  26.736  24.842  1.00  0.00     0.306 C 
ATOM      4  O   UNL A   1      33.982  26.133  24.184  1.00  0.00    -0.252 OA
BRANCH   3   5
ATOM      5  C   UNL A   1      31.673  26.357  24.763  1.00  0.00     0.130 C 
BRANCH   5   6
ATOM      6  C   UNL A   1      30.983  25.965  23.421  1.00  0.00    -0.010 C 
ATOM      7  C   UNL A   1      31.342  27.075  22.381  1.00  0.00     0.008 C 
ATOM      8  C   UNL A   1      29.440  25.911  23.516  1.00  0.00     0.008 C 
ATOM      9  C   UNL A   1      30.726  28.437  22.698  1.00  0.00     0.001 C 
ATOM     10  C   UNL A   1      28.813  27.254  23.876  1.00  0.00     0.001 C 
ATOM     11  C   UNL A   1      29.217  28.341  22.886  1.00  0.00     0.000 C 
BRANCH   6  12
ATOM     12  C   UNL A   1      31.494  24.575  22.975  1.00  0.00     0.108 C 
BRANCH  12  13
ATOM     13  C   UNL A   1      31.717  23.573  24.085  1.00  0.00     0.226 C 
ATOM     14  O   UNL A   1      30.787  23.304  24.842  1.00  0.00    -0.275 OA
ATOM     15  N   UNL A   1      32.972  22.985  24.049  1.00  0.00    -0.311 N 
ATOM     16  H   UNL A   1      33.740  23.447  23.640  1.00  0.00     0.171 HD
BRANCH  15  17
ATOM     17  C   UNL A   1      33.112  21.711  24.616  1.00  0.00     0.133 A 
ATOM     18  C   UNL A   1      34.238  21.552  25.408  1.00  0.00     0.048 A 
ATOM     19  N   UNL A   1      32.427  20.683  24.087  1.00  0.00    -0.231 NA
ATOM     20  C   UNL A   1      34.860  20.312  25.376  1.00  0.00     0.014 A 
ATOM     21  C   UNL A   1      33.020  19.484  24.064  1.00  0.00     0.073 A 
ATOM     22  C   UNL A   1      34.295  19.275  24.624  1.00  0.00     0.000 A 
ATOM     23  C   UNL A   1      32.410  18.438  23.387  1.00  0.00     0.029 A 
ATOM     24  C   UNL A   1      34.981  18.077  24.372  1.00  0.00     0.010 A 
ATOM     25  C   UNL A   1      33.083  17.238  23.150  1.00  0.00     0.002 A 
ATOM     26  C   UNL A   1      34.384  17.073  23.612  1.00  0.00     0.001 A 
ENDBRANCH  15  17
ENDBRANCH  12  13
ENDBRANCH   6  12
ENDBRANCH   5   6
ENDBRANCH   3   5
ENDBRANCH   2   3
ENDBRANCH   1   2
BRANCH   1  27
ATOM     27  C   UNL A   1      32.415  30.080  25.525  1.00  0.00     0.275 C 
BRANCH  27  28
ATOM     28  O   UNL A   1      32.641  30.252  26.934  1.00  0.00    -0.458 OA
BRANCH  28  29
ATOM     29  C   UNL A   1      33.285  31.385  27.280  1.00  0.00     0.338 C 
ATOM     30  O   UNL A   1      32.880  32.537  27.187  1.00  0.00    -0.246 OA
BRANCH  29  31
ATOM     31  C   UNL A   1      34.589  31.047  27.860  1.00  0.00     0.060 A 
ATOM     32  C   UNL A   1      34.805  29.752  28.336  1.00  0.00     0.016 A 
ATOM     33  C   UNL A   1      35.551  32.040  28.040  1.00  0.00     0.016 A 
ATOM     34  C   UNL A   1      35.967  29.452  29.037  1.00  0.00     0.010 A 
ATOM     35  C   UNL A   1      36.740  31.726  28.703  1.00  0.00     0.010 A 
ATOM     36  C   UNL A   1      36.946  30.435  29.224  1.00  0.00    -0.014 A 
BRANCH  36  37
ATOM     37  C   UNL A   1      38.173  30.124  29.993  1.00  0.00     0.031 A 
ATOM     38  C   UNL A   1      39.212  29.214  29.408  1.00  0.00     0.074 A 
ATOM     39  C   UNL A   1      38.347  30.653  31.217  1.00  0.00     0.049 A 
ATOM     40  N   UNL A   1      40.268  28.689  29.974  1.00  0.00    -0.248 NA
ATOM     41  C   UNL A   1      39.031  28.834  27.999  1.00  0.00     0.031 C 
ATOM     42  C   UNL A   1      37.431  31.587  31.870  1.00  0.00     0.029 A 
ATOM     43  N   UNL A   1      39.352  30.471  32.133  1.00  0.00    -0.354 N 
ATOM     44  C   UNL A   1      40.857  27.890  29.005  1.00  0.00     0.074 A 
ATOM     45  C   UNL A   1      40.036  27.989  27.816  1.00  0.00     0.031 C 
ATOM     46  C   UNL A   1      37.915  31.897  33.084  1.00  0.00     0.029 A 
ATOM     47  C   UNL A   1      39.142  31.140  33.313  1.00  0.00     0.049 A 
ATOM     48  H   UNL A   1      40.146  29.915  31.961  1.00  0.00     0.167 HD
ATOM     49  C   UNL A   1      41.982  27.141  29.103  1.00  0.00     0.037 A 
ATOM     50  C   UNL A   1      39.839  31.114  34.463  1.00  0.00     0.037 A 
ATOM     51  C   UNL A   1      42.815  27.081  30.277  1.00  0.00     0.049 A 
ATOM     52  C   UNL A   1      41.064  30.249  34.559  1.00  0.00     0.074 A 
ATOM     53  C   UNL A   1      43.990  26.375  30.468  1.00  0.00     0.029 A 
ATOM     54  N   UNL A   1      42.561  27.761  31.460  1.00  0.00    -0.354 N 
ATOM     55  N   UNL A   1      41.601  29.472  33.651  1.00  0.00    -0.248 NA
ATOM     56  C   UNL A   1      41.775  30.252  35.846  1.00  0.00     0.031 C 
ATOM     57  C   UNL A   1      44.427  26.598  31.779  1.00  0.00     0.029 A 
ATOM     58  C   UNL A   1      43.547  27.477  32.392  1.00  0.00     0.049 A 
ATOM     59  H   UNL A   1      41.794  28.358  31.614  1.00  0.00     0.167 HD
ATOM     60  C   UNL A   1      42.717  28.903  34.247  1.00  0.00     0.074 A 
ATOM     61  C   UNL A   1      42.790  29.437  35.592  1.00  0.00     0.031 C 
ATOM     62  C   UNL A   1      43.601  28.016  33.726  1.00  0.00     0.037 A 
BRANCH  49  63
ATOM     63  C   UNL A   1      42.356  26.297  27.921  1.00  0.00     0.064 A 
ATOM     64  C   UNL A   1      41.785  25.036  27.697  1.00  0.00     0.173 A 
ATOM     65  C   UNL A   1      43.289  26.770  26.986  1.00  0.00     0.173 A 
ATOM     66  F   UNL A   1      40.898  24.531  28.567  1.00  0.00    -0.203 F 
ATOM     67  C   UNL A   1      42.157  24.268  26.596  1.00  0.00     0.198 A 
ATOM     68  C   UNL A   1      43.636  26.013  25.871  1.00  0.00     0.198 A 
ATOM     69  F   UNL A   1      43.863  27.972  27.152  1.00  0.00    -0.203 F 
ATOM     70  F   UNL A   1      41.640  23.042  26.432  1.00  0.00    -0.200 F 
ATOM     71  C   UNL A   1      43.076  24.759  25.681  1.00  0.00     0.200 A 
ATOM     72  F   UNL A   1      44.519  26.492  24.984  1.00  0.00    -0.200 F 
ATOM     73  F   UNL A   1      43.430  24.019  24.622  1.00  0.00    -0.200 F 
ENDBRANCH  49  63
BRANCH  50  74
ATOM     74  C   UNL A   1      39.370  31.917  35.620  1.00  0.00     0.064 A 
ATOM     75  C   UNL A   1      39.805  33.236  35.805  1.00  0.00     0.173 A 
ATOM     76  C   UNL A   1      38.461  31.390  36.548  1.00  0.00     0.173 A 
ATOM     77  F   UNL A   1      40.695  33.773  34.956  1.00  0.00    -0.203 F 
ATOM     78  C   UNL A   1      39.351  33.997  36.879  1.00  0.00     0.198 A 
ATOM     79  C   UNL A   1      37.987  32.160  37.608  1.00  0.00     0.198 A 
ATOM     80  F   UNL A   1      38.017  30.132  36.414  1.00  0.00    -0.203 F 
ATOM     81  F   UNL A   1      39.806  35.245  37.053  1.00  0.00    -0.200 F 
ATOM     82  C   UNL A   1      38.435  33.463  37.775  1.00  0.00     0.200 A 
ATOM     83  F   UNL A   1      37.095  31.644  38.463  1.00  0.00    -0.200 F 
ATOM     84  F   UNL A   1      37.991  34.199  38.802  1.00  0.00    -0.200 F 
ENDBRANCH  50  74
BRANCH  62  85
ATOM     85  C   UNL A   1      44.734  27.586  34.610  1.00  0.00     0.064 A 
ATOM     86  C   UNL A   1      44.638  26.443  35.416  1.00  0.00     0.173 A 
ATOM     87  C   UNL A   1      45.936  28.306  34.624  1.00  0.00     0.173 A 
ATOM     88  F   UNL A   1      43.502  25.731  35.449  1.00  0.00    -0.203 F 
ATOM     89  C   UNL A   1      45.703  26.048  36.223  1.00  0.00     0.198 A 
ATOM     90  C   UNL A   1      47.007  27.894  35.413  1.00  0.00     0.198 A 
ATOM     91  F   UNL A   1      46.076  29.404  33.866  1.00  0.00    -0.203 F 
ATOM     92  F   UNL A   1      45.577  24.977  37.017  1.00  0.00    -0.200 F 
ATOM     93  C   UNL A   1      46.887  26.770  36.216  1.00  0.00     0.200 A 
ATOM     94  F   UNL A   1      48.154  28.588  35.398  1.00  0.00    -0.200 F 
ATOM     95  F   UNL A   1      47.912  26.386  36.990  1.00  0.00    -0.200 F 
ENDBRANCH  62  85
ENDBRANCH  36  37
ENDBRANCH  29  31
ENDBRANCH  28  29
ENDBRANCH  27  28
ENDBRANCH   1  27
TORSDOF 15
ENDMDL
MODEL 3
REMARK VINA RESULT:     -11.9      1.723      3.080
REMARK SMILES O=C(CC1(CC(=O)OCCOC(=O)c2ccc(-c3c4nc(c(-c5c(F)c(F)c(F)c(F)c5F)c5ccc([nH]5)c(-c5c(F)c(F)c(F)c(F)c5F)c5nc(c(-c6c(F)c(F)c(F)c(F)c6F)c6ccc3[nH]6)C=C5)C=C4)cc2)CCCCC1)Nc1ccc2ccccc2n1
REMARK SMILES IDX 9 1 8 2 6 3 7 4 5 5 4 6 77 7 81 8 78 9 80 10 79 11 3 12 2 13
REMARK SMILES IDX 1 14 82 15 83 17 84 18 92 19 85 20 91 21 86 22 90 23 87 24
REMARK SMILES IDX 89 25 88 26 10 27 11 28 12 29 13 30 14 31 15 32 76 33 16 34
REMARK SMILES IDX 75 35 17 36 18 37 19 38 69 39 20 40 74 41 68 42 70 43 21 44
REMARK SMILES IDX 73 45 67 46 66 47 22 49 54 50 34 51 53 52 35 53 38 54 52 55
REMARK SMILES IDX 71 56 36 57 37 58 51 60 72 61 39 62 23 63 24 64 32 65 25 66
REMARK SMILES IDX 26 67 30 68 33 69 27 70 28 71 31 72 29 73 55 74 56 75 64 76
REMARK SMILES IDX 57 77 58 78 62 79 65 80 59 81 60 82 63 83 61 84 40 85 41 86
REMARK SMILES IDX 49 87 42 88 43 89 47 90 50 91 44 92 45 93 48 94 46 95
REMARK H PARENT 82 16 70 48 38 59
REMARK Flexibility Score: inf
ROOT
ATOM      1  C   UNL A   1      31.895  31.374  26.504  1.00  0.00     0.274 C 
ENDROOT
BRANCH   1   2
ATOM      2  O   UNL A   1      32.352  30.303  27.356  1.00  0.00    -0.462 OA
BRANCH   2   3
ATOM      3  C   UNL A   1      31.778  29.098  27.129  1.00  0.00     0.306 C 
ATOM      4  O   UNL A   1      31.547  28.265  28.001  1.00  0.00    -0.252 OA
BRANCH   3   5
ATOM      5  C   UNL A   1      31.510  28.791  25.669  1.00  0.00     0.130 C 
BRANCH   5   6
ATOM      6  C   UNL A   1      32.130  27.555  24.949  1.00  0.00    -0.010 C 
ATOM      7  C   UNL A   1      32.706  28.059  23.586  1.00  0.00     0.008 C 
ATOM      8  C   UNL A   1      31.097  26.450  24.627  1.00  0.00     0.008 C 
ATOM      9  C   UNL A   1      31.635  28.528  22.602  1.00  0.00     0.001 C 
ATOM     10  C   UNL A   1      29.996  26.916  23.680  1.00  0.00     0.001 C 
ATOM     11  C   UNL A   1      30.572  27.458  22.377  1.00  0.00     0.000 C 
BRANCH   6  12
ATOM     12  C   UNL A   1      33.232  26.946  25.846  1.00  0.00     0.108 C 
BRANCH  12  13
ATOM     13  C   UNL A   1      33.543  25.486  25.600  1.00  0.00     0.226 C 
ATOM     14  O   UNL A   1      32.971  24.632  26.274  1.00  0.00    -0.275 OA
ATOM     15  N   UNL A   1      34.403  25.281  24.531  1.00  0.00    -0.311 N 
ATOM     16  H   UNL A   1      35.042  25.976  24.251  1.00  0.00     0.171 HD
BRANCH  15  17
ATOM     17  C   UNL A   1      34.331  24.051  23.863  1.00  0.00     0.133 A 
ATOM     18  C   UNL A   1      33.352  23.982  22.885  1.00  0.00     0.048 A 
ATOM     19  N   UNL A   1      34.892  22.969  24.427  1.00  0.00    -0.231 NA
ATOM     20  C   UNL A   1      32.704  22.765  22.728  1.00  0.00     0.014 A 
ATOM     21  C   UNL A   1      34.276  21.792  24.269  1.00  0.00     0.073 A 
ATOM     22  C   UNL A   1      33.109  21.663  23.492  1.00  0.00     0.000 A 
ATOM     23  C   UNL A   1      34.738  20.685  24.965  1.00  0.00     0.029 A 
ATOM     24  C   UNL A   1      32.362  20.476  23.543  1.00  0.00     0.010 A 
ATOM     25  C   UNL A   1      34.007  19.496  25.004  1.00  0.00     0.002 A 
ATOM     26  C   UNL A   1      32.798  19.406  24.321  1.00  0.00     0.001 A 
ENDBRANCH  15  17
ENDBRANCH  12  13
ENDBRANCH   6  12
ENDBRANCH   5   6
ENDBRANCH   3   5
ENDBRANCH   2   3
ENDBRANCH   1   2
BRANCH   1  27
ATOM     27  C   UNL A   1      31.774  32.703  27.249  1.00  0.00     0.275 C 
BRANCH  27  28
ATOM     28  O   UNL A   1      33.030  33.402  27.274  1.00  0.00    -0.458 OA
BRANCH  28  29
ATOM     29  C   UNL A   1      33.205  34.235  28.321  1.00  0.00     0.338 C 
ATOM     30  O   UNL A   1      32.528  35.209  28.625  1.00  0.00    -0.246 OA
BRANCH  29  31
ATOM     31  C   UNL A   1      34.342  33.775  29.125  1.00  0.00     0.060 A 
ATOM     32  C   UNL A   1      35.603  34.325  28.891  1.00  0.00     0.016 A 
ATOM     33  C   UNL A   1      34.181  32.721  30.023  1.00  0.00     0.016 A 
ATOM     34  C   UNL A   1      36.723  33.793  29.521  1.00  0.00     0.010 A 
ATOM     35  C   UNL A   1      35.300  32.218  30.692  1.00  0.00     0.010 A 
ATOM     36  C   UNL A   1      36.581  32.737  30.428  1.00  0.00    -0.014 A 
BRANCH  36  37
ATOM     37  C   UNL A   1      37.776  32.153  31.080  1.00  0.00     0.031 A 
ATOM     38  C   UNL A   1      38.579  31.105  30.369  1.00  0.00     0.074 A 
ATOM     39  C   UNL A   1      38.132  32.560  32.311  1.00  0.00     0.049 A 
ATOM     40  N   UNL A   1      39.552  30.357  30.821  1.00  0.00    -0.248 NA
ATOM     41  C   UNL A   1      38.232  30.857  28.961  1.00  0.00     0.031 C 
ATOM     42  C   UNL A   1      37.458  33.605  33.081  1.00  0.00     0.029 A 
ATOM     43  N   UNL A   1      39.144  32.135  33.134  1.00  0.00    -0.354 N 
ATOM     44  C   UNL A   1      39.910  29.526  29.770  1.00  0.00     0.074 A 
ATOM     45  C   UNL A   1      39.042  29.853  28.657  1.00  0.00     0.031 C 
ATOM     46  C   UNL A   1      38.074  33.741  34.266  1.00  0.00     0.029 A 
ATOM     47  C   UNL A   1      39.147  32.755  34.359  1.00  0.00     0.049 A 
ATOM     48  H   UNL A   1      39.804  31.454  32.871  1.00  0.00     0.167 HD
ATOM     49  C   UNL A   1      40.875  28.576  29.740  1.00  0.00     0.037 A 
ATOM     50  C   UNL A   1      39.904  32.525  35.447  1.00  0.00     0.037 A 
ATOM     51  C   UNL A   1      41.760  28.286  30.839  1.00  0.00     0.049 A 
ATOM     52  C   UNL A   1      40.946  31.443  35.402  1.00  0.00     0.074 A 
ATOM     53  C   UNL A   1      42.789  27.362  30.901  1.00  0.00     0.029 A 
ATOM     54  N   UNL A   1      41.722  28.924  32.072  1.00  0.00    -0.354 N 
ATOM     55  N   UNL A   1      41.260  30.639  34.416  1.00  0.00    -0.248 NA
ATOM     56  C   UNL A   1      41.730  31.230  36.625  1.00  0.00     0.031 C 
ATOM     57  C   UNL A   1      43.350  27.415  32.182  1.00  0.00     0.029 A 
ATOM     58  C   UNL A   1      42.698  28.401  32.906  1.00  0.00     0.049 A 
ATOM     59  H   UNL A   1      41.096  29.642  32.316  1.00  0.00     0.167 HD
ATOM     60  C   UNL A   1      42.285  29.834  34.891  1.00  0.00     0.074 A 
ATOM     61  C   UNL A   1      42.551  30.258  36.251  1.00  0.00     0.031 C 
ATOM     62  C   UNL A   1      42.945  28.834  34.258  1.00  0.00     0.037 A 
BRANCH  49  63
ATOM     63  C   UNL A   1      40.999  27.755  28.491  1.00  0.00     0.064 A 
ATOM     64  C   UNL A   1      40.267  26.573  28.303  1.00  0.00     0.173 A 
ATOM     65  C   UNL A   1      41.852  28.171  27.457  1.00  0.00     0.173 A 
ATOM     66  F   UNL A   1      39.448  26.124  29.265  1.00  0.00    -0.203 F 
ATOM     67  C   UNL A   1      40.407  25.823  27.137  1.00  0.00     0.198 A 
ATOM     68  C   UNL A   1      41.967  27.435  26.282  1.00  0.00     0.198 A 
ATOM     69  F   UNL A   1      42.572  29.295  27.587  1.00  0.00    -0.203 F 
ATOM     70  F   UNL A   1      39.740  24.669  27.001  1.00  0.00    -0.200 F 
ATOM     71  C   UNL A   1      41.251  26.258  26.125  1.00  0.00     0.200 A 
ATOM     72  F   UNL A   1      42.777  27.860  25.302  1.00  0.00    -0.200 F 
ATOM     73  F   UNL A   1      41.382  25.536  25.004  1.00  0.00    -0.200 F 
ENDBRANCH  49  63
BRANCH  50  74
ATOM     74  C   UNL A   1      39.678  33.326  36.676  1.00  0.00     0.064 A 
ATOM     75  C   UNL A   1      38.730  32.929  37.629  1.00  0.00     0.173 A 
ATOM     76  C   UNL A   1      40.420  34.487  36.934  1.00  0.00     0.173 A 
ATOM     77  F   UNL A   1      37.979  31.839  37.412  1.00  0.00    -0.203 F 
ATOM     78  C   UNL A   1      38.530  33.668  38.792  1.00  0.00     0.198 A 
ATOM     79  C   UNL A   1      40.237  35.211  38.109  1.00  0.00     0.198 A 
ATOM     80  F   UNL A   1      41.337  34.908  36.051  1.00  0.00    -0.203 F 
ATOM     81  F   UNL A   1      37.596  33.287  39.673  1.00  0.00    -0.200 F 
ATOM     82  C   UNL A   1      39.290  34.804  39.037  1.00  0.00     0.200 A 
ATOM     83  F   UNL A   1      40.981  36.300  38.345  1.00  0.00    -0.200 F 
ATOM     84  F   UNL A   1      39.104  35.508  40.161  1.00  0.00    -0.200 F 
ENDBRANCH  50  74
BRANCH  62  85
ATOM     85  C   UNL A   1      44.033  28.143  35.025  1.00  0.00     0.064 A 
ATOM     86  C   UNL A   1      43.782  26.976  35.759  1.00  0.00     0.173 A 
ATOM     87  C   UNL A   1      45.345  28.638  34.998  1.00  0.00     0.173 A 
ATOM     88  F   UNL A   1      42.540  26.475  35.829  1.00  0.00    -0.203 F 
ATOM     89  C   UNL A   1      44.805  26.339  36.458  1.00  0.00     0.198 A 
ATOM     90  C   UNL A   1      46.369  27.985  35.678  1.00  0.00     0.198 A 
ATOM     91  F   UNL A   1      45.635  29.750  34.306  1.00  0.00    -0.203 F 
ATOM     92  F   UNL A   1      44.537  25.247  37.187  1.00  0.00    -0.200 F 
ATOM     93  C   UNL A   1      46.097  26.839  36.411  1.00  0.00     0.200 A 
ATOM     94  F   UNL A   1      47.620  28.465  35.624  1.00  0.00    -0.200 F 
ATOM     95  F   UNL A   1      47.081  26.223  37.081  1.00  0.00    -0.200 F 
ENDBRANCH  62  85
ENDBRANCH  36  37
ENDBRANCH  29  31
ENDBRANCH  28  29
ENDBRANCH  27  28
ENDBRANCH   1  27
TORSDOF 15
ENDMDL
