MODEL 1
REMARK VINA RESULT:     -13.7      0.000      0.000
REMARK SMILES CC1=C([C@H](NC(=O)[C@@H]2[C@H](C)c3cc(F)ccc3N2C)C(=O)OCCOC(=O)c2ccc(-c3c4nc(c(-c5c(F)c(F)c(F)c(F)c5F)c5ccc([nH]5)c(-c5c(F)c(F)c(F)c(F)c5F)c5nc(c(-c6c(F)c(F)c(F)c(F)c6F)c6ccc3[nH]6)C=C5)C=C4)cc2)[C@@H](C)N=N1
REMARK SMILES IDX 23 1 22 2 20 3 21 4 4 5 3 6 1 7 2 8 94 9 91 10 93 11 92 12
REMARK SMILES IDX 5 13 6 14 7 16 8 17 9 18 18 19 11 20 10 21 17 22 19 23 12 24
REMARK SMILES IDX 16 25 13 26 15 27 14 28 24 29 25 30 26 31 27 32 28 33 29 34
REMARK SMILES IDX 90 35 30 36 89 37 31 38 32 39 33 40 83 41 34 42 88 43 82 44
REMARK SMILES IDX 84 45 35 46 87 47 81 48 80 49 36 51 68 52 48 53 67 54 49 55
REMARK SMILES IDX 52 56 66 57 85 58 50 59 51 60 65 62 86 63 53 64 37 65 38 66
REMARK SMILES IDX 46 67 39 68 40 69 44 70 47 71 41 72 42 73 45 74 43 75 69 76
REMARK SMILES IDX 70 77 78 78 71 79 72 80 76 81 79 82 73 83 74 84 77 85 75 86
REMARK SMILES IDX 54 87 55 88 63 89 56 90 57 91 61 92 64 93 58 94 59 95 62 96
REMARK SMILES IDX 60 97
REMARK H PARENT 5 15 84 50 52 61
REMARK Flexibility Score: inf
ROOT
ATOM      1  C   UNL A   1      37.074  22.277  24.119  1.00  0.00     0.274 C 
ENDROOT
BRANCH   1   2
ATOM      2  O   UNL A   1      36.523  23.517  24.641  1.00  0.00    -0.460 OA
BRANCH   2   3
ATOM      3  C   UNL A   1      35.233  23.745  24.272  1.00  0.00     0.333 C 
ATOM      4  O   UNL A   1      34.923  24.040  23.122  1.00  0.00    -0.249 OA
BRANCH   3   5
ATOM      5  C   UNL A   1      34.199  23.748  25.430  1.00  0.00     0.223 C 
BRANCH   5   6
ATOM      6  C   UNL A   1      33.066  22.772  25.260  1.00  0.00     0.012 C 
ATOM      7  C   UNL A   1      31.242  23.686  26.834  1.00  0.00     0.069 C 
ATOM      8  C   UNL A   1      31.875  22.733  25.882  1.00  0.00     0.064 C 
ATOM      9  N   UNL A   1      31.178  21.580  25.624  1.00  0.00    -0.160 NA
ATOM     10  C   UNL A   1      33.171  21.430  24.583  1.00  0.00     0.156 C 
ATOM     11  N   UNL A   1      31.844  20.823  24.878  1.00  0.00    -0.181 NA
ATOM     12  C   UNL A   1      34.211  20.427  25.093  1.00  0.00     0.040 C 
ENDBRANCH   5   6
BRANCH   5  13
ATOM     13  N   UNL A   1      33.784  25.087  25.916  1.00  0.00    -0.337 N 
ATOM     14  C   UNL A   1      33.028  26.111  25.358  1.00  0.00     0.244 C 
ATOM     15  H   UNL A   1      34.112  25.292  26.822  1.00  0.00     0.164 HD
ATOM     16  O   UNL A   1      32.723  27.043  26.115  1.00  0.00    -0.273 OA
BRANCH  14  17
ATOM     17  C   UNL A   1      32.669  26.242  23.819  1.00  0.00     0.178 C 
ATOM     18  C   UNL A   1      32.752  27.697  23.007  1.00  0.00     0.050 C 
ATOM     19  N   UNL A   1      31.379  25.515  23.609  1.00  0.00    -0.362 N 
ATOM     20  C   UNL A   1      31.307  28.066  22.705  1.00  0.00    -0.016 A 
ATOM     21  C   UNL A   1      33.431  28.776  23.835  1.00  0.00     0.015 C 
ATOM     22  C   UNL A   1      30.433  26.553  23.634  1.00  0.00     0.041 A 
ATOM     23  C   UNL A   1      31.453  24.504  22.557  1.00  0.00     0.144 C 
ATOM     24  C   UNL A   1      30.272  29.577  22.009  1.00  0.00     0.045 A 
ATOM     25  C   UNL A   1      28.487  26.794  23.880  1.00  0.00     0.029 A 
ATOM     26  C   UNL A   1      28.306  29.811  22.230  1.00  0.00     0.123 A 
ATOM     27  C   UNL A   1      27.447  28.343  23.236  1.00  0.00     0.041 A 
ATOM     28  F   UNL A   1      27.651  30.895  21.795  1.00  0.00    -0.207 F 
ENDBRANCH  14  17
ENDBRANCH   5  13
ENDBRANCH   3   5
ENDBRANCH   2   3
ENDBRANCH   1   2
BRANCH   1  29
ATOM     29  C   UNL A   1      37.720  21.411  25.204  1.00  0.00     0.275 C 
BRANCH  29  30
ATOM     30  O   UNL A   1      38.440  22.262  26.101  1.00  0.00    -0.458 OA
BRANCH  30  31
ATOM     31  C   UNL A   1      39.630  21.786  26.517  1.00  0.00     0.338 C 
ATOM     32  O   UNL A   1      40.214  20.779  26.169  1.00  0.00    -0.246 OA
BRANCH  31  33
ATOM     33  C   UNL A   1      40.183  22.912  27.257  1.00  0.00     0.060 A 
ATOM     34  C   UNL A   1      41.201  23.674  27.066  1.00  0.00     0.016 A 
ATOM     35  C   UNL A   1      40.266  24.135  26.842  1.00  0.00     0.016 A 
ATOM     36  C   UNL A   1      41.948  25.504  27.525  1.00  0.00     0.010 A 
ATOM     37  C   UNL A   1      41.085  25.952  27.218  1.00  0.00     0.010 A 
ATOM     38  C   UNL A   1      41.750  26.660  28.064  1.00  0.00    -0.014 A 
BRANCH  38  39
ATOM     39  C   UNL A   1      41.105  27.813  28.695  1.00  0.00     0.031 A 
ATOM     40  C   UNL A   1      41.977  28.870  28.167  1.00  0.00     0.074 A 
ATOM     41  C   UNL A   1      40.059  28.265  29.466  1.00  0.00     0.049 A 
ATOM     42  N   UNL A   1      43.041  29.219  28.794  1.00  0.00    -0.248 NA
ATOM     43  C   UNL A   1      41.943  29.233  26.740  1.00  0.00     0.031 C 
ATOM     44  C   UNL A   1      38.843  27.643  30.028  1.00  0.00     0.029 A 
ATOM     45  N   UNL A   1      39.859  29.576  29.887  1.00  0.00    -0.354 N 
ATOM     46  C   UNL A   1      43.749  29.978  27.902  1.00  0.00     0.074 A 
ATOM     47  C   UNL A   1      43.158  29.766  26.606  1.00  0.00     0.031 C 
ATOM     48  C   UNL A   1      37.975  28.572  30.507  1.00  0.00     0.029 A 
ATOM     49  C   UNL A   1      38.615  29.863  30.469  1.00  0.00     0.049 A 
ATOM     50  H   UNL A   1      40.554  30.265  29.782  1.00  0.00     0.167 HD
ATOM     51  C   UNL A   1      44.592  30.916  28.384  1.00  0.00     0.037 A 
ATOM     52  C   UNL A   1      38.176  31.033  31.011  1.00  0.00     0.037 A 
ATOM     53  C   UNL A   1      44.868  30.702  29.791  1.00  0.00     0.049 A 
ATOM     54  C   UNL A   1      39.386  31.743  31.468  1.00  0.00     0.074 A 
ATOM     55  C   UNL A   1      45.403  29.638  30.502  1.00  0.00     0.029 A 
ATOM     56  N   UNL A   1      44.113  31.411  30.698  1.00  0.00    -0.354 N 
ATOM     57  N   UNL A   1      40.126  31.339  32.458  1.00  0.00    -0.248 NA
ATOM     58  C   UNL A   1      40.006  32.674  30.547  1.00  0.00     0.031 C 
ATOM     59  C   UNL A   1      44.601  29.518  31.679  1.00  0.00     0.029 A 
ATOM     60  C   UNL A   1      43.667  30.553  31.677  1.00  0.00     0.049 A 
ATOM     61  H   UNL A   1      43.924  32.375  30.653  1.00  0.00     0.167 HD
ATOM     62  C   UNL A   1      41.417  31.552  32.011  1.00  0.00     0.074 A 
ATOM     63  C   UNL A   1      41.280  32.479  30.888  1.00  0.00     0.031 C 
ATOM     64  C   UNL A   1      42.432  30.733  32.409  1.00  0.00     0.037 A 
BRANCH  51  65
ATOM     65  C   UNL A   1      44.792  32.193  27.648  1.00  0.00     0.064 A 
ATOM     66  C   UNL A   1      45.978  32.395  26.937  1.00  0.00     0.173 A 
ATOM     67  C   UNL A   1      43.946  33.317  27.795  1.00  0.00     0.173 A 
ATOM     68  F   UNL A   1      46.865  31.400  26.801  1.00  0.00    -0.203 F 
ATOM     69  C   UNL A   1      46.298  33.647  26.415  1.00  0.00     0.198 A 
ATOM     70  C   UNL A   1      44.233  34.542  27.213  1.00  0.00     0.198 A 
ATOM     71  F   UNL A   1      42.871  33.305  28.596  1.00  0.00    -0.203 F 
ATOM     72  F   UNL A   1      47.488  33.834  25.830  1.00  0.00    -0.200 F 
ATOM     73  C   UNL A   1      45.422  34.714  26.542  1.00  0.00     0.200 A 
ATOM     74  F   UNL A   1      43.381  35.564  27.375  1.00  0.00    -0.200 F 
ATOM     75  F   UNL A   1      45.747  35.923  26.068  1.00  0.00    -0.200 F 
ENDBRANCH  51  65
BRANCH  52  76
ATOM     76  C   UNL A   1      36.861  31.738  30.981  1.00  0.00     0.064 A 
ATOM     77  C   UNL A   1      36.114  31.925  32.166  1.00  0.00     0.173 A 
ATOM     78  C   UNL A   1      36.498  32.553  29.895  1.00  0.00     0.173 A 
ATOM     79  F   UNL A   1      36.407  31.219  33.268  1.00  0.00    -0.203 F 
ATOM     80  C   UNL A   1      35.122  32.909  32.277  1.00  0.00     0.198 A 
ATOM     81  C   UNL A   1      35.499  33.531  30.004  1.00  0.00     0.198 A 
ATOM     82  F   UNL A   1      37.190  32.499  28.748  1.00  0.00    -0.203 F 
ATOM     83  F   UNL A   1      34.511  33.117  33.452  1.00  0.00    -0.200 F 
ATOM     84  C   UNL A   1      34.828  33.725  31.200  1.00  0.00     0.200 A 
ATOM     85  F   UNL A   1      35.249  34.344  28.967  1.00  0.00    -0.200 F 
ATOM     86  F   UNL A   1      33.944  34.725  31.327  1.00  0.00    -0.200 F 
ENDBRANCH  52  76
BRANCH  64  87
ATOM     87  C   UNL A   1      42.171  29.823  33.589  1.00  0.00     0.064 A 
ATOM     88  C   UNL A   1      41.722  28.490  33.509  1.00  0.00     0.173 A 
ATOM     89  C   UNL A   1      42.486  30.306  34.866  1.00  0.00     0.173 A 
ATOM     90  F   UNL A   1      41.464  27.914  32.330  1.00  0.00    -0.203 F 
ATOM     91  C   UNL A   1      41.569  27.701  34.652  1.00  0.00     0.198 A 
ATOM     92  C   UNL A   1      42.368  29.507  36.001  1.00  0.00     0.198 A 
ATOM     93  F   UNL A   1      42.945  31.559  35.013  1.00  0.00    -0.203 F 
ATOM     94  F   UNL A   1      41.124  26.439  34.547  1.00  0.00    -0.200 F 
ATOM     95  C   UNL A   1      41.902  28.207  35.896  1.00  0.00     0.200 A 
ATOM     96  F   UNL A   1      42.728  29.993  37.197  1.00  0.00    -0.200 F 
ATOM     97  F   UNL A   1      41.793  27.440  36.990  1.00  0.00    -0.200 F 
ENDBRANCH  64  87
ENDBRANCH  38  39
ENDBRANCH  31  33
ENDBRANCH  30  31
ENDBRANCH  29  30
ENDBRANCH   1  29
TORSDOF 14
ENDMDL
MODEL 2
REMARK VINA RESULT:     -13.6      3.469      9.009
REMARK SMILES CC1=C([C@H](NC(=O)[C@@H]2[C@H](C)c3cc(F)ccc3N2C)C(=O)OCCOC(=O)c2ccc(-c3c4nc(c(-c5c(F)c(F)c(F)c(F)c5F)c5ccc([nH]5)c(-c5c(F)c(F)c(F)c(F)c5F)c5nc(c(-c6c(F)c(F)c(F)c(F)c6F)c6ccc3[nH]6)C=C5)C=C4)cc2)[C@@H](C)N=N1
REMARK SMILES IDX 23 1 22 2 20 3 21 4 4 5 3 6 1 7 2 8 94 9 91 10 93 11 92 12
REMARK SMILES IDX 5 13 6 14 7 16 8 17 9 18 18 19 11 20 10 21 17 22 19 23 12 24
REMARK SMILES IDX 16 25 13 26 15 27 14 28 24 29 25 30 26 31 27 32 28 33 29 34
REMARK SMILES IDX 90 35 30 36 89 37 31 38 32 39 33 40 83 41 34 42 88 43 82 44
REMARK SMILES IDX 84 45 35 46 87 47 81 48 80 49 36 51 68 52 48 53 67 54 49 55
REMARK SMILES IDX 52 56 66 57 85 58 50 59 51 60 65 62 86 63 53 64 37 65 38 66
REMARK SMILES IDX 46 67 39 68 40 69 44 70 47 71 41 72 42 73 45 74 43 75 69 76
REMARK SMILES IDX 70 77 78 78 71 79 72 80 76 81 79 82 73 83 74 84 77 85 75 86
REMARK SMILES IDX 54 87 55 88 63 89 56 90 57 91 61 92 64 93 58 94 59 95 62 96
REMARK SMILES IDX 60 97
REMARK H PARENT 5 15 84 50 52 61
REMARK Flexibility Score: inf
ROOT
ATOM      1  C   UNL A   1      33.191  29.989  26.747  1.00  0.00     0.274 C 
ENDROOT
BRANCH   1   2
ATOM      2  O   UNL A   1      31.831  29.620  26.391  1.00  0.00    -0.460 OA
BRANCH   2   3
ATOM      3  C   UNL A   1      31.459  28.390  26.838  1.00  0.00     0.333 C 
ATOM      4  O   UNL A   1      31.170  28.179  28.012  1.00  0.00    -0.249 OA
BRANCH   3   5
ATOM      5  C   UNL A   1      31.565  27.242  25.798  1.00  0.00     0.223 C 
BRANCH   5   6
ATOM      6  C   UNL A   1      31.125  27.615  24.408  1.00  0.00     0.012 C 
ATOM      7  C   UNL A   1      28.718  26.705  24.272  1.00  0.00     0.069 C 
ATOM      8  C   UNL A   1      29.969  27.343  23.778  1.00  0.00     0.064 C 
ATOM      9  N   UNL A   1      30.002  27.661  22.444  1.00  0.00    -0.160 NA
ATOM     10  C   UNL A   1      32.038  28.093  23.309  1.00  0.00     0.156 C 
ATOM     11  N   UNL A   1      31.130  28.113  22.129  1.00  0.00    -0.181 NA
ATOM     12  C   UNL A   1      33.228  27.216  22.905  1.00  0.00     0.040 C 
ENDBRANCH   5   6
BRANCH   5  13
ATOM     13  N   UNL A   1      31.083  25.915  26.256  1.00  0.00    -0.337 N 
ATOM     14  C   UNL A   1      31.537  24.617  26.059  1.00  0.00     0.244 C 
ATOM     15  H   UNL A   1      30.274  25.965  26.815  1.00  0.00     0.164 HD
ATOM     16  O   UNL A   1      30.991  23.736  26.737  1.00  0.00    -0.273 OA
BRANCH  14  17
ATOM     17  C   UNL A   1      32.573  24.175  24.943  1.00  0.00     0.178 C 
ATOM     18  C   UNL A   1      32.088  23.671  23.428  1.00  0.00     0.050 C 
ATOM     19  N   UNL A   1      33.547  23.247  25.596  1.00  0.00    -0.362 N 
ATOM     20  C   UNL A   1      32.403  22.183  23.384  1.00  0.00    -0.016 A 
ATOM     21  C   UNL A   1      30.608  23.926  23.188  1.00  0.00     0.015 C 
ATOM     22  C   UNL A   1      33.051  21.981  25.244  1.00  0.00     0.041 A 
ATOM     23  C   UNL A   1      34.939  23.655  25.418  1.00  0.00     0.144 C 
ATOM     24  C   UNL A   1      32.084  20.628  22.236  1.00  0.00     0.045 A 
ATOM     25  C   UNL A   1      33.213  20.099  25.824  1.00  0.00     0.029 A 
ATOM     26  C   UNL A   1      32.273  18.730  22.807  1.00  0.00     0.123 A 
ATOM     27  C   UNL A   1      32.835  18.527  24.691  1.00  0.00     0.041 A 
ATOM     28  F   UNL A   1      31.980  17.698  22.006  1.00  0.00    -0.207 F 
ENDBRANCH  14  17
ENDBRANCH   5  13
ENDBRANCH   3   5
ENDBRANCH   2   3
ENDBRANCH   1   2
BRANCH   1  29
ATOM     29  C   UNL A   1      33.269  31.325  27.493  1.00  0.00     0.275 C 
BRANCH  29  30
ATOM     30  O   UNL A   1      34.549  31.913  27.244  1.00  0.00    -0.458 OA
BRANCH  30  31
ATOM     31  C   UNL A   1      34.913  32.884  28.105  1.00  0.00     0.338 C 
ATOM     32  O   UNL A   1      34.231  33.754  28.609  1.00  0.00    -0.246 OA
BRANCH  31  33
ATOM     33  C   UNL A   1      36.245  32.462  28.516  1.00  0.00     0.060 A 
ATOM     34  C   UNL A   1      36.778  32.228  29.663  1.00  0.00     0.016 A 
ATOM     35  C   UNL A   1      36.550  31.349  29.103  1.00  0.00     0.016 A 
ATOM     36  C   UNL A   1      38.295  31.217  30.555  1.00  0.00     0.010 A 
ATOM     37  C   UNL A   1      38.014  30.353  30.091  1.00  0.00     0.010 A 
ATOM     38  C   UNL A   1      39.254  30.362  30.437  1.00  0.00    -0.014 A 
BRANCH  38  39
ATOM     39  C   UNL A   1      40.154  29.341  29.899  1.00  0.00     0.031 A 
ATOM     40  C   UNL A   1      40.651  28.794  31.168  1.00  0.00     0.074 A 
ATOM     41  C   UNL A   1      40.629  28.704  28.776  1.00  0.00     0.049 A 
ATOM     42  N   UNL A   1      41.686  29.295  31.740  1.00  0.00    -0.248 NA
ATOM     43  C   UNL A   1      39.771  28.006  32.046  1.00  0.00     0.031 C 
ATOM     44  C   UNL A   1      40.282  28.742  27.340  1.00  0.00     0.029 A 
ATOM     45  N   UNL A   1      41.613  27.721  28.747  1.00  0.00    -0.354 N 
ATOM     46  C   UNL A   1      41.685  28.771  33.004  1.00  0.00     0.074 A 
ATOM     47  C   UNL A   1      40.388  28.182  33.215  1.00  0.00     0.031 C 
ATOM     48  C   UNL A   1      40.866  27.726  26.652  1.00  0.00     0.029 A 
ATOM     49  C   UNL A   1      41.783  27.043  27.530  1.00  0.00     0.049 A 
ATOM     50  H   UNL A   1      42.160  27.512  29.538  1.00  0.00     0.167 HD
ATOM     51  C   UNL A   1      42.865  28.646  33.648  1.00  0.00     0.037 A 
ATOM     52  C   UNL A   1      42.697  26.086  27.207  1.00  0.00     0.037 A 
ATOM     53  C   UNL A   1      43.898  29.439  33.011  1.00  0.00     0.049 A 
ATOM     54  C   UNL A   1      43.856  26.324  28.087  1.00  0.00     0.074 A 
ATOM     55  C   UNL A   1      44.020  30.792  32.732  1.00  0.00     0.029 A 
ATOM     56  N   UNL A   1      44.719  28.801  32.109  1.00  0.00    -0.354 N 
ATOM     57  N   UNL A   1      44.629  27.365  27.994  1.00  0.00    -0.248 NA
ATOM     58  C   UNL A   1      43.900  25.608  29.347  1.00  0.00     0.031 C 
ATOM     59  C   UNL A   1      44.561  30.867  31.412  1.00  0.00     0.029 A 
ATOM     60  C   UNL A   1      44.819  29.570  30.973  1.00  0.00     0.049 A 
ATOM     61  H   UNL A   1      45.162  27.934  32.255  1.00  0.00     0.167 HD
ATOM     62  C   UNL A   1      44.857  27.723  29.310  1.00  0.00     0.074 A 
ATOM     63  C   UNL A   1      44.486  26.545  30.093  1.00  0.00     0.031 C 
ATOM     64  C   UNL A   1      45.046  29.031  29.649  1.00  0.00     0.037 A 
BRANCH  51  65
ATOM     65  C   UNL A   1      43.098  27.504  34.573  1.00  0.00     0.064 A 
ATOM     66  C   UNL A   1      43.236  27.748  35.941  1.00  0.00     0.173 A 
ATOM     67  C   UNL A   1      43.405  26.196  34.131  1.00  0.00     0.173 A 
ATOM     68  F   UNL A   1      43.022  28.975  36.437  1.00  0.00    -0.203 F 
ATOM     69  C   UNL A   1      43.664  26.746  36.810  1.00  0.00     0.198 A 
ATOM     70  C   UNL A   1      43.761  25.182  35.008  1.00  0.00     0.198 A 
ATOM     71  F   UNL A   1      43.482  25.878  32.831  1.00  0.00    -0.203 F 
ATOM     72  F   UNL A   1      43.886  27.039  38.097  1.00  0.00    -0.200 F 
ATOM     73  C   UNL A   1      43.914  25.463  36.346  1.00  0.00     0.200 A 
ATOM     74  F   UNL A   1      44.023  23.958  34.528  1.00  0.00    -0.200 F 
ATOM     75  F   UNL A   1      44.356  24.512  37.177  1.00  0.00    -0.200 F 
ENDBRANCH  51  65
BRANCH  52  76
ATOM     76  C   UNL A   1      42.617  24.836  26.395  1.00  0.00     0.064 A 
ATOM     77  C   UNL A   1      43.473  24.637  25.288  1.00  0.00     0.173 A 
ATOM     78  C   UNL A   1      41.991  23.682  26.897  1.00  0.00     0.173 A 
ATOM     79  F   UNL A   1      44.144  25.671  24.758  1.00  0.00    -0.203 F 
ATOM     80  C   UNL A   1      43.736  23.363  24.766  1.00  0.00     0.198 A 
ATOM     81  C   UNL A   1      42.247  22.409  26.368  1.00  0.00     0.198 A 
ATOM     82  F   UNL A   1      41.214  23.755  27.988  1.00  0.00    -0.203 F 
ATOM     83  F   UNL A   1      44.633  23.214  23.780  1.00  0.00    -0.200 F 
ATOM     84  C   UNL A   1      43.137  22.247  25.320  1.00  0.00     0.200 A 
ATOM     85  F   UNL A   1      41.694  21.329  26.937  1.00  0.00    -0.200 F 
ATOM     86  F   UNL A   1      43.454  21.019  24.883  1.00  0.00    -0.200 F 
ENDBRANCH  52  76
BRANCH  64  87
ATOM     87  C   UNL A   1      45.333  30.007  28.529  1.00  0.00     0.064 A 
ATOM     88  C   UNL A   1      44.361  30.701  27.782  1.00  0.00     0.173 A 
ATOM     89  C   UNL A   1      46.673  30.322  28.267  1.00  0.00     0.173 A 
ATOM     90  F   UNL A   1      43.054  30.524  28.007  1.00  0.00    -0.203 F 
ATOM     91  C   UNL A   1      44.719  31.634  26.805  1.00  0.00     0.198 A 
ATOM     92  C   UNL A   1      47.028  31.279  27.319  1.00  0.00     0.198 A 
ATOM     93  F   UNL A   1      47.650  29.718  28.961  1.00  0.00    -0.203 F 
ATOM     94  F   UNL A   1      43.771  32.269  26.097  1.00  0.00    -0.200 F 
ATOM     95  C   UNL A   1      46.052  31.930  26.583  1.00  0.00     0.200 A 
ATOM     96  F   UNL A   1      48.319  31.586  27.136  1.00  0.00    -0.200 F 
ATOM     97  F   UNL A   1      46.398  32.853  25.674  1.00  0.00    -0.200 F 
ENDBRANCH  64  87
ENDBRANCH  38  39
ENDBRANCH  31  33
ENDBRANCH  30  31
ENDBRANCH  29  30
ENDBRANCH   1  29
TORSDOF 14
ENDMDL
MODEL 3
REMARK VINA RESULT:     -13.6      1.374      2.110
REMARK SMILES CC1=C([C@H](NC(=O)[C@@H]2[C@H](C)c3cc(F)ccc3N2C)C(=O)OCCOC(=O)c2ccc(-c3c4nc(c(-c5c(F)c(F)c(F)c(F)c5F)c5ccc([nH]5)c(-c5c(F)c(F)c(F)c(F)c5F)c5nc(c(-c6c(F)c(F)c(F)c(F)c6F)c6ccc3[nH]6)C=C5)C=C4)cc2)[C@@H](C)N=N1
REMARK SMILES IDX 23 1 22 2 20 3 21 4 4 5 3 6 1 7 2 8 94 9 91 10 93 11 92 12
REMARK SMILES IDX 5 13 6 14 7 16 8 17 9 18 18 19 11 20 10 21 17 22 19 23 12 24
REMARK SMILES IDX 16 25 13 26 15 27 14 28 24 29 25 30 26 31 27 32 28 33 29 34
REMARK SMILES IDX 90 35 30 36 89 37 31 38 32 39 33 40 83 41 34 42 88 43 82 44
REMARK SMILES IDX 84 45 35 46 87 47 81 48 80 49 36 51 68 52 48 53 67 54 49 55
REMARK SMILES IDX 52 56 66 57 85 58 50 59 51 60 65 62 86 63 53 64 37 65 38 66
REMARK SMILES IDX 46 67 39 68 40 69 44 70 47 71 41 72 42 73 45 74 43 75 69 76
REMARK SMILES IDX 70 77 78 78 71 79 72 80 76 81 79 82 73 83 74 84 77 85 75 86
REMARK SMILES IDX 54 87 55 88 63 89 56 90 57 91 61 92 64 93 58 94 59 95 62 96
REMARK SMILES IDX 60 97
REMARK H PARENT 5 15 84 50 52 61
REMARK Flexibility Score: inf
ROOT
ATOM      1  C   UNL A   1      36.308  22.044  24.687  1.00  0.00     0.274 C 
ENDROOT
BRANCH   1   2
ATOM      2  O   UNL A   1      35.311  20.987  24.627  1.00  0.00    -0.460 OA
BRANCH   2   3
ATOM      3  C   UNL A   1      34.450  20.982  25.681  1.00  0.00     0.333 C 
ATOM      4  O   UNL A   1      34.779  21.370  26.798  1.00  0.00    -0.249 OA
BRANCH   3   5
ATOM      5  C   UNL A   1      33.072  20.319  25.413  1.00  0.00     0.223 C 
BRANCH   5   6
ATOM      6  C   UNL A   1      33.062  19.336  24.273  1.00  0.00     0.012 C 
ATOM      7  C   UNL A   1      31.912  20.635  22.367  1.00  0.00     0.069 C 
ATOM      8  C   UNL A   1      32.537  19.464  23.042  1.00  0.00     0.064 C 
ATOM      9  N   UNL A   1      32.533  18.286  22.340  1.00  0.00    -0.160 NA
ATOM     10  C   UNL A   1      33.355  17.863  24.395  1.00  0.00     0.156 C 
ATOM     11  N   UNL A   1      33.006  17.358  23.039  1.00  0.00    -0.181 NA
ATOM     12  C   UNL A   1      32.529  17.026  25.377  1.00  0.00     0.040 C 
ENDBRANCH   5   6
BRANCH   5  13
ATOM     13  N   UNL A   1      31.904  21.233  25.442  1.00  0.00    -0.337 N 
ATOM     14  C   UNL A   1      31.691  22.522  24.967  1.00  0.00     0.244 C 
ATOM     15  H   UNL A   1      31.116  20.846  25.889  1.00  0.00     0.164 HD
ATOM     16  O   UNL A   1      30.524  22.935  25.007  1.00  0.00    -0.273 OA
BRANCH  14  17
ATOM     17  C   UNL A   1      32.834  23.532  24.534  1.00  0.00     0.178 C 
ATOM     18  C   UNL A   1      33.551  24.580  25.616  1.00  0.00     0.050 C 
ATOM     19  N   UNL A   1      32.373  24.197  23.276  1.00  0.00    -0.362 N 
ATOM     20  C   UNL A   1      33.074  25.965  25.203  1.00  0.00    -0.016 A 
ATOM     21  C   UNL A   1      33.164  24.273  27.053  1.00  0.00     0.015 C 
ATOM     22  C   UNL A   1      31.856  25.417  23.744  1.00  0.00     0.041 A 
ATOM     23  C   UNL A   1      33.334  24.086  22.181  1.00  0.00     0.144 C 
ATOM     24  C   UNL A   1      33.124  27.812  25.857  1.00  0.00     0.045 A 
ATOM     25  C   UNL A   1      30.654  26.862  23.131  1.00  0.00     0.029 A 
ATOM     26  C   UNL A   1      31.935  29.278  25.224  1.00  0.00     0.123 A 
ATOM     27  C   UNL A   1      30.657  28.708  23.828  1.00  0.00     0.041 A 
ATOM     28  F   UNL A   1      31.960  30.511  25.748  1.00  0.00    -0.207 F 
ENDBRANCH  14  17
ENDBRANCH   5  13
ENDBRANCH   3   5
ENDBRANCH   2   3
ENDBRANCH   1   2
BRANCH   1  29
ATOM     29  C   UNL A   1      37.726  21.512  24.915  1.00  0.00     0.275 C 
BRANCH  29  30
ATOM     30  O   UNL A   1      38.339  22.278  25.956  1.00  0.00    -0.458 OA
BRANCH  30  31
ATOM     31  C   UNL A   1      39.493  21.775  26.438  1.00  0.00     0.338 C 
ATOM     32  O   UNL A   1      40.058  20.740  26.143  1.00  0.00    -0.246 OA
BRANCH  31  33
ATOM     33  C   UNL A   1      40.050  22.903  27.172  1.00  0.00     0.060 A 
ATOM     34  C   UNL A   1      41.068  23.664  26.974  1.00  0.00     0.016 A 
ATOM     35  C   UNL A   1      40.132  24.125  26.753  1.00  0.00     0.016 A 
ATOM     36  C   UNL A   1      41.819  25.494  27.424  1.00  0.00     0.010 A 
ATOM     37  C   UNL A   1      40.954  25.942  27.120  1.00  0.00     0.010 A 
ATOM     38  C   UNL A   1      41.624  26.652  27.961  1.00  0.00    -0.014 A 
BRANCH  38  39
ATOM     39  C   UNL A   1      40.983  27.806  28.592  1.00  0.00     0.031 A 
ATOM     40  C   UNL A   1      41.857  28.861  28.062  1.00  0.00     0.074 A 
ATOM     41  C   UNL A   1      39.940  28.262  29.365  1.00  0.00     0.049 A 
ATOM     42  N   UNL A   1      42.923  29.208  28.687  1.00  0.00    -0.248 NA
ATOM     43  C   UNL A   1      41.821  29.224  26.635  1.00  0.00     0.031 C 
ATOM     44  C   UNL A   1      38.722  27.643  29.929  1.00  0.00     0.029 A 
ATOM     45  N   UNL A   1      39.744  29.574  29.785  1.00  0.00    -0.354 N 
ATOM     46  C   UNL A   1      43.631  29.964  27.794  1.00  0.00     0.074 A 
ATOM     47  C   UNL A   1      43.038  29.753  26.498  1.00  0.00     0.031 C 
ATOM     48  C   UNL A   1      37.858  28.575  30.409  1.00  0.00     0.029 A 
ATOM     49  C   UNL A   1      38.501  29.864  30.369  1.00  0.00     0.049 A 
ATOM     50  H   UNL A   1      40.440  30.261  29.678  1.00  0.00     0.167 HD
ATOM     51  C   UNL A   1      44.477  30.901  28.274  1.00  0.00     0.037 A 
ATOM     52  C   UNL A   1      38.066  31.036  30.911  1.00  0.00     0.037 A 
ATOM     53  C   UNL A   1      44.755  30.687  29.680  1.00  0.00     0.049 A 
ATOM     54  C   UNL A   1      39.278  31.743  31.366  1.00  0.00     0.074 A 
ATOM     55  C   UNL A   1      45.288  29.622  30.391  1.00  0.00     0.029 A 
ATOM     56  N   UNL A   1      44.004  31.398  30.588  1.00  0.00    -0.354 N 
ATOM     57  N   UNL A   1      40.019  31.338  32.355  1.00  0.00    -0.248 NA
ATOM     58  C   UNL A   1      39.899  32.671  30.443  1.00  0.00     0.031 C 
ATOM     59  C   UNL A   1      44.488  29.505  31.569  1.00  0.00     0.029 A 
ATOM     60  C   UNL A   1      43.557  30.542  31.568  1.00  0.00     0.049 A 
ATOM     61  H   UNL A   1      43.817  32.363  30.543  1.00  0.00     0.167 HD
ATOM     62  C   UNL A   1      41.310  31.547  31.905  1.00  0.00     0.074 A 
ATOM     63  C   UNL A   1      41.173  32.474  30.782  1.00  0.00     0.031 C 
ATOM     64  C   UNL A   1      42.323  30.726  32.302  1.00  0.00     0.037 A 
BRANCH  51  65
ATOM     65  C   UNL A   1      44.680  32.177  27.536  1.00  0.00     0.064 A 
ATOM     66  C   UNL A   1      45.874  32.384  26.841  1.00  0.00     0.173 A 
ATOM     67  C   UNL A   1      43.824  33.296  27.669  1.00  0.00     0.173 A 
ATOM     68  F   UNL A   1      46.769  31.393  26.720  1.00  0.00    -0.203 F 
ATOM     69  C   UNL A   1      46.193  33.636  26.320  1.00  0.00     0.198 A 
ATOM     70  C   UNL A   1      44.112  34.521  27.087  1.00  0.00     0.198 A 
ATOM     71  F   UNL A   1      42.739  33.279  28.454  1.00  0.00    -0.203 F 
ATOM     72  F   UNL A   1      47.390  33.828  25.750  1.00  0.00    -0.200 F 
ATOM     73  C   UNL A   1      45.309  34.698  26.432  1.00  0.00     0.200 A 
ATOM     74  F   UNL A   1      43.252  35.538  27.234  1.00  0.00    -0.200 F 
ATOM     75  F   UNL A   1      45.633  35.908  25.958  1.00  0.00    -0.200 F 
ENDBRANCH  51  65
BRANCH  52  76
ATOM     76  C   UNL A   1      36.753  31.744  30.882  1.00  0.00     0.064 A 
ATOM     77  C   UNL A   1      36.010  31.938  32.069  1.00  0.00     0.173 A 
ATOM     78  C   UNL A   1      36.389  32.556  29.795  1.00  0.00     0.173 A 
ATOM     79  F   UNL A   1      36.305  31.235  33.173  1.00  0.00    -0.203 F 
ATOM     80  C   UNL A   1      35.021  32.925  32.179  1.00  0.00     0.198 A 
ATOM     81  C   UNL A   1      35.392  33.537  29.903  1.00  0.00     0.198 A 
ATOM     82  F   UNL A   1      37.077  32.496  28.646  1.00  0.00    -0.203 F 
ATOM     83  F   UNL A   1      34.414  33.139  33.356  1.00  0.00    -0.200 F 
ATOM     84  C   UNL A   1      34.726  33.737  31.100  1.00  0.00     0.200 A 
ATOM     85  F   UNL A   1      35.141  34.346  28.864  1.00  0.00    -0.200 F 
ATOM     86  F   UNL A   1      33.845  34.741  31.227  1.00  0.00    -0.200 F 
ENDBRANCH  52  76
BRANCH  64  87
ATOM     87  C   UNL A   1      42.062  29.817  33.483  1.00  0.00     0.064 A 
ATOM     88  C   UNL A   1      41.685  28.462  33.404  1.00  0.00     0.173 A 
ATOM     89  C   UNL A   1      42.301  30.330  34.765  1.00  0.00     0.173 A 
ATOM     90  F   UNL A   1      41.504  27.860  32.223  1.00  0.00    -0.203 F 
ATOM     91  C   UNL A   1      41.526  27.679  34.550  1.00  0.00     0.198 A 
ATOM     92  C   UNL A   1      42.178  29.540  35.905  1.00  0.00     0.198 A 
ATOM     93  F   UNL A   1      42.689  31.607  34.913  1.00  0.00    -0.203 F 
ATOM     94  F   UNL A   1      41.150  26.395  34.445  1.00  0.00    -0.200 F 
ATOM     95  C   UNL A   1      41.783  28.216  35.799  1.00  0.00     0.200 A 
ATOM     96  F   UNL A   1      42.464  30.057  37.107  1.00  0.00    -0.200 F 
ATOM     97  F   UNL A   1      41.670  27.457  36.899  1.00  0.00    -0.200 F 
ENDBRANCH  64  87
ENDBRANCH  38  39
ENDBRANCH  31  33
ENDBRANCH  30  31
ENDBRANCH  29  30
ENDBRANCH   1  29
TORSDOF 14
ENDMDL
