MODEL 1
REMARK VINA RESULT:     -10.9      0.000      0.000
REMARK SMILES CN(CC(C)(C)C)C(=O)N1CCO[C@@H](CC(=O)OCCOC(=O)c2ccc(-c3c4nc(c(-c5c(F)c(F)c(F)c(F)c5F)c5ccc([nH]5)c(-c5c(F)c(F)c(F)c(F)c5F)c5nc(c(-c6c(F)c(F)c(F)c(F)c6F)c6ccc3[nH]6)C=C5)C=C4)cc2)C1
REMARK SMILES IDX 18 1 16 2 17 3 15 4 14 5 10 6 11 7 87 8 12 9 13 10 8 11 9 12
REMARK SMILES IDX 2 13 1 14 3 15 4 16 5 17 6 18 7 19 19 20 20 21 21 22 22 23
REMARK SMILES IDX 23 24 24 25 25 26 86 27 26 28 85 29 27 30 28 31 29 32 79 33
REMARK SMILES IDX 30 34 84 35 78 36 80 37 31 38 83 39 77 40 76 41 32 43 64 44
REMARK SMILES IDX 44 45 63 46 45 47 48 48 62 49 81 50 46 51 47 52 61 54 82 55
REMARK SMILES IDX 49 56 33 57 34 58 42 59 35 60 36 61 40 62 43 63 37 64 38 65
REMARK SMILES IDX 41 66 39 67 65 68 66 69 74 70 67 71 68 72 72 73 75 74 69 75
REMARK SMILES IDX 70 76 73 77 71 78 50 79 51 80 59 81 52 82 53 83 57 84 60 85
REMARK SMILES IDX 54 86 55 87 58 88 56 89
REMARK H PARENT 80 42 48 53
REMARK Flexibility Score: inf
ROOT
ATOM      1  O   UNL A   1      30.233  29.050  24.063  1.00  0.00    -0.462 OA
ENDROOT
BRANCH   1   2
ATOM      2  C   UNL A   1      30.012  28.051  23.173  1.00  0.00     0.308 C 
ATOM      3  O   UNL A   1      30.333  28.071  21.993  1.00  0.00    -0.252 OA
BRANCH   2   4
ATOM      4  C   UNL A   1      29.303  26.892  23.822  1.00  0.00     0.156 C 
BRANCH   4   5
ATOM      5  C   UNL A   1      30.270  25.900  24.468  1.00  0.00     0.149 C 
ATOM      6  N   UNL A   1      32.633  24.996  24.353  1.00  0.00    -0.320 N 
ATOM      7  C   UNL A   1      32.762  25.407  25.755  1.00  0.00     0.150 C 
ATOM      8  C   UNL A   1      31.572  25.749  23.661  1.00  0.00     0.154 C 
ATOM      9  C   UNL A   1      31.412  25.451  26.472  1.00  0.00     0.182 C 
ATOM     10  O   UNL A   1      30.530  26.362  25.807  1.00  0.00    -0.374 OA
BRANCH   6  11
ATOM     11  C   UNL A   1      33.498  24.321  23.511  1.00  0.00     0.319 C 
ATOM     12  O   UNL A   1      34.029  24.947  22.581  1.00  0.00    -0.248 OA
BRANCH  11  13
ATOM     13  N   UNL A   1      33.834  22.990  23.662  1.00  0.00    -0.327 N 
ATOM     14  C   UNL A   1      32.687  22.083  23.735  1.00  0.00     0.148 C 
BRANCH  13  15
ATOM     15  C   UNL A   1      35.138  22.340  23.768  1.00  0.00     0.127 C 
BRANCH  15  16
ATOM     16  C   UNL A   1      35.838  22.435  25.163  1.00  0.00    -0.020 C 
ATOM     17  C   UNL A   1      34.875  22.451  26.372  1.00  0.00     0.012 C 
ATOM     18  C   UNL A   1      36.779  21.220  25.302  1.00  0.00     0.012 C 
ATOM     19  C   UNL A   1      36.710  23.706  25.235  1.00  0.00     0.012 C 
ENDBRANCH  15  16
ENDBRANCH  13  15
ENDBRANCH  11  13
ENDBRANCH   6  11
ENDBRANCH   4   5
ENDBRANCH   2   4
ENDBRANCH   1   2
BRANCH   1  20
ATOM     20  C   UNL A   1      31.602  29.366  24.373  1.00  0.00     0.274 C 
BRANCH  20  21
ATOM     21  C   UNL A   1      31.694  30.206  25.650  1.00  0.00     0.275 C 
BRANCH  21  22
ATOM     22  O   UNL A   1      33.040  30.196  26.165  1.00  0.00    -0.458 OA
BRANCH  22  23
ATOM     23  C   UNL A   1      33.368  31.226  26.978  1.00  0.00     0.338 C 
ATOM     24  O   UNL A   1      32.711  32.220  27.225  1.00  0.00    -0.246 OA
BRANCH  23  25
ATOM     25  C   UNL A   1      34.637  30.927  27.657  1.00  0.00     0.060 A 
ATOM     26  C   UNL A   1      34.895  29.610  28.048  1.00  0.00     0.016 A 
ATOM     27  C   UNL A   1      35.525  31.953  27.984  1.00  0.00     0.016 A 
ATOM     28  C   UNL A   1      36.035  29.311  28.786  1.00  0.00     0.010 A 
ATOM     29  C   UNL A   1      36.680  31.648  28.709  1.00  0.00     0.010 A 
ATOM     30  C   UNL A   1      36.934  30.328  29.125  1.00  0.00    -0.014 A 
BRANCH  30  31
ATOM     31  C   UNL A   1      38.122  30.010  29.947  1.00  0.00     0.031 A 
ATOM     32  C   UNL A   1      39.194  29.117  29.398  1.00  0.00     0.074 A 
ATOM     33  C   UNL A   1      38.242  30.539  31.177  1.00  0.00     0.049 A 
ATOM     34  N   UNL A   1      40.271  28.658  29.982  1.00  0.00    -0.248 NA
ATOM     35  C   UNL A   1      39.029  28.679  28.004  1.00  0.00     0.031 C 
ATOM     36  C   UNL A   1      37.289  31.460  31.795  1.00  0.00     0.029 A 
ATOM     37  N   UNL A   1      39.218  30.377  32.127  1.00  0.00    -0.354 N 
ATOM     38  C   UNL A   1      40.902  27.861  29.037  1.00  0.00     0.074 A 
ATOM     39  C   UNL A   1      40.078  27.884  27.846  1.00  0.00     0.031 C 
ATOM     40  C   UNL A   1      37.729  31.788  33.019  1.00  0.00     0.029 A 
ATOM     41  C   UNL A   1      38.968  31.062  33.288  1.00  0.00     0.049 A 
ATOM     42  H   UNL A   1      40.020  29.822  31.989  1.00  0.00     0.167 HD
ATOM     43  C   UNL A   1      42.064  27.175  29.156  1.00  0.00     0.037 A 
ATOM     44  C   UNL A   1      39.650  31.081  34.449  1.00  0.00     0.037 A 
ATOM     45  C   UNL A   1      42.884  27.168  30.340  1.00  0.00     0.049 A 
ATOM     46  C   UNL A   1      40.900  30.256  34.579  1.00  0.00     0.074 A 
ATOM     47  C   UNL A   1      44.091  26.527  30.552  1.00  0.00     0.029 A 
ATOM     48  N   UNL A   1      42.574  27.835  31.517  1.00  0.00    -0.354 N 
ATOM     49  N   UNL A   1      41.492  29.504  33.683  1.00  0.00    -0.248 NA
ATOM     50  C   UNL A   1      41.571  30.276  35.885  1.00  0.00     0.031 C 
ATOM     51  C   UNL A   1      44.490  26.768  31.872  1.00  0.00     0.029 A 
ATOM     52  C   UNL A   1      43.553  27.598  32.469  1.00  0.00     0.049 A 
ATOM     53  H   UNL A   1      41.775  28.394  31.656  1.00  0.00     0.167 HD
ATOM     54  C   UNL A   1      42.612  28.976  34.308  1.00  0.00     0.074 A 
ATOM     55  C   UNL A   1      42.625  29.504  35.657  1.00  0.00     0.031 C 
ATOM     56  C   UNL A   1      43.547  28.130  33.808  1.00  0.00     0.037 A 
BRANCH  43  57
ATOM     57  C   UNL A   1      42.491  26.343  27.983  1.00  0.00     0.064 A 
ATOM     58  C   UNL A   1      43.388  26.826  27.020  1.00  0.00     0.173 A 
ATOM     59  C   UNL A   1      41.998  25.038  27.827  1.00  0.00     0.173 A 
ATOM     60  F   UNL A   1      43.876  28.071  27.116  1.00  0.00    -0.203 F 
ATOM     61  C   UNL A   1      43.751  26.045  25.924  1.00  0.00     0.198 A 
ATOM     62  C   UNL A   1      42.384  24.251  26.744  1.00  0.00     0.198 A 
ATOM     63  F   UNL A   1      41.141  24.527  28.722  1.00  0.00    -0.203 F 
ATOM     64  F   UNL A   1      44.567  26.547  24.987  1.00  0.00    -0.200 F 
ATOM     65  C   UNL A   1      43.252  24.758  25.789  1.00  0.00     0.200 A 
ATOM     66  F   UNL A   1      41.907  23.005  26.621  1.00  0.00    -0.200 F 
ATOM     67  F   UNL A   1      43.599  24.010  24.734  1.00  0.00    -0.200 F 
ENDBRANCH  43  57
BRANCH  44  68
ATOM     68  C   UNL A   1      39.155  31.908  35.577  1.00  0.00     0.064 A 
ATOM     69  C   UNL A   1      38.316  31.358  36.555  1.00  0.00     0.173 A 
ATOM     70  C   UNL A   1      39.525  33.254  35.712  1.00  0.00     0.173 A 
ATOM     71  F   UNL A   1      37.916  30.082  36.453  1.00  0.00    -0.203 F 
ATOM     72  C   UNL A   1      37.861  32.126  37.624  1.00  0.00     0.198 A 
ATOM     73  C   UNL A   1      39.089  34.015  36.795  1.00  0.00     0.198 A 
ATOM     74  F   UNL A   1      40.324  33.826  34.799  1.00  0.00    -0.203 F 
ATOM     75  F   UNL A   1      37.034  31.586  38.530  1.00  0.00    -0.200 F 
ATOM     76  C   UNL A   1      38.254  33.450  37.747  1.00  0.00     0.200 A 
ATOM     77  F   UNL A   1      39.478  35.290  36.914  1.00  0.00    -0.200 F 
ATOM     78  F   UNL A   1      37.824  34.186  38.781  1.00  0.00    -0.200 F 
ENDBRANCH  44  68
BRANCH  56  79
ATOM     79  C   UNL A   1      44.676  27.744  34.719  1.00  0.00     0.064 A 
ATOM     80  C   UNL A   1      45.843  28.514  34.808  1.00  0.00     0.173 A 
ATOM     81  C   UNL A   1      44.573  26.607  35.534  1.00  0.00     0.173 A 
ATOM     82  F   UNL A   1      45.996  29.601  34.035  1.00  0.00    -0.203 F 
ATOM     83  C   UNL A   1      46.877  28.148  35.665  1.00  0.00     0.198 A 
ATOM     84  C   UNL A   1      45.597  26.258  36.410  1.00  0.00     0.198 A 
ATOM     85  F   UNL A   1      43.474  25.839  35.489  1.00  0.00    -0.203 F 
ATOM     86  F   UNL A   1      48.003  28.875  35.703  1.00  0.00    -0.200 F 
ATOM     87  C   UNL A   1      46.751  27.026  36.471  1.00  0.00     0.200 A 
ATOM     88  F   UNL A   1      45.469  25.180  37.194  1.00  0.00    -0.200 F 
ATOM     89  F   UNL A   1      47.745  26.678  37.299  1.00  0.00    -0.200 F 
ENDBRANCH  56  79
ENDBRANCH  30  31
ENDBRANCH  23  25
ENDBRANCH  22  23
ENDBRANCH  21  22
ENDBRANCH  20  21
ENDBRANCH   1  20
TORSDOF 16
ENDMDL
MODEL 2
REMARK VINA RESULT:     -10.8      4.334      9.744
REMARK SMILES CN(CC(C)(C)C)C(=O)N1CCO[C@@H](CC(=O)OCCOC(=O)c2ccc(-c3c4nc(c(-c5c(F)c(F)c(F)c(F)c5F)c5ccc([nH]5)c(-c5c(F)c(F)c(F)c(F)c5F)c5nc(c(-c6c(F)c(F)c(F)c(F)c6F)c6ccc3[nH]6)C=C5)C=C4)cc2)C1
REMARK SMILES IDX 18 1 16 2 17 3 15 4 14 5 10 6 11 7 87 8 12 9 13 10 8 11 9 12
REMARK SMILES IDX 2 13 1 14 3 15 4 16 5 17 6 18 7 19 19 20 20 21 21 22 22 23
REMARK SMILES IDX 23 24 24 25 25 26 86 27 26 28 85 29 27 30 28 31 29 32 79 33
REMARK SMILES IDX 30 34 84 35 78 36 80 37 31 38 83 39 77 40 76 41 32 43 64 44
REMARK SMILES IDX 44 45 63 46 45 47 48 48 62 49 81 50 46 51 47 52 61 54 82 55
REMARK SMILES IDX 49 56 33 57 34 58 42 59 35 60 36 61 40 62 43 63 37 64 38 65
REMARK SMILES IDX 41 66 39 67 65 68 66 69 74 70 67 71 68 72 72 73 75 74 69 75
REMARK SMILES IDX 70 76 73 77 71 78 50 79 51 80 59 81 52 82 53 83 57 84 60 85
REMARK SMILES IDX 54 86 55 87 58 88 56 89
REMARK H PARENT 80 42 48 53
REMARK Flexibility Score: inf
ROOT
ATOM      1  O   UNL A   1      34.462  20.529  25.711  1.00  0.00    -0.462 OA
ENDROOT
BRANCH   1   2
ATOM      2  C   UNL A   1      33.369  19.867  25.259  1.00  0.00     0.308 C 
ATOM      3  O   UNL A   1      33.201  18.657  25.314  1.00  0.00    -0.252 OA
BRANCH   2   4
ATOM      4  C   UNL A   1      32.367  20.819  24.659  1.00  0.00     0.156 C 
BRANCH   4   5
ATOM      5  C   UNL A   1      32.066  22.006  25.572  1.00  0.00     0.149 C 
ATOM      6  N   UNL A   1      31.975  24.536  25.653  1.00  0.00    -0.320 N 
ATOM      7  C   UNL A   1      30.578  24.382  26.073  1.00  0.00     0.150 C 
ATOM      8  C   UNL A   1      32.458  23.348  24.928  1.00  0.00     0.154 C 
ATOM      9  C   UNL A   1      30.325  23.042  26.765  1.00  0.00     0.182 C 
ATOM     10  O   UNL A   1      30.660  21.963  25.885  1.00  0.00    -0.374 OA
BRANCH   6  11
ATOM     11  C   UNL A   1      32.773  25.656  25.513  1.00  0.00     0.319 C 
ATOM     12  O   UNL A   1      33.888  25.661  26.058  1.00  0.00    -0.248 OA
BRANCH  11  13
ATOM     13  N   UNL A   1      32.417  26.766  24.771  1.00  0.00    -0.327 N 
ATOM     14  C   UNL A   1      33.038  26.831  23.448  1.00  0.00     0.148 C 
BRANCH  13  15
ATOM     15  C   UNL A   1      31.532  27.884  25.090  1.00  0.00     0.127 C 
BRANCH  15  16
ATOM     16  C   UNL A   1      32.116  28.963  26.059  1.00  0.00    -0.020 C 
ATOM     17  C   UNL A   1      33.656  29.091  26.036  1.00  0.00     0.012 C 
ATOM     18  C   UNL A   1      31.504  30.325  25.671  1.00  0.00     0.012 C 
ATOM     19  C   UNL A   1      31.687  28.661  27.510  1.00  0.00     0.012 C 
ENDBRANCH  15  16
ENDBRANCH  13  15
ENDBRANCH  11  13
ENDBRANCH   6  11
ENDBRANCH   4   5
ENDBRANCH   2   4
ENDBRANCH   1   2
BRANCH   1  20
ATOM     20  C   UNL A   1      35.365  21.064  24.725  1.00  0.00     0.274 C 
BRANCH  20  21
ATOM     21  C   UNL A   1      36.807  20.643  25.018  1.00  0.00     0.275 C 
BRANCH  21  22
ATOM     22  O   UNL A   1      37.493  21.672  25.757  1.00  0.00    -0.458 OA
BRANCH  22  23
ATOM     23  C   UNL A   1      38.787  21.419  26.059  1.00  0.00     0.338 C 
ATOM     24  O   UNL A   1      39.406  20.386  25.885  1.00  0.00    -0.246 OA
BRANCH  23  25
ATOM     25  C   UNL A   1      39.425  22.651  26.546  1.00  0.00     0.060 A 
ATOM     26  C   UNL A   1      39.039  23.872  25.986  1.00  0.00     0.016 A 
ATOM     27  C   UNL A   1      40.458  22.592  27.482  1.00  0.00     0.016 A 
ATOM     28  C   UNL A   1      39.695  25.044  26.345  1.00  0.00     0.010 A 
ATOM     29  C   UNL A   1      41.105  23.773  27.856  1.00  0.00     0.010 A 
ATOM     30  C   UNL A   1      40.736  25.003  27.281  1.00  0.00    -0.014 A 
BRANCH  30  31
ATOM     31  C   UNL A   1      41.459  26.247  27.626  1.00  0.00     0.031 A 
ATOM     32  C   UNL A   1      40.770  27.317  28.417  1.00  0.00     0.074 A 
ATOM     33  C   UNL A   1      42.738  26.401  27.242  1.00  0.00     0.049 A 
ATOM     34  N   UNL A   1      41.201  28.505  28.756  1.00  0.00    -0.248 NA
ATOM     35  C   UNL A   1      39.411  27.010  28.888  1.00  0.00     0.031 C 
ATOM     36  C   UNL A   1      43.526  25.407  26.514  1.00  0.00     0.029 A 
ATOM     37  N   UNL A   1      43.600  27.454  27.412  1.00  0.00    -0.354 N 
ATOM     38  C   UNL A   1      40.161  29.097  29.460  1.00  0.00     0.074 A 
ATOM     39  C   UNL A   1      39.071  28.143  29.486  1.00  0.00     0.031 C 
ATOM     40  C   UNL A   1      44.758  25.895  26.305  1.00  0.00     0.029 A 
ATOM     41  C   UNL A   1      44.829  27.252  26.840  1.00  0.00     0.049 A 
ATOM     42  H   UNL A   1      43.358  28.277  27.898  1.00  0.00     0.167 HD
ATOM     43  C   UNL A   1      40.124  30.323  30.033  1.00  0.00     0.037 A 
ATOM     44  C   UNL A   1      45.887  28.079  26.739  1.00  0.00     0.037 A 
ATOM     45  C   UNL A   1      41.217  31.260  30.015  1.00  0.00     0.049 A 
ATOM     46  C   UNL A   1      45.795  29.462  27.323  1.00  0.00     0.074 A 
ATOM     47  C   UNL A   1      41.289  32.517  30.588  1.00  0.00     0.029 A 
ATOM     48  N   UNL A   1      42.432  31.040  29.382  1.00  0.00    -0.354 N 
ATOM     49  N   UNL A   1      44.811  30.016  27.987  1.00  0.00    -0.248 NA
ATOM     50  C   UNL A   1      46.960  30.336  27.135  1.00  0.00     0.031 C 
ATOM     51  C   UNL A   1      42.531  33.076  30.264  1.00  0.00     0.029 A 
ATOM     52  C   UNL A   1      43.252  32.150  29.527  1.00  0.00     0.049 A 
ATOM     53  H   UNL A   1      42.678  30.217  28.900  1.00  0.00     0.167 HD
ATOM     54  C   UNL A   1      45.241  31.294  28.312  1.00  0.00     0.074 A 
ATOM     55  C   UNL A   1      46.582  31.429  27.782  1.00  0.00     0.031 C 
ATOM     56  C   UNL A   1      44.583  32.267  28.990  1.00  0.00     0.037 A 
BRANCH  43  57
ATOM     57  C   UNL A   1      38.841  30.733  30.693  1.00  0.00     0.064 A 
ATOM     58  C   UNL A   1      38.649  30.615  32.078  1.00  0.00     0.173 A 
ATOM     59  C   UNL A   1      37.788  31.257  29.926  1.00  0.00     0.173 A 
ATOM     60  F   UNL A   1      39.618  30.106  32.852  1.00  0.00    -0.203 F 
ATOM     61  C   UNL A   1      37.439  30.977  32.666  1.00  0.00     0.198 A 
ATOM     62  C   UNL A   1      36.590  31.641  30.522  1.00  0.00     0.198 A 
ATOM     63  F   UNL A   1      37.921  31.393  28.599  1.00  0.00    -0.203 F 
ATOM     64  F   UNL A   1      37.259  30.805  33.983  1.00  0.00    -0.200 F 
ATOM     65  C   UNL A   1      36.413  31.492  31.889  1.00  0.00     0.200 A 
ATOM     66  F   UNL A   1      35.602  32.148  29.771  1.00  0.00    -0.200 F 
ATOM     67  F   UNL A   1      35.248  31.836  32.456  1.00  0.00    -0.200 F 
ENDBRANCH  43  57
BRANCH  44  68
ATOM     68  C   UNL A   1      47.117  27.617  26.050  1.00  0.00     0.064 A 
ATOM     69  C   UNL A   1      48.186  27.075  26.775  1.00  0.00     0.173 A 
ATOM     70  C   UNL A   1      47.240  27.688  24.654  1.00  0.00     0.173 A 
ATOM     71  F   UNL A   1      48.122  27.011  28.113  1.00  0.00    -0.203 F 
ATOM     72  C   UNL A   1      49.336  26.626  26.130  1.00  0.00     0.198 A 
ATOM     73  C   UNL A   1      48.381  27.216  24.009  1.00  0.00     0.198 A 
ATOM     74  F   UNL A   1      46.245  28.202  23.917  1.00  0.00    -0.203 F 
ATOM     75  F   UNL A   1      50.358  26.140  26.849  1.00  0.00    -0.200 F 
ATOM     76  C   UNL A   1      49.429  26.689  24.748  1.00  0.00     0.200 A 
ATOM     77  F   UNL A   1      48.463  27.271  22.673  1.00  0.00    -0.200 F 
ATOM     78  F   UNL A   1      50.532  26.248  24.128  1.00  0.00    -0.200 F 
ENDBRANCH  44  68
BRANCH  56  79
ATOM     79  C   UNL A   1      45.317  33.556  29.217  1.00  0.00     0.064 A 
ATOM     80  C   UNL A   1      46.141  33.744  30.335  1.00  0.00     0.173 A 
ATOM     81  C   UNL A   1      45.219  34.603  28.288  1.00  0.00     0.173 A 
ATOM     82  F   UNL A   1      46.253  32.779  31.262  1.00  0.00    -0.203 F 
ATOM     83  C   UNL A   1      46.823  34.943  30.527  1.00  0.00     0.198 A 
ATOM     84  C   UNL A   1      45.923  35.790  28.469  1.00  0.00     0.198 A 
ATOM     85  F   UNL A   1      44.446  34.470  27.199  1.00  0.00    -0.203 F 
ATOM     86  F   UNL A   1      47.572  35.118  31.625  1.00  0.00    -0.200 F 
ATOM     87  C   UNL A   1      46.721  35.961  29.591  1.00  0.00     0.200 A 
ATOM     88  F   UNL A   1      45.830  36.768  27.558  1.00  0.00    -0.200 F 
ATOM     89  F   UNL A   1      47.382  37.112  29.773  1.00  0.00    -0.200 F 
ENDBRANCH  56  79
ENDBRANCH  30  31
ENDBRANCH  23  25
ENDBRANCH  22  23
ENDBRANCH  21  22
ENDBRANCH  20  21
ENDBRANCH   1  20
TORSDOF 16
ENDMDL
MODEL 3
REMARK VINA RESULT:     -10.7      3.371      8.682
REMARK SMILES CN(CC(C)(C)C)C(=O)N1CCO[C@@H](CC(=O)OCCOC(=O)c2ccc(-c3c4nc(c(-c5c(F)c(F)c(F)c(F)c5F)c5ccc([nH]5)c(-c5c(F)c(F)c(F)c(F)c5F)c5nc(c(-c6c(F)c(F)c(F)c(F)c6F)c6ccc3[nH]6)C=C5)C=C4)cc2)C1
REMARK SMILES IDX 18 1 16 2 17 3 15 4 14 5 10 6 11 7 87 8 12 9 13 10 8 11 9 12
REMARK SMILES IDX 2 13 1 14 3 15 4 16 5 17 6 18 7 19 19 20 20 21 21 22 22 23
REMARK SMILES IDX 23 24 24 25 25 26 86 27 26 28 85 29 27 30 28 31 29 32 79 33
REMARK SMILES IDX 30 34 84 35 78 36 80 37 31 38 83 39 77 40 76 41 32 43 64 44
REMARK SMILES IDX 44 45 63 46 45 47 48 48 62 49 81 50 46 51 47 52 61 54 82 55
REMARK SMILES IDX 49 56 33 57 34 58 42 59 35 60 36 61 40 62 43 63 37 64 38 65
REMARK SMILES IDX 41 66 39 67 65 68 66 69 74 70 67 71 68 72 72 73 75 74 69 75
REMARK SMILES IDX 70 76 73 77 71 78 50 79 51 80 59 81 52 82 53 83 57 84 60 85
REMARK SMILES IDX 54 86 55 87 58 88 56 89
REMARK H PARENT 80 42 48 53
REMARK Flexibility Score: inf
ROOT
ATOM      1  O   UNL A   1      42.242  21.126  25.655  1.00  0.00    -0.462 OA
ENDROOT
BRANCH   1   2
ATOM      2  C   UNL A   1      41.449  20.107  26.067  1.00  0.00     0.308 C 
ATOM      3  O   UNL A   1      41.653  18.921  25.854  1.00  0.00    -0.252 OA
BRANCH   2   4
ATOM      4  C   UNL A   1      40.255  20.622  26.827  1.00  0.00     0.156 C 
BRANCH   4   5
ATOM      5  C   UNL A   1      39.601  21.825  26.150  1.00  0.00     0.149 C 
ATOM      6  N   UNL A   1      37.397  22.716  25.276  1.00  0.00    -0.320 N 
ATOM      7  C   UNL A   1      37.601  23.853  26.180  1.00  0.00     0.150 C 
ATOM      8  C   UNL A   1      38.154  21.530  25.714  1.00  0.00     0.154 C 
ATOM      9  C   UNL A   1      39.081  24.093  26.484  1.00  0.00     0.182 C 
ATOM     10  O   UNL A   1      39.657  22.925  27.079  1.00  0.00    -0.374 OA
BRANCH   6  11
ATOM     11  C   UNL A   1      36.415  22.454  24.339  1.00  0.00     0.319 C 
ATOM     12  O   UNL A   1      36.706  22.542  23.136  1.00  0.00    -0.248 OA
BRANCH  11  13
ATOM     13  N   UNL A   1      35.129  22.067  24.661  1.00  0.00    -0.327 N 
ATOM     14  C   UNL A   1      34.973  20.630  24.893  1.00  0.00     0.148 C 
BRANCH  13  15
ATOM     15  C   UNL A   1      33.903  22.849  24.802  1.00  0.00     0.127 C 
BRANCH  15  16
ATOM     16  C   UNL A   1      32.887  22.746  23.618  1.00  0.00    -0.020 C 
ATOM     17  C   UNL A   1      32.449  21.307  23.261  1.00  0.00     0.012 C 
ATOM     18  C   UNL A   1      31.633  23.559  24.001  1.00  0.00     0.012 C 
ATOM     19  C   UNL A   1      33.485  23.388  22.348  1.00  0.00     0.012 C 
ENDBRANCH  15  16
ENDBRANCH  13  15
ENDBRANCH  11  13
ENDBRANCH   6  11
ENDBRANCH   4   5
ENDBRANCH   2   4
ENDBRANCH   1   2
BRANCH   1  20
ATOM     20  C   UNL A   1      43.661  20.884  25.618  1.00  0.00     0.274 C 
BRANCH  20  21
ATOM     21  C   UNL A   1      44.406  22.088  25.036  1.00  0.00     0.275 C 
BRANCH  21  22
ATOM     22  O   UNL A   1      43.590  23.273  25.111  1.00  0.00    -0.458 OA
BRANCH  22  23
ATOM     23  C   UNL A   1      44.257  24.444  25.210  1.00  0.00     0.338 C 
ATOM     24  O   UNL A   1      45.174  24.842  24.515  1.00  0.00    -0.246 OA
BRANCH  23  25
ATOM     25  C   UNL A   1      43.630  25.278  26.246  1.00  0.00     0.060 A 
ATOM     26  C   UNL A   1      43.983  26.628  26.324  1.00  0.00     0.016 A 
ATOM     27  C   UNL A   1      42.770  24.713  27.187  1.00  0.00     0.016 A 
ATOM     28  C   UNL A   1      43.493  27.420  27.356  1.00  0.00     0.010 A 
ATOM     29  C   UNL A   1      42.262  25.514  28.213  1.00  0.00     0.010 A 
ATOM     30  C   UNL A   1      42.631  26.868  28.311  1.00  0.00    -0.014 A 
BRANCH  30  31
ATOM     31  C   UNL A   1      42.147  27.705  29.431  1.00  0.00     0.031 A 
ATOM     32  C   UNL A   1      42.896  27.721  30.730  1.00  0.00     0.074 A 
ATOM     33  C   UNL A   1      41.048  28.462  29.270  1.00  0.00     0.049 A 
ATOM     34  N   UNL A   1      42.598  28.325  31.852  1.00  0.00    -0.248 NA
ATOM     35  C   UNL A   1      44.147  26.950  30.772  1.00  0.00     0.031 C 
ATOM     36  C   UNL A   1      40.270  28.566  28.037  1.00  0.00     0.029 A 
ATOM     37  N   UNL A   1      40.397  29.288  30.150  1.00  0.00    -0.354 N 
ATOM     38  C   UNL A   1      43.610  27.992  32.741  1.00  0.00     0.074 A 
ATOM     39  C   UNL A   1      44.523  27.117  32.033  1.00  0.00     0.031 C 
ATOM     40  C   UNL A   1      39.248  29.413  28.236  1.00  0.00     0.029 A 
ATOM     41  C   UNL A   1      39.274  29.871  29.623  1.00  0.00     0.049 A 
ATOM     42  H   UNL A   1      40.706  29.446  31.072  1.00  0.00     0.167 HD
ATOM     43  C   UNL A   1      43.762  28.382  34.028  1.00  0.00     0.037 A 
ATOM     44  C   UNL A   1      38.355  30.666  30.202  1.00  0.00     0.037 A 
ATOM     45  C   UNL A   1      42.857  29.263  34.720  1.00  0.00     0.049 A 
ATOM     46  C   UNL A   1      38.508  31.029  31.653  1.00  0.00     0.074 A 
ATOM     47  C   UNL A   1      42.936  29.740  36.016  1.00  0.00     0.029 A 
ATOM     48  N   UNL A   1      41.700  29.796  34.168  1.00  0.00    -0.354 N 
ATOM     49  N   UNL A   1      39.466  30.711  32.488  1.00  0.00    -0.248 NA
ATOM     50  C   UNL A   1      37.447  31.855  32.242  1.00  0.00     0.031 C 
ATOM     51  C   UNL A   1      41.803  30.525  36.264  1.00  0.00     0.029 A 
ATOM     52  C   UNL A   1      41.041  30.575  35.107  1.00  0.00     0.049 A 
ATOM     53  H   UNL A   1      41.392  29.643  33.245  1.00  0.00     0.167 HD
ATOM     54  C   UNL A   1      39.136  31.310  33.695  1.00  0.00     0.074 A 
ATOM     55  C   UNL A   1      37.893  32.023  33.479  1.00  0.00     0.031 C 
ATOM     56  C   UNL A   1      39.803  31.274  34.875  1.00  0.00     0.037 A 
BRANCH  43  57
ATOM     57  C   UNL A   1      44.933  27.823  34.781  1.00  0.00     0.064 A 
ATOM     58  C   UNL A   1      44.855  26.609  35.478  1.00  0.00     0.173 A 
ATOM     59  C   UNL A   1      46.156  28.513  34.798  1.00  0.00     0.173 A 
ATOM     60  F   UNL A   1      43.705  25.919  35.505  1.00  0.00    -0.203 F 
ATOM     61  C   UNL A   1      45.948  26.122  36.192  1.00  0.00     0.198 A 
ATOM     62  C   UNL A   1      47.253  28.010  35.491  1.00  0.00     0.198 A 
ATOM     63  F   UNL A   1      46.284  29.677  34.144  1.00  0.00    -0.203 F 
ATOM     64  F   UNL A   1      45.834  24.987  36.896  1.00  0.00    -0.200 F 
ATOM     65  C   UNL A   1      47.146  26.820  36.195  1.00  0.00     0.200 A 
ATOM     66  F   UNL A   1      48.413  28.682  35.485  1.00  0.00    -0.200 F 
ATOM     67  F   UNL A   1      48.195  26.352  36.885  1.00  0.00    -0.200 F 
ENDBRANCH  43  57
BRANCH  44  68
ATOM     68  C   UNL A   1      37.207  31.163  29.403  1.00  0.00     0.064 A 
ATOM     69  C   UNL A   1      36.161  30.304  29.041  1.00  0.00     0.173 A 
ATOM     70  C   UNL A   1      37.122  32.505  29.004  1.00  0.00     0.173 A 
ATOM     71  F   UNL A   1      36.212  29.008  29.378  1.00  0.00    -0.203 F 
ATOM     72  C   UNL A   1      35.074  30.769  28.304  1.00  0.00     0.198 A 
ATOM     73  C   UNL A   1      36.023  32.974  28.288  1.00  0.00     0.198 A 
ATOM     74  F   UNL A   1      38.101  33.364  29.324  1.00  0.00    -0.203 F 
ATOM     75  F   UNL A   1      34.100  29.922  27.943  1.00  0.00    -0.200 F 
ATOM     76  C   UNL A   1      35.002  32.104  27.936  1.00  0.00     0.200 A 
ATOM     77  F   UNL A   1      35.953  34.266  27.943  1.00  0.00    -0.200 F 
ATOM     78  F   UNL A   1      33.951  32.553  27.236  1.00  0.00    -0.200 F 
ENDBRANCH  44  68
BRANCH  56  79
ATOM     79  C   UNL A   1      39.213  32.048  36.017  1.00  0.00     0.064 A 
ATOM     80  C   UNL A   1      38.293  31.466  36.900  1.00  0.00     0.173 A 
ATOM     81  C   UNL A   1      39.597  33.377  36.248  1.00  0.00     0.173 A 
ATOM     82  F   UNL A   1      37.881  30.202  36.710  1.00  0.00    -0.203 F 
ATOM     83  C   UNL A   1      37.761  32.194  37.961  1.00  0.00     0.198 A 
ATOM     84  C   UNL A   1      39.084  34.094  37.326  1.00  0.00     0.198 A 
ATOM     85  F   UNL A   1      40.477  33.979  35.434  1.00  0.00    -0.203 F 
ATOM     86  F   UNL A   1      36.851  31.631  38.768  1.00  0.00    -0.200 F 
ATOM     87  C   UNL A   1      38.162  33.504  38.178  1.00  0.00     0.200 A 
ATOM     88  F   UNL A   1      39.480  35.356  37.539  1.00  0.00    -0.200 F 
ATOM     89  F   UNL A   1      37.654  34.201  39.203  1.00  0.00    -0.200 F 
ENDBRANCH  56  79
ENDBRANCH  30  31
ENDBRANCH  23  25
ENDBRANCH  22  23
ENDBRANCH  21  22
ENDBRANCH  20  21
ENDBRANCH   1  20
TORSDOF 16
ENDMDL
