MODEL 1
REMARK VINA RESULT:     -12.7      0.000      0.000
REMARK SMILES CC[C@H]1CC[C@](C(=O)OCCOC(=O)c2ccc(-c3c4nc(c(-c5c(F)c(F)c(F)c(F)c5F)c5ccc([nH]5)c(-c5c(F)c(F)c(F)c(F)c5F)c5nc(c(-c6c(F)c(F)c(F)c(F)c6F)c6ccc3[nH]6)C=C5)C=C4)cc2)([C@H]2CCC[C@@H](S(C)(=O)=O)C2)CC1
REMARK SMILES IDX 10 1 9 2 7 3 8 4 6 5 3 6 89 7 4 8 88 9 5 10 2 11 1 12 78 13
REMARK SMILES IDX 79 14 87 15 80 16 82 17 81 18 83 19 84 20 85 21 86 22 11 23
REMARK SMILES IDX 12 24 13 25 14 26 15 27 16 28 77 29 17 30 76 31 18 32 19 33
REMARK SMILES IDX 20 34 70 35 21 36 75 37 69 38 71 39 22 40 74 41 68 42 67 43
REMARK SMILES IDX 23 45 55 46 35 47 54 48 36 49 39 50 53 51 72 52 37 53 38 54
REMARK SMILES IDX 52 56 73 57 40 58 24 59 25 60 33 61 26 62 27 63 31 64 34 65
REMARK SMILES IDX 28 66 29 67 32 68 30 69 56 70 57 71 65 72 58 73 59 74 63 75
REMARK SMILES IDX 66 76 60 77 61 78 64 79 62 80 41 81 42 82 50 83 43 84 44 85
REMARK SMILES IDX 48 86 51 87 45 88 46 89 49 90 47 91
REMARK H PARENT 71 44 39 55
REMARK Flexibility Score: inf
ROOT
ATOM      1  C   UNL A   1      32.771  28.522  25.345  1.00  0.00     0.274 C 
ENDROOT
BRANCH   1   2
ATOM      2  O   UNL A   1      32.735  27.055  25.203  1.00  0.00    -0.462 OA
BRANCH   2   3
ATOM      3  C   UNL A   1      32.925  26.554  23.945  1.00  0.00     0.312 C 
ATOM      4  O   UNL A   1      33.947  26.803  23.306  1.00  0.00    -0.252 OA
BRANCH   3   5
ATOM      5  C   UNL A   1      31.800  25.587  23.365  1.00  0.00     0.071 C 
ATOM      6  C   UNL A   1      29.505  27.504  22.863  1.00  0.00    -0.011 C 
ATOM      7  C   UNL A   1      30.791  27.548  22.032  1.00  0.00     0.005 C 
ATOM      8  C   UNL A   1      29.731  26.858  24.231  1.00  0.00     0.005 C 
ATOM      9  C   UNL A   1      31.481  26.192  21.958  1.00  0.00     0.019 C 
ATOM     10  C   UNL A   1      30.466  25.542  24.133  1.00  0.00     0.019 C 
BRANCH   6  11
ATOM     11  C   UNL A   1      28.894  28.894  23.095  1.00  0.00    -0.000 C 
ATOM     12  C   UNL A   1      27.378  28.913  23.131  1.00  0.00     0.004 C 
ENDBRANCH   6  11
BRANCH   5  13
ATOM     13  C   UNL A   1      32.213  24.075  23.074  1.00  0.00     0.008 C 
ATOM     14  C   UNL A   1      33.668  23.847  22.676  1.00  0.00     0.005 C 
ATOM     15  C   UNL A   1      31.832  22.987  24.105  1.00  0.00     0.024 C 
ATOM     16  C   UNL A   1      34.592  23.897  23.875  1.00  0.00     0.002 C 
ATOM     17  C   UNL A   1      32.600  23.029  25.401  1.00  0.00     0.108 C 
ATOM     18  C   UNL A   1      33.868  23.847  25.223  1.00  0.00     0.020 C 
BRANCH  17  19
ATOM     19  S   UNL A   1      31.662  23.462  26.916  1.00  0.00     0.150 S 
ATOM     20  C   UNL A   1      29.980  22.879  26.775  1.00  0.00     0.158 C 
ATOM     21  O   UNL A   1      32.244  22.704  28.000  1.00  0.00    -0.229 OA
ATOM     22  O   UNL A   1      31.555  24.909  27.022  1.00  0.00    -0.229 OA
ENDBRANCH  17  19
ENDBRANCH   5  13
ENDBRANCH   3   5
ENDBRANCH   2   3
ENDBRANCH   1   2
BRANCH   1  23
ATOM     23  C   UNL A   1      31.818  29.116  26.427  1.00  0.00     0.275 C 
BRANCH  23  24
ATOM     24  O   UNL A   1      32.521  29.690  27.583  1.00  0.00    -0.458 OA
BRANCH  24  25
ATOM     25  C   UNL A   1      33.211  30.846  27.331  1.00  0.00     0.338 C 
ATOM     26  O   UNL A   1      32.685  31.958  27.273  1.00  0.00    -0.246 OA
BRANCH  25  27
ATOM     27  C   UNL A   1      34.716  30.736  27.304  1.00  0.00     0.060 A 
ATOM     28  C   UNL A   1      35.339  29.506  27.270  1.00  0.00     0.016 A 
ATOM     29  C   UNL A   1      35.472  31.826  27.766  1.00  0.00     0.016 A 
ATOM     30  C   UNL A   1      36.424  29.327  28.149  1.00  0.00     0.010 A 
ATOM     31  C   UNL A   1      36.736  31.650  28.383  1.00  0.00     0.010 A 
ATOM     32  C   UNL A   1      37.210  30.369  28.676  1.00  0.00    -0.014 A 
BRANCH  32  33
ATOM     33  C   UNL A   1      38.470  30.063  29.474  1.00  0.00     0.031 A 
ATOM     34  C   UNL A   1      39.626  29.221  28.941  1.00  0.00     0.074 A 
ATOM     35  C   UNL A   1      38.646  30.592  30.714  1.00  0.00     0.049 A 
ATOM     36  N   UNL A   1      40.609  28.647  29.605  1.00  0.00    -0.248 NA
ATOM     37  C   UNL A   1      39.711  29.014  27.488  1.00  0.00     0.031 C 
ATOM     38  C   UNL A   1      37.724  31.505  31.392  1.00  0.00     0.029 A 
ATOM     39  N   UNL A   1      39.675  30.469  31.627  1.00  0.00    -0.354 N 
ATOM     40  C   UNL A   1      41.371  27.946  28.671  1.00  0.00     0.074 A 
ATOM     41  C   UNL A   1      40.764  28.210  27.380  1.00  0.00     0.031 C 
ATOM     42  C   UNL A   1      38.282  31.978  32.506  1.00  0.00     0.029 A 
ATOM     43  C   UNL A   1      39.467  31.193  32.782  1.00  0.00     0.049 A 
ATOM     44  H   UNL A   1      40.478  29.921  31.468  1.00  0.00     0.167 HD
ATOM     45  C   UNL A   1      42.449  27.137  28.878  1.00  0.00     0.037 A 
ATOM     46  C   UNL A   1      40.047  31.161  33.996  1.00  0.00     0.037 A 
ATOM     47  C   UNL A   1      43.073  26.911  30.165  1.00  0.00     0.049 A 
ATOM     48  C   UNL A   1      41.146  30.181  34.243  1.00  0.00     0.074 A 
ATOM     49  C   UNL A   1      44.091  26.030  30.503  1.00  0.00     0.029 A 
ATOM     50  N   UNL A   1      42.753  27.596  31.330  1.00  0.00    -0.354 N 
ATOM     51  N   UNL A   1      41.717  29.357  33.403  1.00  0.00    -0.248 NA
ATOM     52  C   UNL A   1      41.654  30.096  35.617  1.00  0.00     0.031 C 
ATOM     53  C   UNL A   1      44.349  26.150  31.876  1.00  0.00     0.029 A 
ATOM     54  C   UNL A   1      43.541  27.152  32.384  1.00  0.00     0.049 A 
ATOM     55  H   UNL A   1      42.065  28.296  31.398  1.00  0.00     0.167 HD
ATOM     56  C   UNL A   1      42.660  28.660  34.141  1.00  0.00     0.074 A 
ATOM     57  C   UNL A   1      42.600  29.177  35.492  1.00  0.00     0.031 C 
ATOM     58  C   UNL A   1      43.490  27.672  33.728  1.00  0.00     0.037 A 
BRANCH  45  59
ATOM     59  C   UNL A   1      42.951  26.336  27.700  1.00  0.00     0.064 A 
ATOM     60  C   UNL A   1      43.988  26.776  26.864  1.00  0.00     0.173 A 
ATOM     61  C   UNL A   1      42.361  25.095  27.396  1.00  0.00     0.173 A 
ATOM     62  F   UNL A   1      44.599  27.946  27.104  1.00  0.00    -0.203 F 
ATOM     63  C   UNL A   1      44.369  26.040  25.740  1.00  0.00     0.198 A 
ATOM     64  C   UNL A   1      42.764  24.348  26.290  1.00  0.00     0.198 A 
ATOM     65  F   UNL A   1      41.386  24.603  28.175  1.00  0.00    -0.203 F 
ATOM     66  F   UNL A   1      45.312  26.518  24.914  1.00  0.00    -0.200 F 
ATOM     67  C   UNL A   1      43.754  24.830  25.451  1.00  0.00     0.200 A 
ATOM     68  F   UNL A   1      42.181  23.169  26.030  1.00  0.00    -0.200 F 
ATOM     69  F   UNL A   1      44.105  24.138  24.358  1.00  0.00    -0.200 F 
ENDBRANCH  45  59
BRANCH  46  70
ATOM     70  C   UNL A   1      39.492  31.997  35.102  1.00  0.00     0.064 A 
ATOM     71  C   UNL A   1      38.594  31.464  36.035  1.00  0.00     0.173 A 
ATOM     72  C   UNL A   1      39.873  33.342  35.265  1.00  0.00     0.173 A 
ATOM     73  F   UNL A   1      38.173  30.197  35.909  1.00  0.00    -0.203 F 
ATOM     74  C   UNL A   1      38.102  32.239  37.084  1.00  0.00     0.198 A 
ATOM     75  C   UNL A   1      39.421  34.098  36.343  1.00  0.00     0.198 A 
ATOM     76  F   UNL A   1      40.730  33.909  34.403  1.00  0.00    -0.203 F 
ATOM     77  F   UNL A   1      37.210  31.717  37.937  1.00  0.00    -0.200 F 
ATOM     78  C   UNL A   1      38.528  33.550  37.247  1.00  0.00     0.200 A 
ATOM     79  F   UNL A   1      39.864  35.352  36.511  1.00  0.00    -0.200 F 
ATOM     80  F   UNL A   1      38.074  34.283  38.271  1.00  0.00    -0.200 F 
ENDBRANCH  46  70
BRANCH  58  81
ATOM     81  C   UNL A   1      44.451  27.132  34.747  1.00  0.00     0.064 A 
ATOM     82  C   UNL A   1      45.710  27.712  34.964  1.00  0.00     0.173 A 
ATOM     83  C   UNL A   1      44.108  26.003  35.506  1.00  0.00     0.173 A 
ATOM     84  F   UNL A   1      46.097  28.775  34.243  1.00  0.00    -0.203 F 
ATOM     85  C   UNL A   1      46.604  27.161  35.880  1.00  0.00     0.198 A 
ATOM     86  C   UNL A   1      44.992  25.475  36.443  1.00  0.00     0.198 A 
ATOM     87  F   UNL A   1      42.919  25.406  35.331  1.00  0.00    -0.203 F 
ATOM     88  F   UNL A   1      47.825  27.693  36.024  1.00  0.00    -0.200 F 
ATOM     89  C   UNL A   1      46.241  26.047  36.622  1.00  0.00     0.200 A 
ATOM     90  F   UNL A   1      44.637  24.401  37.163  1.00  0.00    -0.200 F 
ATOM     91  F   UNL A   1      47.103  25.517  37.501  1.00  0.00    -0.200 F 
ENDBRANCH  58  81
ENDBRANCH  32  33
ENDBRANCH  25  27
ENDBRANCH  24  25
ENDBRANCH  23  24
ENDBRANCH   1  23
TORSDOF 14
ENDMDL
MODEL 2
REMARK VINA RESULT:     -12.5      4.510      7.535
REMARK SMILES CC[C@H]1CC[C@](C(=O)OCCOC(=O)c2ccc(-c3c4nc(c(-c5c(F)c(F)c(F)c(F)c5F)c5ccc([nH]5)c(-c5c(F)c(F)c(F)c(F)c5F)c5nc(c(-c6c(F)c(F)c(F)c(F)c6F)c6ccc3[nH]6)C=C5)C=C4)cc2)([C@H]2CCC[C@@H](S(C)(=O)=O)C2)CC1
REMARK SMILES IDX 10 1 9 2 7 3 8 4 6 5 3 6 89 7 4 8 88 9 5 10 2 11 1 12 78 13
REMARK SMILES IDX 79 14 87 15 80 16 82 17 81 18 83 19 84 20 85 21 86 22 11 23
REMARK SMILES IDX 12 24 13 25 14 26 15 27 16 28 77 29 17 30 76 31 18 32 19 33
REMARK SMILES IDX 20 34 70 35 21 36 75 37 69 38 71 39 22 40 74 41 68 42 67 43
REMARK SMILES IDX 23 45 55 46 35 47 54 48 36 49 39 50 53 51 72 52 37 53 38 54
REMARK SMILES IDX 52 56 73 57 40 58 24 59 25 60 33 61 26 62 27 63 31 64 34 65
REMARK SMILES IDX 28 66 29 67 32 68 30 69 56 70 57 71 65 72 58 73 59 74 63 75
REMARK SMILES IDX 66 76 60 77 61 78 64 79 62 80 41 81 42 82 50 83 43 84 44 85
REMARK SMILES IDX 48 86 51 87 45 88 46 89 49 90 47 91
REMARK H PARENT 71 44 39 55
REMARK Flexibility Score: inf
ROOT
ATOM      1  C   UNL A   1      36.873  19.800  24.872  1.00  0.00     0.274 C 
ENDROOT
BRANCH   1   2
ATOM      2  O   UNL A   1      35.958  20.775  25.494  1.00  0.00    -0.462 OA
BRANCH   2   3
ATOM      3  C   UNL A   1      35.142  21.477  24.650  1.00  0.00     0.312 C 
ATOM      4  O   UNL A   1      35.566  21.942  23.593  1.00  0.00    -0.252 OA
BRANCH   3   5
ATOM      5  C   UNL A   1      33.609  21.613  25.062  1.00  0.00     0.071 C 
ATOM      6  C   UNL A   1      32.381  19.156  23.778  1.00  0.00    -0.011 C 
ATOM      7  C   UNL A   1      33.348  19.051  24.963  1.00  0.00     0.005 C 
ATOM      8  C   UNL A   1      32.566  20.462  23.004  1.00  0.00     0.005 C 
ATOM      9  C   UNL A   1      33.318  20.292  25.847  1.00  0.00     0.019 C 
ATOM     10  C   UNL A   1      32.588  21.671  23.910  1.00  0.00     0.019 C 
BRANCH   6  11
ATOM     11  C   UNL A   1      32.527  17.995  22.783  1.00  0.00    -0.000 C 
ATOM     12  C   UNL A   1      33.516  16.927  23.206  1.00  0.00     0.004 C 
ENDBRANCH   6  11
BRANCH   5  13
ATOM     13  C   UNL A   1      33.224  22.782  26.075  1.00  0.00     0.008 C 
ATOM     14  C   UNL A   1      34.335  23.239  27.016  1.00  0.00     0.005 C 
ATOM     15  C   UNL A   1      32.526  24.046  25.522  1.00  0.00     0.024 C 
ATOM     16  C   UNL A   1      35.330  24.139  26.314  1.00  0.00     0.002 C 
ATOM     17  C   UNL A   1      33.395  24.951  24.687  1.00  0.00     0.108 C 
ATOM     18  C   UNL A   1      34.861  24.642  24.947  1.00  0.00     0.020 C 
BRANCH  17  19
ATOM     19  S   UNL A   1      32.987  25.092  22.905  1.00  0.00     0.150 S 
ATOM     20  C   UNL A   1      33.155  26.790  22.378  1.00  0.00     0.158 C 
ATOM     21  O   UNL A   1      34.004  24.361  22.183  1.00  0.00    -0.229 OA
ATOM     22  O   UNL A   1      31.583  24.769  22.703  1.00  0.00    -0.229 OA
ENDBRANCH  17  19
ENDBRANCH   5  13
ENDBRANCH   3   5
ENDBRANCH   2   3
ENDBRANCH   1   2
BRANCH   1  23
ATOM     23  C   UNL A   1      38.381  20.199  24.872  1.00  0.00     0.275 C 
BRANCH  23  24
ATOM     24  O   UNL A   1      39.216  19.351  25.734  1.00  0.00    -0.458 OA
BRANCH  24  25
ATOM     25  C   UNL A   1      40.452  19.860  26.032  1.00  0.00     0.338 C 
ATOM     26  O   UNL A   1      41.504  19.426  25.561  1.00  0.00    -0.246 OA
BRANCH  25  27
ATOM     27  C   UNL A   1      40.474  21.130  26.848  1.00  0.00     0.060 A 
ATOM     28  C   UNL A   1      39.675  22.204  26.514  1.00  0.00     0.016 A 
ATOM     29  C   UNL A   1      41.602  21.392  27.642  1.00  0.00     0.016 A 
ATOM     30  C   UNL A   1      40.289  23.471  26.522  1.00  0.00     0.010 A 
ATOM     31  C   UNL A   1      42.038  22.715  27.907  1.00  0.00     0.010 A 
ATOM     32  C   UNL A   1      41.436  23.802  27.269  1.00  0.00    -0.014 A 
BRANCH  32  33
ATOM     33  C   UNL A   1      41.919  25.243  27.351  1.00  0.00     0.031 A 
ATOM     34  C   UNL A   1      43.226  25.734  26.732  1.00  0.00     0.074 A 
ATOM     35  C   UNL A   1      41.154  26.193  27.950  1.00  0.00     0.049 A 
ATOM     36  N   UNL A   1      43.891  26.846  26.973  1.00  0.00    -0.248 NA
ATOM     37  C   UNL A   1      43.855  24.895  25.702  1.00  0.00     0.031 C 
ATOM     38  C   UNL A   1      39.824  25.983  28.525  1.00  0.00     0.029 A 
ATOM     39  N   UNL A   1      41.361  27.544  28.155  1.00  0.00    -0.354 N 
ATOM     40  C   UNL A   1      45.048  26.799  26.198  1.00  0.00     0.074 A 
ATOM     41  C   UNL A   1      44.970  25.568  25.435  1.00  0.00     0.031 C 
ATOM     42  C   UNL A   1      39.278  27.151  28.860  1.00  0.00     0.029 A 
ATOM     43  C   UNL A   1      40.313  28.163  28.802  1.00  0.00     0.049 A 
ATOM     44  H   UNL A   1      42.175  28.018  27.866  1.00  0.00     0.167 HD
ATOM     45  C   UNL A   1      46.087  27.682  26.153  1.00  0.00     0.037 A 
ATOM     46  C   UNL A   1      40.196  29.353  29.420  1.00  0.00     0.037 A 
ATOM     47  C   UNL A   1      46.138  28.930  26.887  1.00  0.00     0.049 A 
ATOM     48  C   UNL A   1      41.383  30.257  29.469  1.00  0.00     0.074 A 
ATOM     49  C   UNL A   1      47.182  29.836  27.003  1.00  0.00     0.029 A 
ATOM     50  N   UNL A   1      45.082  29.461  27.616  1.00  0.00    -0.354 N 
ATOM     51  N   UNL A   1      42.557  30.104  28.914  1.00  0.00    -0.248 NA
ATOM     52  C   UNL A   1      41.242  31.481  30.266  1.00  0.00     0.031 C 
ATOM     53  C   UNL A   1      46.772  30.886  27.836  1.00  0.00     0.029 A 
ATOM     54  C   UNL A   1      45.451  30.672  28.189  1.00  0.00     0.049 A 
ATOM     55  H   UNL A   1      44.198  29.041  27.713  1.00  0.00     0.167 HD
ATOM     56  C   UNL A   1      43.297  31.215  29.284  1.00  0.00     0.074 A 
ATOM     57  C   UNL A   1      42.428  32.047  30.090  1.00  0.00     0.031 C 
ATOM     58  C   UNL A   1      44.585  31.507  28.985  1.00  0.00     0.037 A 
BRANCH  45  59
ATOM     59  C   UNL A   1      47.313  27.272  25.373  1.00  0.00     0.064 A 
ATOM     60  C   UNL A   1      48.367  26.539  25.938  1.00  0.00     0.173 A 
ATOM     61  C   UNL A   1      47.436  27.640  24.021  1.00  0.00     0.173 A 
ATOM     62  F   UNL A   1      48.308  26.148  27.220  1.00  0.00    -0.203 F 
ATOM     63  C   UNL A   1      49.518  26.247  25.202  1.00  0.00     0.198 A 
ATOM     64  C   UNL A   1      48.573  27.321  23.280  1.00  0.00     0.198 A 
ATOM     65  F   UNL A   1      46.448  28.314  23.412  1.00  0.00    -0.203 F 
ATOM     66  F   UNL A   1      50.543  25.610  25.786  1.00  0.00    -0.200 F 
ATOM     67  C   UNL A   1      49.622  26.643  23.876  1.00  0.00     0.200 A 
ATOM     68  F   UNL A   1      48.657  27.687  21.993  1.00  0.00    -0.200 F 
ATOM     69  F   UNL A   1      50.737  26.382  23.179  1.00  0.00    -0.200 F 
ENDBRANCH  45  59
BRANCH  46  70
ATOM     70  C   UNL A   1      38.940  29.681  30.159  1.00  0.00     0.064 A 
ATOM     71  C   UNL A   1      38.786  29.350  31.511  1.00  0.00     0.173 A 
ATOM     72  C   UNL A   1      37.880  30.362  29.533  1.00  0.00     0.173 A 
ATOM     73  F   UNL A   1      39.753  28.675  32.149  1.00  0.00    -0.203 F 
ATOM     74  C   UNL A   1      37.624  29.687  32.205  1.00  0.00     0.198 A 
ATOM     75  C   UNL A   1      36.744  30.742  30.241  1.00  0.00     0.198 A 
ATOM     76  F   UNL A   1      37.969  30.705  28.239  1.00  0.00    -0.203 F 
ATOM     77  F   UNL A   1      37.484  29.319  33.486  1.00  0.00    -0.200 F 
ATOM     78  C   UNL A   1      36.612  30.396  31.575  1.00  0.00     0.200 A 
ATOM     79  F   UNL A   1      35.785  31.456  29.633  1.00  0.00    -0.200 F 
ATOM     80  F   UNL A   1      35.509  30.741  32.252  1.00  0.00    -0.200 F 
ENDBRANCH  46  70
BRANCH  58  81
ATOM     81  C   UNL A   1      45.110  32.821  29.485  1.00  0.00     0.064 A 
ATOM     82  C   UNL A   1      45.751  32.941  30.728  1.00  0.00     0.173 A 
ATOM     83  C   UNL A   1      44.952  33.981  28.713  1.00  0.00     0.173 A 
ATOM     84  F   UNL A   1      45.901  31.867  31.517  1.00  0.00    -0.203 F 
ATOM     85  C   UNL A   1      46.185  34.181  31.192  1.00  0.00     0.198 A 
ATOM     86  C   UNL A   1      45.414  35.213  29.167  1.00  0.00     0.198 A 
ATOM     87  F   UNL A   1      44.338  33.921  27.521  1.00  0.00    -0.203 F 
ATOM     88  F   UNL A   1      46.736  34.283  32.409  1.00  0.00    -0.200 F 
ATOM     89  C   UNL A   1      46.021  35.314  30.409  1.00  0.00     0.200 A 
ATOM     90  F   UNL A   1      45.260  36.305  28.405  1.00  0.00    -0.200 F 
ATOM     91  F   UNL A   1      46.436  36.507  30.858  1.00  0.00    -0.200 F 
ENDBRANCH  58  81
ENDBRANCH  32  33
ENDBRANCH  25  27
ENDBRANCH  24  25
ENDBRANCH  23  24
ENDBRANCH   1  23
TORSDOF 14
ENDMDL
MODEL 3
REMARK VINA RESULT:     -12.4      1.081      1.878
REMARK SMILES CC[C@H]1CC[C@](C(=O)OCCOC(=O)c2ccc(-c3c4nc(c(-c5c(F)c(F)c(F)c(F)c5F)c5ccc([nH]5)c(-c5c(F)c(F)c(F)c(F)c5F)c5nc(c(-c6c(F)c(F)c(F)c(F)c6F)c6ccc3[nH]6)C=C5)C=C4)cc2)([C@H]2CCC[C@@H](S(C)(=O)=O)C2)CC1
REMARK SMILES IDX 10 1 9 2 7 3 8 4 6 5 3 6 89 7 4 8 88 9 5 10 2 11 1 12 78 13
REMARK SMILES IDX 79 14 87 15 80 16 82 17 81 18 83 19 84 20 85 21 86 22 11 23
REMARK SMILES IDX 12 24 13 25 14 26 15 27 16 28 77 29 17 30 76 31 18 32 19 33
REMARK SMILES IDX 20 34 70 35 21 36 75 37 69 38 71 39 22 40 74 41 68 42 67 43
REMARK SMILES IDX 23 45 55 46 35 47 54 48 36 49 39 50 53 51 72 52 37 53 38 54
REMARK SMILES IDX 52 56 73 57 40 58 24 59 25 60 33 61 26 62 27 63 31 64 34 65
REMARK SMILES IDX 28 66 29 67 32 68 30 69 56 70 57 71 65 72 58 73 59 74 63 75
REMARK SMILES IDX 66 76 60 77 61 78 64 79 62 80 41 81 42 82 50 83 43 84 44 85
REMARK SMILES IDX 48 86 51 87 45 88 46 89 49 90 47 91
REMARK H PARENT 71 44 39 55
REMARK Flexibility Score: inf
ROOT
ATOM      1  C   UNL A   1      32.216  27.342  26.941  1.00  0.00     0.274 C 
ENDROOT
BRANCH   1   2
ATOM      2  O   UNL A   1      33.275  26.528  26.317  1.00  0.00    -0.462 OA
BRANCH   2   3
ATOM      3  C   UNL A   1      32.880  25.369  25.707  1.00  0.00     0.312 C 
ATOM      4  O   UNL A   1      32.091  24.598  26.252  1.00  0.00    -0.252 OA
BRANCH   3   5
ATOM      5  C   UNL A   1      33.433  25.091  24.240  1.00  0.00     0.071 C 
ATOM      6  C   UNL A   1      31.574  26.765  22.527  1.00  0.00    -0.011 C 
ATOM      7  C   UNL A   1      32.593  27.404  23.476  1.00  0.00     0.005 C 
ATOM      8  C   UNL A   1      31.215  25.340  22.950  1.00  0.00     0.005 C 
ATOM      9  C   UNL A   1      33.807  26.514  23.709  1.00  0.00     0.019 C 
ATOM     10  C   UNL A   1      32.436  24.495  23.228  1.00  0.00     0.019 C 
BRANCH   6  11
ATOM     11  C   UNL A   1      30.269  27.567  22.421  1.00  0.00    -0.000 C 
ATOM     12  C   UNL A   1      30.461  29.070  22.356  1.00  0.00     0.004 C 
ENDBRANCH   6  11
BRANCH   5  13
ATOM     13  C   UNL A   1      34.777  24.242  24.113  1.00  0.00     0.008 C 
ATOM     14  C   UNL A   1      35.699  24.270  25.328  1.00  0.00     0.005 C 
ATOM     15  C   UNL A   1      34.690  22.778  23.622  1.00  0.00     0.024 C 
ATOM     16  C   UNL A   1      35.198  23.362  26.432  1.00  0.00     0.002 C 
ATOM     17  C   UNL A   1      34.076  21.806  24.596  1.00  0.00     0.108 C 
ATOM     18  C   UNL A   1      34.091  22.400  25.996  1.00  0.00     0.020 C 
BRANCH  17  19
ATOM     19  S   UNL A   1      32.463  21.067  24.138  1.00  0.00     0.150 S 
ATOM     20  C   UNL A   1      32.511  19.300  24.393  1.00  0.00     0.158 C 
ATOM     21  O   UNL A   1      31.489  21.567  25.082  1.00  0.00    -0.229 OA
ATOM     22  O   UNL A   1      32.240  21.238  22.710  1.00  0.00    -0.229 OA
ENDBRANCH  17  19
ENDBRANCH   5  13
ENDBRANCH   3   5
ENDBRANCH   2   3
ENDBRANCH   1   2
BRANCH   1  23
ATOM     23  C   UNL A   1      32.202  28.850  26.538  1.00  0.00     0.275 C 
BRANCH  23  24
ATOM     24  O   UNL A   1      32.432  29.764  27.664  1.00  0.00    -0.458 OA
BRANCH  24  25
ATOM     25  C   UNL A   1      33.139  30.898  27.361  1.00  0.00     0.338 C 
ATOM     26  O   UNL A   1      32.632  32.016  27.269  1.00  0.00    -0.246 OA
BRANCH  25  27
ATOM     27  C   UNL A   1      34.641  30.759  27.317  1.00  0.00     0.060 A 
ATOM     28  C   UNL A   1      35.242  29.517  27.319  1.00  0.00     0.016 A 
ATOM     29  C   UNL A   1      35.423  31.851  27.729  1.00  0.00     0.016 A 
ATOM     30  C   UNL A   1      36.336  29.350  28.188  1.00  0.00     0.010 A 
ATOM     31  C   UNL A   1      36.693  31.673  28.333  1.00  0.00     0.010 A 
ATOM     32  C   UNL A   1      37.148  30.395  28.666  1.00  0.00    -0.014 A 
BRANCH  32  33
ATOM     33  C   UNL A   1      38.414  30.095  29.458  1.00  0.00     0.031 A 
ATOM     34  C   UNL A   1      39.567  29.251  28.921  1.00  0.00     0.074 A 
ATOM     35  C   UNL A   1      38.598  30.631  30.693  1.00  0.00     0.049 A 
ATOM     36  N   UNL A   1      40.555  28.681  29.581  1.00  0.00    -0.248 NA
ATOM     37  C   UNL A   1      39.642  29.036  27.469  1.00  0.00     0.031 C 
ATOM     38  C   UNL A   1      37.680  31.547  31.372  1.00  0.00     0.029 A 
ATOM     39  N   UNL A   1      39.634  30.515  31.599  1.00  0.00    -0.354 N 
ATOM     40  C   UNL A   1      41.311  27.975  28.647  1.00  0.00     0.074 A 
ATOM     41  C   UNL A   1      40.695  28.232  27.358  1.00  0.00     0.031 C 
ATOM     42  C   UNL A   1      38.245  32.027  32.479  1.00  0.00     0.029 A 
ATOM     43  C   UNL A   1      39.433  31.244  32.751  1.00  0.00     0.049 A 
ATOM     44  H   UNL A   1      40.436  29.966  31.438  1.00  0.00     0.167 HD
ATOM     45  C   UNL A   1      42.391  27.168  28.850  1.00  0.00     0.037 A 
ATOM     46  C   UNL A   1      40.021  31.221  33.962  1.00  0.00     0.037 A 
ATOM     47  C   UNL A   1      43.025  26.951  30.134  1.00  0.00     0.049 A 
ATOM     48  C   UNL A   1      41.123  30.243  34.207  1.00  0.00     0.074 A 
ATOM     49  C   UNL A   1      44.045  26.073  30.470  1.00  0.00     0.029 A 
ATOM     50  N   UNL A   1      42.711  27.642  31.297  1.00  0.00    -0.354 N 
ATOM     51  N   UNL A   1      41.689  29.414  33.367  1.00  0.00    -0.248 NA
ATOM     52  C   UNL A   1      41.640  30.167  35.578  1.00  0.00     0.031 C 
ATOM     53  C   UNL A   1      44.312  26.201  31.840  1.00  0.00     0.029 A 
ATOM     54  C   UNL A   1      43.507  27.205  32.348  1.00  0.00     0.049 A 
ATOM     55  H   UNL A   1      42.023  28.343  31.367  1.00  0.00     0.167 HD
ATOM     56  C   UNL A   1      42.637  28.722  34.103  1.00  0.00     0.074 A 
ATOM     57  C   UNL A   1      42.587  29.247  35.451  1.00  0.00     0.031 C 
ATOM     58  C   UNL A   1      43.465  27.733  33.690  1.00  0.00     0.037 A 
BRANCH  45  59
ATOM     59  C   UNL A   1      42.885  26.361  27.673  1.00  0.00     0.064 A 
ATOM     60  C   UNL A   1      43.919  26.795  26.830  1.00  0.00     0.173 A 
ATOM     61  C   UNL A   1      42.291  25.120  27.378  1.00  0.00     0.173 A 
ATOM     62  F   UNL A   1      44.533  27.965  27.062  1.00  0.00    -0.203 F 
ATOM     63  C   UNL A   1      44.293  26.054  25.707  1.00  0.00     0.198 A 
ATOM     64  C   UNL A   1      42.687  24.368  26.274  1.00  0.00     0.198 A 
ATOM     65  F   UNL A   1      41.319  24.634  28.165  1.00  0.00    -0.203 F 
ATOM     66  F   UNL A   1      45.233  26.526  24.875  1.00  0.00    -0.200 F 
ATOM     67  C   UNL A   1      43.674  24.844  25.427  1.00  0.00     0.200 A 
ATOM     68  F   UNL A   1      42.101  23.189  26.022  1.00  0.00    -0.200 F 
ATOM     69  F   UNL A   1      44.018  24.146  24.336  1.00  0.00    -0.200 F 
ENDBRANCH  45  59
BRANCH  46  70
ATOM     70  C   UNL A   1      39.473  32.062  35.067  1.00  0.00     0.064 A 
ATOM     71  C   UNL A   1      38.600  31.528  36.023  1.00  0.00     0.173 A 
ATOM     72  C   UNL A   1      39.836  33.414  35.206  1.00  0.00     0.173 A 
ATOM     73  F   UNL A   1      38.197  30.253  35.921  1.00  0.00    -0.203 F 
ATOM     74  C   UNL A   1      38.116  32.309  37.070  1.00  0.00     0.198 A 
ATOM     75  C   UNL A   1      39.392  34.178  36.281  1.00  0.00     0.198 A 
ATOM     76  F   UNL A   1      40.669  33.983  34.321  1.00  0.00    -0.203 F 
ATOM     77  F   UNL A   1      37.247  31.785  37.945  1.00  0.00    -0.200 F 
ATOM     78  C   UNL A   1      38.524  33.628  37.208  1.00  0.00     0.200 A 
ATOM     79  F   UNL A   1      39.818  35.441  36.425  1.00  0.00    -0.200 F 
ATOM     80  F   UNL A   1      38.077  34.368  38.231  1.00  0.00    -0.200 F 
ENDBRANCH  46  70
BRANCH  58  81
ATOM     81  C   UNL A   1      44.433  27.200  34.706  1.00  0.00     0.064 A 
ATOM     82  C   UNL A   1      44.138  26.082  35.500  1.00  0.00     0.173 A 
ATOM     83  C   UNL A   1      45.671  27.833  34.897  1.00  0.00     0.173 A 
ATOM     84  F   UNL A   1      42.957  25.458  35.376  1.00  0.00    -0.203 F 
ATOM     85  C   UNL A   1      45.033  25.636  36.471  1.00  0.00     0.198 A 
ATOM     86  C   UNL A   1      46.575  27.367  35.847  1.00  0.00     0.198 A 
ATOM     87  F   UNL A   1      45.998  28.912  34.169  1.00  0.00    -0.203 F 
ATOM     88  F   UNL A   1      44.703  24.607  37.261  1.00  0.00    -0.200 F 
ATOM     89  C   UNL A   1      46.252  26.276  36.639  1.00  0.00     0.200 A 
ATOM     90  F   UNL A   1      47.755  27.983  36.003  1.00  0.00    -0.200 F 
ATOM     91  F   UNL A   1      47.111  25.849  37.575  1.00  0.00    -0.200 F 
ENDBRANCH  58  81
ENDBRANCH  32  33
ENDBRANCH  25  27
ENDBRANCH  24  25
ENDBRANCH  23  24
ENDBRANCH   1  23
TORSDOF 14
ENDMDL
