MODEL 1
REMARK VINA RESULT:     -12.6      0.000      0.000
REMARK SMILES [NH3+][C@@]1(C(=O)OCCOC(=O)c2ccc(-c3c4nc(c(-c5c(F)c(F)c(F)c(F)c5F)c5ccc([nH]5)c(-c5c(F)c(F)c(F)c(F)c5F)c5nc(c(-c6c(F)c(F)c(F)c(F)c6F)c6ccc3[nH]6)C=C5)C=C4)cc2)CC[C@@H]([N@H+]2CC[C@H]([NH+]3CCOCC3)C2)C1
REMARK SMILES IDX 6 1 5 2 3 3 4 4 2 5 74 6 88 7 75 8 76 9 1 10 77 14 78 15
REMARK SMILES IDX 87 16 79 18 80 19 81 20 82 21 86 22 83 24 85 25 84 26 7 27
REMARK SMILES IDX 8 28 9 29 10 30 11 31 12 32 73 33 13 34 72 35 14 36 15 37
REMARK SMILES IDX 16 38 66 39 17 40 71 41 65 42 67 43 18 44 70 45 64 46 63 47
REMARK SMILES IDX 19 49 51 50 31 51 50 52 32 53 35 54 49 55 68 56 33 57 34 58
REMARK SMILES IDX 48 60 69 61 36 62 20 63 21 64 29 65 22 66 23 67 27 68 30 69
REMARK SMILES IDX 24 70 25 71 28 72 26 73 52 74 53 75 61 76 54 77 55 78 59 79
REMARK SMILES IDX 62 80 56 81 57 82 60 83 58 84 37 85 38 86 46 87 39 88 40 89
REMARK SMILES IDX 44 90 47 91 41 92 42 93 45 94 43 95
REMARK H PARENT 1 11 1 12 1 13 77 17 81 23 67 48 35 59
REMARK Flexibility Score: inf
ROOT
ATOM      1  C   UNL A   1      31.612  28.469  24.831  1.00  0.00     0.274 C 
ENDROOT
BRANCH   1   2
ATOM      2  O   UNL A   1      32.655  27.640  25.384  1.00  0.00    -0.457 OA
BRANCH   2   3
ATOM      3  C   UNL A   1      32.272  26.432  25.888  1.00  0.00     0.368 C 
ATOM      4  O   UNL A   1      31.652  26.296  26.937  1.00  0.00    -0.245 OA
BRANCH   3   5
ATOM      5  C   UNL A   1      32.740  25.243  24.990  1.00  0.00     0.198 C 
ATOM      6  C   UNL A   1      31.494  24.563  24.411  1.00  0.00     0.087 C 
ATOM      7  C   UNL A   1      33.511  24.148  25.750  1.00  0.00     0.145 C 
ATOM      8  C   UNL A   1      31.192  23.451  25.402  1.00  0.00     0.072 C 
ATOM      9  C   UNL A   1      32.563  22.941  25.869  1.00  0.00     0.191 C 
BRANCH   5  10
ATOM     10  N   UNL A   1      33.581  25.758  23.880  1.00  0.00    -0.343 N 
ATOM     11  H   UNL A   1      34.284  26.395  24.255  1.00  0.00     0.345 HD
ATOM     12  H   UNL A   1      32.993  26.256  23.211  1.00  0.00     0.345 HD
ATOM     13  H   UNL A   1      34.042  24.978  23.412  1.00  0.00     0.345 HD
ENDBRANCH   5  10
BRANCH   9  14
ATOM     14  N   UNL A   1      33.008  21.749  25.145  1.00  0.00    -0.327 N 
ATOM     15  C   UNL A   1      34.353  21.242  25.382  1.00  0.00     0.269 C 
ATOM     16  C   UNL A   1      32.075  20.611  25.238  1.00  0.00     0.328 C 
ATOM     17  H   UNL A   1      33.025  22.147  24.205  1.00  0.00     0.348 HD
ATOM     18  C   UNL A   1      34.309  19.881  24.706  1.00  0.00     0.132 C 
ATOM     19  C   UNL A   1      32.951  19.335  25.151  1.00  0.00     0.245 C 
BRANCH  19  20
ATOM     20  N   UNL A   1      32.398  18.128  24.521  1.00  0.00    -0.324 N 
ATOM     21  C   UNL A   1      32.418  16.926  25.379  1.00  0.00     0.291 C 
ATOM     22  C   UNL A   1      32.888  17.761  23.184  1.00  0.00     0.291 C 
ATOM     23  H   UNL A   1      31.439  18.449  24.389  1.00  0.00     0.348 HD
ATOM     24  C   UNL A   1      33.717  16.096  25.313  1.00  0.00     0.221 C 
ATOM     25  C   UNL A   1      34.221  17.006  23.193  1.00  0.00     0.221 C 
ATOM     26  O   UNL A   1      34.112  15.805  23.967  1.00  0.00    -0.370 OA
ENDBRANCH  19  20
ENDBRANCH   9  14
ENDBRANCH   3   5
ENDBRANCH   2   3
ENDBRANCH   1   2
BRANCH   1  27
ATOM     27  C   UNL A   1      31.686  29.876  25.421  1.00  0.00     0.275 C 
BRANCH  27  28
ATOM     28  O   UNL A   1      33.028  30.147  25.862  1.00  0.00    -0.458 OA
BRANCH  28  29
ATOM     29  C   UNL A   1      33.166  31.107  26.803  1.00  0.00     0.338 C 
ATOM     30  O   UNL A   1      32.379  31.989  27.099  1.00  0.00    -0.246 OA
BRANCH  29  31
ATOM     31  C   UNL A   1      34.445  30.911  27.500  1.00  0.00     0.060 A 
ATOM     32  C   UNL A   1      34.820  29.623  27.870  1.00  0.00     0.016 A 
ATOM     33  C   UNL A   1      35.230  32.002  27.866  1.00  0.00     0.016 A 
ATOM     34  C   UNL A   1      35.937  29.417  28.672  1.00  0.00     0.010 A 
ATOM     35  C   UNL A   1      36.415  31.785  28.578  1.00  0.00     0.010 A 
ATOM     36  C   UNL A   1      36.774  30.490  29.000  1.00  0.00    -0.014 A 
BRANCH  36  37
ATOM     37  C   UNL A   1      38.037  30.253  29.748  1.00  0.00     0.031 A 
ATOM     38  C   UNL A   1      39.119  29.393  29.161  1.00  0.00     0.074 A 
ATOM     39  C   UNL A   1      38.208  30.802  30.967  1.00  0.00     0.049 A 
ATOM     40  N   UNL A   1      40.184  28.895  29.737  1.00  0.00    -0.248 NA
ATOM     41  C   UNL A   1      38.982  29.038  27.740  1.00  0.00     0.031 C 
ATOM     42  C   UNL A   1      37.262  31.699  31.634  1.00  0.00     0.029 A 
ATOM     43  N   UNL A   1      39.239  30.685  31.867  1.00  0.00    -0.354 N 
ATOM     44  C   UNL A   1      40.817  28.131  28.766  1.00  0.00     0.074 A 
ATOM     45  C   UNL A   1      40.022  28.233  27.561  1.00  0.00     0.031 C 
ATOM     46  C   UNL A   1      37.763  32.067  32.821  1.00  0.00     0.029 A 
ATOM     47  C   UNL A   1      39.019  31.361  33.042  1.00  0.00     0.049 A 
ATOM     48  H   UNL A   1      40.057  30.165  31.687  1.00  0.00     0.167 HD
ATOM     49  C   UNL A   1      41.957  27.407  28.878  1.00  0.00     0.037 A 
ATOM     50  C   UNL A   1      39.713  31.367  34.195  1.00  0.00     0.037 A 
ATOM     51  C   UNL A   1      42.766  27.346  30.068  1.00  0.00     0.049 A 
ATOM     52  C   UNL A   1      40.938  30.508  34.315  1.00  0.00     0.074 A 
ATOM     53  C   UNL A   1      43.953  26.663  30.271  1.00  0.00     0.029 A 
ATOM     54  N   UNL A   1      42.475  28.005  31.254  1.00  0.00    -0.354 N 
ATOM     55  N   UNL A   1      41.497  29.739  33.414  1.00  0.00    -0.248 NA
ATOM     56  C   UNL A   1      41.609  30.492  35.622  1.00  0.00     0.031 C 
ATOM     57  C   UNL A   1      44.363  26.882  31.591  1.00  0.00     0.029 A 
ATOM     58  C   UNL A   1      43.448  27.725  32.200  1.00  0.00     0.049 A 
ATOM     59  H   UNL A   1      41.694  28.584  31.400  1.00  0.00     0.167 HD
ATOM     60  C   UNL A   1      42.575  29.139  34.043  1.00  0.00     0.074 A 
ATOM     61  C   UNL A   1      42.612  29.655  35.397  1.00  0.00     0.031 C 
ATOM     62  C   UNL A   1      43.451  28.233  33.547  1.00  0.00     0.037 A 
BRANCH  49  63
ATOM     63  C   UNL A   1      42.381  26.591  27.695  1.00  0.00     0.064 A 
ATOM     64  C   UNL A   1      43.341  27.052  26.785  1.00  0.00     0.173 A 
ATOM     65  C   UNL A   1      41.848  25.308  27.498  1.00  0.00     0.173 A 
ATOM     66  F   UNL A   1      43.870  28.277  26.924  1.00  0.00    -0.203 F 
ATOM     67  C   UNL A   1      43.741  26.264  25.708  1.00  0.00     0.198 A 
ATOM     68  C   UNL A   1      42.264  24.516  26.432  1.00  0.00     0.198 A 
ATOM     69  F   UNL A   1      40.927  24.821  28.343  1.00  0.00    -0.203 F 
ATOM     70  F   UNL A   1      44.637  26.737  24.830  1.00  0.00    -0.200 F 
ATOM     71  C   UNL A   1      43.207  24.996  25.536  1.00  0.00     0.200 A 
ATOM     72  F   UNL A   1      41.753  23.287  26.272  1.00  0.00    -0.200 F 
ATOM     73  F   UNL A   1      43.598  24.236  24.503  1.00  0.00    -0.200 F 
ENDBRANCH  49  63
BRANCH  50  74
ATOM     74  C   UNL A   1      39.213  32.159  35.346  1.00  0.00     0.064 A 
ATOM     75  C   UNL A   1      38.426  31.568  36.343  1.00  0.00     0.173 A 
ATOM     76  C   UNL A   1      39.537  33.518  35.486  1.00  0.00     0.173 A 
ATOM     77  F   UNL A   1      38.068  30.280  36.237  1.00  0.00    -0.203 F 
ATOM     78  C   UNL A   1      37.984  32.307  37.439  1.00  0.00     0.198 A 
ATOM     79  C   UNL A   1      39.118  34.248  36.595  1.00  0.00     0.198 A 
ATOM     80  F   UNL A   1      40.285  34.129  34.555  1.00  0.00    -0.203 F 
ATOM     81  F   UNL A   1      37.210  31.727  38.366  1.00  0.00    -0.200 F 
ATOM     82  C   UNL A   1      38.339  33.642  37.569  1.00  0.00     0.200 A 
ATOM     83  F   UNL A   1      39.472  35.533  36.722  1.00  0.00    -0.200 F 
ATOM     84  F   UNL A   1      37.924  34.348  38.630  1.00  0.00    -0.200 F 
ENDBRANCH  50  74
BRANCH  62  85
ATOM     85  C   UNL A   1      44.512  27.735  34.479  1.00  0.00     0.064 A 
ATOM     86  C   UNL A   1      44.317  26.575  35.242  1.00  0.00     0.173 A 
ATOM     87  C   UNL A   1      45.741  28.400  34.586  1.00  0.00     0.173 A 
ATOM     88  F   UNL A   1      43.149  25.918  35.184  1.00  0.00    -0.203 F 
ATOM     89  C   UNL A   1      45.314  26.104  36.090  1.00  0.00     0.198 A 
ATOM     90  C   UNL A   1      46.744  27.916  35.422  1.00  0.00     0.198 A 
ATOM     91  F   UNL A   1      45.972  29.514  33.875  1.00  0.00    -0.203 F 
ATOM     92  F   UNL A   1      45.098  25.011  36.835  1.00  0.00    -0.200 F 
ATOM     93  C   UNL A   1      46.528  26.771  36.175  1.00  0.00     0.200 A 
ATOM     94  F   UNL A   1      47.917  28.557  35.499  1.00  0.00    -0.200 F 
ATOM     95  F   UNL A   1      47.489  26.314  36.990  1.00  0.00    -0.200 F 
ENDBRANCH  62  85
ENDBRANCH  36  37
ENDBRANCH  29  31
ENDBRANCH  28  29
ENDBRANCH  27  28
ENDBRANCH   1  27
TORSDOF 14
ENDMDL
MODEL 2
REMARK VINA RESULT:     -12.5      4.406     10.333
REMARK SMILES [NH3+][C@@]1(C(=O)OCCOC(=O)c2ccc(-c3c4nc(c(-c5c(F)c(F)c(F)c(F)c5F)c5ccc([nH]5)c(-c5c(F)c(F)c(F)c(F)c5F)c5nc(c(-c6c(F)c(F)c(F)c(F)c6F)c6ccc3[nH]6)C=C5)C=C4)cc2)CC[C@@H]([N@H+]2CC[C@H]([NH+]3CCOCC3)C2)C1
REMARK SMILES IDX 6 1 5 2 3 3 4 4 2 5 74 6 88 7 75 8 76 9 1 10 77 14 78 15
REMARK SMILES IDX 87 16 79 18 80 19 81 20 82 21 86 22 83 24 85 25 84 26 7 27
REMARK SMILES IDX 8 28 9 29 10 30 11 31 12 32 73 33 13 34 72 35 14 36 15 37
REMARK SMILES IDX 16 38 66 39 17 40 71 41 65 42 67 43 18 44 70 45 64 46 63 47
REMARK SMILES IDX 19 49 51 50 31 51 50 52 32 53 35 54 49 55 68 56 33 57 34 58
REMARK SMILES IDX 48 60 69 61 36 62 20 63 21 64 29 65 22 66 23 67 27 68 30 69
REMARK SMILES IDX 24 70 25 71 28 72 26 73 52 74 53 75 61 76 54 77 55 78 59 79
REMARK SMILES IDX 62 80 56 81 57 82 60 83 58 84 37 85 38 86 46 87 39 88 40 89
REMARK SMILES IDX 44 90 47 91 41 92 42 93 45 94 43 95
REMARK H PARENT 1 11 1 12 1 13 77 17 81 23 67 48 35 59
REMARK Flexibility Score: inf
ROOT
ATOM      1  C   UNL A   1      34.680  21.849  24.721  1.00  0.00     0.274 C 
ENDROOT
BRANCH   1   2
ATOM      2  O   UNL A   1      35.003  23.249  24.600  1.00  0.00    -0.457 OA
BRANCH   2   3
ATOM      3  C   UNL A   1      34.261  23.972  23.713  1.00  0.00     0.368 C 
ATOM      4  O   UNL A   1      34.307  23.814  22.497  1.00  0.00    -0.245 OA
BRANCH   3   5
ATOM      5  C   UNL A   1      33.371  25.042  24.421  1.00  0.00     0.198 C 
ATOM      6  C   UNL A   1      31.919  24.555  24.386  1.00  0.00     0.087 C 
ATOM      7  C   UNL A   1      33.378  26.420  23.732  1.00  0.00     0.145 C 
ATOM      8  C   UNL A   1      31.352  25.189  23.127  1.00  0.00     0.072 C 
ATOM      9  C   UNL A   1      32.012  26.572  23.037  1.00  0.00     0.191 C 
BRANCH   5  10
ATOM     10  N   UNL A   1      33.806  25.196  25.832  1.00  0.00    -0.343 N 
ATOM     11  H   UNL A   1      34.816  25.336  25.864  1.00  0.00     0.345 HD
ATOM     12  H   UNL A   1      33.564  24.354  26.356  1.00  0.00     0.345 HD
ATOM     13  H   UNL A   1      33.337  26.000  26.248  1.00  0.00     0.345 HD
ENDBRANCH   5  10
BRANCH   9  14
ATOM     14  N   UNL A   1      31.174  27.643  23.578  1.00  0.00    -0.327 N 
ATOM     15  C   UNL A   1      31.814  28.851  24.082  1.00  0.00     0.269 C 
ATOM     16  C   UNL A   1      30.079  28.055  22.681  1.00  0.00     0.328 C 
ATOM     17  H   UNL A   1      30.824  27.152  24.401  1.00  0.00     0.348 HD
ATOM     18  C   UNL A   1      30.634  29.794  24.255  1.00  0.00     0.132 C 
ATOM     19  C   UNL A   1      29.833  29.558  22.973  1.00  0.00     0.245 C 
BRANCH  19  20
ATOM     20  N   UNL A   1      28.474  30.100  22.841  1.00  0.00    -0.324 N 
ATOM     21  C   UNL A   1      28.037  30.325  21.448  1.00  0.00     0.291 C 
ATOM     22  C   UNL A   1      28.121  31.281  23.643  1.00  0.00     0.291 C 
ATOM     23  H   UNL A   1      27.958  29.321  23.250  1.00  0.00     0.348 HD
ATOM     24  C   UNL A   1      28.405  31.704  20.862  1.00  0.00     0.221 C 
ATOM     25  C   UNL A   1      28.586  32.609  23.036  1.00  0.00     0.221 C 
ATOM     26  O   UNL A   1      28.031  32.784  21.727  1.00  0.00    -0.370 OA
ENDBRANCH  19  20
ENDBRANCH   9  14
ENDBRANCH   3   5
ENDBRANCH   2   3
ENDBRANCH   1   2
BRANCH   1  27
ATOM     27  C   UNL A   1      35.949  21.031  24.953  1.00  0.00     0.275 C 
BRANCH  27  28
ATOM     28  O   UNL A   1      36.825  21.739  25.849  1.00  0.00    -0.458 OA
BRANCH  28  29
ATOM     29  C   UNL A   1      38.138  21.430  25.769  1.00  0.00     0.338 C 
ATOM     30  O   UNL A   1      38.644  20.383  25.407  1.00  0.00    -0.246 OA
BRANCH  29  31
ATOM     31  C   UNL A   1      38.928  22.608  26.154  1.00  0.00     0.060 A 
ATOM     32  C   UNL A   1      40.042  22.434  26.969  1.00  0.00     0.016 A 
ATOM     33  C   UNL A   1      38.519  23.889  25.788  1.00  0.00     0.016 A 
ATOM     34  C   UNL A   1      40.714  23.535  27.488  1.00  0.00     0.010 A 
ATOM     35  C   UNL A   1      39.263  24.994  26.219  1.00  0.00     0.010 A 
ATOM     36  C   UNL A   1      40.360  24.828  27.085  1.00  0.00    -0.014 A 
BRANCH  36  37
ATOM     37  C   UNL A   1      41.159  25.998  27.538  1.00  0.00     0.031 A 
ATOM     38  C   UNL A   1      40.532  27.065  28.389  1.00  0.00     0.074 A 
ATOM     39  C   UNL A   1      42.451  26.111  27.171  1.00  0.00     0.049 A 
ATOM     40  N   UNL A   1      40.990  28.252  28.699  1.00  0.00    -0.248 NA
ATOM     41  C   UNL A   1      39.212  26.761  28.962  1.00  0.00     0.031 C 
ATOM     42  C   UNL A   1      43.200  25.124  26.390  1.00  0.00     0.029 A 
ATOM     43  N   UNL A   1      43.367  27.108  27.404  1.00  0.00    -0.354 N 
ATOM     44  C   UNL A   1      39.997  28.854  29.460  1.00  0.00     0.074 A 
ATOM     45  C   UNL A   1      38.912  27.901  29.571  1.00  0.00     0.031 C 
ATOM     46  C   UNL A   1      44.460  25.552  26.228  1.00  0.00     0.029 A 
ATOM     47  C   UNL A   1      44.584  26.883  26.809  1.00  0.00     0.049 A 
ATOM     48  H   UNL A   1      43.168  27.908  27.944  1.00  0.00     0.167 HD
ATOM     49  C   UNL A   1      39.994  30.092  30.009  1.00  0.00     0.037 A 
ATOM     50  C   UNL A   1      45.663  27.678  26.688  1.00  0.00     0.037 A 
ATOM     51  C   UNL A   1      41.095  31.017  29.931  1.00  0.00     0.049 A 
ATOM     52  C   UNL A   1      45.612  29.068  27.252  1.00  0.00     0.074 A 
ATOM     53  C   UNL A   1      41.200  32.284  30.478  1.00  0.00     0.029 A 
ATOM     54  N   UNL A   1      42.290  30.766  29.272  1.00  0.00    -0.354 N 
ATOM     55  N   UNL A   1      44.647  29.654  27.916  1.00  0.00    -0.248 NA
ATOM     56  C   UNL A   1      46.788  29.919  27.019  1.00  0.00     0.031 C 
ATOM     57  C   UNL A   1      42.445  32.814  30.123  1.00  0.00     0.029 A 
ATOM     58  C   UNL A   1      43.129  31.865  29.380  1.00  0.00     0.049 A 
ATOM     59  H   UNL A   1      42.509  29.932  28.798  1.00  0.00     0.167 HD
ATOM     60  C   UNL A   1      45.089  30.942  28.171  1.00  0.00     0.074 A 
ATOM     61  C   UNL A   1      46.423  31.046  27.616  1.00  0.00     0.031 C 
ATOM     62  C   UNL A   1      44.443  31.953  28.800  1.00  0.00     0.037 A 
BRANCH  49  63
ATOM     63  C   UNL A   1      38.749  30.537  30.713  1.00  0.00     0.064 A 
ATOM     64  C   UNL A   1      38.626  30.476  32.108  1.00  0.00     0.173 A 
ATOM     65  C   UNL A   1      37.680  31.075  29.981  1.00  0.00     0.173 A 
ATOM     66  F   UNL A   1      39.615  29.957  32.851  1.00  0.00    -0.203 F 
ATOM     67  C   UNL A   1      37.470  30.922  32.743  1.00  0.00     0.198 A 
ATOM     68  C   UNL A   1      36.534  31.538  30.620  1.00  0.00     0.198 A 
ATOM     69  F   UNL A   1      37.750  31.158  28.644  1.00  0.00    -0.203 F 
ATOM     70  F   UNL A   1      37.359  30.824  34.076  1.00  0.00    -0.200 F 
ATOM     71  C   UNL A   1      36.429  31.458  32.001  1.00  0.00     0.200 A 
ATOM     72  F   UNL A   1      35.532  32.064  29.901  1.00  0.00    -0.200 F 
ATOM     73  F   UNL A   1      35.319  31.893  32.615  1.00  0.00    -0.200 F 
ENDBRANCH  49  63
BRANCH  50  74
ATOM     74  C   UNL A   1      46.848  27.195  25.936  1.00  0.00     0.064 A 
ATOM     75  C   UNL A   1      47.002  27.475  24.573  1.00  0.00     0.173 A 
ATOM     76  C   UNL A   1      47.864  26.468  26.576  1.00  0.00     0.173 A 
ATOM     77  F   UNL A   1      46.044  28.143  23.914  1.00  0.00    -0.203 F 
ATOM     78  C   UNL A   1      48.131  27.047  23.877  1.00  0.00     0.198 A 
ATOM     79  C   UNL A   1      49.004  26.064  25.886  1.00  0.00     0.198 A 
ATOM     80  F   UNL A   1      47.759  26.171  27.880  1.00  0.00    -0.203 F 
ATOM     81  F   UNL A   1      48.244  27.303  22.566  1.00  0.00    -0.200 F 
ATOM     82  C   UNL A   1      49.135  26.351  24.536  1.00  0.00     0.200 A 
ATOM     83  F   UNL A   1      49.975  25.403  26.528  1.00  0.00    -0.200 F 
ATOM     84  F   UNL A   1      50.226  25.952  23.868  1.00  0.00    -0.200 F 
ENDBRANCH  50  74
BRANCH  62  85
ATOM     85  C   UNL A   1      45.168  33.258  28.907  1.00  0.00     0.064 A 
ATOM     86  C   UNL A   1      44.995  34.262  27.944  1.00  0.00     0.173 A 
ATOM     87  C   UNL A   1      46.014  33.520  29.994  1.00  0.00     0.173 A 
ATOM     88  F   UNL A   1      44.210  34.046  26.878  1.00  0.00    -0.203 F 
ATOM     89  C   UNL A   1      45.654  35.482  28.059  1.00  0.00     0.198 A 
ATOM     90  C   UNL A   1      46.657  34.749  30.116  1.00  0.00     0.198 A 
ATOM     91  F   UNL A   1      46.208  32.590  30.940  1.00  0.00    -0.203 F 
ATOM     92  F   UNL A   1      45.501  36.417  27.112  1.00  0.00    -0.200 F 
ATOM     93  C   UNL A   1      46.480  35.726  29.148  1.00  0.00     0.200 A 
ATOM     94  F   UNL A   1      47.450  34.986  31.170  1.00  0.00    -0.200 F 
ATOM     95  F   UNL A   1      47.111  36.903  29.260  1.00  0.00    -0.200 F 
ENDBRANCH  62  85
ENDBRANCH  36  37
ENDBRANCH  29  31
ENDBRANCH  28  29
ENDBRANCH  27  28
ENDBRANCH   1  27
TORSDOF 14
ENDMDL
MODEL 3
REMARK VINA RESULT:     -12.4      0.483      1.762
REMARK SMILES [NH3+][C@@]1(C(=O)OCCOC(=O)c2ccc(-c3c4nc(c(-c5c(F)c(F)c(F)c(F)c5F)c5ccc([nH]5)c(-c5c(F)c(F)c(F)c(F)c5F)c5nc(c(-c6c(F)c(F)c(F)c(F)c6F)c6ccc3[nH]6)C=C5)C=C4)cc2)CC[C@@H]([N@H+]2CC[C@H]([NH+]3CCOCC3)C2)C1
REMARK SMILES IDX 6 1 5 2 3 3 4 4 2 5 74 6 88 7 75 8 76 9 1 10 77 14 78 15
REMARK SMILES IDX 87 16 79 18 80 19 81 20 82 21 86 22 83 24 85 25 84 26 7 27
REMARK SMILES IDX 8 28 9 29 10 30 11 31 12 32 73 33 13 34 72 35 14 36 15 37
REMARK SMILES IDX 16 38 66 39 17 40 71 41 65 42 67 43 18 44 70 45 64 46 63 47
REMARK SMILES IDX 19 49 51 50 31 51 50 52 32 53 35 54 49 55 68 56 33 57 34 58
REMARK SMILES IDX 48 60 69 61 36 62 20 63 21 64 29 65 22 66 23 67 27 68 30 69
REMARK SMILES IDX 24 70 25 71 28 72 26 73 52 74 53 75 61 76 54 77 55 78 59 79
REMARK SMILES IDX 62 80 56 81 57 82 60 83 58 84 37 85 38 86 46 87 39 88 40 89
REMARK SMILES IDX 44 90 47 91 41 92 42 93 45 94 43 95
REMARK H PARENT 1 11 1 12 1 13 77 17 81 23 67 48 35 59
REMARK Flexibility Score: inf
ROOT
ATOM      1  C   UNL A   1      31.826  28.358  26.274  1.00  0.00     0.274 C 
ENDROOT
BRANCH   1   2
ATOM      2  O   UNL A   1      31.532  27.291  25.349  1.00  0.00    -0.457 OA
BRANCH   2   3
ATOM      3  C   UNL A   1      31.447  26.035  25.873  1.00  0.00     0.368 C 
ATOM      4  O   UNL A   1      30.800  25.757  26.876  1.00  0.00    -0.245 OA
BRANCH   3   5
ATOM      5  C   UNL A   1      32.292  24.999  25.064  1.00  0.00     0.198 C 
ATOM      6  C   UNL A   1      31.333  24.163  24.211  1.00  0.00     0.087 C 
ATOM      7  C   UNL A   1      33.067  24.000  25.943  1.00  0.00     0.145 C 
ATOM      8  C   UNL A   1      31.030  22.955  25.082  1.00  0.00     0.072 C 
ATOM      9  C   UNL A   1      32.341  22.648  25.820  1.00  0.00     0.191 C 
BRANCH   5  10
ATOM     10  N   UNL A   1      33.243  25.717  24.178  1.00  0.00    -0.343 N 
ATOM     11  H   UNL A   1      32.751  26.462  23.684  1.00  0.00     0.345 HD
ATOM     12  H   UNL A   1      33.637  25.063  23.502  1.00  0.00     0.345 HD
ATOM     13  H   UNL A   1      33.994  26.119  24.739  1.00  0.00     0.345 HD
ENDBRANCH   5  10
BRANCH   9  14
ATOM     14  N   UNL A   1      33.128  21.595  25.176  1.00  0.00    -0.327 N 
ATOM     15  C   UNL A   1      34.430  21.250  25.731  1.00  0.00     0.269 C 
ATOM     16  C   UNL A   1      32.384  20.341  24.961  1.00  0.00     0.328 C 
ATOM     17  H   UNL A   1      33.321  22.075  24.296  1.00  0.00     0.348 HD
ATOM     18  C   UNL A   1      34.764  19.962  24.997  1.00  0.00     0.132 C 
ATOM     19  C   UNL A   1      33.436  19.204  25.040  1.00  0.00     0.245 C 
BRANCH  19  20
ATOM     20  N   UNL A   1      33.247  17.996  24.225  1.00  0.00    -0.324 N 
ATOM     21  C   UNL A   1      32.190  17.087  24.711  1.00  0.00     0.291 C 
ATOM     22  C   UNL A   1      34.437  17.199  23.887  1.00  0.00     0.291 C 
ATOM     23  H   UNL A   1      32.955  18.442  23.355  1.00  0.00     0.348 HD
ATOM     24  C   UNL A   1      32.651  16.045  25.751  1.00  0.00     0.221 C 
ATOM     25  C   UNL A   1      34.881  16.241  24.997  1.00  0.00     0.221 C 
ATOM     26  O   UNL A   1      33.823  15.334  25.330  1.00  0.00    -0.370 OA
ENDBRANCH  19  20
ENDBRANCH   9  14
ENDBRANCH   3   5
ENDBRANCH   2   3
ENDBRANCH   1   2
BRANCH   1  27
ATOM     27  C   UNL A   1      31.892  29.694  25.536  1.00  0.00     0.275 C 
BRANCH  27  28
ATOM     28  O   UNL A   1      33.169  30.315  25.771  1.00  0.00    -0.458 OA
BRANCH  28  29
ATOM     29  C   UNL A   1      33.231  31.180  26.807  1.00  0.00     0.338 C 
ATOM     30  O   UNL A   1      32.436  32.051  27.109  1.00  0.00    -0.246 OA
BRANCH  29  31
ATOM     31  C   UNL A   1      34.434  30.886  27.600  1.00  0.00     0.060 A 
ATOM     32  C   UNL A   1      35.335  31.913  27.863  1.00  0.00     0.016 A 
ATOM     33  C   UNL A   1      34.717  29.583  28.006  1.00  0.00     0.016 A 
ATOM     34  C   UNL A   1      36.558  31.641  28.464  1.00  0.00     0.010 A 
ATOM     35  C   UNL A   1      35.899  29.328  28.711  1.00  0.00     0.010 A 
ATOM     36  C   UNL A   1      36.838  30.353  28.935  1.00  0.00    -0.014 A 
BRANCH  36  37
ATOM     37  C   UNL A   1      38.090  30.088  29.693  1.00  0.00     0.031 A 
ATOM     38  C   UNL A   1      39.159  29.206  29.113  1.00  0.00     0.074 A 
ATOM     39  C   UNL A   1      38.264  30.632  30.914  1.00  0.00     0.049 A 
ATOM     40  N   UNL A   1      40.209  28.685  29.696  1.00  0.00    -0.248 NA
ATOM     41  C   UNL A   1      39.026  28.857  27.690  1.00  0.00     0.031 C 
ATOM     42  C   UNL A   1      37.330  31.547  31.575  1.00  0.00     0.029 A 
ATOM     43  N   UNL A   1      39.285  30.491  31.822  1.00  0.00    -0.354 N 
ATOM     44  C   UNL A   1      40.834  27.910  28.729  1.00  0.00     0.074 A 
ATOM     45  C   UNL A   1      40.050  28.031  27.518  1.00  0.00     0.031 C 
ATOM     46  C   UNL A   1      37.830  31.903  32.767  1.00  0.00     0.029 A 
ATOM     47  C   UNL A   1      39.069  31.170  32.996  1.00  0.00     0.049 A 
ATOM     48  H   UNL A   1      40.093  29.955  31.648  1.00  0.00     0.167 HD
ATOM     49  C   UNL A   1      41.957  27.162  28.849  1.00  0.00     0.037 A 
ATOM     50  C   UNL A   1      39.754  31.160  34.154  1.00  0.00     0.037 A 
ATOM     51  C   UNL A   1      42.755  27.082  30.045  1.00  0.00     0.049 A 
ATOM     52  C   UNL A   1      40.960  30.276  34.283  1.00  0.00     0.074 A 
ATOM     53  C   UNL A   1      43.926  26.374  30.257  1.00  0.00     0.029 A 
ATOM     54  N   UNL A   1      42.469  27.745  31.230  1.00  0.00    -0.354 N 
ATOM     55  N   UNL A   1      41.510  29.497  33.385  1.00  0.00    -0.248 NA
ATOM     56  C   UNL A   1      41.619  30.244  35.595  1.00  0.00     0.031 C 
ATOM     57  C   UNL A   1      44.330  26.583  31.580  1.00  0.00     0.029 A 
ATOM     58  C   UNL A   1      43.428  27.445  32.183  1.00  0.00     0.049 A 
ATOM     59  H   UNL A   1      41.698  28.341  31.371  1.00  0.00     0.167 HD
ATOM     60  C   UNL A   1      42.570  28.873  34.022  1.00  0.00     0.074 A 
ATOM     61  C   UNL A   1      42.607  29.386  35.376  1.00  0.00     0.031 C 
ATOM     62  C   UNL A   1      43.431  27.950  33.531  1.00  0.00     0.037 A 
BRANCH  49  63
ATOM     63  C   UNL A   1      42.373  26.340  27.668  1.00  0.00     0.064 A 
ATOM     64  C   UNL A   1      43.332  26.793  26.752  1.00  0.00     0.173 A 
ATOM     65  C   UNL A   1      41.835  25.058  27.478  1.00  0.00     0.173 A 
ATOM     66  F   UNL A   1      43.865  28.017  26.883  1.00  0.00    -0.203 F 
ATOM     67  C   UNL A   1      43.724  25.998  25.677  1.00  0.00     0.198 A 
ATOM     68  C   UNL A   1      42.244  24.259  26.415  1.00  0.00     0.198 A 
ATOM     69  F   UNL A   1      40.916  24.577  28.329  1.00  0.00    -0.203 F 
ATOM     70  F   UNL A   1      44.619  26.464  24.794  1.00  0.00    -0.200 F 
ATOM     71  C   UNL A   1      43.185  24.731  25.513  1.00  0.00     0.200 A 
ATOM     72  F   UNL A   1      41.728  23.031  26.263  1.00  0.00    -0.200 F 
ATOM     73  F   UNL A   1      43.569  23.965  24.481  1.00  0.00    -0.200 F 
ENDBRANCH  49  63
BRANCH  50  74
ATOM     74  C   UNL A   1      39.261  31.961  35.303  1.00  0.00     0.064 A 
ATOM     75  C   UNL A   1      39.558  33.325  35.412  1.00  0.00     0.173 A 
ATOM     76  C   UNL A   1      38.460  31.382  36.299  1.00  0.00     0.173 A 
ATOM     77  F   UNL A   1      40.342  33.915  34.499  1.00  0.00    -0.203 F 
ATOM     78  C   UNL A   1      39.068  34.082  36.475  1.00  0.00     0.198 A 
ATOM     79  C   UNL A   1      37.949  32.145  37.346  1.00  0.00     0.198 A 
ATOM     80  F   UNL A   1      38.153  30.078  36.241  1.00  0.00    -0.203 F 
ATOM     81  F   UNL A   1      39.387  35.380  36.573  1.00  0.00    -0.200 F 
ATOM     82  C   UNL A   1      38.256  33.494  37.435  1.00  0.00     0.200 A 
ATOM     83  F   UNL A   1      37.157  31.575  38.264  1.00  0.00    -0.200 F 
ATOM     84  F   UNL A   1      37.776  34.226  38.449  1.00  0.00    -0.200 F 
ENDBRANCH  50  74
BRANCH  62  85
ATOM     85  C   UNL A   1      44.474  27.428  34.471  1.00  0.00     0.064 A 
ATOM     86  C   UNL A   1      45.714  28.067  34.601  1.00  0.00     0.173 A 
ATOM     87  C   UNL A   1      44.219  26.305  35.270  1.00  0.00     0.173 A 
ATOM     88  F   UNL A   1      46.007  29.134  33.842  1.00  0.00    -0.203 F 
ATOM     89  C   UNL A   1      46.671  27.592  35.492  1.00  0.00     0.198 A 
ATOM     90  C   UNL A   1      45.171  25.843  36.174  1.00  0.00     0.198 A 
ATOM     91  F   UNL A   1      43.045  25.663  35.180  1.00  0.00    -0.203 F 
ATOM     92  F   UNL A   1      47.864  28.196  35.579  1.00  0.00    -0.200 F 
ATOM     93  C   UNL A   1      46.396  26.484  36.282  1.00  0.00     0.200 A 
ATOM     94  F   UNL A   1      44.904  24.777  36.940  1.00  0.00    -0.200 F 
ATOM     95  F   UNL A   1      47.318  26.029  37.142  1.00  0.00    -0.200 F 
ENDBRANCH  62  85
ENDBRANCH  36  37
ENDBRANCH  29  31
ENDBRANCH  28  29
ENDBRANCH  27  28
ENDBRANCH   1  27
TORSDOF 14
ENDMDL
