MODEL 1
REMARK VINA RESULT:     -12.3      0.000      0.000
REMARK SMILES Cc1cc(=O)n2nc(C)c(C(=O)OCCOC(=O)c3ccc(-c4c5nc(c(-c6c(F)c(F)c(F)c(F)c6F)c6ccc([nH]6)c(-c6c(F)c(F)c(F)c(F)c6F)c6nc(c(-c7c(F)c(F)c(F)c(F)c7F)c7ccc4[nH]7)C=C6)C=C5)cc3)c2[nH]1
REMARK SMILES IDX 15 1 14 2 13 3 11 4 12 5 10 6 1 7 2 8 3 9 83 10 4 11 82 12
REMARK SMILES IDX 5 14 6 15 7 16 8 17 9 18 16 19 17 20 18 21 19 22 20 23 81 24
REMARK SMILES IDX 21 25 80 26 22 27 23 28 24 29 74 30 25 31 79 32 73 33 75 34
REMARK SMILES IDX 26 35 78 36 72 37 71 38 27 40 59 41 39 42 58 43 40 44 43 45
REMARK SMILES IDX 57 46 76 47 41 48 42 49 56 51 77 52 44 53 28 54 29 55 37 56
REMARK SMILES IDX 30 57 31 58 35 59 38 60 32 61 33 62 36 63 34 64 60 65 61 66
REMARK SMILES IDX 69 67 62 68 63 69 67 70 70 71 64 72 65 73 68 74 66 75 45 76
REMARK SMILES IDX 46 77 54 78 47 79 48 80 52 81 55 82 49 83 50 84 53 85 51 86
REMARK H PARENT 83 13 75 39 43 50
REMARK Flexibility Score: inf
ROOT
ATOM      1  C   UNL A   1      40.796  20.343  27.030  1.00  0.00     0.275 C 
ENDROOT
BRANCH   1   2
ATOM      2  C   UNL A   1      41.188  19.190  26.111  1.00  0.00     0.275 C 
BRANCH   2   3
ATOM      3  O   UNL A   1      42.290  19.544  25.261  1.00  0.00    -0.458 OA
BRANCH   3   4
ATOM      4  C   UNL A   1      43.519  19.068  25.617  1.00  0.00     0.343 C 
ATOM      5  O   UNL A   1      43.712  17.967  26.128  1.00  0.00    -0.246 OA
BRANCH   4   6
ATOM      6  C   UNL A   1      44.597  19.970  25.263  1.00  0.00     0.125 A 
ATOM      7  C   UNL A   1      42.490  24.493  25.197  1.00  0.00     0.064 C 
ATOM      8  C   UNL A   1      43.663  23.579  24.977  1.00  0.00     0.019 A 
ATOM      9  C   UNL A   1      44.868  24.068  24.626  1.00  0.00     0.095 A 
ATOM     10  N   UNL A   1      43.461  22.220  25.163  1.00  0.00    -0.343 N 
ATOM     11  C   UNL A   1      46.031  23.151  24.473  1.00  0.00     0.274 A 
ATOM     12  C   UNL A   1      44.481  21.331  25.068  1.00  0.00     0.152 A 
ATOM     13  H   UNL A   1      42.556  21.892  25.369  1.00  0.00     0.168 HD
ATOM     14  O   UNL A   1      47.150  23.532  24.151  1.00  0.00    -0.267 OA
ATOM     15  N   UNL A   1      45.737  21.806  24.749  1.00  0.00    -0.179 N 
ATOM     16  N   UNL A   1      46.675  20.826  24.764  1.00  0.00    -0.168 NA
ATOM     17  C   UNL A   1      45.997  19.728  25.132  1.00  0.00     0.077 A 
ATOM     18  C   UNL A   1      46.739  18.464  25.376  1.00  0.00     0.070 C 
ENDBRANCH   4   6
ENDBRANCH   3   4
ENDBRANCH   2   3
ENDBRANCH   1   2
BRANCH   1  19
ATOM     19  O   UNL A   1      40.804  21.595  26.344  1.00  0.00    -0.458 OA
BRANCH  19  20
ATOM     20  C   UNL A   1      39.633  22.268  26.377  1.00  0.00     0.338 C 
ATOM     21  O   UNL A   1      38.645  22.065  25.691  1.00  0.00    -0.246 OA
BRANCH  20  22
ATOM     22  C   UNL A   1      39.767  23.437  27.251  1.00  0.00     0.060 A 
ATOM     23  C   UNL A   1      38.916  24.521  27.017  1.00  0.00     0.016 A 
ATOM     24  C   UNL A   1      40.876  23.538  28.103  1.00  0.00     0.016 A 
ATOM     25  C   UNL A   1      39.260  25.752  27.536  1.00  0.00     0.010 A 
ATOM     26  C   UNL A   1      41.224  24.770  28.609  1.00  0.00     0.010 A 
ATOM     27  C   UNL A   1      40.446  25.874  28.271  1.00  0.00    -0.014 A 
BRANCH  27  28
ATOM     28  C   UNL A   1      40.788  27.180  28.799  1.00  0.00     0.031 A 
ATOM     29  C   UNL A   1      42.043  27.727  28.229  1.00  0.00     0.074 A 
ATOM     30  C   UNL A   1      39.976  27.864  29.628  1.00  0.00     0.049 A 
ATOM     31  N   UNL A   1      43.124  28.050  28.857  1.00  0.00    -0.248 NA
ATOM     32  C   UNL A   1      42.162  27.784  26.762  1.00  0.00     0.031 C 
ATOM     33  C   UNL A   1      38.607  27.536  30.032  1.00  0.00     0.029 A 
ATOM     34  N   UNL A   1      40.188  29.069  30.222  1.00  0.00    -0.354 N 
ATOM     35  C   UNL A   1      44.003  28.519  27.884  1.00  0.00     0.074 A 
ATOM     36  C   UNL A   1      43.424  28.181  26.613  1.00  0.00     0.031 C 
ATOM     37  C   UNL A   1      38.044  28.618  30.619  1.00  0.00     0.029 A 
ATOM     38  C   UNL A   1      39.045  29.665  30.740  1.00  0.00     0.049 A 
ATOM     39  H   UNL A   1      41.078  29.486  30.277  1.00  0.00     0.167 HD
ATOM     40  C   UNL A   1      45.014  29.367  28.213  1.00  0.00     0.037 A 
ATOM     41  C   UNL A   1      38.935  30.948  31.170  1.00  0.00     0.037 A 
ATOM     42  C   UNL A   1      45.349  29.245  29.610  1.00  0.00     0.049 A 
ATOM     43  C   UNL A   1      40.310  31.445  31.431  1.00  0.00     0.074 A 
ATOM     44  C   UNL A   1      45.792  28.206  30.407  1.00  0.00     0.029 A 
ATOM     45  N   UNL A   1      44.890  30.206  30.477  1.00  0.00    -0.354 N 
ATOM     46  N   UNL A   1      41.063  31.018  32.407  1.00  0.00    -0.248 NA
ATOM     47  C   UNL A   1      41.014  32.088  30.331  1.00  0.00     0.031 C 
ATOM     48  C   UNL A   1      45.131  28.391  31.657  1.00  0.00     0.029 A 
ATOM     49  C   UNL A   1      44.377  29.561  31.571  1.00  0.00     0.049 A 
ATOM     50  H   UNL A   1      44.924  31.181  30.339  1.00  0.00     0.167 HD
ATOM     51  C   UNL A   1      42.335  30.946  31.860  1.00  0.00     0.074 A 
ATOM     52  C   UNL A   1      42.260  31.693  30.609  1.00  0.00     0.031 C 
ATOM     53  C   UNL A   1      43.248  30.045  32.325  1.00  0.00     0.037 A 
BRANCH  40  54
ATOM     54  C   UNL A   1      45.400  30.569  27.380  1.00  0.00     0.064 A 
ATOM     55  C   UNL A   1      46.767  30.798  27.117  1.00  0.00     0.173 A 
ATOM     56  C   UNL A   1      44.545  31.659  27.100  1.00  0.00     0.173 A 
ATOM     57  F   UNL A   1      47.678  29.839  27.340  1.00  0.00    -0.203 F 
ATOM     58  C   UNL A   1      47.246  32.050  26.723  1.00  0.00     0.198 A 
ATOM     59  C   UNL A   1      45.021  32.891  26.658  1.00  0.00     0.198 A 
ATOM     60  F   UNL A   1      43.230  31.626  27.340  1.00  0.00    -0.203 F 
ATOM     61  F   UNL A   1      48.566  32.255  26.628  1.00  0.00    -0.200 F 
ATOM     62  C   UNL A   1      46.374  33.099  26.507  1.00  0.00     0.200 A 
ATOM     63  F   UNL A   1      44.157  33.898  26.466  1.00  0.00    -0.200 F 
ATOM     64  F   UNL A   1      46.835  34.318  26.200  1.00  0.00    -0.200 F 
ENDBRANCH  40  54
BRANCH  41  65
ATOM     65  C   UNL A   1      37.773  31.867  31.075  1.00  0.00     0.064 A 
ATOM     66  C   UNL A   1      37.365  32.392  29.836  1.00  0.00     0.173 A 
ATOM     67  C   UNL A   1      36.866  32.020  32.142  1.00  0.00     0.173 A 
ATOM     68  F   UNL A   1      38.147  32.254  28.755  1.00  0.00    -0.203 F 
ATOM     69  C   UNL A   1      36.116  33.000  29.667  1.00  0.00     0.198 A 
ATOM     70  C   UNL A   1      35.624  32.635  31.974  1.00  0.00     0.198 A 
ATOM     71  F   UNL A   1      37.121  31.490  33.345  1.00  0.00    -0.203 F 
ATOM     72  F   UNL A   1      35.737  33.425  28.454  1.00  0.00    -0.200 F 
ATOM     73  C   UNL A   1      35.242  33.110  30.734  1.00  0.00     0.200 A 
ATOM     74  F   UNL A   1      34.772  32.702  33.008  1.00  0.00    -0.200 F 
ATOM     75  F   UNL A   1      34.019  33.632  30.561  1.00  0.00    -0.200 F 
ENDBRANCH  41  65
BRANCH  53  76
ATOM     76  C   UNL A   1      42.934  29.314  33.600  1.00  0.00     0.064 A 
ATOM     77  C   UNL A   1      42.151  28.148  33.663  1.00  0.00     0.173 A 
ATOM     78  C   UNL A   1      43.605  29.705  34.767  1.00  0.00     0.173 A 
ATOM     79  F   UNL A   1      41.554  27.657  32.570  1.00  0.00    -0.203 F 
ATOM     80  C   UNL A   1      42.028  27.423  34.848  1.00  0.00     0.198 A 
ATOM     81  C   UNL A   1      43.511  28.959  35.938  1.00  0.00     0.198 A 
ATOM     82  F   UNL A   1      44.407  30.781  34.751  1.00  0.00    -0.203 F 
ATOM     83  F   UNL A   1      41.277  26.312  34.882  1.00  0.00    -0.200 F 
ATOM     84  C   UNL A   1      42.719  27.823  35.981  1.00  0.00     0.200 A 
ATOM     85  F   UNL A   1      44.220  29.321  37.015  1.00  0.00    -0.200 F 
ATOM     86  F   UNL A   1      42.647  27.095  37.103  1.00  0.00    -0.200 F 
ENDBRANCH  53  76
ENDBRANCH  27  28
ENDBRANCH  20  22
ENDBRANCH  19  20
ENDBRANCH   1  19
TORSDOF 11
ENDMDL
MODEL 2
REMARK VINA RESULT:     -12.0      4.505     11.579
REMARK SMILES Cc1cc(=O)n2nc(C)c(C(=O)OCCOC(=O)c3ccc(-c4c5nc(c(-c6c(F)c(F)c(F)c(F)c6F)c6ccc([nH]6)c(-c6c(F)c(F)c(F)c(F)c6F)c6nc(c(-c7c(F)c(F)c(F)c(F)c7F)c7ccc4[nH]7)C=C6)C=C5)cc3)c2[nH]1
REMARK SMILES IDX 15 1 14 2 13 3 11 4 12 5 10 6 1 7 2 8 3 9 83 10 4 11 82 12
REMARK SMILES IDX 5 14 6 15 7 16 8 17 9 18 16 19 17 20 18 21 19 22 20 23 81 24
REMARK SMILES IDX 21 25 80 26 22 27 23 28 24 29 74 30 25 31 79 32 73 33 75 34
REMARK SMILES IDX 26 35 78 36 72 37 71 38 27 40 59 41 39 42 58 43 40 44 43 45
REMARK SMILES IDX 57 46 76 47 41 48 42 49 56 51 77 52 44 53 28 54 29 55 37 56
REMARK SMILES IDX 30 57 31 58 35 59 38 60 32 61 33 62 36 63 34 64 60 65 61 66
REMARK SMILES IDX 69 67 62 68 63 69 67 70 70 71 64 72 65 73 68 74 66 75 45 76
REMARK SMILES IDX 46 77 54 78 47 79 48 80 52 81 55 82 49 83 50 84 53 85 51 86
REMARK H PARENT 83 13 75 39 43 50
REMARK Flexibility Score: inf
ROOT
ATOM      1  C   UNL A   1      34.822  34.067  27.738  1.00  0.00     0.275 C 
ENDROOT
BRANCH   1   2
ATOM      2  C   UNL A   1      33.656  34.830  28.357  1.00  0.00     0.275 C 
BRANCH   2   3
ATOM      3  O   UNL A   1      33.420  34.424  29.715  1.00  0.00    -0.458 OA
BRANCH   3   4
ATOM      4  C   UNL A   1      33.109  35.409  30.606  1.00  0.00     0.343 C 
ATOM      5  O   UNL A   1      32.206  36.228  30.444  1.00  0.00    -0.246 OA
BRANCH   4   6
ATOM      6  C   UNL A   1      33.910  35.352  31.813  1.00  0.00     0.125 A 
ATOM      7  C   UNL A   1      35.911  30.779  31.780  1.00  0.00     0.064 C 
ATOM      8  C   UNL A   1      35.666  32.110  32.436  1.00  0.00     0.019 A 
ATOM      9  C   UNL A   1      36.256  32.426  33.606  1.00  0.00     0.095 A 
ATOM     10  N   UNL A   1      34.825  33.001  31.787  1.00  0.00    -0.343 N 
ATOM     11  C   UNL A   1      36.049  33.772  34.207  1.00  0.00     0.274 A 
ATOM     12  C   UNL A   1      34.615  34.254  32.263  1.00  0.00     0.152 A 
ATOM     13  H   UNL A   1      34.371  32.718  30.961  1.00  0.00     0.168 HD
ATOM     14  O   UNL A   1      36.552  34.119  35.268  1.00  0.00    -0.267 OA
ATOM     15  N   UNL A   1      35.237  34.622  33.438  1.00  0.00    -0.179 N 
ATOM     16  N   UNL A   1      35.003  35.919  33.757  1.00  0.00    -0.168 NA
ATOM     17  C   UNL A   1      34.251  36.376  32.745  1.00  0.00     0.077 A 
ATOM     18  C   UNL A   1      33.900  37.819  32.694  1.00  0.00     0.070 C 
ENDBRANCH   4   6
ENDBRANCH   3   4
ENDBRANCH   2   3
ENDBRANCH   1   2
BRANCH   1  19
ATOM     19  O   UNL A   1      35.278  33.014  28.588  1.00  0.00    -0.458 OA
BRANCH  19  20
ATOM     20  C   UNL A   1      35.353  31.801  27.999  1.00  0.00     0.338 C 
ATOM     21  O   UNL A   1      34.551  31.306  27.224  1.00  0.00    -0.246 OA
BRANCH  20  22
ATOM     22  C   UNL A   1      36.474  31.049  28.570  1.00  0.00     0.060 A 
ATOM     23  C   UNL A   1      37.562  31.779  29.058  1.00  0.00     0.016 A 
ATOM     24  C   UNL A   1      36.538  29.660  28.386  1.00  0.00     0.016 A 
ATOM     25  C   UNL A   1      38.766  31.129  29.232  1.00  0.00     0.010 A 
ATOM     26  C   UNL A   1      37.744  29.016  28.550  1.00  0.00     0.010 A 
ATOM     27  C   UNL A   1      38.858  29.768  28.913  1.00  0.00    -0.014 A 
BRANCH  27  28
ATOM     28  C   UNL A   1      40.136  29.111  29.098  1.00  0.00     0.031 A 
ATOM     29  C   UNL A   1      40.517  28.970  30.525  1.00  0.00     0.074 A 
ATOM     30  C   UNL A   1      40.835  28.579  28.077  1.00  0.00     0.049 A 
ATOM     31  N   UNL A   1      41.557  29.453  31.119  1.00  0.00    -0.248 NA
ATOM     32  C   UNL A   1      39.544  28.340  31.435  1.00  0.00     0.031 C 
ATOM     33  C   UNL A   1      40.424  28.424  26.680  1.00  0.00     0.029 A 
ATOM     34  N   UNL A   1      42.053  27.973  28.104  1.00  0.00    -0.354 N 
ATOM     35  C   UNL A   1      41.463  29.038  32.444  1.00  0.00     0.074 A 
ATOM     36  C   UNL A   1      40.139  28.505  32.614  1.00  0.00     0.031 C 
ATOM     37  C   UNL A   1      41.277  27.579  26.055  1.00  0.00     0.029 A 
ATOM     38  C   UNL A   1      42.355  27.234  26.968  1.00  0.00     0.049 A 
ATOM     39  H   UNL A   1      42.669  28.050  28.869  1.00  0.00     0.167 HD
ATOM     40  C   UNL A   1      42.574  28.944  33.223  1.00  0.00     0.037 A 
ATOM     41  C   UNL A   1      43.381  26.357  26.831  1.00  0.00     0.037 A 
ATOM     42  C   UNL A   1      43.626  29.791  32.715  1.00  0.00     0.049 A 
ATOM     43  C   UNL A   1      44.371  26.669  27.894  1.00  0.00     0.074 A 
ATOM     44  C   UNL A   1      43.744  31.149  32.490  1.00  0.00     0.029 A 
ATOM     45  N   UNL A   1      44.647  29.208  32.005  1.00  0.00    -0.354 N 
ATOM     46  N   UNL A   1      45.095  27.754  27.917  1.00  0.00    -0.248 NA
ATOM     47  C   UNL A   1      44.225  25.986  29.171  1.00  0.00     0.031 C 
ATOM     48  C   UNL A   1      44.504  31.260  31.289  1.00  0.00     0.029 A 
ATOM     49  C   UNL A   1      44.857  29.972  30.888  1.00  0.00     0.049 A 
ATOM     50  H   UNL A   1      45.138  28.391  32.253  1.00  0.00     0.167 HD
ATOM     51  C   UNL A   1      45.130  28.122  29.252  1.00  0.00     0.074 A 
ATOM     52  C   UNL A   1      44.650  26.955  29.987  1.00  0.00     0.031 C 
ATOM     53  C   UNL A   1      45.267  29.430  29.616  1.00  0.00     0.037 A 
BRANCH  40  54
ATOM     54  C   UNL A   1      42.834  27.798  34.175  1.00  0.00     0.064 A 
ATOM     55  C   UNL A   1      43.320  26.582  33.653  1.00  0.00     0.173 A 
ATOM     56  C   UNL A   1      42.341  27.729  35.498  1.00  0.00     0.173 A 
ATOM     57  F   UNL A   1      43.816  26.520  32.408  1.00  0.00    -0.203 F 
ATOM     58  C   UNL A   1      43.210  25.378  34.353  1.00  0.00     0.198 A 
ATOM     59  C   UNL A   1      42.280  26.534  36.213  1.00  0.00     0.198 A 
ATOM     60  F   UNL A   1      41.798  28.777  36.124  1.00  0.00    -0.203 F 
ATOM     61  F   UNL A   1      43.553  24.229  33.756  1.00  0.00    -0.200 F 
ATOM     62  C   UNL A   1      42.678  25.353  35.628  1.00  0.00     0.200 A 
ATOM     63  F   UNL A   1      41.749  26.532  37.444  1.00  0.00    -0.200 F 
ATOM     64  F   UNL A   1      42.505  24.193  36.273  1.00  0.00    -0.200 F 
ENDBRANCH  40  54
BRANCH  41  65
ATOM     65  C   UNL A   1      43.429  25.088  26.062  1.00  0.00     0.064 A 
ATOM     66  C   UNL A   1      44.469  24.833  25.150  1.00  0.00     0.173 A 
ATOM     67  C   UNL A   1      42.626  23.985  26.411  1.00  0.00     0.173 A 
ATOM     68  F   UNL A   1      45.310  25.815  24.794  1.00  0.00    -0.203 F 
ATOM     69  C   UNL A   1      44.711  23.550  24.649  1.00  0.00     0.198 A 
ATOM     70  C   UNL A   1      42.863  22.707  25.903  1.00  0.00     0.198 A 
ATOM     71  F   UNL A   1      41.656  24.101  27.328  1.00  0.00    -0.203 F 
ATOM     72  F   UNL A   1      45.756  23.335  23.837  1.00  0.00    -0.200 F 
ATOM     73  C   UNL A   1      43.915  22.486  25.035  1.00  0.00     0.200 A 
ATOM     74  F   UNL A   1      42.106  21.678  26.314  1.00  0.00    -0.200 F 
ATOM     75  F   UNL A   1      44.186  21.244  24.608  1.00  0.00    -0.200 F 
ENDBRANCH  41  65
BRANCH  53  76
ATOM     76  C   UNL A   1      45.630  30.426  28.551  1.00  0.00     0.064 A 
ATOM     77  C   UNL A   1      44.691  31.067  27.725  1.00  0.00     0.173 A 
ATOM     78  C   UNL A   1      46.954  30.882  28.499  1.00  0.00     0.173 A 
ATOM     79  F   UNL A   1      43.391  30.753  27.783  1.00  0.00    -0.203 F 
ATOM     80  C   UNL A   1      45.070  32.099  26.867  1.00  0.00     0.198 A 
ATOM     81  C   UNL A   1      47.321  31.938  27.670  1.00  0.00     0.198 A 
ATOM     82  F   UNL A   1      47.882  30.341  29.304  1.00  0.00    -0.203 F 
ATOM     83  F   UNL A   1      44.154  32.696  26.089  1.00  0.00    -0.200 F 
ATOM     84  C   UNL A   1      46.382  32.542  26.851  1.00  0.00     0.200 A 
ATOM     85  F   UNL A   1      48.581  32.395  27.695  1.00  0.00    -0.200 F 
ATOM     86  F   UNL A   1      46.734  33.572  26.070  1.00  0.00    -0.200 F 
ENDBRANCH  53  76
ENDBRANCH  27  28
ENDBRANCH  20  22
ENDBRANCH  19  20
ENDBRANCH   1  19
TORSDOF 11
ENDMDL
MODEL 3
REMARK VINA RESULT:     -12.0      4.596     11.529
REMARK SMILES Cc1cc(=O)n2nc(C)c(C(=O)OCCOC(=O)c3ccc(-c4c5nc(c(-c6c(F)c(F)c(F)c(F)c6F)c6ccc([nH]6)c(-c6c(F)c(F)c(F)c(F)c6F)c6nc(c(-c7c(F)c(F)c(F)c(F)c7F)c7ccc4[nH]7)C=C6)C=C5)cc3)c2[nH]1
REMARK SMILES IDX 15 1 14 2 13 3 11 4 12 5 10 6 1 7 2 8 3 9 83 10 4 11 82 12
REMARK SMILES IDX 5 14 6 15 7 16 8 17 9 18 16 19 17 20 18 21 19 22 20 23 81 24
REMARK SMILES IDX 21 25 80 26 22 27 23 28 24 29 74 30 25 31 79 32 73 33 75 34
REMARK SMILES IDX 26 35 78 36 72 37 71 38 27 40 59 41 39 42 58 43 40 44 43 45
REMARK SMILES IDX 57 46 76 47 41 48 42 49 56 51 77 52 44 53 28 54 29 55 37 56
REMARK SMILES IDX 30 57 31 58 35 59 38 60 32 61 33 62 36 63 34 64 60 65 61 66
REMARK SMILES IDX 69 67 62 68 63 69 67 70 70 71 64 72 65 73 68 74 66 75 45 76
REMARK SMILES IDX 46 77 54 78 47 79 48 80 52 81 55 82 49 83 50 84 53 85 51 86
REMARK H PARENT 83 13 75 39 43 50
REMARK Flexibility Score: inf
ROOT
ATOM      1  C   UNL A   1      34.427  33.890  27.666  1.00  0.00     0.275 C 
ENDROOT
BRANCH   1   2
ATOM      2  C   UNL A   1      34.402  34.749  28.926  1.00  0.00     0.275 C 
BRANCH   2   3
ATOM      3  O   UNL A   1      33.708  34.093  29.999  1.00  0.00    -0.458 OA
BRANCH   3   4
ATOM      4  C   UNL A   1      33.259  34.885  31.015  1.00  0.00     0.343 C 
ATOM      5  O   UNL A   1      32.197  35.504  30.991  1.00  0.00    -0.246 OA
BRANCH   4   6
ATOM      6  C   UNL A   1      34.131  34.866  32.173  1.00  0.00     0.125 A 
ATOM      7  C   UNL A   1      36.429  30.442  31.946  1.00  0.00     0.064 C 
ATOM      8  C   UNL A   1      36.135  31.743  32.638  1.00  0.00     0.019 A 
ATOM      9  C   UNL A   1      36.770  32.083  33.777  1.00  0.00     0.095 A 
ATOM     10  N   UNL A   1      35.199  32.584  32.054  1.00  0.00    -0.343 N 
ATOM     11  C   UNL A   1      36.508  33.404  34.413  1.00  0.00     0.274 A 
ATOM     12  C   UNL A   1      34.933  33.813  32.562  1.00  0.00     0.152 A 
ATOM     13  H   UNL A   1      34.717  32.281  31.251  1.00  0.00     0.168 HD
ATOM     14  O   UNL A   1      37.048  33.770  35.449  1.00  0.00    -0.267 OA
ATOM     15  N   UNL A   1      35.597  34.207  33.706  1.00  0.00    -0.179 N 
ATOM     16  N   UNL A   1      35.295  35.481  34.061  1.00  0.00    -0.168 NA
ATOM     17  C   UNL A   1      34.456  35.898  33.101  1.00  0.00     0.077 A 
ATOM     18  C   UNL A   1      34.006  37.315  33.096  1.00  0.00     0.070 C 
ENDBRANCH   4   6
ENDBRANCH   3   4
ENDBRANCH   2   3
ENDBRANCH   1   2
BRANCH   1  19
ATOM     19  O   UNL A   1      35.556  33.015  27.643  1.00  0.00    -0.458 OA
BRANCH  19  20
ATOM     20  C   UNL A   1      35.256  31.700  27.711  1.00  0.00     0.338 C 
ATOM     21  O   UNL A   1      34.185  31.173  27.461  1.00  0.00    -0.246 OA
BRANCH  20  22
ATOM     22  C   UNL A   1      36.375  30.975  28.321  1.00  0.00     0.060 A 
ATOM     23  C   UNL A   1      37.433  31.730  28.834  1.00  0.00     0.016 A 
ATOM     24  C   UNL A   1      36.472  29.587  28.151  1.00  0.00     0.016 A 
ATOM     25  C   UNL A   1      38.644  31.107  29.050  1.00  0.00     0.010 A 
ATOM     26  C   UNL A   1      37.685  28.969  28.356  1.00  0.00     0.010 A 
ATOM     27  C   UNL A   1      38.772  29.746  28.745  1.00  0.00    -0.014 A 
BRANCH  27  28
ATOM     28  C   UNL A   1      40.057  29.115  28.974  1.00  0.00     0.031 A 
ATOM     29  C   UNL A   1      40.321  28.834  30.406  1.00  0.00     0.074 A 
ATOM     30  C   UNL A   1      40.863  28.721  27.969  1.00  0.00     0.049 A 
ATOM     31  N   UNL A   1      41.285  29.284  31.138  1.00  0.00    -0.248 NA
ATOM     32  C   UNL A   1      39.302  28.077  31.154  1.00  0.00     0.031 C 
ATOM     33  C   UNL A   1      40.579  28.704  26.532  1.00  0.00     0.029 A 
ATOM     34  N   UNL A   1      42.098  28.157  28.041  1.00  0.00    -0.354 N 
ATOM     35  C   UNL A   1      41.097  28.726  32.399  1.00  0.00     0.074 A 
ATOM     36  C   UNL A   1      39.787  28.133  32.393  1.00  0.00     0.031 C 
ATOM     37  C   UNL A   1      41.518  27.961  25.900  1.00  0.00     0.029 A 
ATOM     38  C   UNL A   1      42.528  27.556  26.865  1.00  0.00     0.049 A 
ATOM     39  H   UNL A   1      42.643  28.172  28.861  1.00  0.00     0.167 HD
ATOM     40  C   UNL A   1      42.140  28.586  33.259  1.00  0.00     0.037 A 
ATOM     41  C   UNL A   1      43.599  26.734  26.729  1.00  0.00     0.037 A 
ATOM     42  C   UNL A   1      43.194  29.517  32.939  1.00  0.00     0.049 A 
ATOM     43  C   UNL A   1      44.480  26.963  27.902  1.00  0.00     0.074 A 
ATOM     44  C   UNL A   1      43.272  30.895  32.868  1.00  0.00     0.029 A 
ATOM     45  N   UNL A   1      44.296  29.050  32.265  1.00  0.00    -0.354 N 
ATOM     46  N   UNL A   1      45.152  28.062  28.103  1.00  0.00    -0.248 NA
ATOM     47  C   UNL A   1      44.256  26.141  29.083  1.00  0.00     0.031 C 
ATOM     48  C   UNL A   1      44.126  31.162  31.758  1.00  0.00     0.029 A 
ATOM     49  C   UNL A   1      44.567  29.937  31.258  1.00  0.00     0.049 A 
ATOM     50  H   UNL A   1      44.799  28.228  32.469  1.00  0.00     0.167 HD
ATOM     51  C   UNL A   1      45.058  28.285  29.468  1.00  0.00     0.074 A 
ATOM     52  C   UNL A   1      44.568  27.030  30.030  1.00  0.00     0.031 C 
ATOM     53  C   UNL A   1      45.107  29.550  29.978  1.00  0.00     0.037 A 
BRANCH  40  54
ATOM     54  C   UNL A   1      42.367  27.353  34.105  1.00  0.00     0.064 A 
ATOM     55  C   UNL A   1      42.015  27.395  35.470  1.00  0.00     0.173 A 
ATOM     56  C   UNL A   1      43.187  26.264  33.731  1.00  0.00     0.173 A 
ATOM     57  F   UNL A   1      41.238  28.380  35.947  1.00  0.00    -0.203 F 
ATOM     58  C   UNL A   1      42.538  26.492  36.399  1.00  0.00     0.198 A 
ATOM     59  C   UNL A   1      43.665  25.335  34.652  1.00  0.00     0.198 A 
ATOM     60  F   UNL A   1      43.653  26.103  32.489  1.00  0.00    -0.203 F 
ATOM     61  F   UNL A   1      42.288  26.664  37.704  1.00  0.00    -0.200 F 
ATOM     62  C   UNL A   1      43.374  25.471  35.991  1.00  0.00     0.200 A 
ATOM     63  F   UNL A   1      44.485  24.359  34.236  1.00  0.00    -0.200 F 
ATOM     64  F   UNL A   1      43.934  24.648  36.886  1.00  0.00    -0.200 F 
ENDBRANCH  40  54
BRANCH  41  65
ATOM     65  C   UNL A   1      43.766  25.559  25.838  1.00  0.00     0.064 A 
ATOM     66  C   UNL A   1      45.006  25.277  25.238  1.00  0.00     0.173 A 
ATOM     67  C   UNL A   1      42.804  24.531  25.787  1.00  0.00     0.173 A 
ATOM     68  F   UNL A   1      45.996  26.181  25.277  1.00  0.00    -0.203 F 
ATOM     69  C   UNL A   1      45.278  24.034  24.654  1.00  0.00     0.198 A 
ATOM     70  C   UNL A   1      43.073  23.295  25.197  1.00  0.00     0.198 A 
ATOM     71  F   UNL A   1      41.618  24.666  26.394  1.00  0.00    -0.203 F 
ATOM     72  F   UNL A   1      46.496  23.781  24.156  1.00  0.00    -0.200 F 
ATOM     73  C   UNL A   1      44.314  23.040  24.646  1.00  0.00     0.200 A 
ATOM     74  F   UNL A   1      42.143  22.329  25.227  1.00  0.00    -0.200 F 
ATOM     75  F   UNL A   1      44.593  21.827  24.147  1.00  0.00    -0.200 F 
ENDBRANCH  41  65
BRANCH  53  76
ATOM     76  C   UNL A   1      45.516  30.667  29.060  1.00  0.00     0.064 A 
ATOM     77  C   UNL A   1      46.852  31.030  28.815  1.00  0.00     0.173 A 
ATOM     78  C   UNL A   1      44.528  31.261  28.262  1.00  0.00     0.173 A 
ATOM     79  F   UNL A   1      47.859  30.441  29.470  1.00  0.00    -0.203 F 
ATOM     80  C   UNL A   1      47.177  31.965  27.833  1.00  0.00     0.198 A 
ATOM     81  C   UNL A   1      44.859  32.164  27.257  1.00  0.00     0.198 A 
ATOM     82  F   UNL A   1      43.241  30.912  28.417  1.00  0.00    -0.203 F 
ATOM     83  F   UNL A   1      48.459  32.295  27.617  1.00  0.00    -0.200 F 
ATOM     84  C   UNL A   1      46.181  32.521  27.046  1.00  0.00     0.200 A 
ATOM     85  F   UNL A   1      43.897  32.660  26.467  1.00  0.00    -0.200 F 
ATOM     86  F   UNL A   1      46.499  33.375  26.064  1.00  0.00    -0.200 F 
ENDBRANCH  53  76
ENDBRANCH  27  28
ENDBRANCH  20  22
ENDBRANCH  19  20
ENDBRANCH   1  19
TORSDOF 11
ENDMDL
