MODEL 1
REMARK VINA RESULT:     -11.8      0.000      0.000
REMARK SMILES C[NH2+][C@@]1(C(=O)OCCOC(=O)c2ccc(-c3c4nc(c(-c5c(F)c(F)c(F)c(F)c5F)c5ccc([nH]5)c(-c5c(F)c(F)c(F)c(F)c5F)c5nc(c(-c6c(F)c(F)c(F)c(F)c6F)c6ccc3[nH]6)C=C5)C=C4)cc2)CCC[C@H](Oc2cccc(OC)c2)C1
REMARK SMILES IDX 7 1 6 2 4 3 5 4 3 5 75 6 88 7 76 8 78 9 77 10 2 11 1 12
REMARK SMILES IDX 79 15 80 16 81 17 87 18 82 19 84 20 83 21 85 22 86 23 8 24
REMARK SMILES IDX 9 25 10 26 11 27 12 28 13 29 74 30 14 31 73 32 15 33 16 34
REMARK SMILES IDX 17 35 67 36 18 37 72 38 66 39 68 40 19 41 71 42 65 43 64 44
REMARK SMILES IDX 20 46 52 47 32 48 51 49 33 50 36 51 50 52 69 53 34 54 35 55
REMARK SMILES IDX 49 57 70 58 37 59 21 60 22 61 30 62 23 63 24 64 28 65 31 66
REMARK SMILES IDX 25 67 26 68 29 69 27 70 53 71 54 72 62 73 55 74 56 75 60 76
REMARK SMILES IDX 63 77 57 78 58 79 61 80 59 81 38 82 39 83 47 84 40 85 41 86
REMARK SMILES IDX 45 87 48 88 42 89 43 90 46 91 44 92
REMARK H PARENT 2 13 2 14 68 45 36 56
REMARK Flexibility Score: inf
ROOT
ATOM      1  C   UNL A   1      31.782  28.608  27.214  1.00  0.00     0.274 C 
ENDROOT
BRANCH   1   2
ATOM      2  O   UNL A   1      31.662  27.712  26.092  1.00  0.00    -0.457 OA
BRANCH   2   3
ATOM      3  C   UNL A   1      32.718  26.918  25.797  1.00  0.00     0.368 C 
ATOM      4  O   UNL A   1      33.878  27.207  26.082  1.00  0.00    -0.245 OA
BRANCH   3   5
ATOM      5  C   UNL A   1      32.320  25.607  25.016  1.00  0.00     0.197 C 
ATOM      6  C   UNL A   1      33.508  25.282  24.086  1.00  0.00     0.081 C 
ATOM      7  C   UNL A   1      30.986  25.685  24.203  1.00  0.00     0.126 C 
ATOM      8  C   UNL A   1      33.554  26.200  22.874  1.00  0.00     0.011 C 
ATOM      9  C   UNL A   1      31.028  26.415  22.837  1.00  0.00     0.180 C 
ATOM     10  C   UNL A   1      32.288  26.024  22.055  1.00  0.00     0.046 C 
BRANCH   5  11
ATOM     11  N   UNL A   1      32.088  24.539  26.049  1.00  0.00    -0.334 N 
ATOM     12  C   UNL A   1      30.738  23.997  26.139  1.00  0.00     0.331 C 
ATOM     13  H   UNL A   1      32.718  23.765  25.841  1.00  0.00     0.347 HD
ATOM     14  H   UNL A   1      32.253  24.994  26.947  1.00  0.00     0.347 HD
ENDBRANCH   5  11
BRANCH   9  15
ATOM     15  O   UNL A   1      30.933  27.808  23.114  1.00  0.00    -0.490 OA
BRANCH  15  16
ATOM     16  C   UNL A   1      29.740  28.447  23.235  1.00  0.00     0.123 A 
ATOM     17  C   UNL A   1      28.473  27.888  23.128  1.00  0.00     0.047 A 
ATOM     18  C   UNL A   1      29.870  29.825  23.439  1.00  0.00     0.092 A 
ATOM     19  C   UNL A   1      27.351  28.720  23.107  1.00  0.00     0.008 A 
ATOM     20  C   UNL A   1      28.759  30.663  23.434  1.00  0.00     0.122 A 
ATOM     21  C   UNL A   1      27.498  30.103  23.241  1.00  0.00     0.046 A 
BRANCH  20  22
ATOM     22  O   UNL A   1      28.785  32.022  23.581  1.00  0.00    -0.497 OA
ATOM     23  C   UNL A   1      28.774  32.793  22.385  1.00  0.00     0.278 C 
ENDBRANCH  20  22
ENDBRANCH  15  16
ENDBRANCH   9  15
ENDBRANCH   3   5
ENDBRANCH   2   3
ENDBRANCH   1   2
BRANCH   1  24
ATOM     24  C   UNL A   1      31.780  30.052  26.717  1.00  0.00     0.275 C 
BRANCH  24  25
ATOM     25  O   UNL A   1      33.136  30.467  26.492  1.00  0.00    -0.458 OA
BRANCH  25  26
ATOM     26  C   UNL A   1      33.522  31.570  27.174  1.00  0.00     0.338 C 
ATOM     27  O   UNL A   1      32.915  32.610  27.340  1.00  0.00    -0.246 OA
BRANCH  26  28
ATOM     28  C   UNL A   1      34.796  31.260  27.827  1.00  0.00     0.060 A 
ATOM     29  C   UNL A   1      34.985  29.961  28.295  1.00  0.00     0.016 A 
ATOM     30  C   UNL A   1      35.764  32.239  28.027  1.00  0.00     0.016 A 
ATOM     31  C   UNL A   1      36.131  29.632  29.005  1.00  0.00     0.010 A 
ATOM     32  C   UNL A   1      36.939  31.897  28.703  1.00  0.00     0.010 A 
ATOM     33  C   UNL A   1      37.121  30.597  29.211  1.00  0.00    -0.014 A 
BRANCH  33  34
ATOM     34  C   UNL A   1      38.326  30.259  30.007  1.00  0.00     0.031 A 
ATOM     35  C   UNL A   1      39.359  29.341  29.425  1.00  0.00     0.074 A 
ATOM     36  C   UNL A   1      38.495  30.785  31.233  1.00  0.00     0.049 A 
ATOM     37  N   UNL A   1      40.392  28.783  30.002  1.00  0.00    -0.248 NA
ATOM     38  C   UNL A   1      39.206  29.000  28.002  1.00  0.00     0.031 C 
ATOM     39  C   UNL A   1      37.592  31.740  31.876  1.00  0.00     0.029 A 
ATOM     40  N   UNL A   1      39.487  30.588  32.159  1.00  0.00    -0.354 N 
ATOM     41  C   UNL A   1      40.984  27.991  29.027  1.00  0.00     0.074 A 
ATOM     42  C   UNL A   1      40.196  28.138  27.823  1.00  0.00     0.031 C 
ATOM     43  C   UNL A   1      38.076  32.054  33.088  1.00  0.00     0.029 A 
ATOM     44  C   UNL A   1      39.282  31.270  33.333  1.00  0.00     0.049 A 
ATOM     45  H   UNL A   1      40.271  30.014  31.998  1.00  0.00     0.167 HD
ATOM     46  C   UNL A   1      42.085  27.210  29.137  1.00  0.00     0.037 A 
ATOM     47  C   UNL A   1      39.968  31.232  34.492  1.00  0.00     0.037 A 
ATOM     48  C   UNL A   1      42.880  27.102  30.332  1.00  0.00     0.049 A 
ATOM     49  C   UNL A   1      41.163  30.327  34.601  1.00  0.00     0.074 A 
ATOM     50  C   UNL A   1      44.013  26.336  30.552  1.00  0.00     0.029 A 
ATOM     51  N   UNL A   1      42.628  27.792  31.509  1.00  0.00    -0.354 N 
ATOM     52  N   UNL A   1      41.688  29.537  33.695  1.00  0.00    -0.248 NA
ATOM     53  C   UNL A   1      41.854  30.296  35.898  1.00  0.00     0.031 C 
ATOM     54  C   UNL A   1      44.427  26.542  31.873  1.00  0.00     0.029 A 
ATOM     55  C   UNL A   1      43.579  27.464  32.463  1.00  0.00     0.049 A 
ATOM     56  H   UNL A   1      41.885  28.422  31.646  1.00  0.00     0.167 HD
ATOM     57  C   UNL A   1      42.773  28.924  34.305  1.00  0.00     0.074 A 
ATOM     58  C   UNL A   1      42.844  29.450  35.654  1.00  0.00     0.031 C 
ATOM     59  C   UNL A   1      43.629  28.004  33.797  1.00  0.00     0.037 A 
BRANCH  46  60
ATOM     60  C   UNL A   1      42.468  26.385  27.946  1.00  0.00     0.064 A 
ATOM     61  C   UNL A   1      41.923  25.113  27.717  1.00  0.00     0.173 A 
ATOM     62  C   UNL A   1      43.386  26.884  27.009  1.00  0.00     0.173 A 
ATOM     63  F   UNL A   1      41.055  24.584  28.592  1.00  0.00    -0.203 F 
ATOM     64  C   UNL A   1      42.302  24.362  26.606  1.00  0.00     0.198 A 
ATOM     65  C   UNL A   1      43.742  26.142  25.887  1.00  0.00     0.198 A 
ATOM     66  F   UNL A   1      43.936  28.097  27.180  1.00  0.00    -0.203 F 
ATOM     67  F   UNL A   1      41.802  23.131  26.431  1.00  0.00    -0.200 F 
ATOM     68  C   UNL A   1      43.205  24.879  25.690  1.00  0.00     0.200 A 
ATOM     69  F   UNL A   1      44.609  26.647  24.998  1.00  0.00    -0.200 F 
ATOM     70  F   UNL A   1      43.565  24.156  24.621  1.00  0.00    -0.200 F 
ENDBRANCH  46  60
BRANCH  47  71
ATOM     71  C   UNL A   1      39.513  32.049  35.646  1.00  0.00     0.064 A 
ATOM     72  C   UNL A   1      38.551  31.563  36.542  1.00  0.00     0.173 A 
ATOM     73  C   UNL A   1      40.039  33.329  35.883  1.00  0.00     0.173 A 
ATOM     74  F   UNL A   1      38.002  30.355  36.342  1.00  0.00    -0.203 F 
ATOM     75  C   UNL A   1      38.127  32.328  37.625  1.00  0.00     0.198 A 
ATOM     76  C   UNL A   1      39.633  34.081  36.984  1.00  0.00     0.198 A 
ATOM     77  F   UNL A   1      40.959  33.842  35.054  1.00  0.00    -0.203 F 
ATOM     78  F   UNL A   1      37.178  31.855  38.445  1.00  0.00    -0.200 F 
ATOM     79  C   UNL A   1      38.674  33.583  37.850  1.00  0.00     0.200 A 
ATOM     80  F   UNL A   1      40.173  35.288  37.202  1.00  0.00    -0.200 F 
ATOM     81  F   UNL A   1      38.270  34.314  38.898  1.00  0.00    -0.200 F 
ENDBRANCH  47  71
BRANCH  59  82
ATOM     82  C   UNL A   1      44.730  27.531  34.698  1.00  0.00     0.064 A 
ATOM     83  C   UNL A   1      45.951  28.215  34.783  1.00  0.00     0.173 A 
ATOM     84  C   UNL A   1      44.546  26.402  35.510  1.00  0.00     0.173 A 
ATOM     85  F   UNL A   1      46.177  29.290  34.013  1.00  0.00    -0.203 F 
ATOM     86  C   UNL A   1      46.958  27.772  35.635  1.00  0.00     0.198 A 
ATOM     87  C   UNL A   1      45.546  25.977  36.379  1.00  0.00     0.198 A 
ATOM     88  F   UNL A   1      43.393  25.718  35.467  1.00  0.00    -0.203 F 
ATOM     89  F   UNL A   1      48.133  28.415  35.672  1.00  0.00    -0.200 F 
ATOM     90  C   UNL A   1      46.753  26.658  36.436  1.00  0.00     0.200 A 
ATOM     91  F   UNL A   1      45.343  24.906  37.159  1.00  0.00    -0.200 F 
ATOM     92  F   UNL A   1      47.723  26.235  37.259  1.00  0.00    -0.200 F 
ENDBRANCH  59  82
ENDBRANCH  33  34
ENDBRANCH  26  28
ENDBRANCH  25  26
ENDBRANCH  24  25
ENDBRANCH   1  24
TORSDOF 15
ENDMDL
MODEL 2
REMARK VINA RESULT:     -11.7      0.500      1.673
REMARK SMILES C[NH2+][C@@]1(C(=O)OCCOC(=O)c2ccc(-c3c4nc(c(-c5c(F)c(F)c(F)c(F)c5F)c5ccc([nH]5)c(-c5c(F)c(F)c(F)c(F)c5F)c5nc(c(-c6c(F)c(F)c(F)c(F)c6F)c6ccc3[nH]6)C=C5)C=C4)cc2)CCC[C@H](Oc2cccc(OC)c2)C1
REMARK SMILES IDX 7 1 6 2 4 3 5 4 3 5 75 6 88 7 76 8 78 9 77 10 2 11 1 12
REMARK SMILES IDX 79 15 80 16 81 17 87 18 82 19 84 20 83 21 85 22 86 23 8 24
REMARK SMILES IDX 9 25 10 26 11 27 12 28 13 29 74 30 14 31 73 32 15 33 16 34
REMARK SMILES IDX 17 35 67 36 18 37 72 38 66 39 68 40 19 41 71 42 65 43 64 44
REMARK SMILES IDX 20 46 52 47 32 48 51 49 33 50 36 51 50 52 69 53 34 54 35 55
REMARK SMILES IDX 49 57 70 58 37 59 21 60 22 61 30 62 23 63 24 64 28 65 31 66
REMARK SMILES IDX 25 67 26 68 29 69 27 70 53 71 54 72 62 73 55 74 56 75 60 76
REMARK SMILES IDX 63 77 57 78 58 79 61 80 59 81 38 82 39 83 47 84 40 85 41 86
REMARK SMILES IDX 45 87 48 88 42 89 43 90 46 91 44 92
REMARK H PARENT 2 13 2 14 68 45 36 56
REMARK Flexibility Score: inf
ROOT
ATOM      1  C   UNL A   1      31.763  28.425  26.696  1.00  0.00     0.274 C 
ENDROOT
BRANCH   1   2
ATOM      2  O   UNL A   1      31.547  27.377  25.730  1.00  0.00    -0.457 OA
BRANCH   2   3
ATOM      3  C   UNL A   1      32.576  26.542  25.456  1.00  0.00     0.368 C 
ATOM      4  O   UNL A   1      33.713  26.711  25.889  1.00  0.00    -0.245 OA
BRANCH   3   5
ATOM      5  C   UNL A   1      32.184  25.357  24.493  1.00  0.00     0.197 C 
ATOM      6  C   UNL A   1      33.425  25.086  23.617  1.00  0.00     0.081 C 
ATOM      7  C   UNL A   1      30.920  25.599  23.604  1.00  0.00     0.126 C 
ATOM      8  C   UNL A   1      33.601  26.138  22.533  1.00  0.00     0.011 C 
ATOM      9  C   UNL A   1      31.096  26.484  22.345  1.00  0.00     0.180 C 
ATOM     10  C   UNL A   1      32.394  26.126  21.611  1.00  0.00     0.046 C 
BRANCH   5  11
ATOM     11  N   UNL A   1      31.830  24.185  25.368  1.00  0.00    -0.334 N 
ATOM     12  C   UNL A   1      32.512  22.929  25.088  1.00  0.00     0.331 C 
ATOM     13  H   UNL A   1      32.040  24.444  26.332  1.00  0.00     0.347 HD
ATOM     14  H   UNL A   1      30.843  24.001  25.182  1.00  0.00     0.347 HD
ENDBRANCH   5  11
BRANCH   9  15
ATOM     15  O   UNL A   1      31.038  27.837  22.785  1.00  0.00    -0.490 OA
BRANCH  15  16
ATOM     16  C   UNL A   1      29.878  28.543  22.818  1.00  0.00     0.123 A 
ATOM     17  C   UNL A   1      28.619  28.074  23.166  1.00  0.00     0.047 A 
ATOM     18  C   UNL A   1      30.026  29.869  22.397  1.00  0.00     0.092 A 
ATOM     19  C   UNL A   1      27.501  28.891  22.980  1.00  0.00     0.008 A 
ATOM     20  C   UNL A   1      28.923  30.698  22.221  1.00  0.00     0.122 A 
ATOM     21  C   UNL A   1      27.654  30.191  22.491  1.00  0.00     0.046 A 
BRANCH  20  22
ATOM     22  O   UNL A   1      28.960  31.989  21.773  1.00  0.00    -0.497 OA
ATOM     23  C   UNL A   1      28.778  33.008  22.750  1.00  0.00     0.278 C 
ENDBRANCH  20  22
ENDBRANCH  15  16
ENDBRANCH   9  15
ENDBRANCH   3   5
ENDBRANCH   2   3
ENDBRANCH   1   2
BRANCH   1  24
ATOM     24  C   UNL A   1      31.843  29.771  25.980  1.00  0.00     0.275 C 
BRANCH  24  25
ATOM     25  O   UNL A   1      33.190  30.262  26.062  1.00  0.00    -0.458 OA
BRANCH  25  26
ATOM     26  C   UNL A   1      33.386  31.262  26.952  1.00  0.00     0.338 C 
ATOM     27  O   UNL A   1      32.634  32.169  27.251  1.00  0.00    -0.246 OA
BRANCH  26  28
ATOM     28  C   UNL A   1      34.656  31.002  27.635  1.00  0.00     0.060 A 
ATOM     29  C   UNL A   1      34.934  29.688  28.008  1.00  0.00     0.016 A 
ATOM     30  C   UNL A   1      35.533  32.035  27.952  1.00  0.00     0.016 A 
ATOM     31  C   UNL A   1      36.076  29.394  28.740  1.00  0.00     0.010 A 
ATOM     32  C   UNL A   1      36.705  31.734  28.650  1.00  0.00     0.010 A 
ATOM     33  C   UNL A   1      36.975  30.415  29.063  1.00  0.00    -0.014 A 
BRANCH  33  34
ATOM     34  C   UNL A   1      38.173  30.110  29.881  1.00  0.00     0.031 A 
ATOM     35  C   UNL A   1      39.243  29.222  29.320  1.00  0.00     0.074 A 
ATOM     36  C   UNL A   1      38.304  30.640  31.111  1.00  0.00     0.049 A 
ATOM     37  N   UNL A   1      40.279  28.692  29.916  1.00  0.00    -0.248 NA
ATOM     38  C   UNL A   1      39.126  28.878  27.893  1.00  0.00     0.031 C 
ATOM     39  C   UNL A   1      37.362  31.568  31.736  1.00  0.00     0.029 A 
ATOM     40  N   UNL A   1      39.283  30.470  32.056  1.00  0.00    -0.354 N 
ATOM     41  C   UNL A   1      40.912  27.918  28.953  1.00  0.00     0.074 A 
ATOM     42  C   UNL A   1      40.143  28.043  27.734  1.00  0.00     0.031 C 
ATOM     43  C   UNL A   1      37.814  31.894  32.957  1.00  0.00     0.029 A 
ATOM     44  C   UNL A   1      39.036  31.145  33.226  1.00  0.00     0.049 A 
ATOM     45  H   UNL A   1      40.085  29.918  31.910  1.00  0.00     0.167 HD
ATOM     46  C   UNL A   1      42.032  27.168  29.084  1.00  0.00     0.037 A 
ATOM     47  C   UNL A   1      39.700  31.125  34.397  1.00  0.00     0.037 A 
ATOM     48  C   UNL A   1      42.806  27.080  30.294  1.00  0.00     0.049 A 
ATOM     49  C   UNL A   1      40.918  30.253  34.529  1.00  0.00     0.074 A 
ATOM     50  C   UNL A   1      43.955  26.347  30.536  1.00  0.00     0.029 A 
ATOM     51  N   UNL A   1      42.513  27.762  31.466  1.00  0.00    -0.354 N 
ATOM     52  N   UNL A   1      41.482  29.479  33.634  1.00  0.00    -0.248 NA
ATOM     53  C   UNL A   1      41.584  30.241  35.840  1.00  0.00     0.031 C 
ATOM     54  C   UNL A   1      44.338  26.562  31.864  1.00  0.00     0.029 A 
ATOM     55  C   UNL A   1      43.453  27.461  32.438  1.00  0.00     0.049 A 
ATOM     56  H   UNL A   1      41.749  28.372  31.589  1.00  0.00     0.167 HD
ATOM     57  C   UNL A   1      42.572  28.896  34.264  1.00  0.00     0.074 A 
ATOM     58  C   UNL A   1      42.602  29.422  35.614  1.00  0.00     0.031 C 
ATOM     59  C   UNL A   1      43.463  28.001  33.773  1.00  0.00     0.037 A 
BRANCH  46  60
ATOM     60  C   UNL A   1      42.460  26.354  27.900  1.00  0.00     0.064 A 
ATOM     61  C   UNL A   1      41.952  25.070  27.658  1.00  0.00     0.173 A 
ATOM     62  C   UNL A   1      43.385  26.878  26.983  1.00  0.00     0.173 A 
ATOM     63  F   UNL A   1      41.080  24.517  28.514  1.00  0.00    -0.203 F 
ATOM     64  C   UNL A   1      42.373  24.330  26.555  1.00  0.00     0.198 A 
ATOM     65  C   UNL A   1      43.783  26.147  25.868  1.00  0.00     0.198 A 
ATOM     66  F   UNL A   1      43.901  28.104  27.167  1.00  0.00    -0.203 F 
ATOM     67  F   UNL A   1      41.909  23.087  26.367  1.00  0.00    -0.200 F 
ATOM     68  C   UNL A   1      43.283  24.871  25.658  1.00  0.00     0.200 A 
ATOM     69  F   UNL A   1      44.655  26.675  24.998  1.00  0.00    -0.200 F 
ATOM     70  F   UNL A   1      43.683  24.159  24.596  1.00  0.00    -0.200 F 
ENDBRANCH  46  60
BRANCH  47  71
ATOM     71  C   UNL A   1      39.201  31.928  35.543  1.00  0.00     0.064 A 
ATOM     72  C   UNL A   1      39.553  33.276  35.689  1.00  0.00     0.173 A 
ATOM     73  C   UNL A   1      38.355  31.365  36.511  1.00  0.00     0.173 A 
ATOM     74  F   UNL A   1      40.380  33.851  34.803  1.00  0.00    -0.203 F 
ATOM     75  C   UNL A   1      39.083  34.029  36.762  1.00  0.00     0.198 A 
ATOM     76  C   UNL A   1      37.863  32.127  37.569  1.00  0.00     0.198 A 
ATOM     77  F   UNL A   1      37.991  30.078  36.420  1.00  0.00    -0.203 F 
ATOM     78  F   UNL A   1      39.465  35.307  36.900  1.00  0.00    -0.200 F 
ATOM     79  C   UNL A   1      38.233  33.457  37.697  1.00  0.00     0.200 A 
ATOM     80  F   UNL A   1      37.033  31.573  38.462  1.00  0.00    -0.200 F 
ATOM     81  F   UNL A   1      37.775  34.185  38.725  1.00  0.00    -0.200 F 
ENDBRANCH  47  71
BRANCH  59  82
ATOM     82  C   UNL A   1      44.559  27.558  34.695  1.00  0.00     0.064 A 
ATOM     83  C   UNL A   1      44.419  26.423  35.507  1.00  0.00     0.173 A 
ATOM     84  C   UNL A   1      45.775  28.256  34.738  1.00  0.00     0.173 A 
ATOM     85  F   UNL A   1      43.268  25.735  35.511  1.00  0.00    -0.203 F 
ATOM     86  C   UNL A   1      45.451  26.016  36.347  1.00  0.00     0.198 A 
ATOM     87  C   UNL A   1      46.813  27.831  35.560  1.00  0.00     0.198 A 
ATOM     88  F   UNL A   1      45.957  29.345  33.975  1.00  0.00    -0.203 F 
ATOM     89  F   UNL A   1      45.283  24.954  37.146  1.00  0.00    -0.200 F 
ATOM     90  C   UNL A   1      46.649  26.716  36.368  1.00  0.00     0.200 A 
ATOM     91  F   UNL A   1      47.974  28.502  35.573  1.00  0.00    -0.200 F 
ATOM     92  F   UNL A   1      47.643  26.320  37.174  1.00  0.00    -0.200 F 
ENDBRANCH  59  82
ENDBRANCH  33  34
ENDBRANCH  26  28
ENDBRANCH  25  26
ENDBRANCH  24  25
ENDBRANCH   1  24
TORSDOF 15
ENDMDL
MODEL 3
REMARK VINA RESULT:     -11.6      4.933     10.214
REMARK SMILES C[NH2+][C@@]1(C(=O)OCCOC(=O)c2ccc(-c3c4nc(c(-c5c(F)c(F)c(F)c(F)c5F)c5ccc([nH]5)c(-c5c(F)c(F)c(F)c(F)c5F)c5nc(c(-c6c(F)c(F)c(F)c(F)c6F)c6ccc3[nH]6)C=C5)C=C4)cc2)CCC[C@H](Oc2cccc(OC)c2)C1
REMARK SMILES IDX 7 1 6 2 4 3 5 4 3 5 75 6 88 7 76 8 78 9 77 10 2 11 1 12
REMARK SMILES IDX 79 15 80 16 81 17 87 18 82 19 84 20 83 21 85 22 86 23 8 24
REMARK SMILES IDX 9 25 10 26 11 27 12 28 13 29 74 30 14 31 73 32 15 33 16 34
REMARK SMILES IDX 17 35 67 36 18 37 72 38 66 39 68 40 19 41 71 42 65 43 64 44
REMARK SMILES IDX 20 46 52 47 32 48 51 49 33 50 36 51 50 52 69 53 34 54 35 55
REMARK SMILES IDX 49 57 70 58 37 59 21 60 22 61 30 62 23 63 24 64 28 65 31 66
REMARK SMILES IDX 25 67 26 68 29 69 27 70 53 71 54 72 62 73 55 74 56 75 60 76
REMARK SMILES IDX 63 77 57 78 58 79 61 80 59 81 38 82 39 83 47 84 40 85 41 86
REMARK SMILES IDX 45 87 48 88 42 89 43 90 46 91 44 92
REMARK H PARENT 2 13 2 14 68 45 36 56
REMARK Flexibility Score: inf
ROOT
ATOM      1  C   UNL A   1      36.569  22.529  23.784  1.00  0.00     0.274 C 
ENDROOT
BRANCH   1   2
ATOM      2  O   UNL A   1      35.147  22.758  23.726  1.00  0.00    -0.457 OA
BRANCH   2   3
ATOM      3  C   UNL A   1      34.656  23.870  24.321  1.00  0.00     0.368 C 
ATOM      4  O   UNL A   1      35.285  24.522  25.151  1.00  0.00    -0.245 OA
BRANCH   3   5
ATOM      5  C   UNL A   1      33.185  24.223  23.877  1.00  0.00     0.197 C 
ATOM      6  C   UNL A   1      32.503  24.851  25.111  1.00  0.00     0.081 C 
ATOM      7  C   UNL A   1      32.341  23.028  23.325  1.00  0.00     0.126 C 
ATOM      8  C   UNL A   1      32.125  23.806  26.149  1.00  0.00     0.011 C 
ATOM      9  C   UNL A   1      31.731  22.051  24.361  1.00  0.00     0.180 C 
ATOM     10  C   UNL A   1      31.136  22.824  25.546  1.00  0.00     0.046 C 
BRANCH   5  11
ATOM     11  N   UNL A   1      33.297  25.188  22.728  1.00  0.00    -0.334 N 
ATOM     12  C   UNL A   1      32.077  25.877  22.330  1.00  0.00     0.331 C 
ATOM     13  H   UNL A   1      33.983  25.897  22.985  1.00  0.00     0.347 HD
ATOM     14  H   UNL A   1      33.556  24.616  21.923  1.00  0.00     0.347 HD
ENDBRANCH   5  11
BRANCH   9  15
ATOM     15  O   UNL A   1      32.765  21.144  24.728  1.00  0.00    -0.490 OA
BRANCH  15  16
ATOM     16  C   UNL A   1      32.931  19.943  24.114  1.00  0.00     0.123 A 
ATOM     17  C   UNL A   1      32.156  19.406  23.094  1.00  0.00     0.047 A 
ATOM     18  C   UNL A   1      33.985  19.193  24.645  1.00  0.00     0.092 A 
ATOM     19  C   UNL A   1      32.361  18.083  22.695  1.00  0.00     0.008 A 
ATOM     20  C   UNL A   1      34.210  17.879  24.246  1.00  0.00     0.122 A 
ATOM     21  C   UNL A   1      33.372  17.320  23.283  1.00  0.00     0.046 A 
BRANCH  20  22
ATOM     22  O   UNL A   1      35.182  17.052  24.736  1.00  0.00    -0.497 OA
ATOM     23  C   UNL A   1      34.745  15.828  25.315  1.00  0.00     0.278 C 
ENDBRANCH  20  22
ENDBRANCH  15  16
ENDBRANCH   9  15
ENDBRANCH   3   5
ENDBRANCH   2   3
ENDBRANCH   1   2
BRANCH   1  24
ATOM     24  C   UNL A   1      36.858  21.345  24.703  1.00  0.00     0.275 C 
BRANCH  24  25
ATOM     25  O   UNL A   1      37.437  21.834  25.923  1.00  0.00    -0.458 OA
BRANCH  25  26
ATOM     26  C   UNL A   1      38.734  21.504  26.118  1.00  0.00     0.338 C 
ATOM     27  O   UNL A   1      39.301  20.463  25.848  1.00  0.00    -0.246 OA
BRANCH  26  28
ATOM     28  C   UNL A   1      39.423  22.699  26.611  1.00  0.00     0.060 A 
ATOM     29  C   UNL A   1      39.000  23.936  26.129  1.00  0.00     0.016 A 
ATOM     30  C   UNL A   1      40.500  22.605  27.488  1.00  0.00     0.016 A 
ATOM     31  C   UNL A   1      39.674  25.096  26.486  1.00  0.00     0.010 A 
ATOM     32  C   UNL A   1      41.151  23.776  27.884  1.00  0.00     0.010 A 
ATOM     33  C   UNL A   1      40.754  25.026  27.372  1.00  0.00    -0.014 A 
BRANCH  33  34
ATOM     34  C   UNL A   1      41.501  26.258  27.721  1.00  0.00     0.031 A 
ATOM     35  C   UNL A   1      40.826  27.327  28.527  1.00  0.00     0.074 A 
ATOM     36  C   UNL A   1      42.780  26.405  27.330  1.00  0.00     0.049 A 
ATOM     37  N   UNL A   1      41.229  28.542  28.797  1.00  0.00    -0.248 NA
ATOM     38  C   UNL A   1      39.516  26.984  29.103  1.00  0.00     0.031 C 
ATOM     39  C   UNL A   1      43.562  25.407  26.600  1.00  0.00     0.029 A 
ATOM     40  N   UNL A   1      43.647  27.456  27.491  1.00  0.00    -0.354 N 
ATOM     41  C   UNL A   1      40.205  29.122  29.533  1.00  0.00     0.074 A 
ATOM     42  C   UNL A   1      39.161  28.129  29.666  1.00  0.00     0.031 C 
ATOM     43  C   UNL A   1      44.796  25.889  26.384  1.00  0.00     0.029 A 
ATOM     44  C   UNL A   1      44.868  27.253  26.898  1.00  0.00     0.049 A 
ATOM     45  H   UNL A   1      43.416  28.277  27.984  1.00  0.00     0.167 HD
ATOM     46  C   UNL A   1      40.146  30.375  30.044  1.00  0.00     0.037 A 
ATOM     47  C   UNL A   1      45.912  28.090  26.748  1.00  0.00     0.037 A 
ATOM     48  C   UNL A   1      41.208  31.341  29.934  1.00  0.00     0.049 A 
ATOM     49  C   UNL A   1      45.807  29.489  27.291  1.00  0.00     0.074 A 
ATOM     50  C   UNL A   1      41.250  32.639  30.412  1.00  0.00     0.029 A 
ATOM     51  N   UNL A   1      42.423  31.105  29.306  1.00  0.00    -0.354 N 
ATOM     52  N   UNL A   1      44.816  30.052  27.938  1.00  0.00    -0.248 NA
ATOM     53  C   UNL A   1      46.960  30.372  27.069  1.00  0.00     0.031 C 
ATOM     54  C   UNL A   1      42.480  33.198  30.046  1.00  0.00     0.029 A 
ATOM     55  C   UNL A   1      43.219  32.236  29.377  1.00  0.00     0.049 A 
ATOM     56  H   UNL A   1      42.681  30.258  28.876  1.00  0.00     0.167 HD
ATOM     57  C   UNL A   1      45.226  31.349  28.210  1.00  0.00     0.074 A 
ATOM     58  C   UNL A   1      46.566  31.483  27.676  1.00  0.00     0.031 C 
ATOM     59  C   UNL A   1      44.551  32.342  28.839  1.00  0.00     0.037 A 
BRANCH  46  60
ATOM     60  C   UNL A   1      38.879  30.780  30.734  1.00  0.00     0.064 A 
ATOM     61  C   UNL A   1      38.738  30.715  32.128  1.00  0.00     0.173 A 
ATOM     62  C   UNL A   1      37.791  31.257  29.986  1.00  0.00     0.173 A 
ATOM     63  F   UNL A   1      39.742  30.249  32.885  1.00  0.00    -0.203 F 
ATOM     64  C   UNL A   1      37.546  31.089  32.745  1.00  0.00     0.198 A 
ATOM     65  C   UNL A   1      36.611  31.655  30.608  1.00  0.00     0.198 A 
ATOM     66  F   UNL A   1      37.874  31.341  28.649  1.00  0.00    -0.203 F 
ATOM     67  F   UNL A   1      37.418  30.976  34.074  1.00  0.00    -0.200 F 
ATOM     68  C   UNL A   1      36.487  31.564  31.986  1.00  0.00     0.200 A 
ATOM     69  F   UNL A   1      35.592  32.122  29.874  1.00  0.00    -0.200 F 
ATOM     70  F   UNL A   1      35.343  31.927  32.582  1.00  0.00    -0.200 F 
ENDBRANCH  46  60
BRANCH  47  71
ATOM     71  C   UNL A   1      47.126  27.635  26.023  1.00  0.00     0.064 A 
ATOM     72  C   UNL A   1      48.228  27.112  26.713  1.00  0.00     0.173 A 
ATOM     73  C   UNL A   1      47.206  27.706  24.623  1.00  0.00     0.173 A 
ATOM     74  F   UNL A   1      48.208  27.048  28.053  1.00  0.00    -0.203 F 
ATOM     75  C   UNL A   1      49.365  26.685  26.032  1.00  0.00     0.198 A 
ATOM     76  C   UNL A   1      48.333  27.252  23.942  1.00  0.00     0.198 A 
ATOM     77  F   UNL A   1      46.181  28.203  23.916  1.00  0.00    -0.203 F 
ATOM     78  F   UNL A   1      50.420  26.224  26.719  1.00  0.00    -0.200 F 
ATOM     79  C   UNL A   1      49.414  26.747  24.647  1.00  0.00     0.200 A 
ATOM     80  F   UNL A   1      48.370  27.304  22.604  1.00  0.00    -0.200 F 
ATOM     81  F   UNL A   1      50.506  26.328  23.993  1.00  0.00    -0.200 F 
ENDBRANCH  47  71
BRANCH  59  82
ATOM     82  C   UNL A   1      45.267  33.650  29.006  1.00  0.00     0.064 A 
ATOM     83  C   UNL A   1      45.126  34.685  28.071  1.00  0.00     0.173 A 
ATOM     84  C   UNL A   1      46.073  33.879  30.131  1.00  0.00     0.173 A 
ATOM     85  F   UNL A   1      44.379  34.504  26.971  1.00  0.00    -0.203 F 
ATOM     86  C   UNL A   1      45.785  35.898  28.247  1.00  0.00     0.198 A 
ATOM     87  C   UNL A   1      46.709  35.102  30.315  1.00  0.00     0.198 A 
ATOM     88  F   UNL A   1      46.233  32.920  31.055  1.00  0.00    -0.203 F 
ATOM     89  F   UNL A   1      45.671  36.861  27.322  1.00  0.00    -0.200 F 
ATOM     90  C   UNL A   1      46.570  36.108  29.371  1.00  0.00     0.200 A 
ATOM     91  F   UNL A   1      47.460  35.307  31.407  1.00  0.00    -0.200 F 
ATOM     92  F   UNL A   1      47.200  37.278  29.541  1.00  0.00    -0.200 F 
ENDBRANCH  59  82
ENDBRANCH  33  34
ENDBRANCH  26  28
ENDBRANCH  25  26
ENDBRANCH  24  25
ENDBRANCH   1  24
TORSDOF 15
ENDMDL
