MODEL 1
REMARK VINA RESULT:     -12.7      0.000      0.000
REMARK SMILES CC[C@@H](C)NC(=O)c1cccc(NC(=O)[C@H]2CCCC[C@@H]2C(=O)OCCOC(=O)c2ccc(-c3c4nc(c(-c5c(F)c(F)c(F)c(F)c5F)c5ccc([nH]5)c(-c5c(F)c(F)c(F)c(F)c5F)c5nc(c(-c6c(F)c(F)c(F)c(F)c6F)c6ccc3[nH]6)C=C5)C=C4)cc2)c1
REMARK SMILES IDX 24 1 22 2 23 3 21 4 16 5 17 6 18 7 20 8 19 9 14 10 13 11
REMARK SMILES IDX 15 13 12 14 8 15 9 16 93 17 10 18 11 19 6 20 5 21 7 23 3 24
REMARK SMILES IDX 4 25 2 26 1 27 25 28 26 29 27 30 28 31 29 32 30 33 31 34
REMARK SMILES IDX 92 35 32 36 91 37 33 38 34 39 35 40 85 41 36 42 90 43 84 44
REMARK SMILES IDX 86 45 37 46 89 47 83 48 82 49 38 51 70 52 50 53 69 54 51 55
REMARK SMILES IDX 54 56 68 57 87 58 52 59 53 60 67 62 88 63 55 64 39 65 40 66
REMARK SMILES IDX 48 67 41 68 42 69 46 70 49 71 43 72 44 73 47 74 45 75 71 76
REMARK SMILES IDX 72 77 80 78 73 79 74 80 78 81 81 82 75 83 76 84 79 85 77 86
REMARK SMILES IDX 56 87 57 88 65 89 58 90 59 91 63 92 66 93 60 94 61 95 64 96
REMARK SMILES IDX 62 97
REMARK H PARENT 13 12 5 22 86 50 54 61
REMARK Flexibility Score: inf
ROOT
ATOM      1  O   UNL A   1      34.846  21.394  25.850  1.00  0.00    -0.462 OA
ENDROOT
BRANCH   1   2
ATOM      2  C   UNL A   1      33.489  21.317  25.751  1.00  0.00     0.309 C 
ATOM      3  O   UNL A   1      32.902  20.419  25.161  1.00  0.00    -0.252 OA
BRANCH   2   4
ATOM      4  C   UNL A   1      32.797  22.551  26.343  1.00  0.00     0.111 C 
ATOM      5  C   UNL A   1      31.406  22.771  25.706  1.00  0.00     0.093 C 
ATOM      6  C   UNL A   1      31.451  23.010  24.202  1.00  0.00     0.014 C 
ATOM      7  C   UNL A   1      32.795  23.487  23.618  1.00  0.00     0.001 C 
ATOM      8  C   UNL A   1      33.678  23.758  26.067  1.00  0.00     0.016 C 
ATOM      9  C   UNL A   1      33.912  23.948  24.571  1.00  0.00     0.001 C 
BRANCH   5  10
ATOM     10  C   UNL A   1      30.429  23.616  26.555  1.00  0.00     0.228 C 
ATOM     11  N   UNL A   1      30.070  24.921  26.410  1.00  0.00    -0.326 N 
ATOM     12  H   UNL A   1      29.514  25.229  27.162  1.00  0.00     0.169 HD
ATOM     13  O   UNL A   1      29.979  23.082  27.586  1.00  0.00    -0.274 OA
BRANCH  11  14
ATOM     14  C   UNL A   1      30.286  25.944  25.473  1.00  0.00     0.041 A 
ATOM     15  C   UNL A   1      31.901  27.456  24.441  1.00  0.00     0.041 A 
ATOM     16  C   UNL A   1      30.984  27.716  23.415  1.00  0.00     0.014 A 
ATOM     17  C   UNL A   1      31.522  26.606  25.493  1.00  0.00     0.040 A 
ATOM     18  C   UNL A   1      29.699  27.207  23.488  1.00  0.00     0.003 A 
ATOM     19  C   UNL A   1      29.357  26.358  24.538  1.00  0.00     0.026 A 
BRANCH  15  20
ATOM     20  C   UNL A   1      33.200  28.173  24.333  1.00  0.00     0.251 C 
ATOM     21  N   UNL A   1      33.642  29.089  25.246  1.00  0.00    -0.350 N 
ATOM     22  H   UNL A   1      34.539  29.444  25.046  1.00  0.00     0.164 HD
ATOM     23  O   UNL A   1      33.945  27.905  23.390  1.00  0.00    -0.269 OA
BRANCH  21  24
ATOM     24  C   UNL A   1      33.052  29.645  26.455  1.00  0.00     0.079 C 
ATOM     25  C   UNL A   1      31.879  30.537  26.050  1.00  0.00     0.031 C 
BRANCH  24  26
ATOM     26  C   UNL A   1      34.117  30.398  27.263  1.00  0.00     0.021 C 
ATOM     27  C   UNL A   1      35.180  29.469  27.833  1.00  0.00     0.006 C 
ENDBRANCH  24  26
ENDBRANCH  21  24
ENDBRANCH  15  20
ENDBRANCH  11  14
ENDBRANCH   5  10
ENDBRANCH   2   4
ENDBRANCH   1   2
BRANCH   1  28
ATOM     28  C   UNL A   1      35.566  20.475  25.001  1.00  0.00     0.274 C 
BRANCH  28  29
ATOM     29  C   UNL A   1      37.019  20.875  24.728  1.00  0.00     0.275 C 
BRANCH  29  30
ATOM     30  O   UNL A   1      37.566  21.701  25.770  1.00  0.00    -0.458 OA
BRANCH  30  31
ATOM     31  C   UNL A   1      38.839  21.398  26.119  1.00  0.00     0.338 C 
ATOM     32  O   UNL A   1      39.444  20.367  25.883  1.00  0.00    -0.246 OA
BRANCH  31  33
ATOM     33  C   UNL A   1      39.495  22.592  26.675  1.00  0.00     0.060 A 
ATOM     34  C   UNL A   1      39.095  23.831  26.164  1.00  0.00     0.016 A 
ATOM     35  C   UNL A   1      40.517  22.513  27.620  1.00  0.00     0.016 A 
ATOM     36  C   UNL A   1      39.675  25.006  26.621  1.00  0.00     0.010 A 
ATOM     37  C   UNL A   1      41.138  23.693  28.047  1.00  0.00     0.010 A 
ATOM     38  C   UNL A   1      40.720  24.941  27.545  1.00  0.00    -0.014 A 
BRANCH  38  39
ATOM     39  C   UNL A   1      41.479  26.174  27.852  1.00  0.00     0.031 A 
ATOM     40  C   UNL A   1      40.805  27.247  28.651  1.00  0.00     0.074 A 
ATOM     41  C   UNL A   1      42.762  26.307  27.476  1.00  0.00     0.049 A 
ATOM     42  N   UNL A   1      41.203  28.464  28.915  1.00  0.00    -0.248 NA
ATOM     43  C   UNL A   1      39.498  26.898  29.232  1.00  0.00     0.031 C 
ATOM     44  C   UNL A   1      43.551  25.287  26.790  1.00  0.00     0.029 A 
ATOM     45  N   UNL A   1      43.624  27.365  27.619  1.00  0.00    -0.354 N 
ATOM     46  C   UNL A   1      40.177  29.039  29.654  1.00  0.00     0.074 A 
ATOM     47  C   UNL A   1      39.143  28.039  29.802  1.00  0.00     0.031 C 
ATOM     48  C   UNL A   1      44.782  25.773  26.558  1.00  0.00     0.029 A 
ATOM     49  C   UNL A   1      44.844  27.157  27.025  1.00  0.00     0.049 A 
ATOM     50  H   UNL A   1      43.392  28.191  28.101  1.00  0.00     0.167 HD
ATOM     51  C   UNL A   1      40.110  30.296  30.152  1.00  0.00     0.037 A 
ATOM     52  C   UNL A   1      45.873  28.008  26.841  1.00  0.00     0.037 A 
ATOM     53  C   UNL A   1      41.163  31.268  30.024  1.00  0.00     0.049 A 
ATOM     54  C   UNL A   1      45.750  29.421  27.349  1.00  0.00     0.074 A 
ATOM     55  C   UNL A   1      41.201  32.569  30.491  1.00  0.00     0.029 A 
ATOM     56  N   UNL A   1      42.372  31.035  29.382  1.00  0.00    -0.354 N 
ATOM     57  N   UNL A   1      44.761  29.986  27.999  1.00  0.00    -0.248 NA
ATOM     58  C   UNL A   1      46.883  30.320  27.087  1.00  0.00     0.031 C 
ATOM     59  C   UNL A   1      42.415  33.138  30.092  1.00  0.00     0.029 A 
ATOM     60  C   UNL A   1      43.156  32.177  29.423  1.00  0.00     0.049 A 
ATOM     61  H   UNL A   1      42.634  30.185  28.961  1.00  0.00     0.167 HD
ATOM     62  C   UNL A   1      45.154  31.295  28.237  1.00  0.00     0.074 A 
ATOM     63  C   UNL A   1      46.482  31.438  27.677  1.00  0.00     0.031 C 
ATOM     64  C   UNL A   1      44.477  32.292  28.860  1.00  0.00     0.037 A 
BRANCH  51  65
ATOM     65  C   UNL A   1      38.830  30.703  30.819  1.00  0.00     0.064 A 
ATOM     66  C   UNL A   1      37.727  31.182  30.096  1.00  0.00     0.173 A 
ATOM     67  C   UNL A   1      38.710  30.612  32.215  1.00  0.00     0.173 A 
ATOM     68  F   UNL A   1      37.797  31.307  28.763  1.00  0.00    -0.203 F 
ATOM     69  C   UNL A   1      36.563  31.582  30.749  1.00  0.00     0.198 A 
ATOM     70  C   UNL A   1      37.534  30.985  32.860  1.00  0.00     0.198 A 
ATOM     71  F   UNL A   1      39.735  30.162  32.954  1.00  0.00    -0.203 F 
ATOM     72  F   UNL A   1      35.542  32.087  30.044  1.00  0.00    -0.200 F 
ATOM     73  C   UNL A   1      36.466  31.478  32.128  1.00  0.00     0.200 A 
ATOM     74  F   UNL A   1      37.440  30.875  34.193  1.00  0.00    -0.200 F 
ATOM     75  F   UNL A   1      35.345  31.863  32.754  1.00  0.00    -0.200 F 
ENDBRANCH  51  65
BRANCH  52  76
ATOM     76  C   UNL A   1      47.078  27.562  26.095  1.00  0.00     0.064 A 
ATOM     77  C   UNL A   1      47.155  27.674  24.700  1.00  0.00     0.173 A 
ATOM     78  C   UNL A   1      48.181  27.008  26.765  1.00  0.00     0.173 A 
ATOM     79  F   UNL A   1      46.117  28.168  24.011  1.00  0.00    -0.203 F 
ATOM     80  C   UNL A   1      48.282  27.242  24.004  1.00  0.00     0.198 A 
ATOM     81  C   UNL A   1      49.319  26.604  26.072  1.00  0.00     0.198 A 
ATOM     82  F   UNL A   1      48.156  26.870  28.099  1.00  0.00    -0.203 F 
ATOM     83  F   UNL A   1      48.313  27.321  22.668  1.00  0.00    -0.200 F 
ATOM     84  C   UNL A   1      49.367  26.715  24.691  1.00  0.00     0.200 A 
ATOM     85  F   UNL A   1      50.368  26.106  26.741  1.00  0.00    -0.200 F 
ATOM     86  F   UNL A   1      50.454  26.307  24.021  1.00  0.00    -0.200 F 
ENDBRANCH  52  76
BRANCH  64  87
ATOM     87  C   UNL A   1      45.175  33.614  28.997  1.00  0.00     0.064 A 
ATOM     88  C   UNL A   1      46.029  33.886  30.077  1.00  0.00     0.173 A 
ATOM     89  C   UNL A   1      45.022  34.601  28.012  1.00  0.00     0.173 A 
ATOM     90  F   UNL A   1      46.195  32.980  31.052  1.00  0.00    -0.203 F 
ATOM     91  C   UNL A   1      46.686  35.109  30.175  1.00  0.00     0.198 A 
ATOM     92  C   UNL A   1      45.705  35.811  28.099  1.00  0.00     0.198 A 
ATOM     93  F   UNL A   1      44.223  34.384  26.956  1.00  0.00    -0.203 F 
ATOM     94  F   UNL A   1      47.463  35.367  31.236  1.00  0.00    -0.200 F 
ATOM     95  C   UNL A   1      46.531  36.066  29.183  1.00  0.00     0.200 A 
ATOM     96  F   UNL A   1      45.564  36.728  27.133  1.00  0.00    -0.200 F 
ATOM     97  F   UNL A   1      47.172  37.239  29.275  1.00  0.00    -0.200 F 
ENDBRANCH  64  87
ENDBRANCH  38  39
ENDBRANCH  31  33
ENDBRANCH  30  31
ENDBRANCH  29  30
ENDBRANCH  28  29
ENDBRANCH   1  28
TORSDOF 16
ENDMDL
MODEL 2
REMARK VINA RESULT:     -12.5      1.242      2.399
REMARK SMILES CC[C@@H](C)NC(=O)c1cccc(NC(=O)[C@H]2CCCC[C@@H]2C(=O)OCCOC(=O)c2ccc(-c3c4nc(c(-c5c(F)c(F)c(F)c(F)c5F)c5ccc([nH]5)c(-c5c(F)c(F)c(F)c(F)c5F)c5nc(c(-c6c(F)c(F)c(F)c(F)c6F)c6ccc3[nH]6)C=C5)C=C4)cc2)c1
REMARK SMILES IDX 24 1 22 2 23 3 21 4 16 5 17 6 18 7 20 8 19 9 14 10 13 11
REMARK SMILES IDX 15 13 12 14 8 15 9 16 93 17 10 18 11 19 6 20 5 21 7 23 3 24
REMARK SMILES IDX 4 25 2 26 1 27 25 28 26 29 27 30 28 31 29 32 30 33 31 34
REMARK SMILES IDX 92 35 32 36 91 37 33 38 34 39 35 40 85 41 36 42 90 43 84 44
REMARK SMILES IDX 86 45 37 46 89 47 83 48 82 49 38 51 70 52 50 53 69 54 51 55
REMARK SMILES IDX 54 56 68 57 87 58 52 59 53 60 67 62 88 63 55 64 39 65 40 66
REMARK SMILES IDX 48 67 41 68 42 69 46 70 49 71 43 72 44 73 47 74 45 75 71 76
REMARK SMILES IDX 72 77 80 78 73 79 74 80 78 81 81 82 75 83 76 84 79 85 77 86
REMARK SMILES IDX 56 87 57 88 65 89 58 90 59 91 63 92 66 93 60 94 61 95 64 96
REMARK SMILES IDX 62 97
REMARK H PARENT 13 12 5 22 86 50 54 61
REMARK Flexibility Score: inf
ROOT
ATOM      1  O   UNL A   1      35.457  23.094  25.137  1.00  0.00    -0.462 OA
ENDROOT
BRANCH   1   2
ATOM      2  C   UNL A   1      34.123  22.816  25.122  1.00  0.00     0.309 C 
ATOM      3  O   UNL A   1      33.631  21.890  24.489  1.00  0.00    -0.252 OA
BRANCH   2   4
ATOM      4  C   UNL A   1      33.305  23.872  25.875  1.00  0.00     0.111 C 
ATOM      5  C   UNL A   1      31.846  23.914  25.368  1.00  0.00     0.093 C 
ATOM      6  C   UNL A   1      31.718  24.275  23.893  1.00  0.00     0.014 C 
ATOM      7  C   UNL A   1      32.915  25.006  23.255  1.00  0.00     0.001 C 
ATOM      8  C   UNL A   1      33.961  25.223  25.645  1.00  0.00     0.016 C 
ATOM      9  C   UNL A   1      34.029  25.564  24.159  1.00  0.00     0.001 C 
BRANCH   5  10
ATOM     10  C   UNL A   1      30.829  24.521  26.363  1.00  0.00     0.228 C 
ATOM     11  N   UNL A   1      30.661  25.820  26.736  1.00  0.00    -0.326 N 
ATOM     12  H   UNL A   1      30.011  25.905  27.470  1.00  0.00     0.169 HD
ATOM     13  O   UNL A   1      30.131  23.718  27.008  1.00  0.00    -0.274 OA
BRANCH  11  14
ATOM     14  C   UNL A   1      31.171  27.070  26.350  1.00  0.00     0.041 A 
ATOM     15  C   UNL A   1      31.281  28.777  24.607  1.00  0.00     0.041 A 
ATOM     16  C   UNL A   1      31.784  29.686  25.547  1.00  0.00     0.014 A 
ATOM     17  C   UNL A   1      31.025  27.456  25.009  1.00  0.00     0.040 A 
ATOM     18  C   UNL A   1      32.100  29.259  26.825  1.00  0.00     0.003 A 
ATOM     19  C   UNL A   1      31.824  27.945  27.196  1.00  0.00     0.026 A 
BRANCH  15  20
ATOM     20  C   UNL A   1      31.119  29.309  23.228  1.00  0.00     0.251 C 
ATOM     21  N   UNL A   1      30.059  30.071  22.825  1.00  0.00    -0.350 N 
ATOM     22  H   UNL A   1      30.123  30.373  21.890  1.00  0.00     0.164 HD
ATOM     23  O   UNL A   1      32.006  29.087  22.403  1.00  0.00    -0.269 OA
BRANCH  21  24
ATOM     24  C   UNL A   1      28.854  30.526  23.503  1.00  0.00     0.079 C 
ATOM     25  C   UNL A   1      27.652  29.835  22.860  1.00  0.00     0.031 C 
BRANCH  24  26
ATOM     26  C   UNL A   1      28.761  32.056  23.440  1.00  0.00     0.021 C 
ATOM     27  C   UNL A   1      28.401  32.561  22.051  1.00  0.00     0.006 C 
ENDBRANCH  24  26
ENDBRANCH  21  24
ENDBRANCH  15  20
ENDBRANCH  11  14
ENDBRANCH   5  10
ENDBRANCH   2   4
ENDBRANCH   1   2
BRANCH   1  28
ATOM     28  C   UNL A   1      36.240  22.346  24.183  1.00  0.00     0.274 C 
BRANCH  28  29
ATOM     29  C   UNL A   1      37.092  21.234  24.802  1.00  0.00     0.275 C 
BRANCH  29  30
ATOM     30  O   UNL A   1      37.668  21.620  26.062  1.00  0.00    -0.458 OA
BRANCH  30  31
ATOM     31  C   UNL A   1      39.004  21.418  26.156  1.00  0.00     0.338 C 
ATOM     32  O   UNL A   1      39.639  20.467  25.734  1.00  0.00    -0.246 OA
BRANCH  31  33
ATOM     33  C   UNL A   1      39.649  22.630  26.684  1.00  0.00     0.060 A 
ATOM     34  C   UNL A   1      39.260  23.850  26.124  1.00  0.00     0.016 A 
ATOM     35  C   UNL A   1      40.651  22.584  27.652  1.00  0.00     0.016 A 
ATOM     36  C   UNL A   1      39.832  25.041  26.551  1.00  0.00     0.010 A 
ATOM     37  C   UNL A   1      41.264  23.777  28.050  1.00  0.00     0.010 A 
ATOM     38  C   UNL A   1      40.858  25.008  27.497  1.00  0.00    -0.014 A 
BRANCH  38  39
ATOM     39  C   UNL A   1      41.610  26.251  27.777  1.00  0.00     0.031 A 
ATOM     40  C   UNL A   1      40.939  27.329  28.571  1.00  0.00     0.074 A 
ATOM     41  C   UNL A   1      42.887  26.389  27.382  1.00  0.00     0.049 A 
ATOM     42  N   UNL A   1      41.331  28.553  28.813  1.00  0.00    -0.248 NA
ATOM     43  C   UNL A   1      39.643  26.978  29.174  1.00  0.00     0.031 C 
ATOM     44  C   UNL A   1      43.675  25.365  26.699  1.00  0.00     0.029 A 
ATOM     45  N   UNL A   1      43.743  27.455  27.499  1.00  0.00    -0.354 N 
ATOM     46  C   UNL A   1      40.311  29.130  29.558  1.00  0.00     0.074 A 
ATOM     47  C   UNL A   1      39.287  28.124  29.733  1.00  0.00     0.031 C 
ATOM     48  C   UNL A   1      44.899  25.858  26.444  1.00  0.00     0.029 A 
ATOM     49  C   UNL A   1      44.957  27.248  26.891  1.00  0.00     0.049 A 
ATOM     50  H   UNL A   1      43.510  28.285  27.972  1.00  0.00     0.167 HD
ATOM     51  C   UNL A   1      40.240  30.393  30.039  1.00  0.00     0.037 A 
ATOM     52  C   UNL A   1      45.976  28.104  26.681  1.00  0.00     0.037 A 
ATOM     53  C   UNL A   1      41.283  31.372  29.884  1.00  0.00     0.049 A 
ATOM     54  C   UNL A   1      45.849  29.523  27.172  1.00  0.00     0.074 A 
ATOM     55  C   UNL A   1      41.318  32.679  30.332  1.00  0.00     0.029 A 
ATOM     56  N   UNL A   1      42.486  31.139  29.229  1.00  0.00    -0.354 N 
ATOM     57  N   UNL A   1      44.864  30.089  27.827  1.00  0.00    -0.248 NA
ATOM     58  C   UNL A   1      46.971  30.427  26.882  1.00  0.00     0.031 C 
ATOM     59  C   UNL A   1      42.522  33.252  29.909  1.00  0.00     0.029 A 
ATOM     60  C   UNL A   1      43.261  32.287  29.243  1.00  0.00     0.049 A 
ATOM     61  H   UNL A   1      42.748  30.285  28.816  1.00  0.00     0.167 HD
ATOM     62  C   UNL A   1      45.250  31.405  28.042  1.00  0.00     0.074 A 
ATOM     63  C   UNL A   1      46.569  31.550  27.463  1.00  0.00     0.031 C 
ATOM     64  C   UNL A   1      44.574  32.405  28.661  1.00  0.00     0.037 A 
BRANCH  51  65
ATOM     65  C   UNL A   1      38.966  30.800  30.718  1.00  0.00     0.064 A 
ATOM     66  C   UNL A   1      38.785  30.683  32.104  1.00  0.00     0.173 A 
ATOM     67  C   UNL A   1      37.904  31.318  29.959  1.00  0.00     0.173 A 
ATOM     68  F   UNL A   1      39.761  30.176  32.872  1.00  0.00    -0.203 F 
ATOM     69  C   UNL A   1      37.578  31.041  32.700  1.00  0.00     0.198 A 
ATOM     70  C   UNL A   1      36.710  31.702  30.562  1.00  0.00     0.198 A 
ATOM     71  F   UNL A   1      38.025  31.449  28.630  1.00  0.00    -0.203 F 
ATOM     72  F   UNL A   1      37.407  30.871  34.018  1.00  0.00    -0.200 F 
ATOM     73  C   UNL A   1      36.545  31.555  31.930  1.00  0.00     0.200 A 
ATOM     74  F   UNL A   1      35.717  32.206  29.818  1.00  0.00    -0.200 F 
ATOM     75  F   UNL A   1      35.385  31.899  32.506  1.00  0.00    -0.200 F 
ENDBRANCH  51  65
BRANCH  52  76
ATOM     76  C   UNL A   1      47.174  27.657  25.925  1.00  0.00     0.064 A 
ATOM     77  C   UNL A   1      48.310  27.165  26.584  1.00  0.00     0.173 A 
ATOM     78  C   UNL A   1      47.211  27.718  24.523  1.00  0.00     0.173 A 
ATOM     79  F   UNL A   1      48.336  27.115  27.923  1.00  0.00    -0.203 F 
ATOM     80  C   UNL A   1      49.436  26.760  25.871  1.00  0.00     0.198 A 
ATOM     81  C   UNL A   1      48.325  27.285  23.810  1.00  0.00     0.198 A 
ATOM     82  F   UNL A   1      46.154  28.189  23.843  1.00  0.00    -0.203 F 
ATOM     83  F   UNL A   1      50.523  26.333  26.526  1.00  0.00    -0.200 F 
ATOM     84  C   UNL A   1      49.440  26.812  24.484  1.00  0.00     0.200 A 
ATOM     85  F   UNL A   1      48.320  27.326  22.471  1.00  0.00    -0.200 F 
ATOM     86  F   UNL A   1      50.522  26.414  23.800  1.00  0.00    -0.200 F 
ENDBRANCH  52  76
BRANCH  64  87
ATOM     87  C   UNL A   1      45.263  33.734  28.770  1.00  0.00     0.064 A 
ATOM     88  C   UNL A   1      46.123  34.031  29.838  1.00  0.00     0.173 A 
ATOM     89  C   UNL A   1      45.095  34.703  27.770  1.00  0.00     0.173 A 
ATOM     90  F   UNL A   1      46.303  33.142  30.827  1.00  0.00    -0.203 F 
ATOM     91  C   UNL A   1      46.772  35.260  29.911  1.00  0.00     0.198 A 
ATOM     92  C   UNL A   1      45.769  35.919  27.831  1.00  0.00     0.198 A 
ATOM     93  F   UNL A   1      44.289  34.464  26.725  1.00  0.00    -0.203 F 
ATOM     94  F   UNL A   1      47.555  35.540  30.961  1.00  0.00    -0.200 F 
ATOM     95  C   UNL A   1      46.602  36.199  28.904  1.00  0.00     0.200 A 
ATOM     96  F   UNL A   1      45.614  36.820  26.851  1.00  0.00    -0.200 F 
ATOM     97  F   UNL A   1      47.236  37.378  28.972  1.00  0.00    -0.200 F 
ENDBRANCH  64  87
ENDBRANCH  38  39
ENDBRANCH  31  33
ENDBRANCH  30  31
ENDBRANCH  29  30
ENDBRANCH  28  29
ENDBRANCH   1  28
TORSDOF 16
ENDMDL
MODEL 3
REMARK VINA RESULT:     -12.5      4.113      9.677
REMARK SMILES CC[C@@H](C)NC(=O)c1cccc(NC(=O)[C@H]2CCCC[C@@H]2C(=O)OCCOC(=O)c2ccc(-c3c4nc(c(-c5c(F)c(F)c(F)c(F)c5F)c5ccc([nH]5)c(-c5c(F)c(F)c(F)c(F)c5F)c5nc(c(-c6c(F)c(F)c(F)c(F)c6F)c6ccc3[nH]6)C=C5)C=C4)cc2)c1
REMARK SMILES IDX 24 1 22 2 23 3 21 4 16 5 17 6 18 7 20 8 19 9 14 10 13 11
REMARK SMILES IDX 15 13 12 14 8 15 9 16 93 17 10 18 11 19 6 20 5 21 7 23 3 24
REMARK SMILES IDX 4 25 2 26 1 27 25 28 26 29 27 30 28 31 29 32 30 33 31 34
REMARK SMILES IDX 92 35 32 36 91 37 33 38 34 39 35 40 85 41 36 42 90 43 84 44
REMARK SMILES IDX 86 45 37 46 89 47 83 48 82 49 38 51 70 52 50 53 69 54 51 55
REMARK SMILES IDX 54 56 68 57 87 58 52 59 53 60 67 62 88 63 55 64 39 65 40 66
REMARK SMILES IDX 48 67 41 68 42 69 46 70 49 71 43 72 44 73 47 74 45 75 71 76
REMARK SMILES IDX 72 77 80 78 73 79 74 80 78 81 81 82 75 83 76 84 79 85 77 86
REMARK SMILES IDX 56 87 57 88 65 89 58 90 59 91 63 92 66 93 60 94 61 95 64 96
REMARK SMILES IDX 62 97
REMARK H PARENT 13 12 5 22 86 50 54 61
REMARK Flexibility Score: inf
ROOT
ATOM      1  O   UNL A   1      32.456  28.200  25.696  1.00  0.00    -0.462 OA
ENDROOT
BRANCH   1   2
ATOM      2  C   UNL A   1      31.914  27.675  24.562  1.00  0.00     0.309 C 
ATOM      3  O   UNL A   1      30.795  27.955  24.151  1.00  0.00    -0.252 OA
BRANCH   2   4
ATOM      4  C   UNL A   1      32.812  26.596  23.940  1.00  0.00     0.111 C 
ATOM      5  C   UNL A   1      32.006  25.674  22.998  1.00  0.00     0.093 C 
ATOM      6  C   UNL A   1      30.880  24.918  23.693  1.00  0.00     0.014 C 
ATOM      7  C   UNL A   1      30.992  24.767  25.223  1.00  0.00     0.001 C 
ATOM      8  C   UNL A   1      33.403  25.772  25.072  1.00  0.00     0.016 C 
ATOM      9  C   UNL A   1      32.313  25.130  25.924  1.00  0.00     0.001 C 
BRANCH   5  10
ATOM     10  C   UNL A   1      32.851  24.924  21.943  1.00  0.00     0.228 C 
ATOM     11  N   UNL A   1      33.364  23.664  21.989  1.00  0.00    -0.326 N 
ATOM     12  H   UNL A   1      33.957  23.486  21.223  1.00  0.00     0.169 HD
ATOM     13  O   UNL A   1      33.221  25.582  20.953  1.00  0.00    -0.274 OA
BRANCH  11  14
ATOM     14  C   UNL A   1      33.271  22.551  22.840  1.00  0.00     0.041 A 
ATOM     15  C   UNL A   1      33.903  21.567  24.983  1.00  0.00     0.041 A 
ATOM     16  C   UNL A   1      32.907  20.596  24.817  1.00  0.00     0.014 A 
ATOM     17  C   UNL A   1      34.110  22.511  23.964  1.00  0.00     0.040 A 
ATOM     18  C   UNL A   1      32.201  20.524  23.628  1.00  0.00     0.003 A 
ATOM     19  C   UNL A   1      32.422  21.481  22.640  1.00  0.00     0.026 A 
BRANCH  15  20
ATOM     20  C   UNL A   1      34.697  21.458  26.236  1.00  0.00     0.251 C 
ATOM     21  N   UNL A   1      36.061  21.405  26.271  1.00  0.00    -0.350 N 
ATOM     22  H   UNL A   1      36.432  21.371  27.183  1.00  0.00     0.164 HD
ATOM     23  O   UNL A   1      34.100  21.454  27.314  1.00  0.00    -0.269 OA
BRANCH  21  24
ATOM     24  C   UNL A   1      37.078  21.387  25.229  1.00  0.00     0.079 C 
ATOM     25  C   UNL A   1      37.416  19.931  24.913  1.00  0.00     0.031 C 
BRANCH  24  26
ATOM     26  C   UNL A   1      38.302  22.197  25.674  1.00  0.00     0.021 C 
ATOM     27  C   UNL A   1      37.947  23.625  26.061  1.00  0.00     0.006 C 
ENDBRANCH  24  26
ENDBRANCH  21  24
ENDBRANCH  15  20
ENDBRANCH  11  14
ENDBRANCH   5  10
ENDBRANCH   2   4
ENDBRANCH   1   2
BRANCH   1  28
ATOM     28  C   UNL A   1      31.544  28.987  26.491  1.00  0.00     0.274 C 
BRANCH  28  29
ATOM     29  C   UNL A   1      31.827  30.492  26.471  1.00  0.00     0.275 C 
BRANCH  29  30
ATOM     30  O   UNL A   1      33.234  30.785  26.432  1.00  0.00    -0.458 OA
BRANCH  30  31
ATOM     31  C   UNL A   1      33.626  31.775  27.270  1.00  0.00     0.338 C 
ATOM     32  O   UNL A   1      32.969  32.733  27.640  1.00  0.00    -0.246 OA
BRANCH  31  33
ATOM     33  C   UNL A   1      34.934  31.437  27.855  1.00  0.00     0.060 A 
ATOM     34  C   UNL A   1      35.111  30.120  28.290  1.00  0.00     0.016 A 
ATOM     35  C   UNL A   1      35.940  32.384  28.036  1.00  0.00     0.016 A 
ATOM     36  C   UNL A   1      36.307  29.721  28.869  1.00  0.00     0.010 A 
ATOM     37  C   UNL A   1      37.129  31.997  28.664  1.00  0.00     0.010 A 
ATOM     38  C   UNL A   1      37.313  30.665  29.085  1.00  0.00    -0.014 A 
BRANCH  38  39
ATOM     39  C   UNL A   1      38.486  30.283  29.903  1.00  0.00     0.031 A 
ATOM     40  C   UNL A   1      39.496  29.348  29.311  1.00  0.00     0.074 A 
ATOM     41  C   UNL A   1      38.677  30.809  31.125  1.00  0.00     0.049 A 
ATOM     42  N   UNL A   1      40.514  28.755  29.876  1.00  0.00    -0.248 NA
ATOM     43  C   UNL A   1      39.330  29.037  27.882  1.00  0.00     0.031 C 
ATOM     44  C   UNL A   1      37.820  31.809  31.757  1.00  0.00     0.029 A 
ATOM     45  N   UNL A   1      39.658  30.566  32.053  1.00  0.00    -0.354 N 
ATOM     46  C   UNL A   1      41.084  27.968  28.884  1.00  0.00     0.074 A 
ATOM     47  C   UNL A   1      40.303  28.161  27.682  1.00  0.00     0.031 C 
ATOM     48  C   UNL A   1      38.305  32.086  32.979  1.00  0.00     0.029 A 
ATOM     49  C   UNL A   1      39.469  31.239  33.234  1.00  0.00     0.049 A 
ATOM     50  H   UNL A   1      40.422  29.969  31.888  1.00  0.00     0.167 HD
ATOM     51  C   UNL A   1      42.158  27.150  28.981  1.00  0.00     0.037 A 
ATOM     52  C   UNL A   1      40.134  31.142  34.402  1.00  0.00     0.037 A 
ATOM     53  C   UNL A   1      42.944  26.994  30.176  1.00  0.00     0.049 A 
ATOM     54  C   UNL A   1      41.288  30.178  34.504  1.00  0.00     0.074 A 
ATOM     55  C   UNL A   1      44.052  26.194  30.386  1.00  0.00     0.029 A 
ATOM     56  N   UNL A   1      42.701  27.664  31.368  1.00  0.00    -0.354 N 
ATOM     57  N   UNL A   1      41.795  29.391  33.587  1.00  0.00    -0.248 NA
ATOM     58  C   UNL A   1      41.956  30.081  35.811  1.00  0.00     0.031 C 
ATOM     59  C   UNL A   1      44.453  26.346  31.717  1.00  0.00     0.029 A 
ATOM     60  C   UNL A   1      43.627  27.279  32.324  1.00  0.00     0.049 A 
ATOM     61  H   UNL A   1      41.977  28.316  31.513  1.00  0.00     0.167 HD
ATOM     62  C   UNL A   1      42.846  28.717  34.195  1.00  0.00     0.074 A 
ATOM     63  C   UNL A   1      42.917  29.203  35.557  1.00  0.00     0.031 C 
ATOM     64  C   UNL A   1      43.677  27.780  33.674  1.00  0.00     0.037 A 
BRANCH  51  65
ATOM     65  C   UNL A   1      42.498  26.316  27.782  1.00  0.00     0.064 A 
ATOM     66  C   UNL A   1      41.856  25.100  27.508  1.00  0.00     0.173 A 
ATOM     67  C   UNL A   1      43.492  26.749  26.889  1.00  0.00     0.173 A 
ATOM     68  F   UNL A   1      40.914  24.631  28.340  1.00  0.00    -0.203 F 
ATOM     69  C   UNL A   1      42.217  24.334  26.402  1.00  0.00     0.198 A 
ATOM     70  C   UNL A   1      43.829  25.995  25.769  1.00  0.00     0.198 A 
ATOM     71  F   UNL A   1      44.138  27.904  27.105  1.00  0.00    -0.203 F 
ATOM     72  F   UNL A   1      41.629  23.148  26.189  1.00  0.00    -0.200 F 
ATOM     73  C   UNL A   1      43.198  24.785  25.531  1.00  0.00     0.200 A 
ATOM     74  F   UNL A   1      44.771  26.437  24.925  1.00  0.00    -0.200 F 
ATOM     75  F   UNL A   1      43.544  24.046  24.467  1.00  0.00    -0.200 F 
ENDBRANCH  51  65
BRANCH  52  76
ATOM     76  C   UNL A   1      39.689  31.935  35.576  1.00  0.00     0.064 A 
ATOM     77  C   UNL A   1      38.668  31.478  36.420  1.00  0.00     0.173 A 
ATOM     78  C   UNL A   1      40.276  33.174  35.878  1.00  0.00     0.173 A 
ATOM     79  F   UNL A   1      38.055  30.315  36.158  1.00  0.00    -0.203 F 
ATOM     80  C   UNL A   1      38.245  32.232  37.512  1.00  0.00     0.198 A 
ATOM     81  C   UNL A   1      39.874  33.914  36.987  1.00  0.00     0.198 A 
ATOM     82  F   UNL A   1      41.252  33.663  35.098  1.00  0.00    -0.203 F 
ATOM     83  F   UNL A   1      37.238  31.792  38.279  1.00  0.00    -0.200 F 
ATOM     84  C   UNL A   1      38.854  33.446  37.800  1.00  0.00     0.200 A 
ATOM     85  F   UNL A   1      40.472  35.079  37.267  1.00  0.00    -0.200 F 
ATOM     86  F   UNL A   1      38.451  34.166  38.857  1.00  0.00    -0.200 F 
ENDBRANCH  52  76
BRANCH  64  87
ATOM     87  C   UNL A   1      44.753  27.242  34.572  1.00  0.00     0.064 A 
ATOM     88  C   UNL A   1      44.561  26.081  35.335  1.00  0.00     0.173 A 
ATOM     89  C   UNL A   1      46.006  27.871  34.632  1.00  0.00     0.173 A 
ATOM     90  F   UNL A   1      43.376  25.453  35.323  1.00  0.00    -0.203 F 
ATOM     91  C   UNL A   1      45.578  25.583  36.144  1.00  0.00     0.198 A 
ATOM     92  C   UNL A   1      47.030  27.353  35.420  1.00  0.00     0.198 A 
ATOM     93  F   UNL A   1      46.241  28.980  33.915  1.00  0.00    -0.203 F 
ATOM     94  F   UNL A   1      45.360  24.497  36.899  1.00  0.00    -0.200 F 
ATOM     95  C   UNL A   1      46.813  26.213  36.179  1.00  0.00     0.200 A 
ATOM     96  F   UNL A   1      48.226  27.956  35.442  1.00  0.00    -0.200 F 
ATOM     97  F   UNL A   1      47.794  25.726  36.952  1.00  0.00    -0.200 F 
ENDBRANCH  64  87
ENDBRANCH  38  39
ENDBRANCH  31  33
ENDBRANCH  30  31
ENDBRANCH  29  30
ENDBRANCH  28  29
ENDBRANCH   1  28
TORSDOF 16
ENDMDL
