MODEL 1
REMARK VINA RESULT:     -12.2      0.000      0.000
REMARK SMILES CCn1cc(S(=O)(=O)N2CCC(CCc3ccc(C(=O)OCCOC(=O)c4ccc(-c5c6nc(c(-c7c(F)c(F)c(F)c(F)c7F)c7ccc([nH]7)c(-c7c(F)c(F)c(F)c(F)c7F)c7nc(c(-c8c(F)c(F)c(F)c(F)c8F)c8ccc5[nH]8)C=C7)C=C6)cc4)cc3)CC2)cn1
REMARK SMILES IDX 19 1 20 2 18 3 15 4 16 5 91 6 17 7 90 8 14 9 13 10 12 11
REMARK SMILES IDX 9 12 10 13 93 14 11 15 92 16 6 17 7 18 8 19 5 20 3 21 4 22
REMARK SMILES IDX 95 23 94 24 2 25 1 26 21 27 22 28 23 29 24 30 25 31 26 32
REMARK SMILES IDX 27 33 28 34 89 35 29 36 88 37 30 38 31 39 32 40 82 41 33 42
REMARK SMILES IDX 87 43 81 44 83 45 34 46 86 47 80 48 79 49 35 51 67 52 47 53
REMARK SMILES IDX 66 54 48 55 51 56 65 57 84 58 49 59 50 60 64 62 85 63 52 64
REMARK SMILES IDX 36 65 37 66 45 67 38 68 39 69 43 70 46 71 40 72 41 73 44 74
REMARK SMILES IDX 42 75 68 76 69 77 77 78 70 79 71 80 75 81 78 82 72 83 73 84
REMARK SMILES IDX 76 85 74 86 53 87 54 88 62 89 55 90 56 91 60 92 63 93 57 94
REMARK SMILES IDX 58 95 61 96 59 97
REMARK H PARENT 83 50 51 61
REMARK Flexibility Score: inf
ROOT
ATOM      1  C   UNL A   1      42.760  18.572  26.503  1.00  0.00     0.338 C 
ATOM      2  O   UNL A   1      42.990  17.775  27.399  1.00  0.00    -0.246 OA
ENDROOT
BRANCH   1   3
ATOM      3  C   UNL A   1      41.817  19.706  26.643  1.00  0.00     0.060 A 
ATOM      4  C   UNL A   1      40.078  21.909  26.892  1.00  0.00    -0.048 A 
ATOM      5  C   UNL A   1      41.280  21.868  27.612  1.00  0.00     0.004 A 
ATOM      6  C   UNL A   1      39.749  20.808  26.088  1.00  0.00     0.004 A 
ATOM      7  C   UNL A   1      42.137  20.766  27.502  1.00  0.00     0.016 A 
ATOM      8  C   UNL A   1      40.623  19.734  25.928  1.00  0.00     0.016 A 
BRANCH   4   9
ATOM      9  C   UNL A   1      39.146  23.098  27.016  1.00  0.00     0.036 C 
BRANCH   9  10
ATOM     10  C   UNL A   1      38.422  23.526  25.720  1.00  0.00     0.008 C 
BRANCH  10  11
ATOM     11  C   UNL A   1      36.973  23.029  25.577  1.00  0.00    -0.008 C 
ATOM     12  N   UNL A   1      34.241  22.714  24.658  1.00  0.00    -0.198 NA
ATOM     13  C   UNL A   1      34.540  23.545  25.847  1.00  0.00     0.103 C 
ATOM     14  C   UNL A   1      35.291  21.747  24.239  1.00  0.00     0.103 C 
ATOM     15  C   UNL A   1      35.937  24.140  25.781  1.00  0.00     0.020 C 
ATOM     16  C   UNL A   1      36.683  22.385  24.218  1.00  0.00     0.020 C 
BRANCH  12  17
ATOM     17  S   UNL A   1      32.641  22.104  24.616  1.00  0.00     0.246 S 
ATOM     18  O   UNL A   1      32.030  22.486  23.367  1.00  0.00    -0.207 OA
ATOM     19  O   UNL A   1      32.015  22.385  25.896  1.00  0.00    -0.207 OA
BRANCH  17  20
ATOM     20  C   UNL A   1      32.651  20.388  24.556  1.00  0.00     0.120 A 
ATOM     21  N   UNL A   1      32.784  18.240  24.955  1.00  0.00    -0.272 N 
ATOM     22  C   UNL A   1      32.918  19.466  25.546  1.00  0.00     0.130 A 
ATOM     23  N   UNL A   1      32.416  18.311  23.661  1.00  0.00    -0.180 NA
ATOM     24  C   UNL A   1      32.357  19.625  23.417  1.00  0.00     0.156 A 
BRANCH  21  25
ATOM     25  C   UNL A   1      32.939  16.955  25.614  1.00  0.00     0.141 C 
ATOM     26  C   UNL A   1      34.197  16.200  25.220  1.00  0.00     0.029 C 
ENDBRANCH  21  25
ENDBRANCH  17  20
ENDBRANCH  12  17
ENDBRANCH  10  11
ENDBRANCH   9  10
ENDBRANCH   4   9
ENDBRANCH   1   3
BRANCH   1  27
ATOM     27  O   UNL A   1      43.392  18.644  25.300  1.00  0.00    -0.458 OA
BRANCH  27  28
ATOM     28  C   UNL A   1      44.826  18.743  25.342  1.00  0.00     0.275 C 
BRANCH  28  29
ATOM     29  C   UNL A   1      45.363  19.590  24.198  1.00  0.00     0.275 C 
BRANCH  29  30
ATOM     30  O   UNL A   1      45.538  20.944  24.600  1.00  0.00    -0.458 OA
BRANCH  30  31
ATOM     31  C   UNL A   1      44.636  21.812  24.092  1.00  0.00     0.338 C 
ATOM     32  O   UNL A   1      44.375  22.019  22.918  1.00  0.00    -0.246 OA
BRANCH  31  33
ATOM     33  C   UNL A   1      44.173  22.680  25.172  1.00  0.00     0.060 A 
ATOM     34  C   UNL A   1      43.068  23.501  24.921  1.00  0.00     0.016 A 
ATOM     35  C   UNL A   1      45.029  22.888  26.261  1.00  0.00     0.016 A 
ATOM     36  C   UNL A   1      42.919  24.646  25.673  1.00  0.00     0.010 A 
ATOM     37  C   UNL A   1      44.899  24.040  26.987  1.00  0.00     0.010 A 
ATOM     38  C   UNL A   1      43.888  24.934  26.639  1.00  0.00    -0.014 A 
BRANCH  38  39
ATOM     39  C   UNL A   1      43.755  26.134  27.437  1.00  0.00     0.031 A 
ATOM     40  C   UNL A   1      44.788  27.140  27.082  1.00  0.00     0.074 A 
ATOM     41  C   UNL A   1      42.669  26.313  28.219  1.00  0.00     0.049 A 
ATOM     42  N   UNL A   1      45.653  27.698  27.860  1.00  0.00    -0.248 NA
ATOM     43  C   UNL A   1      45.011  27.431  25.648  1.00  0.00     0.031 C 
ATOM     44  C   UNL A   1      41.518  25.406  28.343  1.00  0.00     0.029 A 
ATOM     45  N   UNL A   1      42.283  27.391  28.958  1.00  0.00    -0.354 N 
ATOM     46  C   UNL A   1      46.362  28.584  27.049  1.00  0.00     0.074 A 
ATOM     47  C   UNL A   1      46.083  28.221  25.691  1.00  0.00     0.031 C 
ATOM     48  C   UNL A   1      40.481  26.066  28.903  1.00  0.00     0.029 A 
ATOM     49  C   UNL A   1      40.929  27.392  29.289  1.00  0.00     0.049 A 
ATOM     50  H   UNL A   1      42.904  28.104  29.232  1.00  0.00     0.167 HD
ATOM     51  C   UNL A   1      46.817  29.754  27.569  1.00  0.00     0.037 A 
ATOM     52  C   UNL A   1      40.224  28.444  29.772  1.00  0.00     0.037 A 
ATOM     53  C   UNL A   1      46.883  29.669  29.004  1.00  0.00     0.049 A 
ATOM     54  C   UNL A   1      41.204  29.418  30.305  1.00  0.00     0.074 A 
ATOM     55  C   UNL A   1      47.676  29.020  29.924  1.00  0.00     0.029 A 
ATOM     56  N   UNL A   1      45.712  30.005  29.631  1.00  0.00    -0.354 N 
ATOM     57  N   UNL A   1      41.946  29.189  31.353  1.00  0.00    -0.248 NA
ATOM     58  C   UNL A   1      41.655  30.508  29.448  1.00  0.00     0.031 C 
ATOM     59  C   UNL A   1      46.853  28.808  31.070  1.00  0.00     0.029 A 
ATOM     60  C   UNL A   1      45.603  29.380  30.842  1.00  0.00     0.049 A 
ATOM     61  H   UNL A   1      45.038  30.618  29.259  1.00  0.00     0.167 HD
ATOM     62  C   UNL A   1      43.154  29.791  31.057  1.00  0.00     0.074 A 
ATOM     63  C   UNL A   1      42.864  30.722  29.972  1.00  0.00     0.031 C 
ATOM     64  C   UNL A   1      44.322  29.239  31.497  1.00  0.00     0.037 A 
BRANCH  51  65
ATOM     65  C   UNL A   1      46.652  31.096  26.876  1.00  0.00     0.064 A 
ATOM     66  C   UNL A   1      47.744  31.988  26.872  1.00  0.00     0.173 A 
ATOM     67  C   UNL A   1      45.407  31.671  26.528  1.00  0.00     0.173 A 
ATOM     68  F   UNL A   1      48.972  31.563  27.204  1.00  0.00    -0.203 F 
ATOM     69  C   UNL A   1      47.584  33.355  26.623  1.00  0.00     0.198 A 
ATOM     70  C   UNL A   1      45.260  33.025  26.234  1.00  0.00     0.198 A 
ATOM     71  F   UNL A   1      44.259  30.986  26.569  1.00  0.00    -0.203 F 
ATOM     72  F   UNL A   1      48.630  34.183  26.755  1.00  0.00    -0.200 F 
ATOM     73  C   UNL A   1      46.341  33.873  26.311  1.00  0.00     0.200 A 
ATOM     74  F   UNL A   1      44.040  33.509  25.960  1.00  0.00    -0.200 F 
ATOM     75  F   UNL A   1      46.173  35.191  26.136  1.00  0.00    -0.200 F 
ENDBRANCH  51  65
BRANCH  52  76
ATOM     76  C   UNL A   1      38.802  28.796  29.541  1.00  0.00     0.064 A 
ATOM     77  C   UNL A   1      37.932  29.067  30.611  1.00  0.00     0.173 A 
ATOM     78  C   UNL A   1      38.340  29.144  28.257  1.00  0.00     0.173 A 
ATOM     79  F   UNL A   1      38.312  28.808  31.870  1.00  0.00    -0.203 F 
ATOM     80  C   UNL A   1      36.686  29.674  30.410  1.00  0.00     0.198 A 
ATOM     81  C   UNL A   1      37.095  29.745  28.057  1.00  0.00     0.198 A 
ATOM     82  F   UNL A   1      39.127  28.999  27.182  1.00  0.00    -0.203 F 
ATOM     83  F   UNL A   1      35.910  29.973  31.460  1.00  0.00    -0.200 F 
ATOM     84  C   UNL A   1      36.275  30.022  29.133  1.00  0.00     0.200 A 
ATOM     85  F   UNL A   1      36.727  30.112  26.822  1.00  0.00    -0.200 F 
ATOM     86  F   UNL A   1      35.111  30.660  28.946  1.00  0.00    -0.200 F 
ENDBRANCH  52  76
BRANCH  64  87
ATOM     87  C   UNL A   1      44.236  28.293  32.655  1.00  0.00     0.064 A 
ATOM     88  C   UNL A   1      44.076  26.902  32.541  1.00  0.00     0.173 A 
ATOM     89  C   UNL A   1      44.413  28.823  33.939  1.00  0.00     0.173 A 
ATOM     90  F   UNL A   1      43.986  26.314  31.341  1.00  0.00    -0.203 F 
ATOM     91  C   UNL A   1      44.052  26.087  33.671  1.00  0.00     0.198 A 
ATOM     92  C   UNL A   1      44.429  28.002  35.061  1.00  0.00     0.198 A 
ATOM     93  F   UNL A   1      44.615  30.140  34.100  1.00  0.00    -0.203 F 
ATOM     94  F   UNL A   1      43.879  24.763  33.542  1.00  0.00    -0.200 F 
ATOM     95  C   UNL A   1      44.236  26.638  34.929  1.00  0.00     0.200 A 
ATOM     96  F   UNL A   1      44.654  28.537  36.270  1.00  0.00    -0.200 F 
ATOM     97  F   UNL A   1      44.252  25.850  36.013  1.00  0.00    -0.200 F 
ENDBRANCH  64  87
ENDBRANCH  38  39
ENDBRANCH  31  33
ENDBRANCH  30  31
ENDBRANCH  29  30
ENDBRANCH  28  29
ENDBRANCH  27  28
ENDBRANCH   1  27
TORSDOF 17
ENDMDL
MODEL 2
REMARK VINA RESULT:     -12.1      1.267      2.076
REMARK SMILES CCn1cc(S(=O)(=O)N2CCC(CCc3ccc(C(=O)OCCOC(=O)c4ccc(-c5c6nc(c(-c7c(F)c(F)c(F)c(F)c7F)c7ccc([nH]7)c(-c7c(F)c(F)c(F)c(F)c7F)c7nc(c(-c8c(F)c(F)c(F)c(F)c8F)c8ccc5[nH]8)C=C7)C=C6)cc4)cc3)CC2)cn1
REMARK SMILES IDX 19 1 20 2 18 3 15 4 16 5 91 6 17 7 90 8 14 9 13 10 12 11
REMARK SMILES IDX 9 12 10 13 93 14 11 15 92 16 6 17 7 18 8 19 5 20 3 21 4 22
REMARK SMILES IDX 95 23 94 24 2 25 1 26 21 27 22 28 23 29 24 30 25 31 26 32
REMARK SMILES IDX 27 33 28 34 89 35 29 36 88 37 30 38 31 39 32 40 82 41 33 42
REMARK SMILES IDX 87 43 81 44 83 45 34 46 86 47 80 48 79 49 35 51 67 52 47 53
REMARK SMILES IDX 66 54 48 55 51 56 65 57 84 58 49 59 50 60 64 62 85 63 52 64
REMARK SMILES IDX 36 65 37 66 45 67 38 68 39 69 43 70 46 71 40 72 41 73 44 74
REMARK SMILES IDX 42 75 68 76 69 77 77 78 70 79 71 80 75 81 78 82 72 83 73 84
REMARK SMILES IDX 76 85 74 86 53 87 54 88 62 89 55 90 56 91 60 92 63 93 57 94
REMARK SMILES IDX 58 95 61 96 59 97
REMARK H PARENT 83 50 51 61
REMARK Flexibility Score: inf
ROOT
ATOM      1  C   UNL A   1      43.079  18.239  26.398  1.00  0.00     0.338 C 
ATOM      2  O   UNL A   1      43.246  17.363  27.233  1.00  0.00    -0.246 OA
ENDROOT
BRANCH   1   3
ATOM      3  C   UNL A   1      42.174  19.395  26.599  1.00  0.00     0.060 A 
ATOM      4  C   UNL A   1      40.508  21.638  26.965  1.00  0.00    -0.048 A 
ATOM      5  C   UNL A   1      41.717  21.528  27.667  1.00  0.00     0.004 A 
ATOM      6  C   UNL A   1      40.135  20.583  26.119  1.00  0.00     0.004 A 
ATOM      7  C   UNL A   1      42.537  20.406  27.498  1.00  0.00     0.016 A 
ATOM      8  C   UNL A   1      40.973  19.490  25.902  1.00  0.00     0.016 A 
BRANCH   4   9
ATOM      9  C   UNL A   1      39.616  22.848  27.152  1.00  0.00     0.036 C 
BRANCH   9  10
ATOM     10  C   UNL A   1      38.853  23.325  25.896  1.00  0.00     0.008 C 
BRANCH  10  11
ATOM     11  C   UNL A   1      37.388  22.866  25.798  1.00  0.00    -0.008 C 
ATOM     12  N   UNL A   1      34.655  22.530  24.888  1.00  0.00    -0.198 NA
ATOM     13  C   UNL A   1      34.973  23.502  25.960  1.00  0.00     0.103 C 
ATOM     14  C   UNL A   1      35.672  21.478  24.618  1.00  0.00     0.103 C 
ATOM     15  C   UNL A   1      36.393  24.032  25.836  1.00  0.00     0.020 C 
ATOM     16  C   UNL A   1      37.087  22.056  24.534  1.00  0.00     0.020 C 
BRANCH  12  17
ATOM     17  S   UNL A   1      33.034  21.979  24.903  1.00  0.00     0.246 S 
ATOM     18  O   UNL A   1      32.870  21.047  25.992  1.00  0.00    -0.207 OA
ATOM     19  O   UNL A   1      32.656  21.644  23.542  1.00  0.00    -0.207 OA
BRANCH  17  20
ATOM     20  C   UNL A   1      31.964  23.261  25.301  1.00  0.00     0.120 A 
ATOM     21  N   UNL A   1      30.774  25.096  25.393  1.00  0.00    -0.272 N 
ATOM     22  C   UNL A   1      31.711  24.444  24.639  1.00  0.00     0.130 A 
ATOM     23  N   UNL A   1      30.382  24.395  26.476  1.00  0.00    -0.180 NA
ATOM     24  C   UNL A   1      31.127  23.286  26.426  1.00  0.00     0.156 A 
BRANCH  21  25
ATOM     25  C   UNL A   1      30.169  26.378  25.079  1.00  0.00     0.141 C 
ATOM     26  C   UNL A   1      29.034  26.302  24.072  1.00  0.00     0.029 C 
ENDBRANCH  21  25
ENDBRANCH  17  20
ENDBRANCH  12  17
ENDBRANCH  10  11
ENDBRANCH   9  10
ENDBRANCH   4   9
ENDBRANCH   1   3
BRANCH   1  27
ATOM     27  O   UNL A   1      43.757  18.383  25.227  1.00  0.00    -0.458 OA
BRANCH  27  28
ATOM     28  C   UNL A   1      45.159  18.683  25.340  1.00  0.00     0.275 C 
BRANCH  28  29
ATOM     29  C   UNL A   1      45.636  19.570  24.199  1.00  0.00     0.275 C 
BRANCH  29  30
ATOM     30  O   UNL A   1      45.690  20.935  24.600  1.00  0.00    -0.458 OA
BRANCH  30  31
ATOM     31  C   UNL A   1      44.712  21.717  24.094  1.00  0.00     0.338 C 
ATOM     32  O   UNL A   1      44.398  21.861  22.924  1.00  0.00    -0.246 OA
BRANCH  31  33
ATOM     33  C   UNL A   1      44.225  22.591  25.159  1.00  0.00     0.060 A 
ATOM     34  C   UNL A   1      43.157  23.447  24.864  1.00  0.00     0.016 A 
ATOM     35  C   UNL A   1      45.035  22.766  26.288  1.00  0.00     0.016 A 
ATOM     36  C   UNL A   1      43.008  24.590  25.619  1.00  0.00     0.010 A 
ATOM     37  C   UNL A   1      44.905  23.916  27.018  1.00  0.00     0.010 A 
ATOM     38  C   UNL A   1      43.938  24.843  26.631  1.00  0.00    -0.014 A 
BRANCH  38  39
ATOM     39  C   UNL A   1      43.804  26.041  27.432  1.00  0.00     0.031 A 
ATOM     40  C   UNL A   1      44.842  27.044  27.086  1.00  0.00     0.074 A 
ATOM     41  C   UNL A   1      42.714  26.220  28.208  1.00  0.00     0.049 A 
ATOM     42  N   UNL A   1      45.704  27.597  27.871  1.00  0.00    -0.248 NA
ATOM     43  C   UNL A   1      45.074  27.339  25.655  1.00  0.00     0.031 C 
ATOM     44  C   UNL A   1      41.560  25.315  28.323  1.00  0.00     0.029 A 
ATOM     45  N   UNL A   1      42.327  27.296  28.948  1.00  0.00    -0.354 N 
ATOM     46  C   UNL A   1      46.420  28.484  27.067  1.00  0.00     0.074 A 
ATOM     47  C   UNL A   1      46.148  28.127  25.707  1.00  0.00     0.031 C 
ATOM     48  C   UNL A   1      40.521  25.976  28.879  1.00  0.00     0.029 A 
ATOM     49  C   UNL A   1      40.970  27.299  29.271  1.00  0.00     0.049 A 
ATOM     50  H   UNL A   1      42.948  28.006  29.228  1.00  0.00     0.167 HD
ATOM     51  C   UNL A   1      46.875  29.652  27.594  1.00  0.00     0.037 A 
ATOM     52  C   UNL A   1      40.265  28.352  29.754  1.00  0.00     0.037 A 
ATOM     53  C   UNL A   1      46.931  29.562  29.029  1.00  0.00     0.049 A 
ATOM     54  C   UNL A   1      41.245  29.321  30.296  1.00  0.00     0.074 A 
ATOM     55  C   UNL A   1      47.718  28.908  29.951  1.00  0.00     0.029 A 
ATOM     56  N   UNL A   1      45.759  29.899  29.650  1.00  0.00    -0.354 N 
ATOM     57  N   UNL A   1      41.980  29.087  31.347  1.00  0.00    -0.248 NA
ATOM     58  C   UNL A   1      41.703  30.413  29.445  1.00  0.00     0.031 C 
ATOM     59  C   UNL A   1      46.888  28.694  31.091  1.00  0.00     0.029 A 
ATOM     60  C   UNL A   1      45.640  29.270  30.858  1.00  0.00     0.049 A 
ATOM     61  H   UNL A   1      45.088  30.514  29.276  1.00  0.00     0.167 HD
ATOM     62  C   UNL A   1      43.191  29.687  31.060  1.00  0.00     0.074 A 
ATOM     63  C   UNL A   1      42.910  30.622  29.977  1.00  0.00     0.031 C 
ATOM     64  C   UNL A   1      44.355  29.130  31.505  1.00  0.00     0.037 A 
BRANCH  51  65
ATOM     65  C   UNL A   1      46.717  30.997  26.904  1.00  0.00     0.064 A 
ATOM     66  C   UNL A   1      47.823  31.870  26.877  1.00  0.00     0.173 A 
ATOM     67  C   UNL A   1      45.474  31.591  26.582  1.00  0.00     0.173 A 
ATOM     68  F   UNL A   1      49.051  31.426  27.184  1.00  0.00    -0.203 F 
ATOM     69  C   UNL A   1      47.680  33.240  26.632  1.00  0.00     0.198 A 
ATOM     70  C   UNL A   1      45.344  32.948  26.290  1.00  0.00     0.198 A 
ATOM     71  F   UNL A   1      44.316  30.926  26.646  1.00  0.00    -0.203 F 
ATOM     72  F   UNL A   1      48.741  34.051  26.742  1.00  0.00    -0.200 F 
ATOM     73  C   UNL A   1      46.439  33.779  26.346  1.00  0.00     0.200 A 
ATOM     74  F   UNL A   1      44.126  33.452  26.042  1.00  0.00    -0.200 F 
ATOM     75  F   UNL A   1      46.289  35.099  26.173  1.00  0.00    -0.200 F 
ENDBRANCH  51  65
BRANCH  52  76
ATOM     76  C   UNL A   1      38.845  28.708  29.516  1.00  0.00     0.064 A 
ATOM     77  C   UNL A   1      37.966  28.962  30.582  1.00  0.00     0.173 A 
ATOM     78  C   UNL A   1      38.395  29.078  28.234  1.00  0.00     0.173 A 
ATOM     79  F   UNL A   1      38.335  28.682  31.840  1.00  0.00    -0.203 F 
ATOM     80  C   UNL A   1      36.722  29.572  30.380  1.00  0.00     0.198 A 
ATOM     81  C   UNL A   1      37.153  29.682  28.033  1.00  0.00     0.198 A 
ATOM     82  F   UNL A   1      39.192  28.950  27.164  1.00  0.00    -0.203 F 
ATOM     83  F   UNL A   1      35.937  29.854  31.428  1.00  0.00    -0.200 F 
ATOM     84  C   UNL A   1      36.322  29.942  29.106  1.00  0.00     0.200 A 
ATOM     85  F   UNL A   1      36.796  30.069  26.800  1.00  0.00    -0.200 F 
ATOM     86  F   UNL A   1      35.161  30.583  28.918  1.00  0.00    -0.200 F 
ENDBRANCH  52  76
BRANCH  64  87
ATOM     87  C   UNL A   1      44.260  28.180  32.660  1.00  0.00     0.064 A 
ATOM     88  C   UNL A   1      44.119  26.789  32.540  1.00  0.00     0.173 A 
ATOM     89  C   UNL A   1      44.408  28.709  33.948  1.00  0.00     0.173 A 
ATOM     90  F   UNL A   1      44.058  26.202  31.337  1.00  0.00    -0.203 F 
ATOM     91  C   UNL A   1      44.085  25.970  33.668  1.00  0.00     0.198 A 
ATOM     92  C   UNL A   1      44.414  27.887  35.068  1.00  0.00     0.198 A 
ATOM     93  F   UNL A   1      44.591  30.029  34.115  1.00  0.00    -0.203 F 
ATOM     94  F   UNL A   1      43.931  24.645  33.533  1.00  0.00    -0.200 F 
ATOM     95  C   UNL A   1      44.240  26.520  34.930  1.00  0.00     0.200 A 
ATOM     96  F   UNL A   1      44.611  28.421  36.282  1.00  0.00    -0.200 F 
ATOM     97  F   UNL A   1      44.246  25.731  36.013  1.00  0.00    -0.200 F 
ENDBRANCH  64  87
ENDBRANCH  38  39
ENDBRANCH  31  33
ENDBRANCH  30  31
ENDBRANCH  29  30
ENDBRANCH  28  29
ENDBRANCH  27  28
ENDBRANCH   1  27
TORSDOF 17
ENDMDL
MODEL 3
REMARK VINA RESULT:     -11.8      1.864      3.472
REMARK SMILES CCn1cc(S(=O)(=O)N2CCC(CCc3ccc(C(=O)OCCOC(=O)c4ccc(-c5c6nc(c(-c7c(F)c(F)c(F)c(F)c7F)c7ccc([nH]7)c(-c7c(F)c(F)c(F)c(F)c7F)c7nc(c(-c8c(F)c(F)c(F)c(F)c8F)c8ccc5[nH]8)C=C7)C=C6)cc4)cc3)CC2)cn1
REMARK SMILES IDX 19 1 20 2 18 3 15 4 16 5 91 6 17 7 90 8 14 9 13 10 12 11
REMARK SMILES IDX 9 12 10 13 93 14 11 15 92 16 6 17 7 18 8 19 5 20 3 21 4 22
REMARK SMILES IDX 95 23 94 24 2 25 1 26 21 27 22 28 23 29 24 30 25 31 26 32
REMARK SMILES IDX 27 33 28 34 89 35 29 36 88 37 30 38 31 39 32 40 82 41 33 42
REMARK SMILES IDX 87 43 81 44 83 45 34 46 86 47 80 48 79 49 35 51 67 52 47 53
REMARK SMILES IDX 66 54 48 55 51 56 65 57 84 58 49 59 50 60 64 62 85 63 52 64
REMARK SMILES IDX 36 65 37 66 45 67 38 68 39 69 43 70 46 71 40 72 41 73 44 74
REMARK SMILES IDX 42 75 68 76 69 77 77 78 70 79 71 80 75 81 78 82 72 83 73 84
REMARK SMILES IDX 76 85 74 86 53 87 54 88 62 89 55 90 56 91 60 92 63 93 57 94
REMARK SMILES IDX 58 95 61 96 59 97
REMARK H PARENT 83 50 51 61
REMARK Flexibility Score: inf
ROOT
ATOM      1  C   UNL A   1      42.004  19.384  26.432  1.00  0.00     0.338 C 
ATOM      2  O   UNL A   1      42.407  19.028  27.527  1.00  0.00    -0.246 OA
ENDROOT
BRANCH   1   3
ATOM      3  C   UNL A   1      40.758  20.163  26.235  1.00  0.00     0.060 A 
ATOM      4  C   UNL A   1      38.428  21.695  25.826  1.00  0.00    -0.048 A 
ATOM      5  C   UNL A   1      39.560  22.268  26.421  1.00  0.00     0.004 A 
ATOM      6  C   UNL A   1      38.475  20.334  25.487  1.00  0.00     0.004 A 
ATOM      7  C   UNL A   1      40.713  21.504  26.640  1.00  0.00     0.016 A 
ATOM      8  C   UNL A   1      39.637  19.582  25.649  1.00  0.00     0.016 A 
BRANCH   4   9
ATOM      9  C   UNL A   1      37.178  22.519  25.594  1.00  0.00     0.036 C 
BRANCH   9  10
ATOM     10  C   UNL A   1      35.840  21.828  25.937  1.00  0.00     0.008 C 
BRANCH  10  11
ATOM     11  C   UNL A   1      34.576  22.664  25.671  1.00  0.00    -0.008 C 
ATOM     12  N   UNL A   1      32.589  24.773  25.775  1.00  0.00    -0.198 NA
ATOM     13  C   UNL A   1      32.406  23.533  26.564  1.00  0.00     0.103 C 
ATOM     14  C   UNL A   1      33.560  24.711  24.651  1.00  0.00     0.103 C 
ATOM     15  C   UNL A   1      33.739  22.899  26.933  1.00  0.00     0.020 C 
ATOM     16  C   UNL A   1      34.873  24.037  25.062  1.00  0.00     0.020 C 
BRANCH  12  17
ATOM     17  S   UNL A   1      31.130  25.597  25.422  1.00  0.00     0.246 S 
ATOM     18  O   UNL A   1      30.165  25.297  26.451  1.00  0.00    -0.207 OA
ATOM     19  O   UNL A   1      30.833  25.411  24.013  1.00  0.00    -0.207 OA
BRANCH  17  20
ATOM     20  C   UNL A   1      31.349  27.295  25.553  1.00  0.00     0.120 A 
ATOM     21  N   UNL A   1      31.798  29.347  26.169  1.00  0.00    -0.272 N 
ATOM     22  C   UNL A   1      31.841  28.048  26.598  1.00  0.00     0.130 A 
ATOM     23  N   UNL A   1      31.345  29.474  24.906  1.00  0.00    -0.180 NA
ATOM     24  C   UNL A   1      31.053  28.221  24.542  1.00  0.00     0.156 A 
BRANCH  21  25
ATOM     25  C   UNL A   1      32.246  30.507  26.918  1.00  0.00     0.141 C 
ATOM     26  C   UNL A   1      31.492  31.786  26.596  1.00  0.00     0.029 C 
ENDBRANCH  21  25
ENDBRANCH  17  20
ENDBRANCH  12  17
ENDBRANCH  10  11
ENDBRANCH   9  10
ENDBRANCH   4   9
ENDBRANCH   1   3
BRANCH   1  27
ATOM     27  O   UNL A   1      42.655  19.250  25.244  1.00  0.00    -0.458 OA
BRANCH  27  28
ATOM     28  C   UNL A   1      43.976  18.687  25.307  1.00  0.00     0.275 C 
BRANCH  28  29
ATOM     29  C   UNL A   1      44.905  19.318  24.280  1.00  0.00     0.275 C 
BRANCH  29  30
ATOM     30  O   UNL A   1      45.270  20.640  24.663  1.00  0.00    -0.458 OA
BRANCH  30  31
ATOM     31  C   UNL A   1      44.570  21.623  24.056  1.00  0.00     0.338 C 
ATOM     32  O   UNL A   1      44.525  21.886  22.866  1.00  0.00    -0.246 OA
BRANCH  31  33
ATOM     33  C   UNL A   1      44.050  22.520  25.086  1.00  0.00     0.060 A 
ATOM     34  C   UNL A   1      43.112  23.484  24.698  1.00  0.00     0.016 A 
ATOM     35  C   UNL A   1      44.736  22.590  26.305  1.00  0.00     0.016 A 
ATOM     36  C   UNL A   1      42.987  24.621  25.467  1.00  0.00     0.010 A 
ATOM     37  C   UNL A   1      44.634  23.732  27.051  1.00  0.00     0.010 A 
ATOM     38  C   UNL A   1      43.814  24.759  26.586  1.00  0.00    -0.014 A 
BRANCH  38  39
ATOM     39  C   UNL A   1      43.703  25.947  27.404  1.00  0.00     0.031 A 
ATOM     40  C   UNL A   1      44.757  26.938  27.066  1.00  0.00     0.074 A 
ATOM     41  C   UNL A   1      42.621  26.135  28.188  1.00  0.00     0.049 A 
ATOM     42  N   UNL A   1      45.632  27.465  27.854  1.00  0.00    -0.248 NA
ATOM     43  C   UNL A   1      44.987  27.249  25.638  1.00  0.00     0.031 C 
ATOM     44  C   UNL A   1      41.452  25.248  28.296  1.00  0.00     0.029 A 
ATOM     45  N   UNL A   1      42.256  27.207  28.945  1.00  0.00    -0.354 N 
ATOM     46  C   UNL A   1      46.359  28.351  27.059  1.00  0.00     0.074 A 
ATOM     47  C   UNL A   1      46.074  28.017  25.695  1.00  0.00     0.031 C 
ATOM     48  C   UNL A   1      40.427  25.919  28.867  1.00  0.00     0.029 A 
ATOM     49  C   UNL A   1      40.901  27.229  29.275  1.00  0.00     0.049 A 
ATOM     50  H   UNL A   1      42.890  27.903  29.231  1.00  0.00     0.167 HD
ATOM     51  C   UNL A   1      46.837  29.503  27.599  1.00  0.00     0.037 A 
ATOM     52  C   UNL A   1      40.216  28.286  29.776  1.00  0.00     0.037 A 
ATOM     53  C   UNL A   1      46.899  29.393  29.033  1.00  0.00     0.049 A 
ATOM     54  C   UNL A   1      41.215  29.232  30.325  1.00  0.00     0.074 A 
ATOM     55  C   UNL A   1      47.679  28.712  29.941  1.00  0.00     0.029 A 
ATOM     56  N   UNL A   1      45.735  29.741  29.664  1.00  0.00    -0.354 N 
ATOM     57  N   UNL A   1      41.952  28.970  31.370  1.00  0.00    -0.248 NA
ATOM     58  C   UNL A   1      41.688  30.327  29.487  1.00  0.00     0.031 C 
ATOM     59  C   UNL A   1      46.850  28.497  31.083  1.00  0.00     0.029 A 
ATOM     60  C   UNL A   1      45.612  29.098  30.864  1.00  0.00     0.049 A 
ATOM     61  H   UNL A   1      45.073  30.373  29.303  1.00  0.00     0.167 HD
ATOM     62  C   UNL A   1      43.172  29.553  31.085  1.00  0.00     0.074 A 
ATOM     63  C   UNL A   1      42.902  30.508  30.016  1.00  0.00     0.031 C 
ATOM     64  C   UNL A   1      44.328  28.971  31.516  1.00  0.00     0.037 A 
BRANCH  51  65
ATOM     65  C   UNL A   1      46.699  30.860  26.929  1.00  0.00     0.064 A 
ATOM     66  C   UNL A   1      47.816  31.719  26.918  1.00  0.00     0.173 A 
ATOM     67  C   UNL A   1      45.465  31.475  26.612  1.00  0.00     0.173 A 
ATOM     68  F   UNL A   1      49.037  31.254  27.221  1.00  0.00    -0.203 F 
ATOM     69  C   UNL A   1      47.692  33.094  26.692  1.00  0.00     0.198 A 
ATOM     70  C   UNL A   1      45.353  32.837  26.340  1.00  0.00     0.198 A 
ATOM     71  F   UNL A   1      44.298  30.824  26.663  1.00  0.00    -0.203 F 
ATOM     72  F   UNL A   1      48.763  33.889  26.817  1.00  0.00    -0.200 F 
ATOM     73  C   UNL A   1      46.459  33.653  26.410  1.00  0.00     0.200 A 
ATOM     74  F   UNL A   1      44.143  33.361  26.095  1.00  0.00    -0.200 F 
ATOM     75  F   UNL A   1      46.326  34.977  26.257  1.00  0.00    -0.200 F 
ENDBRANCH  51  65
BRANCH  52  76
ATOM     76  C   UNL A   1      38.802  28.671  29.549  1.00  0.00     0.064 A 
ATOM     77  C   UNL A   1      37.943  28.961  30.623  1.00  0.00     0.173 A 
ATOM     78  C   UNL A   1      38.343  29.029  28.268  1.00  0.00     0.173 A 
ATOM     79  F   UNL A   1      38.322  28.694  31.880  1.00  0.00    -0.203 F 
ATOM     80  C   UNL A   1      36.710  29.595  30.426  1.00  0.00     0.198 A 
ATOM     81  C   UNL A   1      37.112  29.657  28.072  1.00  0.00     0.198 A 
ATOM     82  F   UNL A   1      39.123  28.865  27.190  1.00  0.00    -0.203 F 
ATOM     83  F   UNL A   1      35.945  29.912  31.479  1.00  0.00    -0.200 F 
ATOM     84  C   UNL A   1      36.302  29.953  29.151  1.00  0.00     0.200 A 
ATOM     85  F   UNL A   1      36.747  30.032  26.838  1.00  0.00    -0.200 F 
ATOM     86  F   UNL A   1      35.152  30.616  28.968  1.00  0.00    -0.200 F 
ENDBRANCH  52  76
BRANCH  64  87
ATOM     87  C   UNL A   1      44.222  28.007  32.658  1.00  0.00     0.064 A 
ATOM     88  C   UNL A   1      44.072  28.377  34.004  1.00  0.00     0.173 A 
ATOM     89  C   UNL A   1      44.183  26.641  32.352  1.00  0.00     0.173 A 
ATOM     90  F   UNL A   1      44.014  29.667  34.363  1.00  0.00    -0.203 F 
ATOM     91  C   UNL A   1      43.933  27.414  35.002  1.00  0.00     0.198 A 
ATOM     92  C   UNL A   1      44.004  25.686  33.345  1.00  0.00     0.198 A 
ATOM     93  F   UNL A   1      44.276  26.237  31.076  1.00  0.00    -0.203 F 
ATOM     94  F   UNL A   1      43.810  27.788  36.285  1.00  0.00    -0.200 F 
ATOM     95  C   UNL A   1      43.891  26.070  34.670  1.00  0.00     0.200 A 
ATOM     96  F   UNL A   1      43.917  24.390  33.010  1.00  0.00    -0.200 F 
ATOM     97  F   UNL A   1      43.719  25.145  35.625  1.00  0.00    -0.200 F 
ENDBRANCH  64  87
ENDBRANCH  38  39
ENDBRANCH  31  33
ENDBRANCH  30  31
ENDBRANCH  29  30
ENDBRANCH  28  29
ENDBRANCH  27  28
ENDBRANCH   1  27
TORSDOF 17
ENDMDL
