MODEL 1
REMARK VINA RESULT:     -12.1      0.000      0.000
REMARK SMILES O=C(OCCOC(=O)c1nn(Cc2ccc(F)cc2)c2ccccc12)c1ccc(-c2c3nc(c(-c4c(F)c(F)c(F)c(F)c4F)c4ccc([nH]4)c(-c4c(F)c(F)c(F)c(F)c4F)c4nc(c(-c5c(F)c(F)c(F)c(F)c5F)c5ccc2[nH]5)C=C4)C=C3)cc1
REMARK SMILES IDX 4 1 3 2 2 3 1 4 26 5 27 6 88 7 28 8 87 9 29 10 30 11 31 12
REMARK SMILES IDX 81 13 32 14 86 15 80 16 82 17 33 18 85 19 79 20 78 21 34 23
REMARK SMILES IDX 66 24 46 25 65 26 47 27 50 28 64 29 83 30 48 31 49 32 63 34
REMARK SMILES IDX 84 35 51 36 35 37 36 38 44 39 37 40 38 41 42 42 45 43 39 44
REMARK SMILES IDX 40 45 43 46 41 47 67 48 68 49 76 50 69 51 70 52 74 53 77 54
REMARK SMILES IDX 71 55 72 56 75 57 73 58 52 59 53 60 61 61 54 62 55 63 59 64
REMARK SMILES IDX 62 65 56 66 57 67 60 68 58 69 5 70 6 71 7 72 8 73 9 74 10 75
REMARK SMILES IDX 25 76 11 77 20 78 24 79 21 80 23 81 22 82 12 83 13 84 14 85
REMARK SMILES IDX 19 86 15 87 18 88 16 89 17 90
REMARK H PARENT 82 22 50 33
REMARK Flexibility Score: inf
ROOT
ATOM      1  C   UNL A   1      35.187  30.148  27.247  1.00  0.00     0.275 C 
ENDROOT
BRANCH   1   2
ATOM      2  O   UNL A   1      35.605  30.551  28.577  1.00  0.00    -0.458 OA
BRANCH   2   3
ATOM      3  C   UNL A   1      36.890  30.629  29.031  1.00  0.00     0.338 C 
ATOM      4  O   UNL A   1      37.303  31.532  29.742  1.00  0.00    -0.246 OA
BRANCH   3   5
ATOM      5  C   UNL A   1      37.822  29.669  28.426  1.00  0.00     0.060 A 
ATOM      6  C   UNL A   1      37.754  28.374  28.918  1.00  0.00     0.016 A 
ATOM      7  C   UNL A   1      38.897  30.098  27.644  1.00  0.00     0.016 A 
ATOM      8  C   UNL A   1      38.913  27.623  28.904  1.00  0.00     0.010 A 
ATOM      9  C   UNL A   1      40.058  29.333  27.625  1.00  0.00     0.010 A 
ATOM     10  C   UNL A   1      40.102  28.149  28.359  1.00  0.00    -0.014 A 
BRANCH  10  11
ATOM     11  C   UNL A   1      41.304  27.306  28.464  1.00  0.00     0.031 A 
ATOM     12  C   UNL A   1      42.082  27.601  29.696  1.00  0.00     0.074 A 
ATOM     13  C   UNL A   1      41.673  26.329  27.606  1.00  0.00     0.049 A 
ATOM     14  N   UNL A   1      43.334  27.908  29.796  1.00  0.00    -0.248 NA
ATOM     15  C   UNL A   1      41.315  27.736  30.951  1.00  0.00     0.031 C 
ATOM     16  C   UNL A   1      40.917  25.831  26.456  1.00  0.00     0.029 A 
ATOM     17  N   UNL A   1      42.766  25.492  27.635  1.00  0.00    -0.354 N 
ATOM     18  C   UNL A   1      43.542  28.115  31.155  1.00  0.00     0.074 A 
ATOM     19  C   UNL A   1      42.252  28.166  31.790  1.00  0.00     0.031 C 
ATOM     20  C   UNL A   1      41.445  24.662  26.042  1.00  0.00     0.029 A 
ATOM     21  C   UNL A   1      42.612  24.353  26.848  1.00  0.00     0.049 A 
ATOM     22  H   UNL A   1      43.577  25.681  28.159  1.00  0.00     0.167 HD
ATOM     23  C   UNL A   1      44.755  27.909  31.724  1.00  0.00     0.037 A 
ATOM     24  C   UNL A   1      43.321  23.196  26.907  1.00  0.00     0.037 A 
ATOM     25  C   UNL A   1      45.831  27.943  30.783  1.00  0.00     0.049 A 
ATOM     26  C   UNL A   1      44.621  23.480  27.557  1.00  0.00     0.074 A 
ATOM     27  C   UNL A   1      46.619  28.904  30.194  1.00  0.00     0.029 A 
ATOM     28  N   UNL A   1      46.008  26.782  30.086  1.00  0.00    -0.354 N 
ATOM     29  N   UNL A   1      45.591  24.141  26.991  1.00  0.00    -0.248 NA
ATOM     30  C   UNL A   1      44.777  23.243  28.990  1.00  0.00     0.031 C 
ATOM     31  C   UNL A   1      47.206  28.298  29.045  1.00  0.00     0.029 A 
ATOM     32  C   UNL A   1      46.765  26.980  28.964  1.00  0.00     0.049 A 
ATOM     33  H   UNL A   1      45.637  25.911  30.357  1.00  0.00     0.167 HD
ATOM     34  C   UNL A   1      46.237  24.753  28.043  1.00  0.00     0.074 A 
ATOM     35  C   UNL A   1      45.828  24.028  29.235  1.00  0.00     0.031 C 
ATOM     36  C   UNL A   1      46.760  26.002  27.902  1.00  0.00     0.037 A 
BRANCH  23  37
ATOM     37  C   UNL A   1      44.874  27.173  33.028  1.00  0.00     0.064 A 
ATOM     38  C   UNL A   1      44.439  25.845  33.134  1.00  0.00     0.173 A 
ATOM     39  C   UNL A   1      45.137  27.841  34.247  1.00  0.00     0.173 A 
ATOM     40  F   UNL A   1      44.092  25.155  32.038  1.00  0.00    -0.203 F 
ATOM     41  C   UNL A   1      44.284  25.228  34.379  1.00  0.00     0.198 A 
ATOM     42  C   UNL A   1      45.045  27.206  35.479  1.00  0.00     0.198 A 
ATOM     43  F   UNL A   1      45.378  29.159  34.289  1.00  0.00    -0.203 F 
ATOM     44  F   UNL A   1      43.778  23.990  34.450  1.00  0.00    -0.200 F 
ATOM     45  C   UNL A   1      44.599  25.904  35.548  1.00  0.00     0.200 A 
ATOM     46  F   UNL A   1      45.319  27.893  36.597  1.00  0.00    -0.200 F 
ATOM     47  F   UNL A   1      44.422  25.323  36.741  1.00  0.00    -0.200 F 
ENDBRANCH  23  37
BRANCH  24  48
ATOM     48  C   UNL A   1      42.896  21.800  26.607  1.00  0.00     0.064 A 
ATOM     49  C   UNL A   1      43.568  21.037  25.632  1.00  0.00     0.173 A 
ATOM     50  C   UNL A   1      42.011  21.086  27.439  1.00  0.00     0.173 A 
ATOM     51  F   UNL A   1      44.453  21.617  24.807  1.00  0.00    -0.203 F 
ATOM     52  C   UNL A   1      43.409  19.651  25.536  1.00  0.00     0.198 A 
ATOM     53  C   UNL A   1      41.836  19.706  27.328  1.00  0.00     0.198 A 
ATOM     54  F   UNL A   1      41.363  21.689  28.445  1.00  0.00    -0.203 F 
ATOM     55  F   UNL A   1      44.136  18.955  24.650  1.00  0.00    -0.200 F 
ATOM     56  C   UNL A   1      42.552  18.984  26.393  1.00  0.00     0.200 A 
ATOM     57  F   UNL A   1      41.017  19.072  28.179  1.00  0.00    -0.200 F 
ATOM     58  F   UNL A   1      42.446  17.649  26.347  1.00  0.00    -0.200 F 
ENDBRANCH  24  48
BRANCH  36  59
ATOM     59  C   UNL A   1      47.172  26.430  26.534  1.00  0.00     0.064 A 
ATOM     60  C   UNL A   1      46.382  27.214  25.677  1.00  0.00     0.173 A 
ATOM     61  C   UNL A   1      48.460  26.086  26.103  1.00  0.00     0.173 A 
ATOM     62  F   UNL A   1      45.169  27.642  26.054  1.00  0.00    -0.203 F 
ATOM     63  C   UNL A   1      46.860  27.603  24.427  1.00  0.00     0.198 A 
ATOM     64  C   UNL A   1      48.948  26.512  24.874  1.00  0.00     0.198 A 
ATOM     65  F   UNL A   1      49.266  25.366  26.901  1.00  0.00    -0.203 F 
ATOM     66  F   UNL A   1      46.085  28.334  23.612  1.00  0.00    -0.200 F 
ATOM     67  C   UNL A   1      48.144  27.262  24.032  1.00  0.00     0.200 A 
ATOM     68  F   UNL A   1      50.206  26.215  24.517  1.00  0.00    -0.200 F 
ATOM     69  F   UNL A   1      48.616  27.673  22.846  1.00  0.00    -0.200 F 
ENDBRANCH  36  59
ENDBRANCH  10  11
ENDBRANCH   3   5
ENDBRANCH   2   3
ENDBRANCH   1   2
BRANCH   1  70
ATOM     70  C   UNL A   1      34.247  28.934  27.125  1.00  0.00     0.275 C 
BRANCH  70  71
ATOM     71  O   UNL A   1      33.819  28.621  25.800  1.00  0.00    -0.457 OA
BRANCH  71  72
ATOM     72  C   UNL A   1      32.626  27.967  25.709  1.00  0.00     0.359 C 
ATOM     73  O   UNL A   1      31.539  28.523  25.857  1.00  0.00    -0.244 OA
BRANCH  72  74
ATOM     74  C   UNL A   1      32.786  26.562  25.319  1.00  0.00     0.178 A 
ATOM     75  N   UNL A   1      33.830  26.197  24.549  1.00  0.00    -0.164 NA
ATOM     76  C   UNL A   1      31.994  25.424  25.672  1.00  0.00     0.035 A 
ATOM     77  N   UNL A   1      33.720  24.858  24.422  1.00  0.00    -0.260 N 
ATOM     78  C   UNL A   1      32.547  24.366  24.947  1.00  0.00     0.070 A 
ATOM     79  C   UNL A   1      30.864  25.168  26.480  1.00  0.00     0.013 A 
ATOM     80  C   UNL A   1      31.926  23.111  24.876  1.00  0.00     0.028 A 
ATOM     81  C   UNL A   1      30.339  23.868  26.539  1.00  0.00     0.001 A 
ATOM     82  C   UNL A   1      30.846  22.863  25.724  1.00  0.00     0.002 A 
BRANCH  77  83
ATOM     83  C   UNL A   1      34.739  24.156  23.638  1.00  0.00     0.180 C 
BRANCH  83  84
ATOM     84  C   UNL A   1      35.831  23.430  24.413  1.00  0.00    -0.026 A 
ATOM     85  C   UNL A   1      36.401  22.226  23.968  1.00  0.00     0.008 A 
ATOM     86  C   UNL A   1      36.421  24.049  25.533  1.00  0.00     0.008 A 
ATOM     87  C   UNL A   1      37.526  21.671  24.585  1.00  0.00     0.039 A 
ATOM     88  C   UNL A   1      37.554  23.500  26.149  1.00  0.00     0.039 A 
ATOM     89  C   UNL A   1      38.102  22.322  25.662  1.00  0.00     0.123 A 
ATOM     90  F   UNL A   1      39.208  21.815  26.223  1.00  0.00    -0.207 F 
ENDBRANCH  83  84
ENDBRANCH  77  83
ENDBRANCH  72  74
ENDBRANCH  71  72
ENDBRANCH  70  71
ENDBRANCH   1  70
TORSDOF 13
ENDMDL
MODEL 2
REMARK VINA RESULT:     -12.1      3.731      7.534
REMARK SMILES O=C(OCCOC(=O)c1nn(Cc2ccc(F)cc2)c2ccccc12)c1ccc(-c2c3nc(c(-c4c(F)c(F)c(F)c(F)c4F)c4ccc([nH]4)c(-c4c(F)c(F)c(F)c(F)c4F)c4nc(c(-c5c(F)c(F)c(F)c(F)c5F)c5ccc2[nH]5)C=C4)C=C3)cc1
REMARK SMILES IDX 4 1 3 2 2 3 1 4 26 5 27 6 88 7 28 8 87 9 29 10 30 11 31 12
REMARK SMILES IDX 81 13 32 14 86 15 80 16 82 17 33 18 85 19 79 20 78 21 34 23
REMARK SMILES IDX 66 24 46 25 65 26 47 27 50 28 64 29 83 30 48 31 49 32 63 34
REMARK SMILES IDX 84 35 51 36 35 37 36 38 44 39 37 40 38 41 42 42 45 43 39 44
REMARK SMILES IDX 40 45 43 46 41 47 67 48 68 49 76 50 69 51 70 52 74 53 77 54
REMARK SMILES IDX 71 55 72 56 75 57 73 58 52 59 53 60 61 61 54 62 55 63 59 64
REMARK SMILES IDX 62 65 56 66 57 67 60 68 58 69 5 70 6 71 7 72 8 73 9 74 10 75
REMARK SMILES IDX 25 76 11 77 20 78 24 79 21 80 23 81 22 82 12 83 13 84 14 85
REMARK SMILES IDX 19 86 15 87 18 88 16 89 17 90
REMARK H PARENT 82 22 50 33
REMARK Flexibility Score: inf
ROOT
ATOM      1  C   UNL A   1      39.179  21.321  25.726  1.00  0.00     0.275 C 
ENDROOT
BRANCH   1   2
ATOM      2  O   UNL A   1      39.693  19.967  25.808  1.00  0.00    -0.458 OA
BRANCH   2   3
ATOM      3  C   UNL A   1      41.004  19.606  25.930  1.00  0.00     0.338 C 
ATOM      4  O   UNL A   1      41.427  18.493  25.657  1.00  0.00    -0.246 OA
BRANCH   3   5
ATOM      5  C   UNL A   1      41.855  20.579  26.627  1.00  0.00     0.060 A 
ATOM      6  C   UNL A   1      41.698  20.635  28.004  1.00  0.00     0.016 A 
ATOM      7  C   UNL A   1      42.538  21.576  25.928  1.00  0.00     0.016 A 
ATOM      8  C   UNL A   1      41.932  21.847  28.624  1.00  0.00     0.010 A 
ATOM      9  C   UNL A   1      42.780  22.790  26.560  1.00  0.00     0.010 A 
ATOM     10  C   UNL A   1      42.365  22.962  27.880  1.00  0.00    -0.014 A 
BRANCH  10  11
ATOM     11  C   UNL A   1      42.508  24.229  28.615  1.00  0.00     0.031 A 
ATOM     12  C   UNL A   1      41.492  25.230  28.197  1.00  0.00     0.074 A 
ATOM     13  C   UNL A   1      43.399  24.487  29.599  1.00  0.00     0.049 A 
ATOM     14  N   UNL A   1      41.685  26.441  27.784  1.00  0.00    -0.248 NA
ATOM     15  C   UNL A   1      40.101  24.751  28.065  1.00  0.00     0.031 C 
ATOM     16  C   UNL A   1      44.334  23.543  30.213  1.00  0.00     0.029 A 
ATOM     17  N   UNL A   1      43.592  25.630  30.341  1.00  0.00    -0.354 N 
ATOM     18  C   UNL A   1      40.415  26.924  27.494  1.00  0.00     0.074 A 
ATOM     19  C   UNL A   1      39.507  25.808  27.519  1.00  0.00     0.031 C 
ATOM     20  C   UNL A   1      44.822  24.071  31.354  1.00  0.00     0.029 A 
ATOM     21  C   UNL A   1      44.291  25.411  31.526  1.00  0.00     0.049 A 
ATOM     22  H   UNL A   1      43.269  26.517  30.061  1.00  0.00     0.167 HD
ATOM     23  C   UNL A   1      40.127  28.247  27.572  1.00  0.00     0.037 A 
ATOM     24  C   UNL A   1      44.359  26.217  32.616  1.00  0.00     0.037 A 
ATOM     25  C   UNL A   1      41.287  29.080  27.495  1.00  0.00     0.049 A 
ATOM     26  C   UNL A   1      44.026  27.598  32.194  1.00  0.00     0.074 A 
ATOM     27  C   UNL A   1      42.065  29.627  26.503  1.00  0.00     0.029 A 
ATOM     28  N   UNL A   1      41.971  29.203  28.671  1.00  0.00    -0.354 N 
ATOM     29  N   UNL A   1      44.815  28.354  31.485  1.00  0.00    -0.248 NA
ATOM     30  C   UNL A   1      42.659  28.088  32.348  1.00  0.00     0.031 C 
ATOM     31  C   UNL A   1      43.298  29.998  27.114  1.00  0.00     0.029 A 
ATOM     32  C   UNL A   1      43.240  29.672  28.466  1.00  0.00     0.049 A 
ATOM     33  H   UNL A   1      41.598  28.982  29.555  1.00  0.00     0.167 HD
ATOM     34  C   UNL A   1      43.953  29.158  30.771  1.00  0.00     0.074 A 
ATOM     35  C   UNL A   1      42.679  29.091  31.469  1.00  0.00     0.031 C 
ATOM     36  C   UNL A   1      44.244  29.521  29.492  1.00  0.00     0.037 A 
BRANCH  23  37
ATOM     37  C   UNL A   1      38.862  28.718  28.231  1.00  0.00     0.064 A 
ATOM     38  C   UNL A   1      38.038  29.655  27.594  1.00  0.00     0.173 A 
ATOM     39  C   UNL A   1      38.598  28.487  29.602  1.00  0.00     0.173 A 
ATOM     40  F   UNL A   1      38.260  29.996  26.316  1.00  0.00    -0.203 F 
ATOM     41  C   UNL A   1      37.013  30.310  28.284  1.00  0.00     0.198 A 
ATOM     42  C   UNL A   1      37.540  29.091  30.268  1.00  0.00     0.198 A 
ATOM     43  F   UNL A   1      39.426  27.760  30.365  1.00  0.00    -0.203 F 
ATOM     44  F   UNL A   1      36.304  31.267  27.671  1.00  0.00    -0.200 F 
ATOM     45  C   UNL A   1      36.758  30.018  29.615  1.00  0.00     0.200 A 
ATOM     46  F   UNL A   1      37.337  28.820  31.566  1.00  0.00    -0.200 F 
ATOM     47  F   UNL A   1      35.796  30.668  30.284  1.00  0.00    -0.200 F 
ENDBRANCH  23  37
BRANCH  24  48
ATOM     48  C   UNL A   1      44.514  25.866  34.055  1.00  0.00     0.064 A 
ATOM     49  C   UNL A   1      43.388  25.586  34.853  1.00  0.00     0.173 A 
ATOM     50  C   UNL A   1      45.762  25.532  34.620  1.00  0.00     0.173 A 
ATOM     51  F   UNL A   1      42.152  25.841  34.397  1.00  0.00    -0.203 F 
ATOM     52  C   UNL A   1      43.499  24.964  36.101  1.00  0.00     0.198 A 
ATOM     53  C   UNL A   1      45.873  24.932  35.875  1.00  0.00     0.198 A 
ATOM     54  F   UNL A   1      46.901  25.691  33.934  1.00  0.00    -0.203 F 
ATOM     55  F   UNL A   1      42.393  24.637  36.785  1.00  0.00    -0.200 F 
ATOM     56  C   UNL A   1      44.742  24.626  36.605  1.00  0.00     0.200 A 
ATOM     57  F   UNL A   1      47.083  24.593  36.341  1.00  0.00    -0.200 F 
ATOM     58  F   UNL A   1      44.848  23.971  37.770  1.00  0.00    -0.200 F 
ENDBRANCH  24  48
BRANCH  36  59
ATOM     59  C   UNL A   1      45.683  29.578  29.098  1.00  0.00     0.064 A 
ATOM     60  C   UNL A   1      46.400  28.501  28.554  1.00  0.00     0.173 A 
ATOM     61  C   UNL A   1      46.341  30.811  29.214  1.00  0.00     0.173 A 
ATOM     62  F   UNL A   1      45.812  27.315  28.346  1.00  0.00    -0.203 F 
ATOM     63  C   UNL A   1      47.733  28.652  28.177  1.00  0.00     0.198 A 
ATOM     64  C   UNL A   1      47.657  30.967  28.797  1.00  0.00     0.198 A 
ATOM     65  F   UNL A   1      45.687  31.880  29.697  1.00  0.00    -0.203 F 
ATOM     66  F   UNL A   1      48.410  27.607  27.678  1.00  0.00    -0.200 F 
ATOM     67  C   UNL A   1      48.356  29.885  28.288  1.00  0.00     0.200 A 
ATOM     68  F   UNL A   1      48.239  32.173  28.868  1.00  0.00    -0.200 F 
ATOM     69  F   UNL A   1      49.625  30.038  27.886  1.00  0.00    -0.200 F 
ENDBRANCH  36  59
ENDBRANCH  10  11
ENDBRANCH   3   5
ENDBRANCH   2   3
ENDBRANCH   1   2
BRANCH   1  70
ATOM     70  C   UNL A   1      37.716  21.511  25.284  1.00  0.00     0.275 C 
BRANCH  70  71
ATOM     71  O   UNL A   1      37.356  22.839  24.905  1.00  0.00    -0.457 OA
BRANCH  71  72
ATOM     72  C   UNL A   1      36.464  22.934  23.879  1.00  0.00     0.359 C 
ATOM     73  O   UNL A   1      36.799  22.975  22.696  1.00  0.00    -0.244 OA
BRANCH  72  74
ATOM     74  C   UNL A   1      35.073  22.882  24.341  1.00  0.00     0.178 A 
ATOM     75  N   UNL A   1      34.372  21.738  24.224  1.00  0.00    -0.164 NA
ATOM     76  C   UNL A   1      34.287  23.895  24.976  1.00  0.00     0.035 A 
ATOM     77  N   UNL A   1      33.173  22.002  24.782  1.00  0.00    -0.260 N 
ATOM     78  C   UNL A   1      33.016  23.330  25.107  1.00  0.00     0.070 A 
ATOM     79  C   UNL A   1      34.483  25.222  25.419  1.00  0.00     0.013 A 
ATOM     80  C   UNL A   1      31.907  24.085  25.515  1.00  0.00     0.028 A 
ATOM     81  C   UNL A   1      33.408  25.926  25.983  1.00  0.00     0.001 A 
ATOM     82  C   UNL A   1      32.132  25.374  26.000  1.00  0.00     0.002 A 
BRANCH  77  83
ATOM     83  C   UNL A   1      32.179  20.927  24.821  1.00  0.00     0.180 C 
BRANCH  83  84
ATOM     84  C   UNL A   1      32.625  19.555  24.330  1.00  0.00    -0.026 A 
ATOM     85  C   UNL A   1      32.196  19.015  23.106  1.00  0.00     0.008 A 
ATOM     86  C   UNL A   1      33.627  18.854  25.030  1.00  0.00     0.008 A 
ATOM     87  C   UNL A   1      32.756  17.846  22.581  1.00  0.00     0.039 A 
ATOM     88  C   UNL A   1      34.196  17.687  24.502  1.00  0.00     0.039 A 
ATOM     89  C   UNL A   1      33.762  17.200  23.277  1.00  0.00     0.123 A 
ATOM     90  F   UNL A   1      34.331  16.108  22.750  1.00  0.00    -0.207 F 
ENDBRANCH  83  84
ENDBRANCH  77  83
ENDBRANCH  72  74
ENDBRANCH  71  72
ENDBRANCH  70  71
ENDBRANCH   1  70
TORSDOF 13
ENDMDL
MODEL 3
REMARK VINA RESULT:     -12.1      6.078     10.979
REMARK SMILES O=C(OCCOC(=O)c1nn(Cc2ccc(F)cc2)c2ccccc12)c1ccc(-c2c3nc(c(-c4c(F)c(F)c(F)c(F)c4F)c4ccc([nH]4)c(-c4c(F)c(F)c(F)c(F)c4F)c4nc(c(-c5c(F)c(F)c(F)c(F)c5F)c5ccc2[nH]5)C=C4)C=C3)cc1
REMARK SMILES IDX 4 1 3 2 2 3 1 4 26 5 27 6 88 7 28 8 87 9 29 10 30 11 31 12
REMARK SMILES IDX 81 13 32 14 86 15 80 16 82 17 33 18 85 19 79 20 78 21 34 23
REMARK SMILES IDX 66 24 46 25 65 26 47 27 50 28 64 29 83 30 48 31 49 32 63 34
REMARK SMILES IDX 84 35 51 36 35 37 36 38 44 39 37 40 38 41 42 42 45 43 39 44
REMARK SMILES IDX 40 45 43 46 41 47 67 48 68 49 76 50 69 51 70 52 74 53 77 54
REMARK SMILES IDX 71 55 72 56 75 57 73 58 52 59 53 60 61 61 54 62 55 63 59 64
REMARK SMILES IDX 62 65 56 66 57 67 60 68 58 69 5 70 6 71 7 72 8 73 9 74 10 75
REMARK SMILES IDX 25 76 11 77 20 78 24 79 21 80 23 81 22 82 12 83 13 84 14 85
REMARK SMILES IDX 19 86 15 87 18 88 16 89 17 90
REMARK H PARENT 82 22 50 33
REMARK Flexibility Score: inf
ROOT
ATOM      1  C   UNL A   1      40.274  22.095  27.100  1.00  0.00     0.275 C 
ENDROOT
BRANCH   1   2
ATOM      2  O   UNL A   1      39.797  23.442  27.352  1.00  0.00    -0.458 OA
BRANCH   2   3
ATOM      3  C   UNL A   1      40.535  24.481  27.841  1.00  0.00     0.338 C 
ATOM      4  O   UNL A   1      41.728  24.404  28.094  1.00  0.00    -0.246 OA
BRANCH   3   5
ATOM      5  C   UNL A   1      39.758  25.653  28.263  1.00  0.00     0.060 A 
ATOM      6  C   UNL A   1      39.846  26.762  27.435  1.00  0.00     0.016 A 
ATOM      7  C   UNL A   1      39.224  25.743  29.551  1.00  0.00     0.016 A 
ATOM      8  C   UNL A   1      39.710  28.007  28.019  1.00  0.00     0.010 A 
ATOM      9  C   UNL A   1      39.080  26.998  30.129  1.00  0.00     0.010 A 
ATOM     10  C   UNL A   1      39.440  28.128  29.396  1.00  0.00    -0.014 A 
BRANCH  10  11
ATOM     11  C   UNL A   1      39.395  29.494  29.941  1.00  0.00     0.031 A 
ATOM     12  C   UNL A   1      40.738  30.132  29.952  1.00  0.00     0.074 A 
ATOM     13  C   UNL A   1      38.288  30.159  30.343  1.00  0.00     0.049 A 
ATOM     14  N   UNL A   1      41.357  30.675  30.948  1.00  0.00    -0.248 NA
ATOM     15  C   UNL A   1      41.554  29.985  28.729  1.00  0.00     0.031 C 
ATOM     16  C   UNL A   1      36.900  29.711  30.231  1.00  0.00     0.029 A 
ATOM     17  N   UNL A   1      38.155  31.432  30.850  1.00  0.00    -0.354 N 
ATOM     18  C   UNL A   1      42.580  31.082  30.428  1.00  0.00     0.074 A 
ATOM     19  C   UNL A   1      42.718  30.490  29.125  1.00  0.00     0.031 C 
ATOM     20  C   UNL A   1      36.072  30.755  30.439  1.00  0.00     0.029 A 
ATOM     21  C   UNL A   1      36.858  31.931  30.762  1.00  0.00     0.049 A 
ATOM     22  H   UNL A   1      38.904  31.940  31.239  1.00  0.00     0.167 HD
ATOM     23  C   UNL A   1      43.256  32.133  30.953  1.00  0.00     0.037 A 
ATOM     24  C   UNL A   1      36.454  33.225  30.848  1.00  0.00     0.037 A 
ATOM     25  C   UNL A   1      42.868  32.439  32.295  1.00  0.00     0.049 A 
ATOM     26  C   UNL A   1      37.497  33.990  31.569  1.00  0.00     0.074 A 
ATOM     27  C   UNL A   1      43.193  32.001  33.557  1.00  0.00     0.029 A 
ATOM     28  N   UNL A   1      41.725  33.178  32.397  1.00  0.00    -0.354 N 
ATOM     29  N   UNL A   1      37.723  33.890  32.848  1.00  0.00    -0.248 NA
ATOM     30  C   UNL A   1      38.509  34.720  30.810  1.00  0.00     0.031 C 
ATOM     31  C   UNL A   1      42.139  32.426  34.417  1.00  0.00     0.029 A 
ATOM     32  C   UNL A   1      41.198  33.116  33.658  1.00  0.00     0.049 A 
ATOM     33  H   UNL A   1      41.329  33.692  31.657  1.00  0.00     0.167 HD
ATOM     34  C   UNL A   1      39.069  34.156  32.972  1.00  0.00     0.074 A 
ATOM     35  C   UNL A   1      39.452  34.837  31.746  1.00  0.00     0.031 C 
ATOM     36  C   UNL A   1      39.824  33.494  33.890  1.00  0.00     0.037 A 
BRANCH  23  37
ATOM     37  C   UNL A   1      43.875  33.170  30.059  1.00  0.00     0.064 A 
ATOM     38  C   UNL A   1      45.245  33.450  30.142  1.00  0.00     0.173 A 
ATOM     39  C   UNL A   1      43.093  34.096  29.328  1.00  0.00     0.173 A 
ATOM     40  F   UNL A   1      46.054  32.673  30.876  1.00  0.00    -0.203 F 
ATOM     41  C   UNL A   1      45.794  34.581  29.528  1.00  0.00     0.198 A 
ATOM     42  C   UNL A   1      43.650  35.182  28.666  1.00  0.00     0.198 A 
ATOM     43  F   UNL A   1      41.753  34.042  29.331  1.00  0.00    -0.203 F 
ATOM     44  F   UNL A   1      47.090  34.870  29.704  1.00  0.00    -0.200 F 
ATOM     45  C   UNL A   1      44.999  35.437  28.781  1.00  0.00     0.200 A 
ATOM     46  F   UNL A   1      42.854  36.016  27.982  1.00  0.00    -0.200 F 
ATOM     47  F   UNL A   1      45.520  36.535  28.219  1.00  0.00    -0.200 F 
ENDBRANCH  23  37
BRANCH  24  48
ATOM     48  C   UNL A   1      35.306  33.912  30.194  1.00  0.00     0.064 A 
ATOM     49  C   UNL A   1      34.298  34.523  30.966  1.00  0.00     0.173 A 
ATOM     50  C   UNL A   1      35.296  34.224  28.820  1.00  0.00     0.173 A 
ATOM     51  F   UNL A   1      34.235  34.312  32.290  1.00  0.00    -0.203 F 
ATOM     52  C   UNL A   1      33.385  35.426  30.413  1.00  0.00     0.198 A 
ATOM     53  C   UNL A   1      34.370  35.108  28.264  1.00  0.00     0.198 A 
ATOM     54  F   UNL A   1      36.242  33.756  27.994  1.00  0.00    -0.203 F 
ATOM     55  F   UNL A   1      32.500  36.050  31.203  1.00  0.00    -0.200 F 
ATOM     56  C   UNL A   1      33.429  35.727  29.064  1.00  0.00     0.200 A 
ATOM     57  F   UNL A   1      34.440  35.405  26.959  1.00  0.00    -0.200 F 
ATOM     58  F   UNL A   1      32.599  36.640  28.543  1.00  0.00    -0.200 F 
ENDBRANCH  24  48
BRANCH  36  59
ATOM     59  C   UNL A   1      39.137  32.978  35.111  1.00  0.00     0.064 A 
ATOM     60  C   UNL A   1      38.751  31.641  35.297  1.00  0.00     0.173 A 
ATOM     61  C   UNL A   1      38.926  33.873  36.168  1.00  0.00     0.173 A 
ATOM     62  F   UNL A   1      38.990  30.715  34.357  1.00  0.00    -0.203 F 
ATOM     63  C   UNL A   1      38.148  31.234  36.485  1.00  0.00     0.198 A 
ATOM     64  C   UNL A   1      38.363  33.454  37.367  1.00  0.00     0.198 A 
ATOM     65  F   UNL A   1      39.309  35.155  36.051  1.00  0.00    -0.203 F 
ATOM     66  F   UNL A   1      37.766  29.957  36.640  1.00  0.00    -0.200 F 
ATOM     67  C   UNL A   1      37.965  32.137  37.522  1.00  0.00     0.200 A 
ATOM     68  F   UNL A   1      38.229  34.322  38.379  1.00  0.00    -0.200 F 
ATOM     69  F   UNL A   1      37.422  31.733  38.679  1.00  0.00    -0.200 F 
ENDBRANCH  36  59
ENDBRANCH  10  11
ENDBRANCH   3   5
ENDBRANCH   2   3
ENDBRANCH   1   2
BRANCH   1  70
ATOM     70  C   UNL A   1      39.569  21.276  26.002  1.00  0.00     0.275 C 
BRANCH  70  71
ATOM     71  O   UNL A   1      38.328  21.809  25.540  1.00  0.00    -0.457 OA
BRANCH  71  72
ATOM     72  C   UNL A   1      37.499  20.916  24.928  1.00  0.00     0.359 C 
ATOM     73  O   UNL A   1      37.772  19.724  24.793  1.00  0.00    -0.244 OA
BRANCH  72  74
ATOM     74  C   UNL A   1      36.217  21.516  24.544  1.00  0.00     0.178 A 
ATOM     75  N   UNL A   1      36.192  22.744  23.991  1.00  0.00    -0.164 NA
ATOM     76  C   UNL A   1      34.897  20.969  24.624  1.00  0.00     0.035 A 
ATOM     77  N   UNL A   1      34.893  22.975  23.709  1.00  0.00    -0.260 N 
ATOM     78  C   UNL A   1      34.056  22.006  24.213  1.00  0.00     0.070 A 
ATOM     79  C   UNL A   1      34.312  19.748  25.024  1.00  0.00     0.013 A 
ATOM     80  C   UNL A   1      32.662  21.924  24.335  1.00  0.00     0.028 A 
ATOM     81  C   UNL A   1      32.916  19.607  24.989  1.00  0.00     0.001 A 
ATOM     82  C   UNL A   1      32.103  20.692  24.678  1.00  0.00     0.002 A 
BRANCH  77  83
ATOM     83  C   UNL A   1      34.543  24.248  23.073  1.00  0.00     0.180 C 
BRANCH  83  84
ATOM     84  C   UNL A   1      33.886  25.304  23.954  1.00  0.00    -0.026 A 
ATOM     85  C   UNL A   1      34.198  25.451  25.315  1.00  0.00     0.008 A 
ATOM     86  C   UNL A   1      33.056  26.282  23.371  1.00  0.00     0.008 A 
ATOM     87  C   UNL A   1      33.733  26.537  26.063  1.00  0.00     0.039 A 
ATOM     88  C   UNL A   1      32.596  27.376  24.116  1.00  0.00     0.039 A 
ATOM     89  C   UNL A   1      32.947  27.499  25.453  1.00  0.00     0.123 A 
ATOM     90  F   UNL A   1      32.542  28.563  26.157  1.00  0.00    -0.207 F 
ENDBRANCH  83  84
ENDBRANCH  77  83
ENDBRANCH  72  74
ENDBRANCH  71  72
ENDBRANCH  70  71
ENDBRANCH   1  70
TORSDOF 13
ENDMDL
