MODEL 1
REMARK VINA RESULT:     -11.5      0.000      0.000
REMARK SMILES O=C(OCCOC(=O)C(Cl)(c1ccccc1)c1ccccc1)c1ccc(-c2c3nc(c(-c4c(F)c(F)c(F)c(F)c4F)c4ccc([nH]4)c(-c4c(F)c(F)c(F)c(F)c4F)c4nc(c(-c5c(F)c(F)c(F)c(F)c5F)c5ccc2[nH]5)C=C4)C=C3)cc1
REMARK SMILES IDX 4 1 3 2 2 3 1 4 23 5 24 6 85 7 25 8 84 9 26 10 27 11 28 12
REMARK SMILES IDX 78 13 29 14 83 15 77 16 79 17 30 18 82 19 76 20 75 21 31 23
REMARK SMILES IDX 63 24 43 25 62 26 44 27 47 28 61 29 80 30 45 31 46 32 60 34
REMARK SMILES IDX 81 35 48 36 32 37 33 38 41 39 34 40 35 41 39 42 42 43 36 44
REMARK SMILES IDX 37 45 40 46 38 47 64 48 65 49 73 50 66 51 67 52 71 53 74 54
REMARK SMILES IDX 68 55 69 56 72 57 70 58 49 59 50 60 58 61 51 62 52 63 56 64
REMARK SMILES IDX 59 65 53 66 54 67 57 68 55 69 5 70 6 71 7 72 8 73 9 74 10 75
REMARK SMILES IDX 11 76 12 77 16 78 13 79 15 80 14 81 17 82 18 83 22 84 19 85
REMARK SMILES IDX 21 86 20 87
REMARK H PARENT 79 22 47 33
REMARK Flexibility Score: inf
ROOT
ATOM      1  C   UNL A   1      31.719  30.134  26.352  1.00  0.00     0.275 C 
ENDROOT
BRANCH   1   2
ATOM      2  O   UNL A   1      32.973  30.829  26.288  1.00  0.00    -0.458 OA
BRANCH   2   3
ATOM      3  C   UNL A   1      33.632  31.509  27.256  1.00  0.00     0.338 C 
ATOM      4  O   UNL A   1      33.159  32.587  27.617  1.00  0.00    -0.246 OA
BRANCH   3   5
ATOM      5  C   UNL A   1      34.972  31.119  27.820  1.00  0.00     0.060 A 
ATOM      6  C   UNL A   1      36.084  31.949  28.008  1.00  0.00     0.016 A 
ATOM      7  C   UNL A   1      35.073  29.792  28.291  1.00  0.00     0.016 A 
ATOM      8  C   UNL A   1      37.197  31.527  28.750  1.00  0.00     0.010 A 
ATOM      9  C   UNL A   1      36.181  29.364  29.036  1.00  0.00     0.010 A 
ATOM     10  C   UNL A   1      37.238  30.247  29.301  1.00  0.00    -0.014 A 
BRANCH  10  11
ATOM     11  C   UNL A   1      38.453  29.786  30.015  1.00  0.00     0.031 A 
ATOM     12  C   UNL A   1      38.646  30.289  31.406  1.00  0.00     0.074 A 
ATOM     13  C   UNL A   1      39.351  28.945  29.462  1.00  0.00     0.049 A 
ATOM     14  N   UNL A   1      39.622  30.060  32.239  1.00  0.00    -0.248 NA
ATOM     15  C   UNL A   1      37.595  31.180  31.926  1.00  0.00     0.031 C 
ATOM     16  C   UNL A   1      39.252  28.379  28.126  1.00  0.00     0.029 A 
ATOM     17  N   UNL A   1      40.528  28.417  29.942  1.00  0.00    -0.354 N 
ATOM     18  C   UNL A   1      39.317  30.800  33.368  1.00  0.00     0.074 A 
ATOM     19  C   UNL A   1      38.084  31.507  33.108  1.00  0.00     0.031 C 
ATOM     20  C   UNL A   1      40.325  27.615  27.873  1.00  0.00     0.029 A 
ATOM     21  C   UNL A   1      41.187  27.610  29.040  1.00  0.00     0.049 A 
ATOM     22  H   UNL A   1      40.868  28.601  30.848  1.00  0.00     0.167 HD
ATOM     23  C   UNL A   1      40.008  30.873  34.525  1.00  0.00     0.037 A 
ATOM     24  C   UNL A   1      42.349  26.934  29.142  1.00  0.00     0.037 A 
ATOM     25  C   UNL A   1      41.231  30.161  34.764  1.00  0.00     0.049 A 
ATOM     26  C   UNL A   1      43.099  27.036  30.441  1.00  0.00     0.074 A 
ATOM     27  C   UNL A   1      42.008  30.148  35.905  1.00  0.00     0.029 A 
ATOM     28  N   UNL A   1      41.858  29.343  33.833  1.00  0.00    -0.354 N 
ATOM     29  N   UNL A   1      42.770  27.692  31.528  1.00  0.00    -0.248 NA
ATOM     30  C   UNL A   1      44.377  26.317  30.535  1.00  0.00     0.031 C 
ATOM     31  C   UNL A   1      43.136  29.365  35.646  1.00  0.00     0.029 A 
ATOM     32  C   UNL A   1      43.034  28.844  34.365  1.00  0.00     0.049 A 
ATOM     33  H   UNL A   1      41.518  29.148  32.931  1.00  0.00     0.167 HD
ATOM     34  C   UNL A   1      43.792  27.465  32.434  1.00  0.00     0.074 A 
ATOM     35  C   UNL A   1      44.735  26.575  31.785  1.00  0.00     0.031 C 
ATOM     36  C   UNL A   1      43.947  27.961  33.685  1.00  0.00     0.037 A 
BRANCH  23  37
ATOM     37  C   UNL A   1      39.470  31.801  35.566  1.00  0.00     0.064 A 
ATOM     38  C   UNL A   1      39.927  33.123  35.687  1.00  0.00     0.173 A 
ATOM     39  C   UNL A   1      38.532  31.338  36.498  1.00  0.00     0.173 A 
ATOM     40  F   UNL A   1      40.854  33.599  34.842  1.00  0.00    -0.203 F 
ATOM     41  C   UNL A   1      39.491  33.934  36.731  1.00  0.00     0.198 A 
ATOM     42  C   UNL A   1      38.076  32.162  37.521  1.00  0.00     0.198 A 
ATOM     43  F   UNL A   1      38.080  30.078  36.432  1.00  0.00    -0.203 F 
ATOM     44  F   UNL A   1      39.999  35.167  36.875  1.00  0.00    -0.200 F 
ATOM     45  C   UNL A   1      38.563  33.455  37.644  1.00  0.00     0.200 A 
ATOM     46  F   UNL A   1      37.180  31.698  38.402  1.00  0.00    -0.200 F 
ATOM     47  F   UNL A   1      38.154  34.233  38.655  1.00  0.00    -0.200 F 
ENDBRANCH  23  37
BRANCH  24  48
ATOM     48  C   UNL A   1      42.869  26.104  28.014  1.00  0.00     0.064 A 
ATOM     49  C   UNL A   1      43.720  26.652  27.041  1.00  0.00     0.173 A 
ATOM     50  C   UNL A   1      42.501  24.758  27.857  1.00  0.00     0.173 A 
ATOM     51  F   UNL A   1      44.097  27.936  27.127  1.00  0.00    -0.203 F 
ATOM     52  C   UNL A   1      44.151  25.902  25.945  1.00  0.00     0.198 A 
ATOM     53  C   UNL A   1      42.961  23.999  26.779  1.00  0.00     0.198 A 
ATOM     54  F   UNL A   1      41.692  24.173  28.751  1.00  0.00    -0.203 F 
ATOM     55  F   UNL A   1      44.912  26.474  25.002  1.00  0.00    -0.200 F 
ATOM     56  C   UNL A   1      43.774  24.575  25.816  1.00  0.00     0.200 A 
ATOM     57  F   UNL A   1      42.608  22.711  26.670  1.00  0.00    -0.200 F 
ATOM     58  F   UNL A   1      44.184  23.857  24.762  1.00  0.00    -0.200 F 
ENDBRANCH  24  48
BRANCH  36  59
ATOM     59  C   UNL A   1      45.182  27.552  34.426  1.00  0.00     0.064 A 
ATOM     60  C   UNL A   1      45.209  26.392  35.213  1.00  0.00     0.173 A 
ATOM     61  C   UNL A   1      46.367  28.286  34.285  1.00  0.00     0.173 A 
ATOM     62  F   UNL A   1      44.092  25.670  35.391  1.00  0.00    -0.203 F 
ATOM     63  C   UNL A   1      46.381  25.986  35.841  1.00  0.00     0.198 A 
ATOM     64  C   UNL A   1      47.544  27.860  34.888  1.00  0.00     0.198 A 
ATOM     65  F   UNL A   1      46.388  29.402  33.540  1.00  0.00    -0.203 F 
ATOM     66  F   UNL A   1      46.378  24.894  36.618  1.00  0.00    -0.200 F 
ATOM     67  C   UNL A   1      47.550  26.713  35.668  1.00  0.00     0.200 A 
ATOM     68  F   UNL A   1      48.677  28.554  34.708  1.00  0.00    -0.200 F 
ATOM     69  F   UNL A   1      48.683  26.308  36.257  1.00  0.00    -0.200 F 
ENDBRANCH  36  59
ENDBRANCH  10  11
ENDBRANCH   3   5
ENDBRANCH   2   3
ENDBRANCH   1   2
BRANCH   1  70
ATOM     70  C   UNL A   1      31.777  28.874  27.213  1.00  0.00     0.274 C 
BRANCH  70  71
ATOM     71  O   UNL A   1      32.719  27.906  26.712  1.00  0.00    -0.460 OA
BRANCH  71  72
ATOM     72  C   UNL A   1      32.218  26.867  25.970  1.00  0.00     0.336 C 
ATOM     73  O   UNL A   1      31.635  25.911  26.487  1.00  0.00    -0.249 OA
BRANCH  72  74
ATOM     74  C   UNL A   1      32.554  26.954  24.446  1.00  0.00     0.191 C 
ATOM     75  Cl  UNL A   1      33.840  28.208  24.149  1.00  0.00    -0.096 Cl
BRANCH  74  76
ATOM     76  C   UNL A   1      33.290  25.673  23.940  1.00  0.00    -0.011 A 
ATOM     77  C   UNL A   1      34.346  25.059  24.637  1.00  0.00     0.006 A 
ATOM     78  C   UNL A   1      32.752  24.919  22.863  1.00  0.00     0.006 A 
ATOM     79  C   UNL A   1      34.911  23.847  24.213  1.00  0.00     0.000 A 
ATOM     80  C   UNL A   1      33.279  23.684  22.468  1.00  0.00     0.000 A 
ATOM     81  C   UNL A   1      34.382  23.162  23.124  1.00  0.00     0.000 A 
ENDBRANCH  74  76
BRANCH  74  82
ATOM     82  C   UNL A   1      31.345  27.582  23.705  1.00  0.00    -0.011 A 
ATOM     83  C   UNL A   1      30.048  27.044  23.948  1.00  0.00     0.006 A 
ATOM     84  C   UNL A   1      31.418  28.676  22.840  1.00  0.00     0.006 A 
ATOM     85  C   UNL A   1      28.888  27.672  23.500  1.00  0.00     0.000 A 
ATOM     86  C   UNL A   1      30.252  29.316  22.399  1.00  0.00     0.000 A 
ATOM     87  C   UNL A   1      28.993  28.833  22.751  1.00  0.00     0.000 A 
ENDBRANCH  74  82
ENDBRANCH  72  74
ENDBRANCH  71  72
ENDBRANCH  70  71
ENDBRANCH   1  70
TORSDOF 13
ENDMDL
MODEL 2
REMARK VINA RESULT:     -11.5      5.160      8.471
REMARK SMILES O=C(OCCOC(=O)C(Cl)(c1ccccc1)c1ccccc1)c1ccc(-c2c3nc(c(-c4c(F)c(F)c(F)c(F)c4F)c4ccc([nH]4)c(-c4c(F)c(F)c(F)c(F)c4F)c4nc(c(-c5c(F)c(F)c(F)c(F)c5F)c5ccc2[nH]5)C=C4)C=C3)cc1
REMARK SMILES IDX 4 1 3 2 2 3 1 4 23 5 24 6 85 7 25 8 84 9 26 10 27 11 28 12
REMARK SMILES IDX 78 13 29 14 83 15 77 16 79 17 30 18 82 19 76 20 75 21 31 23
REMARK SMILES IDX 63 24 43 25 62 26 44 27 47 28 61 29 80 30 45 31 46 32 60 34
REMARK SMILES IDX 81 35 48 36 32 37 33 38 41 39 34 40 35 41 39 42 42 43 36 44
REMARK SMILES IDX 37 45 40 46 38 47 64 48 65 49 73 50 66 51 67 52 71 53 74 54
REMARK SMILES IDX 68 55 69 56 72 57 70 58 49 59 50 60 58 61 51 62 52 63 56 64
REMARK SMILES IDX 59 65 53 66 54 67 57 68 55 69 5 70 6 71 7 72 8 73 9 74 10 75
REMARK SMILES IDX 11 76 12 77 16 78 13 79 15 80 14 81 17 82 18 83 22 84 19 85
REMARK SMILES IDX 21 86 20 87
REMARK H PARENT 79 22 47 33
REMARK Flexibility Score: inf
ROOT
ATOM      1  C   UNL A   1      35.165  33.304  33.635  1.00  0.00     0.275 C 
ENDROOT
BRANCH   1   2
ATOM      2  O   UNL A   1      35.809  32.028  33.504  1.00  0.00    -0.458 OA
BRANCH   2   3
ATOM      3  C   UNL A   1      37.092  31.679  33.759  1.00  0.00     0.338 C 
ATOM      4  O   UNL A   1      37.565  32.008  34.848  1.00  0.00    -0.246 OA
BRANCH   3   5
ATOM      5  C   UNL A   1      38.027  31.051  32.760  1.00  0.00     0.060 A 
ATOM      6  C   UNL A   1      37.811  30.889  31.386  1.00  0.00     0.016 A 
ATOM      7  C   UNL A   1      39.291  30.675  33.261  1.00  0.00     0.016 A 
ATOM      8  C   UNL A   1      38.844  30.498  30.522  1.00  0.00     0.010 A 
ATOM      9  C   UNL A   1      40.330  30.285  32.404  1.00  0.00     0.010 A 
ATOM     10  C   UNL A   1      40.120  30.231  31.018  1.00  0.00    -0.014 A 
BRANCH  10  11
ATOM     11  C   UNL A   1      41.182  29.742  30.107  1.00  0.00     0.031 A 
ATOM     12  C   UNL A   1      42.271  30.704  29.768  1.00  0.00     0.074 A 
ATOM     13  C   UNL A   1      41.195  28.491  29.602  1.00  0.00     0.049 A 
ATOM     14  N   UNL A   1      43.302  30.543  28.987  1.00  0.00    -0.248 NA
ATOM     15  C   UNL A   1      42.179  32.034  30.393  1.00  0.00     0.031 C 
ATOM     16  C   UNL A   1      40.198  27.469  29.881  1.00  0.00     0.029 A 
ATOM     17  N   UNL A   1      42.066  27.858  28.745  1.00  0.00    -0.354 N 
ATOM     18  C   UNL A   1      43.964  31.758  29.004  1.00  0.00     0.074 A 
ATOM     19  C   UNL A   1      43.208  32.656  29.846  1.00  0.00     0.031 C 
ATOM     20  C   UNL A   1      40.484  26.354  29.193  1.00  0.00     0.029 A 
ATOM     21  C   UNL A   1      41.704  26.565  28.436  1.00  0.00     0.049 A 
ATOM     22  H   UNL A   1      42.874  28.291  28.385  1.00  0.00     0.167 HD
ATOM     23  C   UNL A   1      45.110  32.088  28.372  1.00  0.00     0.037 A 
ATOM     24  C   UNL A   1      42.291  25.647  27.642  1.00  0.00     0.037 A 
ATOM     25  C   UNL A   1      45.847  31.180  27.541  1.00  0.00     0.049 A 
ATOM     26  C   UNL A   1      43.565  26.043  26.949  1.00  0.00     0.074 A 
ATOM     27  C   UNL A   1      47.030  31.403  26.864  1.00  0.00     0.029 A 
ATOM     28  N   UNL A   1      45.457  29.876  27.264  1.00  0.00    -0.354 N 
ATOM     29  N   UNL A   1      44.218  27.179  27.021  1.00  0.00    -0.248 NA
ATOM     30  C   UNL A   1      44.185  25.047  26.066  1.00  0.00     0.031 C 
ATOM     31  C   UNL A   1      47.329  30.249  26.133  1.00  0.00     0.029 A 
ATOM     32  C   UNL A   1      46.363  29.289  26.399  1.00  0.00     0.049 A 
ATOM     33  H   UNL A   1      44.657  29.435  27.629  1.00  0.00     0.167 HD
ATOM     34  C   UNL A   1      45.322  27.035  26.198  1.00  0.00     0.074 A 
ATOM     35  C   UNL A   1      45.276  25.687  25.669  1.00  0.00     0.031 C 
ATOM     36  C   UNL A   1      46.281  27.943  25.893  1.00  0.00     0.037 A 
BRANCH  23  37
ATOM     37  C   UNL A   1      45.573  33.501  28.526  1.00  0.00     0.064 A 
ATOM     38  C   UNL A   1      46.422  33.894  29.572  1.00  0.00     0.173 A 
ATOM     39  C   UNL A   1      45.102  34.490  27.651  1.00  0.00     0.173 A 
ATOM     40  F   UNL A   1      46.866  32.989  30.459  1.00  0.00    -0.203 F 
ATOM     41  C   UNL A   1      46.751  35.233  29.759  1.00  0.00     0.198 A 
ATOM     42  C   UNL A   1      45.459  35.823  27.823  1.00  0.00     0.198 A 
ATOM     43  F   UNL A   1      44.275  34.166  26.648  1.00  0.00    -0.203 F 
ATOM     44  F   UNL A   1      47.500  35.596  30.810  1.00  0.00    -0.200 F 
ATOM     45  C   UNL A   1      46.273  36.195  28.882  1.00  0.00     0.200 A 
ATOM     46  F   UNL A   1      44.996  36.752  26.975  1.00  0.00    -0.200 F 
ATOM     47  F   UNL A   1      46.582  37.486  29.070  1.00  0.00    -0.200 F 
ENDBRANCH  23  37
BRANCH  24  48
ATOM     48  C   UNL A   1      41.708  24.283  27.463  1.00  0.00     0.064 A 
ATOM     49  C   UNL A   1      42.317  23.153  28.030  1.00  0.00     0.173 A 
ATOM     50  C   UNL A   1      40.554  24.070  26.692  1.00  0.00     0.173 A 
ATOM     51  F   UNL A   1      43.430  23.289  28.765  1.00  0.00    -0.203 F 
ATOM     52  C   UNL A   1      41.820  21.867  27.805  1.00  0.00     0.198 A 
ATOM     53  C   UNL A   1      40.037  22.787  26.497  1.00  0.00     0.198 A 
ATOM     54  F   UNL A   1      39.923  25.106  26.123  1.00  0.00    -0.203 F 
ATOM     55  F   UNL A   1      42.461  20.805  28.310  1.00  0.00    -0.200 F 
ATOM     56  C   UNL A   1      40.677  21.686  27.042  1.00  0.00     0.200 A 
ATOM     57  F   UNL A   1      38.921  22.619  25.774  1.00  0.00    -0.200 F 
ATOM     58  F   UNL A   1      40.202  20.453  26.824  1.00  0.00    -0.200 F 
ENDBRANCH  24  48
BRANCH  36  59
ATOM     59  C   UNL A   1      47.351  27.503  24.943  1.00  0.00     0.064 A 
ATOM     60  C   UNL A   1      47.291  27.825  23.580  1.00  0.00     0.173 A 
ATOM     61  C   UNL A   1      48.481  26.823  25.416  1.00  0.00     0.173 A 
ATOM     62  F   UNL A   1      46.219  28.458  23.081  1.00  0.00    -0.203 F 
ATOM     63  C   UNL A   1      48.325  27.471  22.720  1.00  0.00     0.198 A 
ATOM     64  C   UNL A   1      49.527  26.499  24.560  1.00  0.00     0.198 A 
ATOM     65  F   UNL A   1      48.581  26.497  26.714  1.00  0.00    -0.203 F 
ATOM     66  F   UNL A   1      48.234  27.755  21.414  1.00  0.00    -0.200 F 
ATOM     67  C   UNL A   1      49.447  26.820  23.213  1.00  0.00     0.200 A 
ATOM     68  F   UNL A   1      50.617  25.884  25.039  1.00  0.00    -0.200 F 
ATOM     69  F   UNL A   1      50.451  26.498  22.387  1.00  0.00    -0.200 F 
ENDBRANCH  36  59
ENDBRANCH  10  11
ENDBRANCH   3   5
ENDBRANCH   2   3
ENDBRANCH   1   2
BRANCH   1  70
ATOM     70  C   UNL A   1      33.897  33.423  32.791  1.00  0.00     0.274 C 
BRANCH  70  71
ATOM     71  O   UNL A   1      34.077  32.925  31.452  1.00  0.00    -0.460 OA
BRANCH  71  72
ATOM     72  C   UNL A   1      34.125  33.847  30.439  1.00  0.00     0.336 C 
ATOM     73  O   UNL A   1      33.341  34.797  30.376  1.00  0.00    -0.249 OA
BRANCH  72  74
ATOM     74  C   UNL A   1      35.175  33.518  29.328  1.00  0.00     0.191 C 
ATOM     75  Cl  UNL A   1      34.922  34.589  27.878  1.00  0.00    -0.096 Cl
BRANCH  74  76
ATOM     76  C   UNL A   1      36.616  33.947  29.746  1.00  0.00    -0.011 A 
ATOM     77  C   UNL A   1      36.973  34.289  31.063  1.00  0.00     0.006 A 
ATOM     78  C   UNL A   1      37.704  33.770  28.848  1.00  0.00     0.006 A 
ATOM     79  C   UNL A   1      38.300  34.562  31.427  1.00  0.00     0.000 A 
ATOM     80  C   UNL A   1      39.035  33.991  29.220  1.00  0.00     0.000 A 
ATOM     81  C   UNL A   1      39.331  34.420  30.504  1.00  0.00     0.000 A 
ENDBRANCH  74  76
BRANCH  74  82
ATOM     82  C   UNL A   1      34.848  32.123  28.732  1.00  0.00    -0.011 A 
ATOM     83  C   UNL A   1      33.636  31.968  27.998  1.00  0.00     0.006 A 
ATOM     84  C   UNL A   1      35.675  31.002  28.821  1.00  0.00     0.006 A 
ATOM     85  C   UNL A   1      33.363  30.824  27.251  1.00  0.00     0.000 A 
ATOM     86  C   UNL A   1      35.408  29.856  28.060  1.00  0.00     0.000 A 
ATOM     87  C   UNL A   1      34.271  29.778  27.257  1.00  0.00     0.000 A 
ENDBRANCH  74  82
ENDBRANCH  72  74
ENDBRANCH  71  72
ENDBRANCH  70  71
ENDBRANCH   1  70
TORSDOF 13
ENDMDL
MODEL 3
REMARK VINA RESULT:     -11.4      0.254      1.649
REMARK SMILES O=C(OCCOC(=O)C(Cl)(c1ccccc1)c1ccccc1)c1ccc(-c2c3nc(c(-c4c(F)c(F)c(F)c(F)c4F)c4ccc([nH]4)c(-c4c(F)c(F)c(F)c(F)c4F)c4nc(c(-c5c(F)c(F)c(F)c(F)c5F)c5ccc2[nH]5)C=C4)C=C3)cc1
REMARK SMILES IDX 4 1 3 2 2 3 1 4 23 5 24 6 85 7 25 8 84 9 26 10 27 11 28 12
REMARK SMILES IDX 78 13 29 14 83 15 77 16 79 17 30 18 82 19 76 20 75 21 31 23
REMARK SMILES IDX 63 24 43 25 62 26 44 27 47 28 61 29 80 30 45 31 46 32 60 34
REMARK SMILES IDX 81 35 48 36 32 37 33 38 41 39 34 40 35 41 39 42 42 43 36 44
REMARK SMILES IDX 37 45 40 46 38 47 64 48 65 49 73 50 66 51 67 52 71 53 74 54
REMARK SMILES IDX 68 55 69 56 72 57 70 58 49 59 50 60 58 61 51 62 52 63 56 64
REMARK SMILES IDX 59 65 53 66 54 67 57 68 55 69 5 70 6 71 7 72 8 73 9 74 10 75
REMARK SMILES IDX 11 76 12 77 16 78 13 79 15 80 14 81 17 82 18 83 22 84 19 85
REMARK SMILES IDX 21 86 20 87
REMARK H PARENT 79 22 47 33
REMARK Flexibility Score: inf
ROOT
ATOM      1  C   UNL A   1      31.726  30.281  26.702  1.00  0.00     0.275 C 
ENDROOT
BRANCH   1   2
ATOM      2  O   UNL A   1      33.023  30.866  26.515  1.00  0.00    -0.458 OA
BRANCH   2   3
ATOM      3  C   UNL A   1      33.772  31.596  27.375  1.00  0.00     0.338 C 
ATOM      4  O   UNL A   1      33.379  32.731  27.649  1.00  0.00    -0.246 OA
BRANCH   3   5
ATOM      5  C   UNL A   1      35.120  31.185  27.905  1.00  0.00     0.060 A 
ATOM      6  C   UNL A   1      36.252  31.995  28.054  1.00  0.00     0.016 A 
ATOM      7  C   UNL A   1      35.208  29.861  28.384  1.00  0.00     0.016 A 
ATOM      8  C   UNL A   1      37.377  31.558  28.768  1.00  0.00     0.010 A 
ATOM      9  C   UNL A   1      36.328  29.417  29.101  1.00  0.00     0.010 A 
ATOM     10  C   UNL A   1      37.409  30.282  29.329  1.00  0.00    -0.014 A 
BRANCH  10  11
ATOM     11  C   UNL A   1      38.634  29.803  30.013  1.00  0.00     0.031 A 
ATOM     12  C   UNL A   1      38.871  30.305  31.398  1.00  0.00     0.074 A 
ATOM     13  C   UNL A   1      39.505  28.946  29.440  1.00  0.00     0.049 A 
ATOM     14  N   UNL A   1      39.864  30.063  32.206  1.00  0.00    -0.248 NA
ATOM     15  C   UNL A   1      37.847  31.214  31.942  1.00  0.00     0.031 C 
ATOM     16  C   UNL A   1      39.362  28.379  28.108  1.00  0.00     0.029 A 
ATOM     17  N   UNL A   1      40.685  28.401  29.891  1.00  0.00    -0.354 N 
ATOM     18  C   UNL A   1      39.599  30.810  33.340  1.00  0.00     0.074 A 
ATOM     19  C   UNL A   1      38.372  31.536  33.110  1.00  0.00     0.031 C 
ATOM     20  C   UNL A   1      40.416  27.598  27.830  1.00  0.00     0.029 A 
ATOM     21  C   UNL A   1      41.308  27.581  28.975  1.00  0.00     0.049 A 
ATOM     22  H   UNL A   1      41.050  28.581  30.788  1.00  0.00     0.167 HD
ATOM     23  C   UNL A   1      40.321  30.875  34.479  1.00  0.00     0.037 A 
ATOM     24  C   UNL A   1      42.461  26.887  29.049  1.00  0.00     0.037 A 
ATOM     25  C   UNL A   1      41.538  30.144  34.689  1.00  0.00     0.049 A 
ATOM     26  C   UNL A   1      43.246  26.980  30.327  1.00  0.00     0.074 A 
ATOM     27  C   UNL A   1      42.344  30.121  35.810  1.00  0.00     0.029 A 
ATOM     28  N   UNL A   1      42.129  29.314  33.745  1.00  0.00    -0.354 N 
ATOM     29  N   UNL A   1      42.955  27.643  31.422  1.00  0.00    -0.248 NA
ATOM     30  C   UNL A   1      44.514  26.241  30.391  1.00  0.00     0.031 C 
ATOM     31  C   UNL A   1      43.453  29.319  35.524  1.00  0.00     0.029 A 
ATOM     32  C   UNL A   1      43.309  28.797  34.247  1.00  0.00     0.049 A 
ATOM     33  H   UNL A   1      41.762  29.122  32.852  1.00  0.00     0.167 HD
ATOM     34  C   UNL A   1      43.996  27.402  32.301  1.00  0.00     0.074 A 
ATOM     35  C   UNL A   1      44.908  26.496  31.631  1.00  0.00     0.031 C 
ATOM     36  C   UNL A   1      44.191  27.898  33.547  1.00  0.00     0.037 A 
BRANCH  23  37
ATOM     37  C   UNL A   1      39.825  31.814  35.531  1.00  0.00     0.064 A 
ATOM     38  C   UNL A   1      38.815  31.448  36.434  1.00  0.00     0.173 A 
ATOM     39  C   UNL A   1      40.320  33.124  35.589  1.00  0.00     0.173 A 
ATOM     40  F   UNL A   1      38.281  30.217  36.390  1.00  0.00    -0.203 F 
ATOM     41  C   UNL A   1      38.292  32.373  37.333  1.00  0.00     0.198 A 
ATOM     42  C   UNL A   1      39.817  34.037  36.510  1.00  0.00     0.198 A 
ATOM     43  F   UNL A   1      41.273  33.524  34.736  1.00  0.00    -0.203 F 
ATOM     44  F   UNL A   1      37.274  32.026  38.133  1.00  0.00    -0.200 F 
ATOM     45  C   UNL A   1      38.797  33.664  37.373  1.00  0.00     0.200 A 
ATOM     46  F   UNL A   1      40.305  35.284  36.548  1.00  0.00    -0.200 F 
ATOM     47  F   UNL A   1      38.285  34.558  38.231  1.00  0.00    -0.200 F 
ENDBRANCH  23  37
BRANCH  24  48
ATOM     48  C   UNL A   1      42.939  26.047  27.910  1.00  0.00     0.064 A 
ATOM     49  C   UNL A   1      43.793  26.572  26.927  1.00  0.00     0.173 A 
ATOM     50  C   UNL A   1      42.527  24.713  27.753  1.00  0.00     0.173 A 
ATOM     51  F   UNL A   1      44.210  27.843  27.013  1.00  0.00    -0.203 F 
ATOM     52  C   UNL A   1      44.185  25.815  25.822  1.00  0.00     0.198 A 
ATOM     53  C   UNL A   1      42.948  23.945  26.665  1.00  0.00     0.198 A 
ATOM     54  F   UNL A   1      41.713  24.150  28.656  1.00  0.00    -0.203 F 
ATOM     55  F   UNL A   1      44.949  26.367  24.870  1.00  0.00    -0.200 F 
ATOM     56  C   UNL A   1      43.764  24.500  25.693  1.00  0.00     0.200 A 
ATOM     57  F   UNL A   1      42.554  22.669  26.556  1.00  0.00    -0.200 F 
ATOM     58  F   UNL A   1      44.137  23.775  24.631  1.00  0.00    -0.200 F 
ENDBRANCH  24  48
BRANCH  36  59
ATOM     59  C   UNL A   1      45.438  27.472  34.258  1.00  0.00     0.064 A 
ATOM     60  C   UNL A   1      46.615  28.230  34.180  1.00  0.00     0.173 A 
ATOM     61  C   UNL A   1      45.429  26.339  35.083  1.00  0.00     0.173 A 
ATOM     62  F   UNL A   1      46.673  29.310  33.387  1.00  0.00    -0.203 F 
ATOM     63  C   UNL A   1      47.746  27.861  34.900  1.00  0.00     0.198 A 
ATOM     64  C   UNL A   1      46.551  25.992  35.825  1.00  0.00     0.198 A 
ATOM     65  F   UNL A   1      44.324  25.587  35.188  1.00  0.00    -0.203 F 
ATOM     66  F   UNL A   1      48.873  28.577  34.786  1.00  0.00    -0.200 F 
ATOM     67  C   UNL A   1      47.709  26.750  35.732  1.00  0.00     0.200 A 
ATOM     68  F   UNL A   1      46.511  24.928  36.639  1.00  0.00    -0.200 F 
ATOM     69  F   UNL A   1      48.793  26.409  36.440  1.00  0.00    -0.200 F 
ENDBRANCH  36  59
ENDBRANCH  10  11
ENDBRANCH   3   5
ENDBRANCH   2   3
ENDBRANCH   1   2
BRANCH   1  70
ATOM     70  C   UNL A   1      31.786  28.857  27.252  1.00  0.00     0.274 C 
BRANCH  70  71
ATOM     71  O   UNL A   1      32.816  28.067  26.628  1.00  0.00    -0.460 OA
BRANCH  71  72
ATOM     72  C   UNL A   1      32.420  26.950  25.939  1.00  0.00     0.336 C 
ATOM     73  O   UNL A   1      31.926  25.970  26.503  1.00  0.00    -0.249 OA
BRANCH  72  74
ATOM     74  C   UNL A   1      32.758  26.989  24.414  1.00  0.00     0.191 C 
ATOM     75  Cl  UNL A   1      34.042  28.235  24.079  1.00  0.00    -0.096 Cl
BRANCH  74  76
ATOM     76  C   UNL A   1      33.496  25.695  23.949  1.00  0.00    -0.011 A 
ATOM     77  C   UNL A   1      34.530  25.085  24.682  1.00  0.00     0.006 A 
ATOM     78  C   UNL A   1      32.979  24.925  22.872  1.00  0.00     0.006 A 
ATOM     79  C   UNL A   1      35.096  23.862  24.293  1.00  0.00     0.000 A 
ATOM     80  C   UNL A   1      33.507  23.679  22.511  1.00  0.00     0.000 A 
ATOM     81  C   UNL A   1      34.588  23.161  23.204  1.00  0.00     0.000 A 
ENDBRANCH  74  76
BRANCH  74  82
ATOM     82  C   UNL A   1      31.548  27.592  23.652  1.00  0.00    -0.011 A 
ATOM     83  C   UNL A   1      30.259  27.027  23.874  1.00  0.00     0.006 A 
ATOM     84  C   UNL A   1      31.613  28.686  22.787  1.00  0.00     0.006 A 
ATOM     85  C   UNL A   1      29.094  27.632  23.407  1.00  0.00     0.000 A 
ATOM     86  C   UNL A   1      30.441  29.302  22.327  1.00  0.00     0.000 A 
ATOM     87  C   UNL A   1      29.187  28.794  22.658  1.00  0.00     0.000 A 
ENDBRANCH  74  82
ENDBRANCH  72  74
ENDBRANCH  71  72
ENDBRANCH  70  71
ENDBRANCH   1  70
TORSDOF 13
ENDMDL
