MODEL 1
REMARK VINA RESULT:     -10.8      0.000      0.000
REMARK SMILES Cn1cncc1COc1c(F)cc(C(=O)OCCOC(=O)c2ccc(-c3c4nc(c(-c5c(F)c(F)c(F)c(F)c5F)c5ccc([nH]5)c(-c5c(F)c(F)c(F)c(F)c5F)c5nc(c(-c6c(F)c(F)c(F)c(F)c6F)c6ccc3[nH]6)C=C5)C=C4)cc2)cc1F
REMARK SMILES IDX 17 1 16 2 14 3 15 4 13 5 9 6 10 7 86 8 11 9 12 10 85 11
REMARK SMILES IDX 87 12 8 13 7 14 6 15 1 16 2 17 3 18 4 19 5 20 18 21 19 22
REMARK SMILES IDX 20 23 21 24 22 25 23 26 84 27 24 28 83 29 25 30 26 31 27 32
REMARK SMILES IDX 77 33 28 34 82 35 76 36 78 37 29 38 81 39 75 40 74 41 30 43
REMARK SMILES IDX 62 44 42 45 61 46 43 47 46 48 60 49 79 50 44 51 45 52 59 54
REMARK SMILES IDX 80 55 47 56 31 57 32 58 40 59 33 60 34 61 38 62 41 63 35 64
REMARK SMILES IDX 36 65 39 66 37 67 63 68 64 69 72 70 65 71 66 72 70 73 73 74
REMARK SMILES IDX 67 75 68 76 71 77 69 78 48 79 49 80 57 81 50 82 51 83 55 84
REMARK SMILES IDX 58 85 52 86 53 87 56 88 54 89
REMARK H PARENT 78 42 46 53
REMARK Flexibility Score: inf
ROOT
ATOM      1  C   UNL A   1      33.807  35.581  28.650  1.00  0.00     0.275 C 
ENDROOT
BRANCH   1   2
ATOM      2  O   UNL A   1      33.716  34.159  28.860  1.00  0.00    -0.458 OA
BRANCH   2   3
ATOM      3  C   UNL A   1      34.863  33.446  28.748  1.00  0.00     0.338 C 
ATOM      4  O   UNL A   1      35.963  33.765  29.158  1.00  0.00    -0.246 OA
BRANCH   3   5
ATOM      5  C   UNL A   1      34.582  32.120  28.136  1.00  0.00     0.066 A 
ATOM      6  C   UNL A   1      34.099  29.541  27.158  1.00  0.00     0.191 A 
ATOM      7  C   UNL A   1      33.080  30.490  27.194  1.00  0.00     0.169 A 
ATOM      8  C   UNL A   1      35.361  29.887  27.628  1.00  0.00     0.169 A 
ATOM      9  F   UNL A   1      31.846  30.183  26.775  1.00  0.00    -0.203 F 
ATOM     10  C   UNL A   1      33.312  31.779  27.665  1.00  0.00     0.059 A 
ATOM     11  C   UNL A   1      35.616  31.174  28.094  1.00  0.00     0.059 A 
ATOM     12  F   UNL A   1      36.349  28.982  27.644  1.00  0.00    -0.203 F 
BRANCH   6  13
ATOM     13  O   UNL A   1      33.844  28.266  26.733  1.00  0.00    -0.481 OA
BRANCH  13  14
ATOM     14  C   UNL A   1      33.827  28.175  25.300  1.00  0.00     0.285 C 
BRANCH  14  15
ATOM     15  C   UNL A   1      32.631  27.387  24.905  1.00  0.00     0.075 A 
ATOM     16  C   UNL A   1      33.338  26.774  22.560  1.00  0.00     0.151 C 
ATOM     17  N   UNL A   1      32.428  26.804  23.678  1.00  0.00    -0.335 N 
ATOM     18  C   UNL A   1      31.179  26.250  23.682  1.00  0.00     0.199 A 
ATOM     19  N   UNL A   1      30.587  26.402  24.843  1.00  0.00    -0.245 NA
ATOM     20  C   UNL A   1      31.472  27.115  25.606  1.00  0.00     0.138 A 
ENDBRANCH  14  15
ENDBRANCH  13  14
ENDBRANCH   6  13
ENDBRANCH   3   5
ENDBRANCH   2   3
ENDBRANCH   1   2
BRANCH   1  21
ATOM     21  C   UNL A   1      32.891  36.328  29.621  1.00  0.00     0.275 C 
BRANCH  21  22
ATOM     22  O   UNL A   1      32.367  35.434  30.622  1.00  0.00    -0.458 OA
BRANCH  22  23
ATOM     23  C   UNL A   1      32.581  35.809  31.904  1.00  0.00     0.338 C 
ATOM     24  O   UNL A   1      31.900  36.553  32.588  1.00  0.00    -0.246 OA
BRANCH  23  25
ATOM     25  C   UNL A   1      33.718  35.053  32.447  1.00  0.00     0.060 A 
ATOM     26  C   UNL A   1      34.970  35.663  32.405  1.00  0.00     0.016 A 
ATOM     27  C   UNL A   1      33.590  33.736  32.885  1.00  0.00     0.016 A 
ATOM     28  C   UNL A   1      36.111  34.955  32.763  1.00  0.00     0.010 A 
ATOM     29  C   UNL A   1      34.736  33.038  33.293  1.00  0.00     0.010 A 
ATOM     30  C   UNL A   1      36.008  33.636  33.221  1.00  0.00    -0.014 A 
BRANCH  30  31
ATOM     31  C   UNL A   1      37.241  32.885  33.584  1.00  0.00     0.031 A 
ATOM     32  C   UNL A   1      37.901  33.113  34.916  1.00  0.00     0.074 A 
ATOM     33  C   UNL A   1      37.747  31.965  32.740  1.00  0.00     0.049 A 
ATOM     34  N   UNL A   1      39.045  32.660  35.362  1.00  0.00    -0.248 NA
ATOM     35  C   UNL A   1      37.181  33.969  35.871  1.00  0.00     0.031 C 
ATOM     36  C   UNL A   1      37.170  31.600  31.445  1.00  0.00     0.029 A 
ATOM     37  N   UNL A   1      38.852  31.156  32.849  1.00  0.00    -0.354 N 
ATOM     38  C   UNL A   1      39.203  33.209  36.628  1.00  0.00     0.074 A 
ATOM     39  C   UNL A   1      38.041  34.033  36.879  1.00  0.00     0.031 C 
ATOM     40  C   UNL A   1      37.902  30.618  30.898  1.00  0.00     0.029 A 
ATOM     41  C   UNL A   1      39.046  30.338  31.763  1.00  0.00     0.049 A 
ATOM     42  H   UNL A   1      39.450  31.164  33.631  1.00  0.00     0.167 HD
ATOM     43  C   UNL A   1      40.228  33.038  37.497  1.00  0.00     0.037 A 
ATOM     44  C   UNL A   1      40.047  29.484  31.474  1.00  0.00     0.037 A 
ATOM     45  C   UNL A   1      41.357  32.176  37.262  1.00  0.00     0.049 A 
ATOM     46  C   UNL A   1      41.193  29.343  32.436  1.00  0.00     0.074 A 
ATOM     47  C   UNL A   1      42.443  31.935  38.086  1.00  0.00     0.029 A 
ATOM     48  N   UNL A   1      41.537  31.399  36.128  1.00  0.00    -0.354 N 
ATOM     49  N   UNL A   1      41.366  29.917  33.602  1.00  0.00    -0.248 NA
ATOM     50  C   UNL A   1      42.292  28.453  32.037  1.00  0.00     0.031 C 
ATOM     51  C   UNL A   1      43.297  31.040  37.436  1.00  0.00     0.029 A 
ATOM     52  C   UNL A   1      42.723  30.687  36.226  1.00  0.00     0.049 A 
ATOM     53  H   UNL A   1      40.915  31.358  35.366  1.00  0.00     0.167 HD
ATOM     54  C   UNL A   1      42.585  29.455  34.078  1.00  0.00     0.074 A 
ATOM     55  C   UNL A   1      43.101  28.536  33.085  1.00  0.00     0.031 C 
ATOM     56  C   UNL A   1      43.220  29.772  35.232  1.00  0.00     0.037 A 
BRANCH  43  57
ATOM     57  C   UNL A   1      40.199  33.818  38.778  1.00  0.00     0.064 A 
ATOM     58  C   UNL A   1      39.435  33.361  39.864  1.00  0.00     0.173 A 
ATOM     59  C   UNL A   1      40.864  35.045  38.914  1.00  0.00     0.173 A 
ATOM     60  F   UNL A   1      38.773  32.196  39.782  1.00  0.00    -0.203 F 
ATOM     61  C   UNL A   1      39.328  34.109  41.032  1.00  0.00     0.198 A 
ATOM     62  C   UNL A   1      40.776  35.778  40.096  1.00  0.00     0.198 A 
ATOM     63  F   UNL A   1      41.616  35.520  37.911  1.00  0.00    -0.203 F 
ATOM     64  F   UNL A   1      38.567  33.666  42.043  1.00  0.00    -0.200 F 
ATOM     65  C   UNL A   1      40.003  35.315  41.150  1.00  0.00     0.200 A 
ATOM     66  F   UNL A   1      41.447  36.933  40.216  1.00  0.00    -0.200 F 
ATOM     67  F   UNL A   1      39.906  36.030  42.279  1.00  0.00    -0.200 F 
ENDBRANCH  43  57
BRANCH  44  68
ATOM     68  C   UNL A   1      40.016  28.720  30.199  1.00  0.00     0.064 A 
ATOM     69  C   UNL A   1      39.425  27.449  30.125  1.00  0.00     0.173 A 
ATOM     70  C   UNL A   1      40.608  29.233  29.037  1.00  0.00     0.173 A 
ATOM     71  F   UNL A   1      38.843  26.915  31.209  1.00  0.00    -0.203 F 
ATOM     72  C   UNL A   1      39.456  26.709  28.945  1.00  0.00     0.198 A 
ATOM     73  C   UNL A   1      40.611  28.504  27.850  1.00  0.00     0.198 A 
ATOM     74  F   UNL A   1      41.161  30.454  29.051  1.00  0.00    -0.203 F 
ATOM     75  F   UNL A   1      38.921  25.480  28.915  1.00  0.00    -0.200 F 
ATOM     76  C   UNL A   1      40.046  27.238  27.808  1.00  0.00     0.200 A 
ATOM     77  F   UNL A   1      41.160  29.027  26.746  1.00  0.00    -0.200 F 
ATOM     78  F   UNL A   1      40.067  26.528  26.672  1.00  0.00    -0.200 F 
ENDBRANCH  44  68
BRANCH  56  79
ATOM     79  C   UNL A   1      44.537  29.108  35.501  1.00  0.00     0.064 A 
ATOM     80  C   UNL A   1      45.731  29.683  35.040  1.00  0.00     0.173 A 
ATOM     81  C   UNL A   1      44.611  27.868  36.152  1.00  0.00     0.173 A 
ATOM     82  F   UNL A   1      45.710  30.866  34.406  1.00  0.00    -0.203 F 
ATOM     83  C   UNL A   1      46.950  29.033  35.207  1.00  0.00     0.198 A 
ATOM     84  C   UNL A   1      45.836  27.232  36.340  1.00  0.00     0.198 A 
ATOM     85  F   UNL A   1      43.498  27.286  36.623  1.00  0.00    -0.203 F 
ATOM     86  F   UNL A   1      48.074  29.586  34.731  1.00  0.00    -0.200 F 
ATOM     87  C   UNL A   1      47.002  27.811  35.859  1.00  0.00     0.200 A 
ATOM     88  F   UNL A   1      45.888  26.062  36.990  1.00  0.00    -0.200 F 
ATOM     89  F   UNL A   1      48.177  27.189  36.027  1.00  0.00    -0.200 F 
ENDBRANCH  56  79
ENDBRANCH  30  31
ENDBRANCH  23  25
ENDBRANCH  22  23
ENDBRANCH  21  22
ENDBRANCH   1  21
TORSDOF 14
ENDMDL
MODEL 2
REMARK VINA RESULT:     -10.8      3.163      8.730
REMARK SMILES Cn1cncc1COc1c(F)cc(C(=O)OCCOC(=O)c2ccc(-c3c4nc(c(-c5c(F)c(F)c(F)c(F)c5F)c5ccc([nH]5)c(-c5c(F)c(F)c(F)c(F)c5F)c5nc(c(-c6c(F)c(F)c(F)c(F)c6F)c6ccc3[nH]6)C=C5)C=C4)cc2)cc1F
REMARK SMILES IDX 17 1 16 2 14 3 15 4 13 5 9 6 10 7 86 8 11 9 12 10 85 11
REMARK SMILES IDX 87 12 8 13 7 14 6 15 1 16 2 17 3 18 4 19 5 20 18 21 19 22
REMARK SMILES IDX 20 23 21 24 22 25 23 26 84 27 24 28 83 29 25 30 26 31 27 32
REMARK SMILES IDX 77 33 28 34 82 35 76 36 78 37 29 38 81 39 75 40 74 41 30 43
REMARK SMILES IDX 62 44 42 45 61 46 43 47 46 48 60 49 79 50 44 51 45 52 59 54
REMARK SMILES IDX 80 55 47 56 31 57 32 58 40 59 33 60 34 61 38 62 41 63 35 64
REMARK SMILES IDX 36 65 39 66 37 67 63 68 64 69 72 70 65 71 66 72 70 73 73 74
REMARK SMILES IDX 67 75 68 76 71 77 69 78 48 79 49 80 57 81 50 82 51 83 55 84
REMARK SMILES IDX 58 85 52 86 53 87 56 88 54 89
REMARK H PARENT 78 42 46 53
REMARK Flexibility Score: inf
ROOT
ATOM      1  C   UNL A   1      31.685  28.570  24.701  1.00  0.00     0.275 C 
ENDROOT
BRANCH   1   2
ATOM      2  O   UNL A   1      32.540  27.599  25.334  1.00  0.00    -0.458 OA
BRANCH   2   3
ATOM      3  C   UNL A   1      31.941  26.676  26.126  1.00  0.00     0.338 C 
ATOM      4  O   UNL A   1      30.871  26.787  26.696  1.00  0.00    -0.246 OA
BRANCH   3   5
ATOM      5  C   UNL A   1      32.729  25.415  26.125  1.00  0.00     0.066 A 
ATOM      6  C   UNL A   1      34.352  23.135  26.226  1.00  0.00     0.191 A 
ATOM      7  C   UNL A   1      33.089  23.135  26.815  1.00  0.00     0.169 A 
ATOM      8  C   UNL A   1      34.804  24.290  25.598  1.00  0.00     0.169 A 
ATOM      9  F   UNL A   1      32.633  22.050  27.452  1.00  0.00    -0.203 F 
ATOM     10  C   UNL A   1      32.269  24.258  26.759  1.00  0.00     0.059 A 
ATOM     11  C   UNL A   1      33.995  25.420  25.522  1.00  0.00     0.059 A 
ATOM     12  F   UNL A   1      36.031  24.333  25.060  1.00  0.00    -0.203 F 
BRANCH   6  13
ATOM     13  O   UNL A   1      35.164  22.039  26.328  1.00  0.00    -0.481 OA
BRANCH  13  14
ATOM     14  C   UNL A   1      35.342  21.388  25.061  1.00  0.00     0.285 C 
BRANCH  14  15
ATOM     15  C   UNL A   1      34.126  20.579  24.786  1.00  0.00     0.075 A 
ATOM     16  C   UNL A   1      33.046  22.086  23.074  1.00  0.00     0.151 C 
ATOM     17  N   UNL A   1      33.113  20.925  23.926  1.00  0.00    -0.335 N 
ATOM     18  C   UNL A   1      32.142  19.969  24.020  1.00  0.00     0.199 A 
ATOM     19  N   UNL A   1      32.484  19.012  24.850  1.00  0.00    -0.245 NA
ATOM     20  C   UNL A   1      33.707  19.384  25.340  1.00  0.00     0.138 A 
ENDBRANCH  14  15
ENDBRANCH  13  14
ENDBRANCH   6  13
ENDBRANCH   3   5
ENDBRANCH   2   3
ENDBRANCH   1   2
BRANCH   1  21
ATOM     21  C   UNL A   1      31.715  29.894  25.467  1.00  0.00     0.275 C 
BRANCH  21  22
ATOM     22  O   UNL A   1      33.070  30.279  25.771  1.00  0.00    -0.458 OA
BRANCH  22  23
ATOM     23  C   UNL A   1      33.212  31.132  26.811  1.00  0.00     0.338 C 
ATOM     24  O   UNL A   1      32.385  31.908  27.258  1.00  0.00    -0.246 OA
BRANCH  23  25
ATOM     25  C   UNL A   1      34.508  30.895  27.462  1.00  0.00     0.060 A 
ATOM     26  C   UNL A   1      34.848  29.575  27.748  1.00  0.00     0.016 A 
ATOM     27  C   UNL A   1      35.324  31.941  27.887  1.00  0.00     0.016 A 
ATOM     28  C   UNL A   1      35.985  29.285  28.492  1.00  0.00     0.010 A 
ATOM     29  C   UNL A   1      36.497  31.646  28.596  1.00  0.00     0.010 A 
ATOM     30  C   UNL A   1      36.830  30.317  28.918  1.00  0.00    -0.014 A 
BRANCH  30  31
ATOM     31  C   UNL A   1      38.035  29.992  29.730  1.00  0.00     0.031 A 
ATOM     32  C   UNL A   1      39.119  29.120  29.159  1.00  0.00     0.074 A 
ATOM     33  C   UNL A   1      38.182  30.515  30.963  1.00  0.00     0.049 A 
ATOM     34  N   UNL A   1      40.175  28.618  29.749  1.00  0.00    -0.248 NA
ATOM     35  C   UNL A   1      38.997  28.760  27.738  1.00  0.00     0.031 C 
ATOM     36  C   UNL A   1      37.238  31.425  31.611  1.00  0.00     0.029 A 
ATOM     37  N   UNL A   1      39.188  30.368  31.888  1.00  0.00    -0.354 N 
ATOM     38  C   UNL A   1      40.817  27.849  28.787  1.00  0.00     0.074 A 
ATOM     39  C   UNL A   1      40.032  27.946  27.575  1.00  0.00     0.031 C 
ATOM     40  C   UNL A   1      37.724  31.784  32.809  1.00  0.00     0.029 A 
ATOM     41  C   UNL A   1      38.974  31.068  33.049  1.00  0.00     0.049 A 
ATOM     42  H   UNL A   1      39.986  29.813  31.732  1.00  0.00     0.167 HD
ATOM     43  C   UNL A   1      41.958  27.130  28.909  1.00  0.00     0.037 A 
ATOM     44  C   UNL A   1      39.682  31.106  34.195  1.00  0.00     0.037 A 
ATOM     45  C   UNL A   1      42.762  27.078  30.101  1.00  0.00     0.049 A 
ATOM     46  C   UNL A   1      40.923  30.266  34.320  1.00  0.00     0.074 A 
ATOM     47  C   UNL A   1      43.938  26.380  30.319  1.00  0.00     0.029 A 
ATOM     48  N   UNL A   1      42.486  27.768  31.273  1.00  0.00    -0.354 N 
ATOM     49  N   UNL A   1      41.486  29.490  33.426  1.00  0.00    -0.248 NA
ATOM     50  C   UNL A   1      41.615  30.289  35.616  1.00  0.00     0.031 C 
ATOM     51  C   UNL A   1      44.353  26.617  31.632  1.00  0.00     0.029 A 
ATOM     52  C   UNL A   1      43.462  27.500  32.220  1.00  0.00     0.049 A 
ATOM     53  H   UNL A   1      41.711  28.360  31.411  1.00  0.00     0.167 HD
ATOM     54  C   UNL A   1      42.599  28.940  34.046  1.00  0.00     0.074 A 
ATOM     55  C   UNL A   1      42.645  29.486  35.386  1.00  0.00     0.031 C 
ATOM     56  C   UNL A   1      43.497  28.056  33.548  1.00  0.00     0.037 A 
BRANCH  43  57
ATOM     57  C   UNL A   1      42.399  26.310  27.732  1.00  0.00     0.064 A 
ATOM     58  C   UNL A   1      41.882  25.018  27.539  1.00  0.00     0.173 A 
ATOM     59  C   UNL A   1      43.377  26.765  26.837  1.00  0.00     0.173 A 
ATOM     60  F   UNL A   1      40.948  24.533  28.373  1.00  0.00    -0.203 F 
ATOM     61  C   UNL A   1      42.337  24.210  26.502  1.00  0.00     0.198 A 
ATOM     62  C   UNL A   1      43.810  25.962  25.783  1.00  0.00     0.198 A 
ATOM     63  F   UNL A   1      43.894  27.995  26.970  1.00  0.00    -0.203 F 
ATOM     64  F   UNL A   1      41.850  22.969  26.359  1.00  0.00    -0.200 F 
ATOM     65  C   UNL A   1      43.297  24.684  25.622  1.00  0.00     0.200 A 
ATOM     66  F   UNL A   1      44.723  26.430  24.919  1.00  0.00    -0.200 F 
ATOM     67  F   UNL A   1      43.727  23.908  24.618  1.00  0.00    -0.200 F 
ENDBRANCH  43  57
BRANCH  44  68
ATOM     68  C   UNL A   1      39.210  31.952  35.323  1.00  0.00     0.064 A 
ATOM     69  C   UNL A   1      38.410  31.421  36.347  1.00  0.00     0.173 A 
ATOM     70  C   UNL A   1      39.524  33.316  35.381  1.00  0.00     0.173 A 
ATOM     71  F   UNL A   1      38.084  30.120  36.338  1.00  0.00    -0.203 F 
ATOM     72  C   UNL A   1      37.915  32.231  37.366  1.00  0.00     0.198 A 
ATOM     73  C   UNL A   1      39.053  34.119  36.418  1.00  0.00     0.198 A 
ATOM     74  F   UNL A   1      40.309  33.863  34.441  1.00  0.00    -0.203 F 
ATOM     75  F   UNL A   1      37.118  31.707  38.307  1.00  0.00    -0.200 F 
ATOM     76  C   UNL A   1      38.240  33.578  37.403  1.00  0.00     0.200 A 
ATOM     77  F   UNL A   1      39.390  35.414  36.465  1.00  0.00    -0.200 F 
ATOM     78  F   UNL A   1      37.771  34.355  38.390  1.00  0.00    -0.200 F 
ENDBRANCH  44  68
BRANCH  56  79
ATOM     79  C   UNL A   1      44.622  27.632  34.444  1.00  0.00     0.064 A 
ATOM     80  C   UNL A   1      45.833  28.341  34.449  1.00  0.00     0.173 A 
ATOM     81  C   UNL A   1      44.527  26.483  35.243  1.00  0.00     0.173 A 
ATOM     82  F   UNL A   1      45.974  29.442  33.697  1.00  0.00    -0.203 F 
ATOM     83  C   UNL A   1      46.914  27.905  35.210  1.00  0.00     0.198 A 
ATOM     84  C   UNL A   1      45.602  26.064  36.023  1.00  0.00     0.198 A 
ATOM     85  F   UNL A   1      43.384  25.781  35.282  1.00  0.00    -0.203 F 
ATOM     86  F   UNL A   1      48.071  28.580  35.176  1.00  0.00    -0.200 F 
ATOM     87  C   UNL A   1      46.796  26.770  35.998  1.00  0.00     0.200 A 
ATOM     88  F   UNL A   1      45.481  24.980  36.801  1.00  0.00    -0.200 F 
ATOM     89  F   UNL A   1      47.835  26.356  36.737  1.00  0.00    -0.200 F 
ENDBRANCH  56  79
ENDBRANCH  30  31
ENDBRANCH  23  25
ENDBRANCH  22  23
ENDBRANCH  21  22
ENDBRANCH   1  21
TORSDOF 14
ENDMDL
MODEL 3
REMARK VINA RESULT:     -10.8      3.099      8.962
REMARK SMILES Cn1cncc1COc1c(F)cc(C(=O)OCCOC(=O)c2ccc(-c3c4nc(c(-c5c(F)c(F)c(F)c(F)c5F)c5ccc([nH]5)c(-c5c(F)c(F)c(F)c(F)c5F)c5nc(c(-c6c(F)c(F)c(F)c(F)c6F)c6ccc3[nH]6)C=C5)C=C4)cc2)cc1F
REMARK SMILES IDX 17 1 16 2 14 3 15 4 13 5 9 6 10 7 86 8 11 9 12 10 85 11
REMARK SMILES IDX 87 12 8 13 7 14 6 15 1 16 2 17 3 18 4 19 5 20 18 21 19 22
REMARK SMILES IDX 20 23 21 24 22 25 23 26 84 27 24 28 83 29 25 30 26 31 27 32
REMARK SMILES IDX 77 33 28 34 82 35 76 36 78 37 29 38 81 39 75 40 74 41 30 43
REMARK SMILES IDX 62 44 42 45 61 46 43 47 46 48 60 49 79 50 44 51 45 52 59 54
REMARK SMILES IDX 80 55 47 56 31 57 32 58 40 59 33 60 34 61 38 62 41 63 35 64
REMARK SMILES IDX 36 65 39 66 37 67 63 68 64 69 72 70 65 71 66 72 70 73 73 74
REMARK SMILES IDX 67 75 68 76 71 77 69 78 48 79 49 80 57 81 50 82 51 83 55 84
REMARK SMILES IDX 58 85 52 86 53 87 56 88 54 89
REMARK H PARENT 78 42 46 53
REMARK Flexibility Score: inf
ROOT
ATOM      1  C   UNL A   1      31.176  29.733  24.516  1.00  0.00     0.275 C 
ENDROOT
BRANCH   1   2
ATOM      2  O   UNL A   1      30.308  28.614  24.254  1.00  0.00    -0.458 OA
BRANCH   2   3
ATOM      3  C   UNL A   1      30.254  28.164  22.977  1.00  0.00     0.338 C 
ATOM      4  O   UNL A   1      29.822  28.763  22.009  1.00  0.00    -0.246 OA
BRANCH   3   5
ATOM      5  C   UNL A   1      30.915  26.836  22.874  1.00  0.00     0.066 A 
ATOM      6  C   UNL A   1      32.293  24.399  22.813  1.00  0.00     0.191 A 
ATOM      7  C   UNL A   1      30.964  24.455  23.230  1.00  0.00     0.169 A 
ATOM      8  C   UNL A   1      32.934  25.575  22.441  1.00  0.00     0.169 A 
ATOM      9  F   UNL A   1      30.325  23.346  23.621  1.00  0.00    -0.203 F 
ATOM     10  C   UNL A   1      30.266  25.658  23.250  1.00  0.00     0.059 A 
ATOM     11  C   UNL A   1      32.250  26.787  22.445  1.00  0.00     0.059 A 
ATOM     12  F   UNL A   1      34.223  25.558  22.077  1.00  0.00    -0.203 F 
BRANCH   6  13
ATOM     13  O   UNL A   1      32.978  23.215  22.841  1.00  0.00    -0.481 OA
BRANCH  13  14
ATOM     14  C   UNL A   1      33.574  22.974  24.125  1.00  0.00     0.285 C 
BRANCH  14  15
ATOM     15  C   UNL A   1      33.292  21.565  24.503  1.00  0.00     0.075 A 
ATOM     16  C   UNL A   1      35.640  20.857  25.104  1.00  0.00     0.151 C 
ATOM     17  N   UNL A   1      34.228  20.643  24.904  1.00  0.00    -0.335 N 
ATOM     18  C   UNL A   1      33.588  19.448  25.075  1.00  0.00     0.199 A 
ATOM     19  N   UNL A   1      32.299  19.554  24.853  1.00  0.00    -0.245 NA
ATOM     20  C   UNL A   1      32.105  20.859  24.486  1.00  0.00     0.138 A 
ENDBRANCH  14  15
ENDBRANCH  13  14
ENDBRANCH   6  13
ENDBRANCH   3   5
ENDBRANCH   2   3
ENDBRANCH   1   2
BRANCH   1  21
ATOM     21  C   UNL A   1      31.779  29.629  25.918  1.00  0.00     0.275 C 
BRANCH  21  22
ATOM     22  O   UNL A   1      33.095  30.216  25.955  1.00  0.00    -0.458 OA
BRANCH  22  23
ATOM     23  C   UNL A   1      33.287  31.149  26.914  1.00  0.00     0.338 C 
ATOM     24  O   UNL A   1      32.500  31.995  27.302  1.00  0.00    -0.246 OA
BRANCH  23  25
ATOM     25  C   UNL A   1      34.584  30.915  27.566  1.00  0.00     0.060 A 
ATOM     26  C   UNL A   1      34.860  29.618  27.994  1.00  0.00     0.016 A 
ATOM     27  C   UNL A   1      35.463  31.956  27.859  1.00  0.00     0.016 A 
ATOM     28  C   UNL A   1      35.997  29.352  28.748  1.00  0.00     0.010 A 
ATOM     29  C   UNL A   1      36.634  31.679  28.577  1.00  0.00     0.010 A 
ATOM     30  C   UNL A   1      36.904  30.377  29.042  1.00  0.00    -0.014 A 
BRANCH  30  31
ATOM     31  C   UNL A   1      38.107  30.080  29.865  1.00  0.00     0.031 A 
ATOM     32  C   UNL A   1      39.223  29.243  29.300  1.00  0.00     0.074 A 
ATOM     33  C   UNL A   1      38.225  30.596  31.104  1.00  0.00     0.049 A 
ATOM     34  N   UNL A   1      40.285  28.766  29.899  1.00  0.00    -0.248 NA
ATOM     35  C   UNL A   1      39.128  28.891  27.876  1.00  0.00     0.031 C 
ATOM     36  C   UNL A   1      37.248  31.475  31.748  1.00  0.00     0.029 A 
ATOM     37  N   UNL A   1      39.224  30.470  32.039  1.00  0.00    -0.354 N 
ATOM     38  C   UNL A   1      40.959  28.023  28.939  1.00  0.00     0.074 A 
ATOM     39  C   UNL A   1      40.186  28.108  27.719  1.00  0.00     0.031 C 
ATOM     40  C   UNL A   1      37.710  31.837  32.954  1.00  0.00     0.029 A 
ATOM     41  C   UNL A   1      38.976  31.155  33.204  1.00  0.00     0.049 A 
ATOM     42  H   UNL A   1      40.038  29.938  31.890  1.00  0.00     0.167 HD
ATOM     43  C   UNL A   1      42.118  27.335  29.069  1.00  0.00     0.037 A 
ATOM     44  C   UNL A   1      39.670  31.202  34.359  1.00  0.00     0.037 A 
ATOM     45  C   UNL A   1      42.910  27.296  30.271  1.00  0.00     0.049 A 
ATOM     46  C   UNL A   1      40.931  30.397  34.492  1.00  0.00     0.074 A 
ATOM     47  C   UNL A   1      44.102  26.629  30.497  1.00  0.00     0.029 A 
ATOM     48  N   UNL A   1      42.601  27.968  31.444  1.00  0.00    -0.354 N 
ATOM     49  N   UNL A   1      41.527  29.644  33.599  1.00  0.00    -0.248 NA
ATOM     50  C   UNL A   1      41.607  30.429  35.796  1.00  0.00     0.031 C 
ATOM     51  C   UNL A   1      44.494  26.867  31.817  1.00  0.00     0.029 A 
ATOM     52  C   UNL A   1      43.572  27.720  32.402  1.00  0.00     0.049 A 
ATOM     53  H   UNL A   1      41.808  28.537  31.578  1.00  0.00     0.167 HD
ATOM     54  C   UNL A   1      42.648  29.120  34.228  1.00  0.00     0.074 A 
ATOM     55  C   UNL A   1      42.662  29.656  35.573  1.00  0.00     0.031 C 
ATOM     56  C   UNL A   1      43.575  28.266  33.734  1.00  0.00     0.037 A 
BRANCH  43  57
ATOM     57  C   UNL A   1      42.597  26.537  27.892  1.00  0.00     0.064 A 
ATOM     58  C   UNL A   1      43.448  27.125  26.942  1.00  0.00     0.173 A 
ATOM     59  C   UNL A   1      42.166  25.223  27.663  1.00  0.00     0.173 A 
ATOM     60  F   UNL A   1      43.883  28.383  27.111  1.00  0.00    -0.203 F 
ATOM     61  C   UNL A   1      43.838  26.431  25.801  1.00  0.00     0.198 A 
ATOM     62  C   UNL A   1      42.581  24.521  26.532  1.00  0.00     0.198 A 
ATOM     63  F   UNL A   1      41.363  24.612  28.546  1.00  0.00    -0.203 F 
ATOM     64  F   UNL A   1      44.625  27.025  24.893  1.00  0.00    -0.200 F 
ATOM     65  C   UNL A   1      43.409  25.128  25.599  1.00  0.00     0.200 A 
ATOM     66  F   UNL A   1      42.183  23.255  26.349  1.00  0.00    -0.200 F 
ATOM     67  F   UNL A   1      43.793  24.458  24.504  1.00  0.00    -0.200 F 
ENDBRANCH  43  57
BRANCH  44  68
ATOM     68  C   UNL A   1      39.161  32.025  35.488  1.00  0.00     0.064 A 
ATOM     69  C   UNL A   1      39.481  33.387  35.599  1.00  0.00     0.173 A 
ATOM     70  C   UNL A   1      38.372  31.456  36.496  1.00  0.00     0.173 A 
ATOM     71  F   UNL A   1      40.231  33.980  34.659  1.00  0.00    -0.203 F 
ATOM     72  C   UNL A   1      39.057  34.139  36.692  1.00  0.00     0.198 A 
ATOM     73  C   UNL A   1      37.923  32.217  37.574  1.00  0.00     0.198 A 
ATOM     74  F   UNL A   1      38.017  30.165  36.419  1.00  0.00    -0.203 F 
ATOM     75  F   UNL A   1      39.413  35.427  36.795  1.00  0.00    -0.200 F 
ATOM     76  C   UNL A   1      38.276  33.554  37.677  1.00  0.00     0.200 A 
ATOM     77  F   UNL A   1      37.148  31.656  38.510  1.00  0.00    -0.200 F 
ATOM     78  F   UNL A   1      37.861  34.281  38.724  1.00  0.00    -0.200 F 
ENDBRANCH  44  68
BRANCH  56  79
ATOM     79  C   UNL A   1      44.701  27.866  34.641  1.00  0.00     0.064 A 
ATOM     80  C   UNL A   1      44.581  26.741  35.470  1.00  0.00     0.173 A 
ATOM     81  C   UNL A   1      45.868  28.639  34.742  1.00  0.00     0.173 A 
ATOM     82  F   UNL A   1      43.481  25.976  35.415  1.00  0.00    -0.203 F 
ATOM     83  C   UNL A   1      45.582  26.412  36.379  1.00  0.00     0.198 A 
ATOM     84  C   UNL A   1      46.879  28.292  35.634  1.00  0.00     0.198 A 
ATOM     85  F   UNL A   1      46.034  29.715  33.958  1.00  0.00    -0.203 F 
ATOM     86  F   UNL A   1      45.433  25.351  37.184  1.00  0.00    -0.200 F 
ATOM     87  C   UNL A   1      46.731  27.185  36.458  1.00  0.00     0.200 A 
ATOM     88  F   UNL A   1      47.998  29.026  35.694  1.00  0.00    -0.200 F 
ATOM     89  F   UNL A   1      47.698  26.862  37.328  1.00  0.00    -0.200 F 
ENDBRANCH  56  79
ENDBRANCH  30  31
ENDBRANCH  23  25
ENDBRANCH  22  23
ENDBRANCH  21  22
ENDBRANCH   1  21
TORSDOF 14
ENDMDL
