MODEL 1
REMARK VINA RESULT:     -11.5      0.000      0.000
REMARK SMILES CC1(C)C(C(=O)Nc2ccc(CC(=O)OCCOC(=O)c3ccc(-c4c5nc(c(-c6c(F)c(F)c(F)c(F)c6F)c6ccc([nH]6)c(-c6c(F)c(F)c(F)c(F)c6F)c6nc(c(-c7c(F)c(F)c(F)c(F)c7F)c7ccc4[nH]7)C=C6)C=C5)cc3)cc2)C1(C)C
REMARK SMILES IDX 16 1 15 2 13 3 14 4 12 5 11 6 8 7 9 8 85 9 10 10 84 11 7 12
REMARK SMILES IDX 5 13 6 14 4 16 1 17 2 18 3 19 86 20 87 21 88 22 17 23 18 24
REMARK SMILES IDX 19 25 20 26 21 27 22 28 83 29 23 30 82 31 24 32 25 33 26 34
REMARK SMILES IDX 76 35 27 36 81 37 75 38 77 39 28 40 80 41 74 42 73 43 29 45
REMARK SMILES IDX 61 46 41 47 60 48 42 49 45 50 59 51 78 52 43 53 44 54 58 56
REMARK SMILES IDX 79 57 46 58 30 59 31 60 39 61 32 62 33 63 37 64 40 65 34 66
REMARK SMILES IDX 35 67 38 68 36 69 62 70 63 71 71 72 64 73 65 74 69 75 72 76
REMARK SMILES IDX 66 77 67 78 70 79 68 80 47 81 48 82 56 83 49 84 50 85 54 86
REMARK SMILES IDX 57 87 51 88 52 89 55 90 53 91
REMARK H PARENT 7 15 77 44 45 55
REMARK Flexibility Score: inf
ROOT
ATOM      1  C   UNL A   1      42.131  19.215  26.250  1.00  0.00     0.274 C 
ENDROOT
BRANCH   1   2
ATOM      2  O   UNL A   1      42.445  20.418  26.971  1.00  0.00    -0.462 OA
BRANCH   2   3
ATOM      3  C   UNL A   1      41.939  21.561  26.445  1.00  0.00     0.310 C 
ATOM      4  O   UNL A   1      42.193  21.999  25.327  1.00  0.00    -0.252 OA
BRANCH   3   5
ATOM      5  C   UNL A   1      41.046  22.292  27.400  1.00  0.00     0.158 C 
BRANCH   5   6
ATOM      6  C   UNL A   1      39.635  22.576  26.948  1.00  0.00    -0.037 A 
ATOM      7  C   UNL A   1      37.411  23.424  25.522  1.00  0.00     0.041 A 
ATOM      8  C   UNL A   1      37.778  22.083  25.460  1.00  0.00     0.026 A 
ATOM      9  C   UNL A   1      37.972  24.256  26.488  1.00  0.00     0.026 A 
ATOM     10  C   UNL A   1      38.918  21.668  26.153  1.00  0.00     0.006 A 
ATOM     11  C   UNL A   1      39.083  23.831  27.209  1.00  0.00     0.006 A 
BRANCH   7  12
ATOM     12  N   UNL A   1      36.624  23.952  24.489  1.00  0.00    -0.326 N 
ATOM     13  C   UNL A   1      35.778  23.184  23.726  1.00  0.00     0.228 C 
ATOM     14  O   UNL A   1      36.093  22.811  22.600  1.00  0.00    -0.274 OA
ATOM     15  H   UNL A   1      36.681  24.918  24.303  1.00  0.00     0.169 HD
BRANCH  13  16
ATOM     16  C   UNL A   1      34.347  23.017  24.160  1.00  0.00     0.091 C 
ATOM     17  C   UNL A   1      32.489  21.274  23.713  1.00  0.00     0.012 C 
ATOM     18  C   UNL A   1      33.731  21.651  24.502  1.00  0.00    -0.017 C 
ATOM     19  C   UNL A   1      34.557  20.418  24.782  1.00  0.00     0.012 C 
ATOM     20  C   UNL A   1      33.694  22.814  25.523  1.00  0.00    -0.017 C 
ATOM     21  C   UNL A   1      32.359  23.498  25.765  1.00  0.00     0.012 C 
ATOM     22  C   UNL A   1      34.502  22.810  26.798  1.00  0.00     0.012 C 
ENDBRANCH  13  16
ENDBRANCH   7  12
ENDBRANCH   5   6
ENDBRANCH   3   5
ENDBRANCH   2   3
ENDBRANCH   1   2
BRANCH   1  23
ATOM     23  C   UNL A   1      43.406  18.636  25.642  1.00  0.00     0.275 C 
BRANCH  23  24
ATOM     24  O   UNL A   1      43.668  19.258  24.368  1.00  0.00    -0.458 OA
BRANCH  24  25
ATOM     25  C   UNL A   1      44.959  19.560  24.111  1.00  0.00     0.338 C 
ATOM     26  O   UNL A   1      45.822  18.834  23.651  1.00  0.00    -0.246 OA
BRANCH  25  27
ATOM     27  C   UNL A   1      45.229  20.950  24.514  1.00  0.00     0.060 A 
ATOM     28  C   UNL A   1      45.663  21.249  25.807  1.00  0.00     0.016 A 
ATOM     29  C   UNL A   1      44.941  21.974  23.612  1.00  0.00     0.016 A 
ATOM     30  C   UNL A   1      45.765  22.579  26.218  1.00  0.00     0.010 A 
ATOM     31  C   UNL A   1      45.109  23.304  24.004  1.00  0.00     0.010 A 
ATOM     32  C   UNL A   1      45.503  23.619  25.316  1.00  0.00    -0.014 A 
BRANCH  32  33
ATOM     33  C   UNL A   1      45.635  25.042  25.725  1.00  0.00     0.031 A 
ATOM     34  C   UNL A   1      46.970  25.729  25.654  1.00  0.00     0.074 A 
ATOM     35  C   UNL A   1      44.566  25.704  26.205  1.00  0.00     0.049 A 
ATOM     36  N   UNL A   1      47.330  26.894  26.131  1.00  0.00    -0.248 NA
ATOM     37  C   UNL A   1      48.048  25.004  24.963  1.00  0.00     0.031 C 
ATOM     38  C   UNL A   1      43.210  25.161  26.305  1.00  0.00     0.029 A 
ATOM     39  N   UNL A   1      44.456  26.972  26.719  1.00  0.00    -0.354 N 
ATOM     40  C   UNL A   1      48.681  27.025  25.834  1.00  0.00     0.074 A 
ATOM     41  C   UNL A   1      49.078  25.819  25.139  1.00  0.00     0.031 C 
ATOM     42  C   UNL A   1      42.406  26.089  26.846  1.00  0.00     0.029 A 
ATOM     43  C   UNL A   1      43.199  27.265  27.188  1.00  0.00     0.049 A 
ATOM     44  H   UNL A   1      45.206  27.610  26.748  1.00  0.00     0.167 HD
ATOM     45  C   UNL A   1      49.509  28.058  26.118  1.00  0.00     0.037 A 
ATOM     46  C   UNL A   1      42.745  28.342  27.857  1.00  0.00     0.037 A 
ATOM     47  C   UNL A   1      49.103  29.271  26.780  1.00  0.00     0.049 A 
ATOM     48  C   UNL A   1      43.693  29.461  28.186  1.00  0.00     0.074 A 
ATOM     49  C   UNL A   1      49.864  30.388  27.079  1.00  0.00     0.029 A 
ATOM     50  N   UNL A   1      47.820  29.527  27.240  1.00  0.00    -0.354 N 
ATOM     51  N   UNL A   1      44.968  29.572  27.911  1.00  0.00    -0.248 NA
ATOM     52  C   UNL A   1      43.138  30.599  28.931  1.00  0.00     0.031 C 
ATOM     53  C   UNL A   1      49.050  31.306  27.752  1.00  0.00     0.029 A 
ATOM     54  C   UNL A   1      47.773  30.777  27.837  1.00  0.00     0.049 A 
ATOM     55  H   UNL A   1      47.057  28.912  27.156  1.00  0.00     0.167 HD
ATOM     56  C   UNL A   1      45.366  30.794  28.433  1.00  0.00     0.074 A 
ATOM     57  C   UNL A   1      44.193  31.397  29.028  1.00  0.00     0.031 C 
ATOM     58  C   UNL A   1      46.596  31.363  28.423  1.00  0.00     0.037 A 
BRANCH  45  59
ATOM     59  C   UNL A   1      50.953  27.918  25.736  1.00  0.00     0.064 A 
ATOM     60  C   UNL A   1      51.405  28.206  24.441  1.00  0.00     0.173 A 
ATOM     61  C   UNL A   1      51.904  27.538  26.695  1.00  0.00     0.173 A 
ATOM     62  F   UNL A   1      50.533  28.561  23.484  1.00  0.00    -0.203 F 
ATOM     63  C   UNL A   1      52.756  28.103  24.115  1.00  0.00     0.198 A 
ATOM     64  C   UNL A   1      53.256  27.459  26.373  1.00  0.00     0.198 A 
ATOM     65  F   UNL A   1      51.522  27.256  27.951  1.00  0.00    -0.203 F 
ATOM     66  F   UNL A   1      53.162  28.349  22.862  1.00  0.00    -0.200 F 
ATOM     67  C   UNL A   1      53.680  27.736  25.083  1.00  0.00     0.200 A 
ATOM     68  F   UNL A   1      54.148  27.114  27.312  1.00  0.00    -0.200 F 
ATOM     69  F   UNL A   1      54.980  27.646  24.769  1.00  0.00    -0.200 F 
ENDBRANCH  45  59
BRANCH  46  70
ATOM     70  C   UNL A   1      41.325  28.396  28.286  1.00  0.00     0.064 A 
ATOM     71  C   UNL A   1      40.936  27.934  29.549  1.00  0.00     0.173 A 
ATOM     72  C   UNL A   1      40.330  28.913  27.443  1.00  0.00     0.173 A 
ATOM     73  F   UNL A   1      41.848  27.407  30.379  1.00  0.00    -0.203 F 
ATOM     74  C   UNL A   1      39.602  27.978  29.951  1.00  0.00     0.198 A 
ATOM     75  C   UNL A   1      39.002  28.982  27.856  1.00  0.00     0.198 A 
ATOM     76  F   UNL A   1      40.652  29.368  26.222  1.00  0.00    -0.203 F 
ATOM     77  F   UNL A   1      39.251  27.495  31.151  1.00  0.00    -0.200 F 
ATOM     78  C   UNL A   1      38.638  28.509  29.108  1.00  0.00     0.200 A 
ATOM     79  F   UNL A   1      38.074  29.506  27.043  1.00  0.00    -0.200 F 
ATOM     80  F   UNL A   1      37.357  28.557  29.498  1.00  0.00    -0.200 F 
ENDBRANCH  46  70
BRANCH  58  81
ATOM     81  C   UNL A   1      46.727  32.718  29.052  1.00  0.00     0.064 A 
ATOM     82  C   UNL A   1      46.529  33.891  28.311  1.00  0.00     0.173 A 
ATOM     83  C   UNL A   1      47.026  32.841  30.417  1.00  0.00     0.173 A 
ATOM     84  F   UNL A   1      46.258  33.824  26.998  1.00  0.00    -0.203 F 
ATOM     85  C   UNL A   1      46.645  35.143  28.910  1.00  0.00     0.198 A 
ATOM     86  C   UNL A   1      47.118  34.094  31.018  1.00  0.00     0.198 A 
ATOM     87  F   UNL A   1      47.222  31.748  31.168  1.00  0.00    -0.203 F 
ATOM     88  F   UNL A   1      46.492  36.252  28.175  1.00  0.00    -0.200 F 
ATOM     89  C   UNL A   1      46.934  35.242  30.263  1.00  0.00     0.200 A 
ATOM     90  F   UNL A   1      47.389  34.188  32.327  1.00  0.00    -0.200 F 
ATOM     91  F   UNL A   1      47.042  36.448  30.839  1.00  0.00    -0.200 F 
ENDBRANCH  58  81
ENDBRANCH  32  33
ENDBRANCH  25  27
ENDBRANCH  24  25
ENDBRANCH  23  24
ENDBRANCH   1  23
TORSDOF 14
ENDMDL
MODEL 2
REMARK VINA RESULT:     -11.2      7.645     13.006
REMARK SMILES CC1(C)C(C(=O)Nc2ccc(CC(=O)OCCOC(=O)c3ccc(-c4c5nc(c(-c6c(F)c(F)c(F)c(F)c6F)c6ccc([nH]6)c(-c6c(F)c(F)c(F)c(F)c6F)c6nc(c(-c7c(F)c(F)c(F)c(F)c7F)c7ccc4[nH]7)C=C6)C=C5)cc3)cc2)C1(C)C
REMARK SMILES IDX 16 1 15 2 13 3 14 4 12 5 11 6 8 7 9 8 85 9 10 10 84 11 7 12
REMARK SMILES IDX 5 13 6 14 4 16 1 17 2 18 3 19 86 20 87 21 88 22 17 23 18 24
REMARK SMILES IDX 19 25 20 26 21 27 22 28 83 29 23 30 82 31 24 32 25 33 26 34
REMARK SMILES IDX 76 35 27 36 81 37 75 38 77 39 28 40 80 41 74 42 73 43 29 45
REMARK SMILES IDX 61 46 41 47 60 48 42 49 45 50 59 51 78 52 43 53 44 54 58 56
REMARK SMILES IDX 79 57 46 58 30 59 31 60 39 61 32 62 33 63 37 64 40 65 34 66
REMARK SMILES IDX 35 67 38 68 36 69 62 70 63 71 71 72 64 73 65 74 69 75 72 76
REMARK SMILES IDX 66 77 67 78 70 79 68 80 47 81 48 82 56 83 49 84 50 85 54 86
REMARK SMILES IDX 57 87 51 88 52 89 55 90 53 91
REMARK H PARENT 7 15 77 44 45 55
REMARK Flexibility Score: inf
ROOT
ATOM      1  C   UNL A   1      33.429  35.980  28.798  1.00  0.00     0.274 C 
ENDROOT
BRANCH   1   2
ATOM      2  O   UNL A   1      33.455  34.582  29.130  1.00  0.00    -0.462 OA
BRANCH   2   3
ATOM      3  C   UNL A   1      34.680  34.000  29.101  1.00  0.00     0.310 C 
ATOM      4  O   UNL A   1      35.719  34.552  28.751  1.00  0.00    -0.252 OA
BRANCH   3   5
ATOM      5  C   UNL A   1      34.645  32.558  29.503  1.00  0.00     0.158 C 
BRANCH   5   6
ATOM      6  C   UNL A   1      34.463  31.538  28.407  1.00  0.00    -0.037 A 
ATOM      7  C   UNL A   1      33.830  29.248  26.972  1.00  0.00     0.041 A 
ATOM      8  C   UNL A   1      32.994  30.356  26.874  1.00  0.00     0.026 A 
ATOM      9  C   UNL A   1      35.092  29.377  27.549  1.00  0.00     0.026 A 
ATOM     10  C   UNL A   1      33.299  31.494  27.624  1.00  0.00     0.006 A 
ATOM     11  C   UNL A   1      35.414  30.525  28.263  1.00  0.00     0.006 A 
BRANCH   7  12
ATOM     12  N   UNL A   1      33.309  27.985  26.659  1.00  0.00    -0.326 N 
ATOM     13  C   UNL A   1      31.962  27.736  26.559  1.00  0.00     0.228 C 
ATOM     14  O   UNL A   1      31.341  27.197  27.470  1.00  0.00    -0.274 OA
ATOM     15  H   UNL A   1      33.938  27.243  26.504  1.00  0.00     0.169 HD
BRANCH  13  16
ATOM     16  C   UNL A   1      31.287  27.879  25.221  1.00  0.00     0.091 C 
ATOM     17  C   UNL A   1      31.999  28.760  22.896  1.00  0.00     0.012 C 
ATOM     18  C   UNL A   1      32.005  27.612  23.889  1.00  0.00    -0.017 C 
ATOM     19  C   UNL A   1      33.307  26.853  23.789  1.00  0.00     0.012 C 
ATOM     20  C   UNL A   1      30.694  26.869  24.245  1.00  0.00    -0.017 C 
ATOM     21  C   UNL A   1      29.430  27.273  23.504  1.00  0.00     0.012 C 
ATOM     22  C   UNL A   1      30.649  25.393  24.560  1.00  0.00     0.012 C 
ENDBRANCH  13  16
ENDBRANCH   7  12
ENDBRANCH   5   6
ENDBRANCH   3   5
ENDBRANCH   2   3
ENDBRANCH   1   2
BRANCH   1  23
ATOM     23  C   UNL A   1      32.902  36.779  29.987  1.00  0.00     0.275 C 
BRANCH  23  24
ATOM     24  O   UNL A   1      32.314  35.886  30.955  1.00  0.00    -0.458 OA
BRANCH  24  25
ATOM     25  C   UNL A   1      32.707  36.059  32.235  1.00  0.00     0.338 C 
ATOM     26  O   UNL A   1      32.251  36.827  33.063  1.00  0.00    -0.246 OA
BRANCH  25  27
ATOM     27  C   UNL A   1      33.853  35.180  32.521  1.00  0.00     0.060 A 
ATOM     28  C   UNL A   1      33.657  33.880  32.991  1.00  0.00     0.016 A 
ATOM     29  C   UNL A   1      35.140  35.705  32.415  1.00  0.00     0.016 A 
ATOM     30  C   UNL A   1      34.750  33.115  33.403  1.00  0.00     0.010 A 
ATOM     31  C   UNL A   1      36.237  34.914  32.763  1.00  0.00     0.010 A 
ATOM     32  C   UNL A   1      36.052  33.620  33.279  1.00  0.00    -0.014 A 
BRANCH  32  33
ATOM     33  C   UNL A   1      37.231  32.811  33.683  1.00  0.00     0.031 A 
ATOM     34  C   UNL A   1      37.924  33.083  34.989  1.00  0.00     0.074 A 
ATOM     35  C   UNL A   1      37.709  31.862  32.856  1.00  0.00     0.049 A 
ATOM     36  N   UNL A   1      39.064  32.619  35.436  1.00  0.00    -0.248 NA
ATOM     37  C   UNL A   1      37.249  34.009  35.912  1.00  0.00     0.031 C 
ATOM     38  C   UNL A   1      37.117  31.483  31.573  1.00  0.00     0.029 A 
ATOM     39  N   UNL A   1      38.816  31.057  32.964  1.00  0.00    -0.354 N 
ATOM     40  C   UNL A   1      39.263  33.225  36.670  1.00  0.00     0.074 A 
ATOM     41  C   UNL A   1      38.128  34.093  36.901  1.00  0.00     0.031 C 
ATOM     42  C   UNL A   1      37.866  30.520  31.012  1.00  0.00     0.029 A 
ATOM     43  C   UNL A   1      39.021  30.259  31.865  1.00  0.00     0.049 A 
ATOM     44  H   UNL A   1      39.405  31.051  33.754  1.00  0.00     0.167 HD
ATOM     45  C   UNL A   1      40.299  33.069  37.528  1.00  0.00     0.037 A 
ATOM     46  C   UNL A   1      40.046  29.442  31.558  1.00  0.00     0.037 A 
ATOM     47  C   UNL A   1      41.410  32.178  37.311  1.00  0.00     0.049 A 
ATOM     48  C   UNL A   1      41.198  29.310  32.514  1.00  0.00     0.074 A 
ATOM     49  C   UNL A   1      42.490  31.926  38.140  1.00  0.00     0.029 A 
ATOM     50  N   UNL A   1      41.581  31.390  36.183  1.00  0.00    -0.354 N 
ATOM     51  N   UNL A   1      41.382  29.894  33.672  1.00  0.00    -0.248 NA
ATOM     52  C   UNL A   1      42.291  28.414  32.112  1.00  0.00     0.031 C 
ATOM     53  C   UNL A   1      43.332  31.012  37.498  1.00  0.00     0.029 A 
ATOM     54  C   UNL A   1      42.757  30.664  36.287  1.00  0.00     0.049 A 
ATOM     55  H   UNL A   1      40.959  31.352  35.421  1.00  0.00     0.167 HD
ATOM     56  C   UNL A   1      42.600  29.427  34.144  1.00  0.00     0.074 A 
ATOM     57  C   UNL A   1      43.105  28.499  33.155  1.00  0.00     0.031 C 
ATOM     58  C   UNL A   1      43.244  29.743  35.294  1.00  0.00     0.037 A 
BRANCH  45  59
ATOM     59  C   UNL A   1      40.298  33.896  38.779  1.00  0.00     0.064 A 
ATOM     60  C   UNL A   1      39.644  33.473  39.943  1.00  0.00     0.173 A 
ATOM     61  C   UNL A   1      41.006  35.108  38.825  1.00  0.00     0.173 A 
ATOM     62  F   UNL A   1      38.943  32.329  39.947  1.00  0.00    -0.203 F 
ATOM     63  C   UNL A   1      39.684  34.241  41.106  1.00  0.00     0.198 A 
ATOM     64  C   UNL A   1      41.064  35.861  39.994  1.00  0.00     0.198 A 
ATOM     65  F   UNL A   1      41.653  35.554  37.737  1.00  0.00    -0.203 F 
ATOM     66  F   UNL A   1      39.023  33.835  42.198  1.00  0.00    -0.200 F 
ATOM     67  C   UNL A   1      40.399  35.430  41.132  1.00  0.00     0.200 A 
ATOM     68  F   UNL A   1      41.764  37.004  40.020  1.00  0.00    -0.200 F 
ATOM     69  F   UNL A   1      40.444  36.162  42.254  1.00  0.00    -0.200 F 
ENDBRANCH  45  59
BRANCH  46  70
ATOM     70  C   UNL A   1      40.038  28.706  30.268  1.00  0.00     0.064 A 
ATOM     71  C   UNL A   1      40.650  29.244  29.130  1.00  0.00     0.173 A 
ATOM     72  C   UNL A   1      39.423  27.452  30.150  1.00  0.00     0.173 A 
ATOM     73  F   UNL A   1      41.229  30.453  29.188  1.00  0.00    -0.203 F 
ATOM     74  C   UNL A   1      40.640  28.558  27.916  1.00  0.00     0.198 A 
ATOM     75  C   UNL A   1      39.436  26.755  28.944  1.00  0.00     0.198 A 
ATOM     76  F   UNL A   1      38.822  26.895  31.213  1.00  0.00    -0.203 F 
ATOM     77  F   UNL A   1      41.200  29.112  26.832  1.00  0.00    -0.200 F 
ATOM     78  C   UNL A   1      40.039  27.312  27.827  1.00  0.00     0.200 A 
ATOM     79  F   UNL A   1      38.864  25.545  28.865  1.00  0.00    -0.200 F 
ATOM     80  F   UNL A   1      40.035  26.650  26.661  1.00  0.00    -0.200 F 
ENDBRANCH  46  70
BRANCH  58  81
ATOM     81  C   UNL A   1      44.552  29.059  35.555  1.00  0.00     0.064 A 
ATOM     82  C   UNL A   1      45.770  29.635  35.164  1.00  0.00     0.173 A 
ATOM     83  C   UNL A   1      44.590  27.829  36.228  1.00  0.00     0.173 A 
ATOM     84  F   UNL A   1      45.784  30.802  34.502  1.00  0.00    -0.203 F 
ATOM     85  C   UNL A   1      46.979  28.993  35.421  1.00  0.00     0.198 A 
ATOM     86  C   UNL A   1      45.801  27.202  36.504  1.00  0.00     0.198 A 
ATOM     87  F   UNL A   1      43.452  27.240  36.624  1.00  0.00    -0.203 F 
ATOM     88  F   UNL A   1      48.128  29.540  35.004  1.00  0.00    -0.200 F 
ATOM     89  C   UNL A   1      46.993  27.781  36.095  1.00  0.00     0.200 A 
ATOM     90  F   UNL A   1      45.814  26.035  37.163  1.00  0.00    -0.200 F 
ATOM     91  F   UNL A   1      48.158  27.166  36.345  1.00  0.00    -0.200 F 
ENDBRANCH  58  81
ENDBRANCH  32  33
ENDBRANCH  25  27
ENDBRANCH  24  25
ENDBRANCH  23  24
ENDBRANCH   1  23
TORSDOF 14
ENDMDL
MODEL 3
REMARK VINA RESULT:     -11.2      5.190      9.802
REMARK SMILES CC1(C)C(C(=O)Nc2ccc(CC(=O)OCCOC(=O)c3ccc(-c4c5nc(c(-c6c(F)c(F)c(F)c(F)c6F)c6ccc([nH]6)c(-c6c(F)c(F)c(F)c(F)c6F)c6nc(c(-c7c(F)c(F)c(F)c(F)c7F)c7ccc4[nH]7)C=C6)C=C5)cc3)cc2)C1(C)C
REMARK SMILES IDX 16 1 15 2 13 3 14 4 12 5 11 6 8 7 9 8 85 9 10 10 84 11 7 12
REMARK SMILES IDX 5 13 6 14 4 16 1 17 2 18 3 19 86 20 87 21 88 22 17 23 18 24
REMARK SMILES IDX 19 25 20 26 21 27 22 28 83 29 23 30 82 31 24 32 25 33 26 34
REMARK SMILES IDX 76 35 27 36 81 37 75 38 77 39 28 40 80 41 74 42 73 43 29 45
REMARK SMILES IDX 61 46 41 47 60 48 42 49 45 50 59 51 78 52 43 53 44 54 58 56
REMARK SMILES IDX 79 57 46 58 30 59 31 60 39 61 32 62 33 63 37 64 40 65 34 66
REMARK SMILES IDX 35 67 38 68 36 69 62 70 63 71 71 72 64 73 65 74 69 75 72 76
REMARK SMILES IDX 66 77 67 78 70 79 68 80 47 81 48 82 56 83 49 84 50 85 54 86
REMARK SMILES IDX 57 87 51 88 52 89 55 90 53 91
REMARK H PARENT 7 15 77 44 45 55
REMARK Flexibility Score: inf
ROOT
ATOM      1  C   UNL A   1      43.921  21.932  25.585  1.00  0.00     0.274 C 
ENDROOT
BRANCH   1   2
ATOM      2  O   UNL A   1      42.626  21.334  25.413  1.00  0.00    -0.462 OA
BRANCH   2   3
ATOM      3  C   UNL A   1      42.208  20.549  26.437  1.00  0.00     0.310 C 
ATOM      4  O   UNL A   1      42.445  19.350  26.554  1.00  0.00    -0.252 OA
BRANCH   3   5
ATOM      5  C   UNL A   1      41.362  21.291  27.426  1.00  0.00     0.158 C 
BRANCH   5   6
ATOM      6  C   UNL A   1      40.028  21.806  26.946  1.00  0.00    -0.037 A 
ATOM      7  C   UNL A   1      38.011  23.032  25.485  1.00  0.00     0.041 A 
ATOM      8  C   UNL A   1      38.163  21.652  25.395  1.00  0.00     0.026 A 
ATOM      9  C   UNL A   1      38.667  23.741  26.489  1.00  0.00     0.026 A 
ATOM     10  C   UNL A   1      39.200  21.044  26.106  1.00  0.00     0.006 A 
ATOM     11  C   UNL A   1      39.674  23.127  27.227  1.00  0.00     0.006 A 
BRANCH   7  12
ATOM     12  N   UNL A   1      37.350  23.703  24.448  1.00  0.00    -0.326 N 
ATOM     13  C   UNL A   1      36.255  23.185  23.800  1.00  0.00     0.228 C 
ATOM     14  O   UNL A   1      36.355  22.651  22.700  1.00  0.00    -0.274 OA
ATOM     15  H   UNL A   1      37.687  24.586  24.170  1.00  0.00     0.169 HD
BRANCH  13  16
ATOM     16  C   UNL A   1      34.878  23.506  24.317  1.00  0.00     0.091 C 
ATOM     17  C   UNL A   1      32.481  22.715  23.753  1.00  0.00     0.012 C 
ATOM     18  C   UNL A   1      33.780  22.443  24.488  1.00  0.00    -0.017 C 
ATOM     19  C   UNL A   1      34.061  20.959  24.504  1.00  0.00     0.012 C 
ATOM     20  C   UNL A   1      34.215  23.333  25.679  1.00  0.00    -0.017 C 
ATOM     21  C   UNL A   1      33.257  24.422  26.132  1.00  0.00     0.012 C 
ATOM     22  C   UNL A   1      34.973  22.796  26.868  1.00  0.00     0.012 C 
ENDBRANCH  13  16
ENDBRANCH   7  12
ENDBRANCH   5   6
ENDBRANCH   3   5
ENDBRANCH   2   3
ENDBRANCH   1   2
BRANCH   1  23
ATOM     23  C   UNL A   1      44.213  22.865  24.412  1.00  0.00     0.275 C 
BRANCH  23  24
ATOM     24  O   UNL A   1      43.538  24.124  24.608  1.00  0.00    -0.458 OA
BRANCH  24  25
ATOM     25  C   UNL A   1      44.308  25.149  25.033  1.00  0.00     0.338 C 
ATOM     26  O   UNL A   1      45.407  25.481  24.626  1.00  0.00    -0.246 OA
BRANCH  25  27
ATOM     27  C   UNL A   1      43.636  25.841  26.145  1.00  0.00     0.060 A 
ATOM     28  C   UNL A   1      43.926  27.175  26.437  1.00  0.00     0.016 A 
ATOM     29  C   UNL A   1      42.783  25.107  26.969  1.00  0.00     0.016 A 
ATOM     30  C   UNL A   1      43.398  27.768  27.585  1.00  0.00     0.010 A 
ATOM     31  C   UNL A   1      42.202  25.722  28.080  1.00  0.00     0.010 A 
ATOM     32  C   UNL A   1      42.518  27.051  28.410  1.00  0.00    -0.014 A 
BRANCH  32  33
ATOM     33  C   UNL A   1      41.922  27.674  29.620  1.00  0.00     0.031 A 
ATOM     34  C   UNL A   1      40.643  28.457  29.516  1.00  0.00     0.074 A 
ATOM     35  C   UNL A   1      42.552  27.576  30.805  1.00  0.00     0.049 A 
ATOM     36  N   UNL A   1      40.063  29.223  30.407  1.00  0.00    -0.248 NA
ATOM     37  C   UNL A   1      39.924  28.377  28.235  1.00  0.00     0.031 C 
ATOM     38  C   UNL A   1      43.786  26.827  31.047  1.00  0.00     0.029 A 
ATOM     39  N   UNL A   1      42.252  28.128  32.026  1.00  0.00    -0.354 N 
ATOM     40  C   UNL A   1      38.937  29.745  29.783  1.00  0.00     0.074 A 
ATOM     41  C   UNL A   1      38.916  29.214  28.437  1.00  0.00     0.031 C 
ATOM     42  C   UNL A   1      44.137  26.965  32.335  1.00  0.00     0.029 A 
ATOM     43  C   UNL A   1      43.191  27.861  32.992  1.00  0.00     0.049 A 
ATOM     44  H   UNL A   1      41.441  28.662  32.193  1.00  0.00     0.167 HD
ATOM     45  C   UNL A   1      38.010  30.592  30.291  1.00  0.00     0.037 A 
ATOM     46  C   UNL A   1      43.302  28.320  34.253  1.00  0.00     0.037 A 
ATOM     47  C   UNL A   1      38.016  31.092  31.642  1.00  0.00     0.049 A 
ATOM     48  C   UNL A   1      42.276  29.283  34.782  1.00  0.00     0.074 A 
ATOM     49  C   UNL A   1      37.098  31.926  32.258  1.00  0.00     0.029 A 
ATOM     50  N   UNL A   1      38.986  30.799  32.588  1.00  0.00    -0.354 N 
ATOM     51  N   UNL A   1      41.222  29.779  34.183  1.00  0.00    -0.248 NA
ATOM     52  C   UNL A   1      42.463  29.757  36.160  1.00  0.00     0.031 C 
ATOM     53  C   UNL A   1      37.532  32.166  33.566  1.00  0.00     0.029 A 
ATOM     54  C   UNL A   1      38.699  31.450  33.777  1.00  0.00     0.049 A 
ATOM     55  H   UNL A   1      39.764  30.216  32.437  1.00  0.00     0.167 HD
ATOM     56  C   UNL A   1      40.612  30.611  35.111  1.00  0.00     0.074 A 
ATOM     57  C   UNL A   1      41.405  30.540  36.320  1.00  0.00     0.031 C 
ATOM     58  C   UNL A   1      39.498  31.368  34.972  1.00  0.00     0.037 A 
BRANCH  45  59
ATOM     59  C   UNL A   1      36.915  31.055  29.377  1.00  0.00     0.064 A 
ATOM     60  C   UNL A   1      35.845  30.222  29.025  1.00  0.00     0.173 A 
ATOM     61  C   UNL A   1      36.914  32.370  28.886  1.00  0.00     0.173 A 
ATOM     62  F   UNL A   1      35.806  28.952  29.458  1.00  0.00    -0.203 F 
ATOM     63  C   UNL A   1      34.820  30.683  28.201  1.00  0.00     0.198 A 
ATOM     64  C   UNL A   1      35.877  32.835  28.083  1.00  0.00     0.198 A 
ATOM     65  F   UNL A   1      37.915  33.208  29.198  1.00  0.00    -0.203 F 
ATOM     66  F   UNL A   1      33.823  29.860  27.850  1.00  0.00    -0.200 F 
ATOM     67  C   UNL A   1      34.833  31.991  27.737  1.00  0.00     0.200 A 
ATOM     68  F   UNL A   1      35.888  34.102  27.643  1.00  0.00    -0.200 F 
ATOM     69  F   UNL A   1      33.842  32.435  26.952  1.00  0.00    -0.200 F 
ENDBRANCH  45  59
BRANCH  46  70
ATOM     70  C   UNL A   1      44.450  27.895  35.092  1.00  0.00     0.064 A 
ATOM     71  C   UNL A   1      45.660  28.600  35.068  1.00  0.00     0.173 A 
ATOM     72  C   UNL A   1      44.361  26.778  35.936  1.00  0.00     0.173 A 
ATOM     73  F   UNL A   1      45.802  29.659  34.257  1.00  0.00    -0.203 F 
ATOM     74  C   UNL A   1      46.742  28.199  35.850  1.00  0.00     0.198 A 
ATOM     75  C   UNL A   1      45.433  26.394  36.737  1.00  0.00     0.198 A 
ATOM     76  F   UNL A   1      43.223  26.069  35.994  1.00  0.00    -0.203 F 
ATOM     77  F   UNL A   1      47.900  28.868  35.780  1.00  0.00    -0.200 F 
ATOM     78  C   UNL A   1      46.624  27.101  36.689  1.00  0.00     0.200 A 
ATOM     79  F   UNL A   1      45.312  25.339  37.556  1.00  0.00    -0.200 F 
ATOM     80  F   UNL A   1      47.663  26.720  37.446  1.00  0.00    -0.200 F 
ENDBRANCH  46  70
BRANCH  58  81
ATOM     81  C   UNL A   1      39.055  32.160  36.166  1.00  0.00     0.064 A 
ATOM     82  C   UNL A   1      39.461  33.489  36.353  1.00  0.00     0.173 A 
ATOM     83  C   UNL A   1      38.195  31.592  37.116  1.00  0.00     0.173 A 
ATOM     84  F   UNL A   1      40.298  34.069  35.479  1.00  0.00    -0.203 F 
ATOM     85  C   UNL A   1      39.035  34.216  37.461  1.00  0.00     0.198 A 
ATOM     86  C   UNL A   1      37.752  32.330  38.211  1.00  0.00     0.198 A 
ATOM     87  F   UNL A   1      37.777  30.325  36.980  1.00  0.00    -0.203 F 
ATOM     88  F   UNL A   1      39.466  35.471  37.643  1.00  0.00    -0.200 F 
ATOM     89  C   UNL A   1      38.178  33.638  38.386  1.00  0.00     0.200 A 
ATOM     90  F   UNL A   1      36.917  31.772  39.099  1.00  0.00    -0.200 F 
ATOM     91  F   UNL A   1      37.766  34.340  39.450  1.00  0.00    -0.200 F 
ENDBRANCH  58  81
ENDBRANCH  32  33
ENDBRANCH  25  27
ENDBRANCH  24  25
ENDBRANCH  23  24
ENDBRANCH   1  23
TORSDOF 14
ENDMDL
