MODEL 1
REMARK VINA RESULT:     -10.6      0.000      0.000
REMARK SMILES CCN(CCC#N)C(=O)c1ccncc1/C=C/C(=O)OCCOC(=O)c1ccc(-c2c3nc(c(-c4c(F)c(F)c(F)c(F)c4F)c4ccc([nH]4)c(-c4c(F)c(F)c(F)c(F)c4F)c4nc(c(-c5c(F)c(F)c(F)c(F)c5F)c5ccc2[nH]5)C=C4)C=C3)cc1
REMARK SMILES IDX 18 1 19 2 17 3 16 4 15 5 10 6 11 7 12 8 14 9 13 10 8 11 9 12
REMARK SMILES IDX 3 13 2 14 1 15 4 16 5 17 6 18 7 19 20 20 21 21 22 22 23 23
REMARK SMILES IDX 24 24 25 25 26 26 27 27 88 28 28 29 87 30 29 31 30 32 31 33
REMARK SMILES IDX 81 34 32 35 86 36 80 37 82 38 33 39 85 40 79 41 78 42 34 44
REMARK SMILES IDX 66 45 46 46 65 47 47 48 50 49 64 50 83 51 48 52 49 53 63 55
REMARK SMILES IDX 84 56 51 57 35 58 36 59 44 60 37 61 38 62 42 63 45 64 39 65
REMARK SMILES IDX 40 66 43 67 41 68 67 69 68 70 76 71 69 72 70 73 74 74 77 75
REMARK SMILES IDX 71 76 72 77 75 78 73 79 52 80 53 81 61 82 54 83 55 84 59 85
REMARK SMILES IDX 62 86 56 87 57 88 60 89 58 90
REMARK H PARENT 82 43 50 54
REMARK Flexibility Score: inf
ROOT
ATOM      1  C   UNL A   1      32.308  27.701  26.639  1.00  0.00     0.330 C 
ATOM      2  O   UNL A   1      31.505  27.690  27.562  1.00  0.00    -0.247 OA
ENDROOT
BRANCH   1   3
ATOM      3  C   UNL A   1      32.905  26.447  26.146  1.00  0.00     0.094 C 
ATOM      4  C   UNL A   1      33.834  26.326  25.183  1.00  0.00     0.018 C 
BRANCH   4   5
ATOM      5  C   UNL A   1      34.297  24.985  24.797  1.00  0.00     0.006 A 
ATOM      6  C   UNL A   1      34.058  24.412  23.545  1.00  0.00     0.050 A 
ATOM      7  C   UNL A   1      34.799  23.309  23.132  1.00  0.00     0.034 A 
ATOM      8  C   UNL A   1      35.597  22.670  24.059  1.00  0.00     0.112 A 
ATOM      9  C   UNL A   1      35.098  24.240  25.662  1.00  0.00     0.119 A 
ATOM     10  N   UNL A   1      35.725  23.086  25.333  1.00  0.00    -0.264 NA
BRANCH   6  11
ATOM     11  C   UNL A   1      33.033  24.956  22.633  1.00  0.00     0.254 C 
ATOM     12  O   UNL A   1      33.411  25.471  21.584  1.00  0.00    -0.269 OA
BRANCH  11  13
ATOM     13  N   UNL A   1      31.684  24.920  23.031  1.00  0.00    -0.338 N 
BRANCH  13  14
ATOM     14  C   UNL A   1      31.011  26.215  23.186  1.00  0.00     0.116 C 
ATOM     15  C   UNL A   1      29.661  26.081  23.882  1.00  0.00     0.027 C 
ENDBRANCH  13  14
BRANCH  13  16
ATOM     16  C   UNL A   1      30.910  23.721  23.423  1.00  0.00     0.135 C 
BRANCH  16  17
ATOM     17  C   UNL A   1      31.460  23.010  24.673  1.00  0.00     0.141 C 
BRANCH  17  18
ATOM     18  C   UNL A   1      30.815  23.446  25.920  1.00  0.00     0.064 C 
ATOM     19  N   UNL A   1      30.319  23.792  26.908  1.00  0.00    -0.198 NA
ENDBRANCH  17  18
ENDBRANCH  16  17
ENDBRANCH  13  16
ENDBRANCH  11  13
ENDBRANCH   6  11
ENDBRANCH   4   5
ENDBRANCH   1   3
BRANCH   1  20
ATOM     20  O   UNL A   1      32.684  28.776  25.913  1.00  0.00    -0.459 OA
BRANCH  20  21
ATOM     21  C   UNL A   1      31.613  29.638  25.495  1.00  0.00     0.275 C 
BRANCH  21  22
ATOM     22  C   UNL A   1      31.775  31.040  26.092  1.00  0.00     0.275 C 
BRANCH  22  23
ATOM     23  O   UNL A   1      32.507  31.023  27.336  1.00  0.00    -0.458 OA
BRANCH  23  24
ATOM     24  C   UNL A   1      33.378  32.046  27.504  1.00  0.00     0.338 C 
ATOM     25  O   UNL A   1      33.154  33.239  27.373  1.00  0.00    -0.246 OA
BRANCH  24  26
ATOM     26  C   UNL A   1      34.679  31.542  27.973  1.00  0.00     0.060 A 
ATOM     27  C   UNL A   1      34.780  30.187  28.303  1.00  0.00     0.016 A 
ATOM     28  C   UNL A   1      35.748  32.408  28.207  1.00  0.00     0.016 A 
ATOM     29  C   UNL A   1      35.935  29.699  28.908  1.00  0.00     0.010 A 
ATOM     30  C   UNL A   1      36.915  31.911  28.797  1.00  0.00     0.010 A 
ATOM     31  C   UNL A   1      37.009  30.559  29.177  1.00  0.00    -0.014 A 
BRANCH  31  32
ATOM     32  C   UNL A   1      38.193  30.055  29.920  1.00  0.00     0.031 A 
ATOM     33  C   UNL A   1      38.445  30.517  31.329  1.00  0.00     0.074 A 
ATOM     34  C   UNL A   1      39.023  29.166  29.345  1.00  0.00     0.049 A 
ATOM     35  N   UNL A   1      39.450  30.249  32.126  1.00  0.00    -0.248 NA
ATOM     36  C   UNL A   1      37.432  31.404  31.920  1.00  0.00     0.031 C 
ATOM     37  C   UNL A   1      38.864  28.611  28.001  1.00  0.00     0.029 A 
ATOM     38  N   UNL A   1      40.169  28.574  29.818  1.00  0.00    -0.354 N 
ATOM     39  C   UNL A   1      39.199  30.946  33.302  1.00  0.00     0.074 A 
ATOM     40  C   UNL A   1      37.967  31.679  33.101  1.00  0.00     0.031 C 
ATOM     41  C   UNL A   1      39.868  27.752  27.761  1.00  0.00     0.029 A 
ATOM     42  C   UNL A   1      40.771  27.741  28.908  1.00  0.00     0.049 A 
ATOM     43  H   UNL A   1      40.525  28.734  30.722  1.00  0.00     0.167 HD
ATOM     44  C   UNL A   1      39.925  30.963  34.446  1.00  0.00     0.037 A 
ATOM     45  C   UNL A   1      41.934  27.066  28.981  1.00  0.00     0.037 A 
ATOM     46  C   UNL A   1      41.148  30.226  34.640  1.00  0.00     0.049 A 
ATOM     47  C   UNL A   1      42.762  27.166  30.236  1.00  0.00     0.074 A 
ATOM     48  C   UNL A   1      41.955  30.171  35.763  1.00  0.00     0.029 A 
ATOM     49  N   UNL A   1      41.746  29.419  33.680  1.00  0.00    -0.354 N 
ATOM     50  N   UNL A   1      42.516  27.822  31.344  1.00  0.00    -0.248 NA
ATOM     51  C   UNL A   1      44.033  26.428  30.249  1.00  0.00     0.031 C 
ATOM     52  C   UNL A   1      43.074  29.388  35.462  1.00  0.00     0.029 A 
ATOM     53  C   UNL A   1      42.925  28.885  34.179  1.00  0.00     0.049 A 
ATOM     54  H   UNL A   1      41.386  29.251  32.780  1.00  0.00     0.167 HD
ATOM     55  C   UNL A   1      43.574  27.541  32.200  1.00  0.00     0.074 A 
ATOM     56  C   UNL A   1      44.458  26.644  31.485  1.00  0.00     0.031 C 
ATOM     57  C   UNL A   1      43.791  27.981  33.464  1.00  0.00     0.037 A 
BRANCH  44  58
ATOM     58  C   UNL A   1      39.434  31.833  35.570  1.00  0.00     0.064 A 
ATOM     59  C   UNL A   1      38.517  31.368  36.526  1.00  0.00     0.173 A 
ATOM     60  C   UNL A   1      39.915  33.145  35.714  1.00  0.00     0.173 A 
ATOM     61  F   UNL A   1      38.017  30.127  36.433  1.00  0.00    -0.203 F 
ATOM     62  C   UNL A   1      38.075  32.192  37.559  1.00  0.00     0.198 A 
ATOM     63  C   UNL A   1      39.500  33.953  36.769  1.00  0.00     0.198 A 
ATOM     64  F   UNL A   1      40.799  33.641  34.836  1.00  0.00    -0.203 F 
ATOM     65  F   UNL A   1      37.154  31.744  38.424  1.00  0.00    -0.200 F 
ATOM     66  C   UNL A   1      38.573  33.480  37.684  1.00  0.00     0.200 A 
ATOM     67  F   UNL A   1      39.997  35.191  36.899  1.00  0.00    -0.200 F 
ATOM     68  F   UNL A   1      38.152  34.268  38.683  1.00  0.00    -0.200 F 
ENDBRANCH  44  58
BRANCH  45  69
ATOM     69  C   UNL A   1      42.400  26.247  27.828  1.00  0.00     0.064 A 
ATOM     70  C   UNL A   1      41.949  24.932  27.644  1.00  0.00     0.173 A 
ATOM     71  C   UNL A   1      43.329  26.750  26.905  1.00  0.00     0.173 A 
ATOM     72  F   UNL A   1      41.078  24.396  28.511  1.00  0.00    -0.203 F 
ATOM     73  C   UNL A   1      42.433  24.144  26.602  1.00  0.00     0.198 A 
ATOM     74  C   UNL A   1      43.784  25.973  25.842  1.00  0.00     0.198 A 
ATOM     75  F   UNL A   1      43.795  28.001  27.034  1.00  0.00    -0.203 F 
ATOM     76  F   UNL A   1      42.035  22.869  26.490  1.00  0.00    -0.200 F 
ATOM     77  C   UNL A   1      43.346  24.666  25.699  1.00  0.00     0.200 A 
ATOM     78  F   UNL A   1      44.654  26.488  24.963  1.00  0.00    -0.200 F 
ATOM     79  F   UNL A   1      43.813  23.906  24.699  1.00  0.00    -0.200 F 
ENDBRANCH  45  69
BRANCH  57  80
ATOM     80  C   UNL A   1      44.998  27.446  34.185  1.00  0.00     0.064 A 
ATOM     81  C   UNL A   1      46.234  28.108  34.167  1.00  0.00     0.173 A 
ATOM     82  C   UNL A   1      44.905  26.258  34.927  1.00  0.00     0.173 A 
ATOM     83  F   UNL A   1      46.384  29.241  33.465  1.00  0.00    -0.203 F 
ATOM     84  C   UNL A   1      47.341  27.578  34.828  1.00  0.00     0.198 A 
ATOM     85  C   UNL A   1      46.001  25.754  35.622  1.00  0.00     0.198 A 
ATOM     86  F   UNL A   1      43.744  25.586  34.990  1.00  0.00    -0.203 F 
ATOM     87  F   UNL A   1      48.529  28.193  34.739  1.00  0.00    -0.200 F 
ATOM     88  C   UNL A   1      47.222  26.407  35.560  1.00  0.00     0.200 A 
ATOM     89  F   UNL A   1      45.876  24.634  36.347  1.00  0.00    -0.200 F 
ATOM     90  F   UNL A   1      48.285  25.903  36.201  1.00  0.00    -0.200 F 
ENDBRANCH  57  80
ENDBRANCH  31  32
ENDBRANCH  24  26
ENDBRANCH  23  24
ENDBRANCH  22  23
ENDBRANCH  21  22
ENDBRANCH  20  21
ENDBRANCH   1  20
TORSDOF 18
ENDMDL
MODEL 2
REMARK VINA RESULT:     -10.4      1.275      2.045
REMARK SMILES CCN(CCC#N)C(=O)c1ccncc1/C=C/C(=O)OCCOC(=O)c1ccc(-c2c3nc(c(-c4c(F)c(F)c(F)c(F)c4F)c4ccc([nH]4)c(-c4c(F)c(F)c(F)c(F)c4F)c4nc(c(-c5c(F)c(F)c(F)c(F)c5F)c5ccc2[nH]5)C=C4)C=C3)cc1
REMARK SMILES IDX 18 1 19 2 17 3 16 4 15 5 10 6 11 7 12 8 14 9 13 10 8 11 9 12
REMARK SMILES IDX 3 13 2 14 1 15 4 16 5 17 6 18 7 19 20 20 21 21 22 22 23 23
REMARK SMILES IDX 24 24 25 25 26 26 27 27 88 28 28 29 87 30 29 31 30 32 31 33
REMARK SMILES IDX 81 34 32 35 86 36 80 37 82 38 33 39 85 40 79 41 78 42 34 44
REMARK SMILES IDX 66 45 46 46 65 47 47 48 50 49 64 50 83 51 48 52 49 53 63 55
REMARK SMILES IDX 84 56 51 57 35 58 36 59 44 60 37 61 38 62 42 63 45 64 39 65
REMARK SMILES IDX 40 66 43 67 41 68 67 69 68 70 76 71 69 72 70 73 74 74 77 75
REMARK SMILES IDX 71 76 72 77 75 78 73 79 52 80 53 81 61 82 54 83 55 84 59 85
REMARK SMILES IDX 62 86 56 87 57 88 60 89 58 90
REMARK H PARENT 82 43 50 54
REMARK Flexibility Score: inf
ROOT
ATOM      1  C   UNL A   1      33.146  29.173  26.313  1.00  0.00     0.330 C 
ATOM      2  O   UNL A   1      33.262  28.736  27.450  1.00  0.00    -0.247 OA
ENDROOT
BRANCH   1   3
ATOM      3  C   UNL A   1      33.105  28.261  25.156  1.00  0.00     0.094 C 
ATOM      4  C   UNL A   1      33.826  27.139  24.994  1.00  0.00     0.018 C 
BRANCH   4   5
ATOM      5  C   UNL A   1      33.675  26.363  23.754  1.00  0.00     0.006 A 
ATOM      6  C   UNL A   1      33.403  24.992  23.725  1.00  0.00     0.050 A 
ATOM      7  C   UNL A   1      32.942  24.400  22.553  1.00  0.00     0.034 A 
ATOM      8  C   UNL A   1      32.976  25.137  21.387  1.00  0.00     0.112 A 
ATOM      9  C   UNL A   1      33.708  27.001  22.515  1.00  0.00     0.119 A 
ATOM     10  N   UNL A   1      33.396  26.415  21.335  1.00  0.00    -0.264 NA
BRANCH   6  11
ATOM     11  C   UNL A   1      33.588  24.145  24.920  1.00  0.00     0.254 C 
ATOM     12  O   UNL A   1      34.736  23.878  25.263  1.00  0.00    -0.269 OA
BRANCH  11  13
ATOM     13  N   UNL A   1      32.450  23.633  25.569  1.00  0.00    -0.338 N 
BRANCH  13  14
ATOM     14  C   UNL A   1      31.790  24.521  26.534  1.00  0.00     0.116 C 
ATOM     15  C   UNL A   1      30.395  24.932  26.074  1.00  0.00     0.027 C 
ENDBRANCH  13  14
BRANCH  13  16
ATOM     16  C   UNL A   1      31.919  22.254  25.468  1.00  0.00     0.135 C 
BRANCH  16  17
ATOM     17  C   UNL A   1      32.808  21.309  24.640  1.00  0.00     0.141 C 
BRANCH  17  18
ATOM     18  C   UNL A   1      32.491  19.888  24.842  1.00  0.00     0.064 C 
ATOM     19  N   UNL A   1      32.233  18.772  25.013  1.00  0.00    -0.198 NA
ENDBRANCH  17  18
ENDBRANCH  16  17
ENDBRANCH  13  16
ENDBRANCH  11  13
ENDBRANCH   6  11
ENDBRANCH   4   5
ENDBRANCH   1   3
BRANCH   1  20
ATOM     20  O   UNL A   1      32.959  30.465  25.964  1.00  0.00    -0.459 OA
BRANCH  20  21
ATOM     21  C   UNL A   1      31.788  31.086  26.518  1.00  0.00     0.275 C 
BRANCH  21  22
ATOM     22  C   UNL A   1      32.021  32.583  26.747  1.00  0.00     0.275 C 
BRANCH  22  23
ATOM     23  O   UNL A   1      32.749  32.844  27.965  1.00  0.00    -0.458 OA
BRANCH  23  24
ATOM     24  C   UNL A   1      33.866  33.594  27.818  1.00  0.00     0.338 C 
ATOM     25  O   UNL A   1      33.936  34.755  27.446  1.00  0.00    -0.246 OA
BRANCH  24  26
ATOM     26  C   UNL A   1      35.052  32.843  28.263  1.00  0.00     0.060 A 
ATOM     27  C   UNL A   1      34.864  31.552  28.763  1.00  0.00     0.016 A 
ATOM     28  C   UNL A   1      36.311  33.443  28.310  1.00  0.00     0.016 A 
ATOM     29  C   UNL A   1      35.925  30.867  29.350  1.00  0.00     0.010 A 
ATOM     30  C   UNL A   1      37.381  32.746  28.882  1.00  0.00     0.010 A 
ATOM     31  C   UNL A   1      37.191  31.465  29.431  1.00  0.00    -0.014 A 
BRANCH  31  32
ATOM     32  C   UNL A   1      38.290  30.774  30.155  1.00  0.00     0.031 A 
ATOM     33  C   UNL A   1      38.541  31.083  31.605  1.00  0.00     0.074 A 
ATOM     34  C   UNL A   1      39.041  29.853  29.523  1.00  0.00     0.049 A 
ATOM     35  N   UNL A   1      39.485  30.641  32.399  1.00  0.00    -0.248 NA
ATOM     36  C   UNL A   1      37.608  32.020  32.248  1.00  0.00     0.031 C 
ATOM     37  C   UNL A   1      38.870  29.436  28.132  1.00  0.00     0.029 A 
ATOM     38  N   UNL A   1      40.102  29.103  29.969  1.00  0.00    -0.354 N 
ATOM     39  C   UNL A   1      39.270  31.257  33.626  1.00  0.00     0.074 A 
ATOM     40  C   UNL A   1      38.128  32.133  33.462  1.00  0.00     0.031 C 
ATOM     41  C   UNL A   1      39.785  28.498  27.840  1.00  0.00     0.029 A 
ATOM     42  C   UNL A   1      40.643  28.291  29.004  1.00  0.00     0.049 A 
ATOM     43  H   UNL A   1      40.441  29.145  30.892  1.00  0.00     0.167 HD
ATOM     44  C   UNL A   1      39.954  31.098  34.784  1.00  0.00     0.037 A 
ATOM     45  C   UNL A   1      41.726  27.490  29.045  1.00  0.00     0.037 A 
ATOM     46  C   UNL A   1      41.086  30.219  34.941  1.00  0.00     0.049 A 
ATOM     47  C   UNL A   1      42.517  27.393  30.323  1.00  0.00     0.074 A 
ATOM     48  C   UNL A   1      41.844  29.982  36.075  1.00  0.00     0.029 A 
ATOM     49  N   UNL A   1      41.628  29.438  33.929  1.00  0.00    -0.354 N 
ATOM     50  N   UNL A   1      42.304  27.974  31.479  1.00  0.00    -0.248 NA
ATOM     51  C   UNL A   1      43.701  26.524  30.302  1.00  0.00     0.031 C 
ATOM     52  C   UNL A   1      42.884  29.111  35.733  1.00  0.00     0.029 A 
ATOM     53  C   UNL A   1      42.727  28.739  34.407  1.00  0.00     0.049 A 
ATOM     54  H   UNL A   1      41.283  29.388  33.008  1.00  0.00     0.167 HD
ATOM     55  C   UNL A   1      43.297  27.508  32.332  1.00  0.00     0.074 A 
ATOM     56  C   UNL A   1      44.105  26.586  31.561  1.00  0.00     0.031 C 
ATOM     57  C   UNL A   1      43.516  27.812  33.635  1.00  0.00     0.037 A 
BRANCH  44  58
ATOM     58  C   UNL A   1      39.520  31.916  35.969  1.00  0.00     0.064 A 
ATOM     59  C   UNL A   1      40.126  33.141  36.290  1.00  0.00     0.173 A 
ATOM     60  C   UNL A   1      38.458  31.483  36.780  1.00  0.00     0.173 A 
ATOM     61  F   UNL A   1      41.152  33.600  35.557  1.00  0.00    -0.203 F 
ATOM     62  C   UNL A   1      39.709  33.882  37.394  1.00  0.00     0.198 A 
ATOM     63  C   UNL A   1      38.020  32.243  37.860  1.00  0.00     0.198 A 
ATOM     64  F   UNL A   1      37.836  30.324  36.517  1.00  0.00    -0.203 F 
ATOM     65  F   UNL A   1      40.343  35.019  37.714  1.00  0.00    -0.200 F 
ATOM     66  C   UNL A   1      38.652  33.437  38.172  1.00  0.00     0.200 A 
ATOM     67  F   UNL A   1      36.985  31.821  38.599  1.00  0.00    -0.200 F 
ATOM     68  F   UNL A   1      38.247  34.155  39.229  1.00  0.00    -0.200 F 
ENDBRANCH  44  58
BRANCH  45  69
ATOM     69  C   UNL A   1      42.141  26.728  27.835  1.00  0.00     0.064 A 
ATOM     70  C   UNL A   1      41.650  25.439  27.587  1.00  0.00     0.173 A 
ATOM     71  C   UNL A   1      43.062  27.261  26.920  1.00  0.00     0.173 A 
ATOM     72  F   UNL A   1      40.785  24.876  28.443  1.00  0.00    -0.203 F 
ATOM     73  C   UNL A   1      42.087  24.700  26.490  1.00  0.00     0.198 A 
ATOM     74  C   UNL A   1      43.470  26.535  25.802  1.00  0.00     0.198 A 
ATOM     75  F   UNL A   1      43.565  28.489  27.108  1.00  0.00    -0.203 F 
ATOM     76  F   UNL A   1      41.652  23.445  26.314  1.00  0.00    -0.200 F 
ATOM     77  C   UNL A   1      42.993  25.250  25.595  1.00  0.00     0.200 A 
ATOM     78  F   UNL A   1      44.333  27.077  24.933  1.00  0.00    -0.200 F 
ATOM     79  F   UNL A   1      43.415  24.538  24.542  1.00  0.00    -0.200 F 
ENDBRANCH  45  69
BRANCH  57  80
ATOM     80  C   UNL A   1      44.635  27.090  34.335  1.00  0.00     0.064 A 
ATOM     81  C   UNL A   1      45.932  27.619  34.416  1.00  0.00     0.173 A 
ATOM     82  C   UNL A   1      44.395  25.854  34.956  1.00  0.00     0.173 A 
ATOM     83  F   UNL A   1      46.221  28.791  33.831  1.00  0.00    -0.203 F 
ATOM     84  C   UNL A   1      46.954  26.919  35.054  1.00  0.00     0.198 A 
ATOM     85  C   UNL A   1      45.408  25.176  35.629  1.00  0.00     0.198 A 
ATOM     86  F   UNL A   1      43.172  25.303  34.920  1.00  0.00    -0.203 F 
ATOM     87  F   UNL A   1      48.200  27.413  35.057  1.00  0.00    -0.200 F 
ATOM     88  C   UNL A   1      46.690  25.703  35.665  1.00  0.00     0.200 A 
ATOM     89  F   UNL A   1      45.145  24.013  36.239  1.00  0.00    -0.200 F 
ATOM     90  F   UNL A   1      47.673  25.035  36.284  1.00  0.00    -0.200 F 
ENDBRANCH  57  80
ENDBRANCH  31  32
ENDBRANCH  24  26
ENDBRANCH  23  24
ENDBRANCH  22  23
ENDBRANCH  21  22
ENDBRANCH  20  21
ENDBRANCH   1  20
TORSDOF 18
ENDMDL
MODEL 3
REMARK VINA RESULT:     -10.3      0.922      7.359
REMARK SMILES CCN(CCC#N)C(=O)c1ccncc1/C=C/C(=O)OCCOC(=O)c1ccc(-c2c3nc(c(-c4c(F)c(F)c(F)c(F)c4F)c4ccc([nH]4)c(-c4c(F)c(F)c(F)c(F)c4F)c4nc(c(-c5c(F)c(F)c(F)c(F)c5F)c5ccc2[nH]5)C=C4)C=C3)cc1
REMARK SMILES IDX 18 1 19 2 17 3 16 4 15 5 10 6 11 7 12 8 14 9 13 10 8 11 9 12
REMARK SMILES IDX 3 13 2 14 1 15 4 16 5 17 6 18 7 19 20 20 21 21 22 22 23 23
REMARK SMILES IDX 24 24 25 25 26 26 27 27 88 28 28 29 87 30 29 31 30 32 31 33
REMARK SMILES IDX 81 34 32 35 86 36 80 37 82 38 33 39 85 40 79 41 78 42 34 44
REMARK SMILES IDX 66 45 46 46 65 47 47 48 50 49 64 50 83 51 48 52 49 53 63 55
REMARK SMILES IDX 84 56 51 57 35 58 36 59 44 60 37 61 38 62 42 63 45 64 39 65
REMARK SMILES IDX 40 66 43 67 41 68 67 69 68 70 76 71 69 72 70 73 74 74 77 75
REMARK SMILES IDX 71 76 72 77 75 78 73 79 52 80 53 81 61 82 54 83 55 84 59 85
REMARK SMILES IDX 62 86 56 87 57 88 60 89 58 90
REMARK H PARENT 82 43 50 54
REMARK Flexibility Score: inf
ROOT
ATOM      1  C   UNL A   1      31.632  27.126  26.334  1.00  0.00     0.330 C 
ATOM      2  O   UNL A   1      31.361  27.417  27.491  1.00  0.00    -0.247 OA
ENDROOT
BRANCH   1   3
ATOM      3  C   UNL A   1      32.682  26.136  26.034  1.00  0.00     0.094 C 
ATOM      4  C   UNL A   1      33.376  26.026  24.889  1.00  0.00     0.018 C 
BRANCH   4   5
ATOM      5  C   UNL A   1      34.372  24.953  24.754  1.00  0.00     0.006 A 
ATOM      6  C   UNL A   1      34.453  24.104  23.648  1.00  0.00     0.050 A 
ATOM      7  C   UNL A   1      35.604  23.353  23.430  1.00  0.00     0.034 A 
ATOM      8  C   UNL A   1      36.551  23.297  24.432  1.00  0.00     0.112 A 
ATOM      9  C   UNL A   1      35.369  24.792  25.717  1.00  0.00     0.119 A 
ATOM     10  N   UNL A   1      36.434  23.966  25.595  1.00  0.00    -0.264 NA
BRANCH   6  11
ATOM     11  C   UNL A   1      33.339  23.984  22.687  1.00  0.00     0.254 C 
ATOM     12  O   UNL A   1      33.302  24.774  21.748  1.00  0.00    -0.269 OA
BRANCH  11  13
ATOM     13  N   UNL A   1      32.342  23.019  22.923  1.00  0.00    -0.338 N 
BRANCH  13  14
ATOM     14  C   UNL A   1      31.254  23.410  23.829  1.00  0.00     0.116 C 
ATOM     15  C   UNL A   1      30.402  24.534  23.250  1.00  0.00     0.027 C 
ENDBRANCH  13  14
BRANCH  13  16
ATOM     16  C   UNL A   1      32.338  21.617  22.449  1.00  0.00     0.135 C 
BRANCH  16  17
ATOM     17  C   UNL A   1      32.235  20.581  23.583  1.00  0.00     0.141 C 
BRANCH  17  18
ATOM     18  C   UNL A   1      33.406  20.576  24.472  1.00  0.00     0.064 C 
ATOM     19  N   UNL A   1      34.334  20.563  25.165  1.00  0.00    -0.198 NA
ENDBRANCH  17  18
ENDBRANCH  16  17
ENDBRANCH  13  16
ENDBRANCH  11  13
ENDBRANCH   6  11
ENDBRANCH   4   5
ENDBRANCH   1   3
BRANCH   1  20
ATOM     20  O   UNL A   1      30.999  27.565  25.225  1.00  0.00    -0.459 OA
BRANCH  20  21
ATOM     21  C   UNL A   1      31.537  28.765  24.646  1.00  0.00     0.275 C 
BRANCH  21  22
ATOM     22  C   UNL A   1      31.747  29.840  25.716  1.00  0.00     0.275 C 
BRANCH  22  23
ATOM     23  O   UNL A   1      33.142  30.152  25.914  1.00  0.00    -0.458 OA
BRANCH  23  24
ATOM     24  C   UNL A   1      33.399  31.028  26.913  1.00  0.00     0.338 C 
ATOM     25  O   UNL A   1      32.650  31.878  27.365  1.00  0.00    -0.246 OA
BRANCH  24  26
ATOM     26  C   UNL A   1      34.730  30.774  27.489  1.00  0.00     0.060 A 
ATOM     27  C   UNL A   1      35.088  29.450  27.761  1.00  0.00     0.016 A 
ATOM     28  C   UNL A   1      35.563  31.825  27.875  1.00  0.00     0.016 A 
ATOM     29  C   UNL A   1      36.261  29.171  28.458  1.00  0.00     0.010 A 
ATOM     30  C   UNL A   1      36.751  31.541  28.557  1.00  0.00     0.010 A 
ATOM     31  C   UNL A   1      37.097  30.216  28.878  1.00  0.00    -0.014 A 
BRANCH  31  32
ATOM     32  C   UNL A   1      38.288  29.918  29.715  1.00  0.00     0.031 A 
ATOM     33  C   UNL A   1      39.356  28.994  29.196  1.00  0.00     0.074 A 
ATOM     34  C   UNL A   1      38.427  30.495  30.923  1.00  0.00     0.049 A 
ATOM     35  N   UNL A   1      40.438  28.555  29.790  1.00  0.00    -0.248 NA
ATOM     36  C   UNL A   1      39.179  28.492  27.826  1.00  0.00     0.031 C 
ATOM     37  C   UNL A   1      37.483  31.439  31.519  1.00  0.00     0.029 A 
ATOM     38  N   UNL A   1      39.416  30.370  31.868  1.00  0.00    -0.354 N 
ATOM     39  C   UNL A   1      41.060  27.715  28.875  1.00  0.00     0.074 A 
ATOM     40  C   UNL A   1      40.216  27.676  27.699  1.00  0.00     0.031 C 
ATOM     41  C   UNL A   1      37.942  31.816  32.723  1.00  0.00     0.029 A 
ATOM     42  C   UNL A   1      39.181  31.097  33.008  1.00  0.00     0.049 A 
ATOM     43  H   UNL A   1      40.216  29.811  31.739  1.00  0.00     0.167 HD
ATOM     44  C   UNL A   1      42.233  27.048  29.000  1.00  0.00     0.037 A 
ATOM     45  C   UNL A   1      39.871  31.155  34.163  1.00  0.00     0.037 A 
ATOM     46  C   UNL A   1      43.071  27.097  30.172  1.00  0.00     0.049 A 
ATOM     47  C   UNL A   1      41.131  30.340  34.305  1.00  0.00     0.074 A 
ATOM     48  C   UNL A   1      44.281  26.463  30.396  1.00  0.00     0.029 A 
ATOM     49  N   UNL A   1      42.780  27.818  31.323  1.00  0.00    -0.354 N 
ATOM     50  N   UNL A   1      41.715  29.553  33.434  1.00  0.00    -0.248 NA
ATOM     51  C   UNL A   1      41.829  30.424  35.595  1.00  0.00     0.031 C 
ATOM     52  C   UNL A   1      44.688  26.745  31.704  1.00  0.00     0.029 A 
ATOM     53  C   UNL A   1      43.775  27.622  32.269  1.00  0.00     0.049 A 
ATOM     54  H   UNL A   1      41.985  28.385  31.449  1.00  0.00     0.167 HD
ATOM     55  C   UNL A   1      42.868  29.086  34.052  1.00  0.00     0.074 A 
ATOM     56  C   UNL A   1      42.906  29.688  35.368  1.00  0.00     0.031 C 
ATOM     57  C   UNL A   1      43.811  28.239  33.572  1.00  0.00     0.037 A 
BRANCH  44  58
ATOM     58  C   UNL A   1      42.667  26.178  27.853  1.00  0.00     0.064 A 
ATOM     59  C   UNL A   1      42.210  24.859  27.705  1.00  0.00     0.173 A 
ATOM     60  C   UNL A   1      43.528  26.683  26.866  1.00  0.00     0.173 A 
ATOM     61  F   UNL A   1      41.393  24.320  28.623  1.00  0.00    -0.203 F 
ATOM     62  C   UNL A   1      42.627  24.070  26.636  1.00  0.00     0.198 A 
ATOM     63  C   UNL A   1      43.913  25.904  25.778  1.00  0.00     0.198 A 
ATOM     64  F   UNL A   1      43.990  27.940  26.950  1.00  0.00    -0.203 F 
ATOM     65  F   UNL A   1      42.224  22.794  26.549  1.00  0.00    -0.200 F 
ATOM     66  C   UNL A   1      43.470  24.595  25.669  1.00  0.00     0.200 A 
ATOM     67  F   UNL A   1      44.713  26.421  24.835  1.00  0.00    -0.200 F 
ATOM     68  F   UNL A   1      43.864  23.837  24.636  1.00  0.00    -0.200 F 
ENDBRANCH  44  58
BRANCH  45  69
ATOM     69  C   UNL A   1      39.383  32.001  35.286  1.00  0.00     0.064 A 
ATOM     70  C   UNL A   1      38.562  31.468  36.291  1.00  0.00     0.173 A 
ATOM     71  C   UNL A   1      39.701  33.366  35.362  1.00  0.00     0.173 A 
ATOM     72  F   UNL A   1      38.211  30.175  36.253  1.00  0.00    -0.203 F 
ATOM     73  C   UNL A   1      38.053  32.274  37.307  1.00  0.00     0.198 A 
ATOM     74  C   UNL A   1      39.221  34.162  36.400  1.00  0.00     0.198 A 
ATOM     75  F   UNL A   1      40.481  33.928  34.427  1.00  0.00    -0.203 F 
ATOM     76  F   UNL A   1      37.217  31.753  38.216  1.00  0.00    -0.200 F 
ATOM     77  C   UNL A   1      38.387  33.619  37.364  1.00  0.00     0.200 A 
ATOM     78  F   UNL A   1      39.559  35.457  36.459  1.00  0.00    -0.200 F 
ATOM     79  F   UNL A   1      37.894  34.393  38.341  1.00  0.00    -0.200 F 
ENDBRANCH  45  69
BRANCH  57  80
ATOM     80  C   UNL A   1      45.005  27.964  34.445  1.00  0.00     0.064 A 
ATOM     81  C   UNL A   1      46.154  28.768  34.417  1.00  0.00     0.173 A 
ATOM     82  C   UNL A   1      44.986  26.886  35.344  1.00  0.00     0.173 A 
ATOM     83  F   UNL A   1      46.232  29.805  33.570  1.00  0.00    -0.203 F 
ATOM     84  C   UNL A   1      47.253  28.478  35.223  1.00  0.00     0.198 A 
ATOM     85  C   UNL A   1      46.068  26.624  36.180  1.00  0.00     0.198 A 
ATOM     86  F   UNL A   1      43.909  26.088  35.423  1.00  0.00    -0.203 F 
ATOM     87  F   UNL A   1      48.365  29.220  35.128  1.00  0.00    -0.200 F 
ATOM     88  C   UNL A   1      47.206  27.412  36.108  1.00  0.00     0.200 A 
ATOM     89  F   UNL A   1      46.011  25.606  37.049  1.00  0.00    -0.200 F 
ATOM     90  F   UNL A   1      48.261  27.139  36.887  1.00  0.00    -0.200 F 
ENDBRANCH  57  80
ENDBRANCH  31  32
ENDBRANCH  24  26
ENDBRANCH  23  24
ENDBRANCH  22  23
ENDBRANCH  21  22
ENDBRANCH  20  21
ENDBRANCH   1  20
TORSDOF 18
ENDMDL
