MODEL 1
REMARK VINA RESULT:     -11.9      0.000      0.000
REMARK SMILES CSCc1ccc(C(=O)Nc2cc(C)c(C(=O)OCCOC(=O)c3ccc(-c4c5nc(c(-c6c(F)c(F)c(F)c(F)c6F)c6ccc([nH]6)c(-c6c(F)c(F)c(F)c(F)c6F)c6nc(c(-c7c(F)c(F)c(F)c(F)c7F)c7ccc4[nH]7)C=C6)C=C5)cc3)s2)cc1
REMARK SMILES IDX 19 1 18 2 16 3 17 4 15 5 11 6 12 7 87 8 13 9 14 10 10 11
REMARK SMILES IDX 8 12 9 13 7 15 4 16 5 17 89 18 6 19 88 20 3 21 2 22 1 23
REMARK SMILES IDX 20 24 21 25 22 26 23 27 24 28 25 29 86 30 26 31 85 32 27 33
REMARK SMILES IDX 28 34 29 35 79 36 30 37 84 38 78 39 80 40 31 41 83 42 77 43
REMARK SMILES IDX 76 44 32 46 64 47 44 48 63 49 45 50 48 51 62 52 81 53 46 54
REMARK SMILES IDX 47 55 61 57 82 58 49 59 33 60 34 61 42 62 35 63 36 64 40 65
REMARK SMILES IDX 43 66 37 67 38 68 41 69 39 70 65 71 66 72 74 73 67 74 68 75
REMARK SMILES IDX 72 76 75 77 69 78 70 79 73 80 71 81 50 82 51 83 59 84 52 85
REMARK SMILES IDX 53 86 57 87 60 88 54 89 55 90 58 91 56 92
REMARK H PARENT 10 14 80 45 48 56
REMARK Flexibility Score: inf
ROOT
ATOM      1  C   UNL A   1      42.367  20.697  26.126  1.00  0.00     0.275 C 
ENDROOT
BRANCH   1   2
ATOM      2  O   UNL A   1      41.072  21.168  25.695  1.00  0.00    -0.458 OA
BRANCH   2   3
ATOM      3  C   UNL A   1      40.155  21.455  26.664  1.00  0.00     0.348 C 
ATOM      4  O   UNL A   1      40.402  21.392  27.866  1.00  0.00    -0.245 OA
BRANCH   3   5
ATOM      5  C   UNL A   1      38.911  21.941  26.077  1.00  0.00     0.117 A 
ATOM      6  C   UNL A   1      36.618  21.781  25.218  1.00  0.00     0.096 A 
ATOM      7  C   UNL A   1      36.930  23.072  25.553  1.00  0.00     0.042 A 
ATOM      8  S   UNL A   1      38.003  20.822  25.110  1.00  0.00    -0.111 S 
ATOM      9  C   UNL A   1      38.252  23.172  26.125  1.00  0.00    -0.023 A 
ATOM     10  C   UNL A   1      38.757  24.458  26.696  1.00  0.00     0.046 C 
BRANCH   6  11
ATOM     11  N   UNL A   1      35.449  21.267  24.743  1.00  0.00    -0.314 N 
ATOM     12  C   UNL A   1      34.222  21.892  24.615  1.00  0.00     0.256 C 
ATOM     13  O   UNL A   1      33.279  21.173  24.262  1.00  0.00    -0.269 OA
ATOM     14  H   UNL A   1      35.482  20.327  24.453  1.00  0.00     0.171 HD
BRANCH  12  15
ATOM     15  C   UNL A   1      33.951  23.364  24.799  1.00  0.00     0.040 A 
ATOM     16  C   UNL A   1      33.464  26.195  24.909  1.00  0.00    -0.038 A 
ATOM     17  C   UNL A   1      33.877  25.574  23.721  1.00  0.00     0.005 A 
ATOM     18  C   UNL A   1      33.396  25.392  26.048  1.00  0.00     0.005 A 
ATOM     19  C   UNL A   1      34.087  24.185  23.663  1.00  0.00     0.014 A 
ATOM     20  C   UNL A   1      33.644  24.006  25.997  1.00  0.00     0.014 A 
BRANCH  16  21
ATOM     21  C   UNL A   1      33.193  27.688  24.951  1.00  0.00     0.104 C 
BRANCH  21  22
ATOM     22  S   UNL A   1      33.487  28.597  23.385  1.00  0.00    -0.161 SA
ATOM     23  C   UNL A   1      31.802  28.804  22.751  1.00  0.00     0.085 C 
ENDBRANCH  21  22
ENDBRANCH  16  21
ENDBRANCH  12  15
ENDBRANCH   6  11
ENDBRANCH   3   5
ENDBRANCH   2   3
ENDBRANCH   1   2
BRANCH   1  24
ATOM     24  C   UNL A   1      43.511  21.559  25.571  1.00  0.00     0.275 C 
BRANCH  24  25
ATOM     25  O   UNL A   1      43.029  22.728  24.874  1.00  0.00    -0.458 OA
BRANCH  25  26
ATOM     26  C   UNL A   1      43.716  23.858  25.161  1.00  0.00     0.338 C 
ATOM     27  O   UNL A   1      44.719  24.247  24.579  1.00  0.00    -0.246 OA
BRANCH  26  28
ATOM     28  C   UNL A   1      43.031  24.692  26.172  1.00  0.00     0.060 A 
ATOM     29  C   UNL A   1      43.350  26.048  26.159  1.00  0.00     0.016 A 
ATOM     30  C   UNL A   1      42.211  24.196  27.182  1.00  0.00     0.016 A 
ATOM     31  C   UNL A   1      42.933  26.910  27.164  1.00  0.00     0.010 A 
ATOM     32  C   UNL A   1      41.775  25.065  28.201  1.00  0.00     0.010 A 
ATOM     33  C   UNL A   1      42.169  26.418  28.220  1.00  0.00    -0.014 A 
BRANCH  33  34
ATOM     34  C   UNL A   1      41.784  27.345  29.313  1.00  0.00     0.031 A 
ATOM     35  C   UNL A   1      42.586  27.461  30.575  1.00  0.00     0.074 A 
ATOM     36  C   UNL A   1      40.756  28.181  29.121  1.00  0.00     0.049 A 
ATOM     37  N   UNL A   1      42.290  27.963  31.747  1.00  0.00    -0.248 NA
ATOM     38  C   UNL A   1      43.934  26.916  30.501  1.00  0.00     0.031 C 
ATOM     39  C   UNL A   1      39.986  28.299  27.888  1.00  0.00     0.029 A 
ATOM     40  N   UNL A   1      40.203  29.095  29.971  1.00  0.00    -0.354 N 
ATOM     41  C   UNL A   1      43.383  27.683  32.570  1.00  0.00     0.074 A 
ATOM     42  C   UNL A   1      44.350  26.987  31.757  1.00  0.00     0.031 C 
ATOM     43  C   UNL A   1      39.038  29.231  28.066  1.00  0.00     0.029 A 
ATOM     44  C   UNL A   1      39.106  29.716  29.442  1.00  0.00     0.049 A 
ATOM     45  H   UNL A   1      40.556  29.287  30.869  1.00  0.00     0.167 HD
ATOM     46  C   UNL A   1      43.554  27.990  33.880  1.00  0.00     0.037 A 
ATOM     47  C   UNL A   1      38.234  30.551  30.031  1.00  0.00     0.037 A 
ATOM     48  C   UNL A   1      42.657  28.858  34.597  1.00  0.00     0.049 A 
ATOM     49  C   UNL A   1      38.454  30.936  31.470  1.00  0.00     0.074 A 
ATOM     50  C   UNL A   1      42.728  29.301  35.907  1.00  0.00     0.029 A 
ATOM     51  N   UNL A   1      41.554  29.477  34.025  1.00  0.00    -0.354 N 
ATOM     52  N   UNL A   1      39.389  30.544  32.303  1.00  0.00    -0.248 NA
ATOM     53  C   UNL A   1      37.500  31.891  32.043  1.00  0.00     0.031 C 
ATOM     54  C   UNL A   1      41.664  30.183  36.127  1.00  0.00     0.029 A 
ATOM     55  C   UNL A   1      40.956  30.320  34.944  1.00  0.00     0.049 A 
ATOM     56  H   UNL A   1      41.242  29.335  33.102  1.00  0.00     0.167 HD
ATOM     57  C   UNL A   1      39.155  31.228  33.489  1.00  0.00     0.074 A 
ATOM     58  C   UNL A   1      38.000  32.072  33.257  1.00  0.00     0.031 C 
ATOM     59  C   UNL A   1      39.825  31.166  34.667  1.00  0.00     0.037 A 
BRANCH  46  60
ATOM     60  C   UNL A   1      44.722  27.399  34.632  1.00  0.00     0.064 A 
ATOM     61  C   UNL A   1      44.690  26.126  35.220  1.00  0.00     0.173 A 
ATOM     62  C   UNL A   1      45.936  28.110  34.704  1.00  0.00     0.173 A 
ATOM     63  F   UNL A   1      43.565  25.396  35.192  1.00  0.00    -0.203 F 
ATOM     64  C   UNL A   1      45.807  25.603  35.874  1.00  0.00     0.198 A 
ATOM     65  C   UNL A   1      47.063  27.567  35.320  1.00  0.00     0.198 A 
ATOM     66  F   UNL A   1      46.039  29.330  34.154  1.00  0.00    -0.203 F 
ATOM     67  F   UNL A   1      45.729  24.408  36.476  1.00  0.00    -0.200 F 
ATOM     68  C   UNL A   1      46.994  26.318  35.913  1.00  0.00     0.200 A 
ATOM     69  F   UNL A   1      48.214  28.253  35.334  1.00  0.00    -0.200 F 
ATOM     70  F   UNL A   1      48.071  25.804  36.525  1.00  0.00    -0.200 F 
ENDBRANCH  46  60
BRANCH  47  71
ATOM     71  C   UNL A   1      37.080  31.053  29.251  1.00  0.00     0.064 A 
ATOM     72  C   UNL A   1      35.981  30.230  28.981  1.00  0.00     0.173 A 
ATOM     73  C   UNL A   1      37.036  32.379  28.794  1.00  0.00     0.173 A 
ATOM     74  F   UNL A   1      35.984  28.953  29.391  1.00  0.00    -0.203 F 
ATOM     75  C   UNL A   1      34.889  30.706  28.261  1.00  0.00     0.198 A 
ATOM     76  C   UNL A   1      35.928  32.865  28.107  1.00  0.00     0.198 A 
ATOM     77  F   UNL A   1      38.059  33.211  29.043  1.00  0.00    -0.203 F 
ATOM     78  F   UNL A   1      33.871  29.885  27.975  1.00  0.00    -0.200 F 
ATOM     79  C   UNL A   1      34.859  32.025  27.832  1.00  0.00     0.200 A 
ATOM     80  F   UNL A   1      35.894  34.147  27.716  1.00  0.00    -0.200 F 
ATOM     81  F   UNL A   1      33.804  32.485  27.149  1.00  0.00    -0.200 F 
ENDBRANCH  47  71
BRANCH  59  82
ATOM     82  C   UNL A   1      39.361  32.072  35.767  1.00  0.00     0.064 A 
ATOM     83  C   UNL A   1      38.398  31.664  36.698  1.00  0.00     0.173 A 
ATOM     84  C   UNL A   1      39.918  33.352  35.911  1.00  0.00     0.173 A 
ATOM     85  F   UNL A   1      37.830  30.452  36.595  1.00  0.00    -0.203 F 
ATOM     86  C   UNL A   1      37.982  32.517  37.715  1.00  0.00     0.198 A 
ATOM     87  C   UNL A   1      39.524  34.190  36.949  1.00  0.00     0.198 A 
ATOM     88  F   UNL A   1      40.854  33.784  35.052  1.00  0.00    -0.203 F 
ATOM     89  F   UNL A   1      37.020  32.125  38.564  1.00  0.00    -0.200 F 
ATOM     90  C   UNL A   1      38.550  33.775  37.844  1.00  0.00     0.200 A 
ATOM     91  F   UNL A   1      40.086  35.400  37.083  1.00  0.00    -0.200 F 
ATOM     92  F   UNL A   1      38.153  34.593  38.829  1.00  0.00    -0.200 F 
ENDBRANCH  59  82
ENDBRANCH  33  34
ENDBRANCH  26  28
ENDBRANCH  25  26
ENDBRANCH  24  25
ENDBRANCH   1  24
TORSDOF 15
ENDMDL
MODEL 2
REMARK VINA RESULT:     -11.8      3.214      8.386
REMARK SMILES CSCc1ccc(C(=O)Nc2cc(C)c(C(=O)OCCOC(=O)c3ccc(-c4c5nc(c(-c6c(F)c(F)c(F)c(F)c6F)c6ccc([nH]6)c(-c6c(F)c(F)c(F)c(F)c6F)c6nc(c(-c7c(F)c(F)c(F)c(F)c7F)c7ccc4[nH]7)C=C6)C=C5)cc3)s2)cc1
REMARK SMILES IDX 19 1 18 2 16 3 17 4 15 5 11 6 12 7 87 8 13 9 14 10 10 11
REMARK SMILES IDX 8 12 9 13 7 15 4 16 5 17 89 18 6 19 88 20 3 21 2 22 1 23
REMARK SMILES IDX 20 24 21 25 22 26 23 27 24 28 25 29 86 30 26 31 85 32 27 33
REMARK SMILES IDX 28 34 29 35 79 36 30 37 84 38 78 39 80 40 31 41 83 42 77 43
REMARK SMILES IDX 76 44 32 46 64 47 44 48 63 49 45 50 48 51 62 52 81 53 46 54
REMARK SMILES IDX 47 55 61 57 82 58 49 59 33 60 34 61 42 62 35 63 36 64 40 65
REMARK SMILES IDX 43 66 37 67 38 68 41 69 39 70 65 71 66 72 74 73 67 74 68 75
REMARK SMILES IDX 72 76 75 77 69 78 70 79 73 80 71 81 50 82 51 83 59 84 52 85
REMARK SMILES IDX 53 86 57 87 60 88 54 89 55 90 58 91 56 92
REMARK H PARENT 10 14 80 45 48 56
REMARK Flexibility Score: inf
ROOT
ATOM      1  C   UNL A   1      31.022  29.713  24.469  1.00  0.00     0.275 C 
ENDROOT
BRANCH   1   2
ATOM      2  O   UNL A   1      31.726  28.858  23.544  1.00  0.00    -0.458 OA
BRANCH   2   3
ATOM      3  C   UNL A   1      31.181  27.634  23.284  1.00  0.00     0.348 C 
ATOM      4  O   UNL A   1      30.295  27.453  22.451  1.00  0.00    -0.245 OA
BRANCH   3   5
ATOM      5  C   UNL A   1      31.863  26.588  24.038  1.00  0.00     0.117 A 
ATOM      6  C   UNL A   1      33.782  25.299  24.863  1.00  0.00     0.096 A 
ATOM      7  C   UNL A   1      32.689  25.126  25.670  1.00  0.00     0.042 A 
ATOM      8  S   UNL A   1      33.350  25.981  23.379  1.00  0.00    -0.111 S 
ATOM      9  C   UNL A   1      31.571  25.933  25.236  1.00  0.00    -0.023 A 
ATOM     10  C   UNL A   1      30.316  26.017  26.043  1.00  0.00     0.046 C 
BRANCH   6  11
ATOM     11  N   UNL A   1      35.041  24.793  24.988  1.00  0.00    -0.314 N 
ATOM     12  C   UNL A   1      35.441  23.470  24.985  1.00  0.00     0.256 C 
ATOM     13  O   UNL A   1      36.635  23.261  25.232  1.00  0.00    -0.269 OA
ATOM     14  H   UNL A   1      35.760  25.456  25.095  1.00  0.00     0.171 HD
BRANCH  12  15
ATOM     15  C   UNL A   1      34.577  22.281  24.645  1.00  0.00     0.040 A 
ATOM     16  C   UNL A   1      33.059  19.888  24.162  1.00  0.00    -0.038 A 
ATOM     17  C   UNL A   1      34.182  19.879  25.001  1.00  0.00     0.005 A 
ATOM     18  C   UNL A   1      32.776  21.085  23.503  1.00  0.00     0.005 A 
ATOM     19  C   UNL A   1      34.906  21.057  25.258  1.00  0.00     0.014 A 
ATOM     20  C   UNL A   1      33.526  22.256  23.732  1.00  0.00     0.014 A 
BRANCH  16  21
ATOM     21  C   UNL A   1      32.255  18.622  23.927  1.00  0.00     0.104 C 
BRANCH  21  22
ATOM     22  S   UNL A   1      32.529  17.267  25.133  1.00  0.00    -0.161 SA
ATOM     23  C   UNL A   1      33.697  16.205  24.244  1.00  0.00     0.085 C 
ENDBRANCH  21  22
ENDBRANCH  16  21
ENDBRANCH  12  15
ENDBRANCH   6  11
ENDBRANCH   3   5
ENDBRANCH   2   3
ENDBRANCH   1   2
BRANCH   1  24
ATOM     24  C   UNL A   1      31.601  29.632  25.890  1.00  0.00     0.275 C 
BRANCH  24  25
ATOM     25  O   UNL A   1      33.002  29.979  25.931  1.00  0.00    -0.458 OA
BRANCH  25  26
ATOM     26  C   UNL A   1      33.300  30.948  26.827  1.00  0.00     0.338 C 
ATOM     27  O   UNL A   1      32.520  31.790  27.249  1.00  0.00    -0.246 OA
BRANCH  26  28
ATOM     28  C   UNL A   1      34.658  30.795  27.390  1.00  0.00     0.060 A 
ATOM     29  C   UNL A   1      35.012  29.506  27.782  1.00  0.00     0.016 A 
ATOM     30  C   UNL A   1      35.527  31.850  27.660  1.00  0.00     0.016 A 
ATOM     31  C   UNL A   1      36.174  29.247  28.496  1.00  0.00     0.010 A 
ATOM     32  C   UNL A   1      36.713  31.597  28.377  1.00  0.00     0.010 A 
ATOM     33  C   UNL A   1      37.022  30.300  28.835  1.00  0.00    -0.014 A 
BRANCH  33  34
ATOM     34  C   UNL A   1      38.227  30.010  29.650  1.00  0.00     0.031 A 
ATOM     35  C   UNL A   1      39.365  29.187  29.121  1.00  0.00     0.074 A 
ATOM     36  C   UNL A   1      38.353  30.592  30.849  1.00  0.00     0.049 A 
ATOM     37  N   UNL A   1      40.349  28.576  29.730  1.00  0.00    -0.248 NA
ATOM     38  C   UNL A   1      39.388  29.025  27.675  1.00  0.00     0.031 C 
ATOM     39  C   UNL A   1      37.410  31.543  31.427  1.00  0.00     0.029 A 
ATOM     40  N   UNL A   1      39.342  30.465  31.783  1.00  0.00    -0.354 N 
ATOM     41  C   UNL A   1      41.031  27.868  28.739  1.00  0.00     0.074 A 
ATOM     42  C   UNL A   1      40.359  28.142  27.493  1.00  0.00     0.031 C 
ATOM     43  C   UNL A   1      37.860  31.907  32.637  1.00  0.00     0.029 A 
ATOM     44  C   UNL A   1      39.082  31.163  32.929  1.00  0.00     0.049 A 
ATOM     45  H   UNL A   1      40.155  29.928  31.645  1.00  0.00     0.167 HD
ATOM     46  C   UNL A   1      42.120  27.071  28.868  1.00  0.00     0.037 A 
ATOM     47  C   UNL A   1      39.746  31.156  34.097  1.00  0.00     0.037 A 
ATOM     48  C   UNL A   1      42.878  26.985  30.090  1.00  0.00     0.049 A 
ATOM     49  C   UNL A   1      40.987  30.314  34.225  1.00  0.00     0.074 A 
ATOM     50  C   UNL A   1      44.030  26.265  30.356  1.00  0.00     0.029 A 
ATOM     51  N   UNL A   1      42.589  27.714  31.235  1.00  0.00    -0.354 N 
ATOM     52  N   UNL A   1      41.543  29.513  33.347  1.00  0.00    -0.248 NA
ATOM     53  C   UNL A   1      41.697  30.389  35.506  1.00  0.00     0.031 C 
ATOM     54  C   UNL A   1      44.432  26.555  31.664  1.00  0.00     0.029 A 
ATOM     55  C   UNL A   1      43.554  27.485  32.198  1.00  0.00     0.049 A 
ATOM     56  H   UNL A   1      41.809  28.305  31.346  1.00  0.00     0.167 HD
ATOM     57  C   UNL A   1      42.686  29.011  33.958  1.00  0.00     0.074 A 
ATOM     58  C   UNL A   1      42.749  29.617  35.274  1.00  0.00     0.031 C 
ATOM     59  C   UNL A   1      43.600  28.128  33.484  1.00  0.00     0.037 A 
BRANCH  46  60
ATOM     60  C   UNL A   1      42.564  26.227  27.698  1.00  0.00     0.064 A 
ATOM     61  C   UNL A   1      41.979  24.994  27.376  1.00  0.00     0.173 A 
ATOM     62  C   UNL A   1      43.564  26.709  26.831  1.00  0.00     0.173 A 
ATOM     63  F   UNL A   1      41.023  24.473  28.161  1.00  0.00    -0.203 F 
ATOM     64  C   UNL A   1      42.395  24.264  26.262  1.00  0.00     0.198 A 
ATOM     65  C   UNL A   1      43.947  25.998  25.694  1.00  0.00     0.198 A 
ATOM     66  F   UNL A   1      44.159  27.887  27.073  1.00  0.00    -0.203 F 
ATOM     67  F   UNL A   1      41.857  23.061  26.013  1.00  0.00    -0.200 F 
ATOM     68  C   UNL A   1      43.369  24.771  25.416  1.00  0.00     0.200 A 
ATOM     69  F   UNL A   1      44.872  26.505  24.868  1.00  0.00    -0.200 F 
ATOM     70  F   UNL A   1      43.752  24.076  24.335  1.00  0.00    -0.200 F 
ENDBRANCH  46  60
BRANCH  47  71
ATOM     71  C   UNL A   1      39.227  31.967  35.223  1.00  0.00     0.064 A 
ATOM     72  C   UNL A   1      38.463  31.382  36.239  1.00  0.00     0.173 A 
ATOM     73  C   UNL A   1      39.518  33.336  35.326  1.00  0.00     0.173 A 
ATOM     74  F   UNL A   1      38.153  30.078  36.177  1.00  0.00    -0.203 F 
ATOM     75  C   UNL A   1      37.988  32.140  37.305  1.00  0.00     0.198 A 
ATOM     76  C   UNL A   1      39.076  34.085  36.411  1.00  0.00     0.198 A 
ATOM     77  F   UNL A   1      40.261  33.938  34.384  1.00  0.00    -0.203 F 
ATOM     78  F   UNL A   1      37.220  31.567  38.240  1.00  0.00    -0.200 F 
ATOM     79  C   UNL A   1      38.302  33.489  37.395  1.00  0.00     0.200 A 
ATOM     80  F   UNL A   1      39.401  35.382  36.505  1.00  0.00    -0.200 F 
ATOM     81  F   UNL A   1      37.853  34.214  38.427  1.00  0.00    -0.200 F 
ENDBRANCH  47  71
BRANCH  59  82
ATOM     82  C   UNL A   1      44.769  27.813  34.368  1.00  0.00     0.064 A 
ATOM     83  C   UNL A   1      45.946  28.571  34.326  1.00  0.00     0.173 A 
ATOM     84  C   UNL A   1      44.691  26.764  35.296  1.00  0.00     0.173 A 
ATOM     85  F   UNL A   1      46.070  29.579  33.448  1.00  0.00    -0.203 F 
ATOM     86  C   UNL A   1      47.020  28.267  35.157  1.00  0.00     0.198 A 
ATOM     87  C   UNL A   1      45.754  26.484  36.148  1.00  0.00     0.198 A 
ATOM     88  F   UNL A   1      43.579  26.018  35.384  1.00  0.00    -0.203 F 
ATOM     89  F   UNL A   1      48.157  28.971  35.063  1.00  0.00    -0.200 F 
ATOM     90  C   UNL A   1      46.921  27.229  36.071  1.00  0.00     0.200 A 
ATOM     91  F   UNL A   1      45.651  25.491  37.044  1.00  0.00    -0.200 F 
ATOM     92  F   UNL A   1      47.954  26.943  36.876  1.00  0.00    -0.200 F 
ENDBRANCH  59  82
ENDBRANCH  33  34
ENDBRANCH  26  28
ENDBRANCH  25  26
ENDBRANCH  24  25
ENDBRANCH   1  24
TORSDOF 15
ENDMDL
MODEL 3
REMARK VINA RESULT:     -11.7      3.632      8.602
REMARK SMILES CSCc1ccc(C(=O)Nc2cc(C)c(C(=O)OCCOC(=O)c3ccc(-c4c5nc(c(-c6c(F)c(F)c(F)c(F)c6F)c6ccc([nH]6)c(-c6c(F)c(F)c(F)c(F)c6F)c6nc(c(-c7c(F)c(F)c(F)c(F)c7F)c7ccc4[nH]7)C=C6)C=C5)cc3)s2)cc1
REMARK SMILES IDX 19 1 18 2 16 3 17 4 15 5 11 6 12 7 87 8 13 9 14 10 10 11
REMARK SMILES IDX 8 12 9 13 7 15 4 16 5 17 89 18 6 19 88 20 3 21 2 22 1 23
REMARK SMILES IDX 20 24 21 25 22 26 23 27 24 28 25 29 86 30 26 31 85 32 27 33
REMARK SMILES IDX 28 34 29 35 79 36 30 37 84 38 78 39 80 40 31 41 83 42 77 43
REMARK SMILES IDX 76 44 32 46 64 47 44 48 63 49 45 50 48 51 62 52 81 53 46 54
REMARK SMILES IDX 47 55 61 57 82 58 49 59 33 60 34 61 42 62 35 63 36 64 40 65
REMARK SMILES IDX 43 66 37 67 38 68 41 69 39 70 65 71 66 72 74 73 67 74 68 75
REMARK SMILES IDX 72 76 75 77 69 78 70 79 73 80 71 81 50 82 51 83 59 84 52 85
REMARK SMILES IDX 53 86 57 87 60 88 54 89 55 90 58 91 56 92
REMARK H PARENT 10 14 80 45 48 56
REMARK Flexibility Score: inf
ROOT
ATOM      1  C   UNL A   1      31.079  30.913  25.667  1.00  0.00     0.275 C 
ENDROOT
BRANCH   1   2
ATOM      2  O   UNL A   1      31.573  29.585  25.942  1.00  0.00    -0.458 OA
BRANCH   2   3
ATOM      3  C   UNL A   1      32.050  28.863  24.887  1.00  0.00     0.348 C 
ATOM      4  O   UNL A   1      32.938  29.266  24.140  1.00  0.00    -0.245 OA
BRANCH   3   5
ATOM      5  C   UNL A   1      31.445  27.536  24.847  1.00  0.00     0.117 A 
ATOM      6  C   UNL A   1      30.293  25.562  25.742  1.00  0.00     0.096 A 
ATOM      7  C   UNL A   1      30.179  25.623  24.379  1.00  0.00     0.042 A 
ATOM      8  S   UNL A   1      31.504  26.596  26.305  1.00  0.00    -0.111 S 
ATOM      9  C   UNL A   1      30.793  26.816  23.843  1.00  0.00    -0.023 A 
ATOM     10  C   UNL A   1      30.672  27.168  22.396  1.00  0.00     0.046 C 
BRANCH   6  11
ATOM     11  N   UNL A   1      29.774  24.655  26.616  1.00  0.00    -0.314 N 
ATOM     12  C   UNL A   1      30.190  23.360  26.861  1.00  0.00     0.256 C 
ATOM     13  O   UNL A   1      29.479  22.694  27.625  1.00  0.00    -0.269 OA
ATOM     14  H   UNL A   1      29.001  24.963  27.143  1.00  0.00     0.171 HD
BRANCH  12  15
ATOM     15  C   UNL A   1      31.452  22.719  26.342  1.00  0.00     0.040 A 
ATOM     16  C   UNL A   1      33.972  21.583  25.550  1.00  0.00    -0.038 A 
ATOM     17  C   UNL A   1      33.873  22.427  26.664  1.00  0.00     0.005 A 
ATOM     18  C   UNL A   1      32.812  21.401  24.794  1.00  0.00     0.005 A 
ATOM     19  C   UNL A   1      32.635  22.959  27.067  1.00  0.00     0.014 A 
ATOM     20  C   UNL A   1      31.579  21.966  25.177  1.00  0.00     0.014 A 
BRANCH  16  21
ATOM     21  C   UNL A   1      35.304  20.975  25.151  1.00  0.00     0.104 C 
BRANCH  21  22
ATOM     22  S   UNL A   1      36.738  22.119  25.161  1.00  0.00    -0.161 SA
ATOM     23  C   UNL A   1      36.652  22.840  23.501  1.00  0.00     0.085 C 
ENDBRANCH  21  22
ENDBRANCH  16  21
ENDBRANCH  12  15
ENDBRANCH   6  11
ENDBRANCH   3   5
ENDBRANCH   2   3
ENDBRANCH   1   2
BRANCH   1  24
ATOM     24  C   UNL A   1      31.617  31.950  26.665  1.00  0.00     0.275 C 
BRANCH  24  25
ATOM     25  O   UNL A   1      32.884  31.556  27.236  1.00  0.00    -0.458 OA
BRANCH  25  26
ATOM     26  C   UNL A   1      33.655  32.597  27.627  1.00  0.00     0.338 C 
ATOM     27  O   UNL A   1      33.298  33.765  27.684  1.00  0.00    -0.246 OA
BRANCH  26  28
ATOM     28  C   UNL A   1      34.968  32.159  28.148  1.00  0.00     0.060 A 
ATOM     29  C   UNL A   1      35.001  30.889  28.720  1.00  0.00     0.016 A 
ATOM     30  C   UNL A   1      36.102  32.964  28.214  1.00  0.00     0.016 A 
ATOM     31  C   UNL A   1      36.109  30.425  29.416  1.00  0.00     0.010 A 
ATOM     32  C   UNL A   1      37.234  32.499  28.911  1.00  0.00     0.010 A 
ATOM     33  C   UNL A   1      37.229  31.244  29.551  1.00  0.00    -0.014 A 
BRANCH  33  34
ATOM     34  C   UNL A   1      38.379  30.751  30.349  1.00  0.00     0.031 A 
ATOM     35  C   UNL A   1      39.431  29.858  29.761  1.00  0.00     0.074 A 
ATOM     36  C   UNL A   1      38.543  31.208  31.597  1.00  0.00     0.049 A 
ATOM     37  N   UNL A   1      40.329  29.091  30.323  1.00  0.00    -0.248 NA
ATOM     38  C   UNL A   1      39.464  29.821  28.306  1.00  0.00     0.031 C 
ATOM     39  C   UNL A   1      37.698  32.203  32.248  1.00  0.00     0.029 A 
ATOM     40  N   UNL A   1      39.493  30.892  32.525  1.00  0.00    -0.354 N 
ATOM     41  C   UNL A   1      40.950  28.401  29.279  1.00  0.00     0.074 A 
ATOM     42  C   UNL A   1      40.337  28.857  28.056  1.00  0.00     0.031 C 
ATOM     43  C   UNL A   1      38.161  32.408  33.490  1.00  0.00     0.029 A 
ATOM     44  C   UNL A   1      39.288  31.511  33.727  1.00  0.00     0.049 A 
ATOM     45  H   UNL A   1      40.245  30.282  32.348  1.00  0.00     0.167 HD
ATOM     46  C   UNL A   1      41.943  27.480  29.348  1.00  0.00     0.037 A 
ATOM     47  C   UNL A   1      39.923  31.328  34.896  1.00  0.00     0.037 A 
ATOM     48  C   UNL A   1      42.662  27.205  30.565  1.00  0.00     0.049 A 
ATOM     49  C   UNL A   1      41.062  30.346  34.961  1.00  0.00     0.074 A 
ATOM     50  C   UNL A   1      43.723  26.341  30.778  1.00  0.00     0.029 A 
ATOM     51  N   UNL A   1      42.431  27.858  31.768  1.00  0.00    -0.354 N 
ATOM     52  N   UNL A   1      41.545  29.568  34.021  1.00  0.00    -0.248 NA
ATOM     53  C   UNL A   1      41.751  30.229  36.251  1.00  0.00     0.031 C 
ATOM     54  C   UNL A   1      44.128  26.468  32.111  1.00  0.00     0.029 A 
ATOM     55  C   UNL A   1      43.346  27.440  32.716  1.00  0.00     0.049 A 
ATOM     56  H   UNL A   1      41.718  28.519  31.923  1.00  0.00     0.167 HD
ATOM     57  C   UNL A   1      42.614  28.892  34.597  1.00  0.00     0.074 A 
ATOM     58  C   UNL A   1      42.716  29.369  35.962  1.00  0.00     0.031 C 
ATOM     59  C   UNL A   1      43.435  27.959  34.055  1.00  0.00     0.037 A 
BRANCH  46  60
ATOM     60  C   UNL A   1      42.315  26.699  28.112  1.00  0.00     0.064 A 
ATOM     61  C   UNL A   1      41.704  25.487  27.757  1.00  0.00     0.173 A 
ATOM     62  C   UNL A   1      43.270  27.221  27.218  1.00  0.00     0.173 A 
ATOM     63  F   UNL A   1      40.788  24.930  28.564  1.00  0.00    -0.203 F 
ATOM     64  C   UNL A   1      42.052  24.817  26.584  1.00  0.00     0.198 A 
ATOM     65  C   UNL A   1      43.585  26.571  26.025  1.00  0.00     0.198 A 
ATOM     66  F   UNL A   1      43.887  28.382  27.490  1.00  0.00    -0.203 F 
ATOM     67  F   UNL A   1      41.492  23.632  26.301  1.00  0.00    -0.200 F 
ATOM     68  C   UNL A   1      42.982  25.364  25.714  1.00  0.00     0.200 A 
ATOM     69  F   UNL A   1      44.468  27.117  25.178  1.00  0.00    -0.200 F 
ATOM     70  F   UNL A   1      43.301  24.726  24.578  1.00  0.00    -0.200 F 
ENDBRANCH  46  60
BRANCH  47  71
ATOM     71  C   UNL A   1      39.473  32.090  36.085  1.00  0.00     0.064 A 
ATOM     72  C   UNL A   1      40.053  33.320  36.412  1.00  0.00     0.173 A 
ATOM     73  C   UNL A   1      38.427  31.621  36.893  1.00  0.00     0.173 A 
ATOM     74  F   UNL A   1      41.063  33.803  35.673  1.00  0.00    -0.203 F 
ATOM     75  C   UNL A   1      39.621  34.043  37.520  1.00  0.00     0.198 A 
ATOM     76  C   UNL A   1      37.970  32.362  37.978  1.00  0.00     0.198 A 
ATOM     77  F   UNL A   1      37.828  30.454  36.609  1.00  0.00    -0.203 F 
ATOM     78  F   UNL A   1      40.224  35.195  37.840  1.00  0.00    -0.200 F 
ATOM     79  C   UNL A   1      38.574  33.568  38.297  1.00  0.00     0.200 A 
ATOM     80  F   UNL A   1      36.942  31.910  38.710  1.00  0.00    -0.200 F 
ATOM     81  F   UNL A   1      38.152  34.270  39.356  1.00  0.00    -0.200 F 
ENDBRANCH  47  71
BRANCH  59  82
ATOM     82  C   UNL A   1      44.545  27.440  34.919  1.00  0.00     0.064 A 
ATOM     83  C   UNL A   1      44.387  26.291  35.706  1.00  0.00     0.173 A 
ATOM     84  C   UNL A   1      45.793  28.081  34.929  1.00  0.00     0.173 A 
ATOM     85  F   UNL A   1      43.209  25.650  35.736  1.00  0.00    -0.203 F 
ATOM     86  C   UNL A   1      45.429  25.821  36.498  1.00  0.00     0.198 A 
ATOM     87  C   UNL A   1      46.843  27.589  35.697  1.00  0.00     0.198 A 
ATOM     88  F   UNL A   1      45.997  29.176  34.181  1.00  0.00    -0.203 F 
ATOM     89  F   UNL A   1      45.241  24.751  37.284  1.00  0.00    -0.200 F 
ATOM     90  C   UNL A   1      46.657  26.465  36.488  1.00  0.00     0.200 A 
ATOM     91  F   UNL A   1      48.035  28.202  35.673  1.00  0.00    -0.200 F 
ATOM     92  F   UNL A   1      47.662  26.007  37.248  1.00  0.00    -0.200 F 
ENDBRANCH  59  82
ENDBRANCH  33  34
ENDBRANCH  26  28
ENDBRANCH  25  26
ENDBRANCH  24  25
ENDBRANCH   1  24
TORSDOF 15
ENDMDL
