MODEL 1
REMARK VINA RESULT:     -12.1      0.000      0.000
REMARK SMILES O=C(C[C@H]1C(=O)NCC[N@@H+]1Cc1ccc(Cl)c(F)c1)OCCOC(=O)c1ccc(-c2c3nc(c(-c4c(F)c(F)c(F)c(F)c4F)c4ccc([nH]4)c(-c4c(F)c(F)c(F)c(F)c4F)c4nc(c(-c5c(F)c(F)c(F)c(F)c5F)c5ccc2[nH]5)C=C4)C=C3)cc1
REMARK SMILES IDX 21 1 20 2 2 3 1 4 3 5 4 6 5 7 10 8 6 9 7 10 9 11 8 13 11 15
REMARK SMILES IDX 12 16 13 17 19 18 14 19 17 20 15 21 18 22 16 23 22 24 23 25
REMARK SMILES IDX 24 26 25 27 26 28 27 29 88 30 28 31 87 32 29 33 30 34 31 35
REMARK SMILES IDX 81 36 32 37 86 38 80 39 82 40 33 41 85 42 79 43 78 44 34 46
REMARK SMILES IDX 66 47 46 48 65 49 47 50 50 51 64 52 83 53 48 54 49 55 63 57
REMARK SMILES IDX 84 58 51 59 35 60 36 61 44 62 37 63 38 64 42 65 45 66 39 67
REMARK SMILES IDX 40 68 43 69 41 70 67 71 68 72 76 73 69 74 70 75 74 76 77 77
REMARK SMILES IDX 71 78 72 79 75 80 73 81 52 82 53 83 61 84 54 85 55 86 59 87
REMARK SMILES IDX 62 88 56 89 57 90 60 91 58 92
REMARK H PARENT 10 12 7 14 82 45 50 56
REMARK Flexibility Score: inf
ROOT
ATOM      1  C   UNL A   1      32.231  29.795  25.574  1.00  0.00     0.274 C 
ENDROOT
BRANCH   1   2
ATOM      2  O   UNL A   1      31.388  28.669  25.879  1.00  0.00    -0.462 OA
BRANCH   2   3
ATOM      3  C   UNL A   1      31.736  27.754  26.825  1.00  0.00     0.312 C 
ATOM      4  O   UNL A   1      31.392  27.898  27.994  1.00  0.00    -0.252 OA
BRANCH   3   5
ATOM      5  C   UNL A   1      32.732  26.693  26.419  1.00  0.00     0.198 C 
BRANCH   5   6
ATOM      6  C   UNL A   1      32.639  26.102  25.011  1.00  0.00     0.285 C 
ATOM      7  C   UNL A   1      33.503  24.852  24.806  1.00  0.00     0.279 C 
ATOM      8  N   UNL A   1      31.200  25.892  24.667  1.00  0.00    -0.319 N 
ATOM      9  O   UNL A   1      34.690  24.915  24.495  1.00  0.00    -0.268 OA
ATOM     10  N   UNL A   1      32.938  23.634  25.053  1.00  0.00    -0.345 N 
ATOM     11  C   UNL A   1      30.642  24.655  25.227  1.00  0.00     0.284 C 
ATOM     12  H   UNL A   1      30.712  26.640  25.158  1.00  0.00     0.349 HD
ATOM     13  C   UNL A   1      31.515  23.392  25.113  1.00  0.00     0.177 C 
ATOM     14  H   UNL A   1      33.541  22.869  25.200  1.00  0.00     0.163 HD
BRANCH   8  15
ATOM     15  C   UNL A   1      30.837  26.167  23.272  1.00  0.00     0.299 C 
BRANCH  15  16
ATOM     16  C   UNL A   1      30.114  27.466  23.026  1.00  0.00     0.009 A 
ATOM     17  C   UNL A   1      30.768  28.535  22.395  1.00  0.00     0.011 A 
ATOM     18  C   UNL A   1      28.757  27.598  23.349  1.00  0.00     0.050 A 
ATOM     19  C   UNL A   1      30.061  29.678  22.019  1.00  0.00     0.024 A 
ATOM     20  C   UNL A   1      28.052  28.730  22.952  1.00  0.00     0.142 A 
ATOM     21  C   UNL A   1      28.694  29.765  22.277  1.00  0.00     0.076 A 
ATOM     22  F   UNL A   1      26.735  28.779  23.196  1.00  0.00    -0.205 F 
ATOM     23  Cl  UNL A   1      27.812  31.138  21.735  1.00  0.00    -0.081 Cl
ENDBRANCH  15  16
ENDBRANCH   8  15
ENDBRANCH   5   6
ENDBRANCH   3   5
ENDBRANCH   2   3
ENDBRANCH   1   2
BRANCH   1  24
ATOM     24  C   UNL A   1      31.888  31.056  26.377  1.00  0.00     0.275 C 
BRANCH  24  25
ATOM     25  O   UNL A   1      32.677  31.134  27.574  1.00  0.00    -0.458 OA
BRANCH  25  26
ATOM     26  C   UNL A   1      33.517  32.200  27.620  1.00  0.00     0.338 C 
ATOM     27  O   UNL A   1      33.205  33.371  27.523  1.00  0.00    -0.246 OA
BRANCH  26  28
ATOM     28  C   UNL A   1      34.879  31.759  27.998  1.00  0.00     0.060 A 
ATOM     29  C   UNL A   1      35.069  30.386  28.195  1.00  0.00     0.016 A 
ATOM     30  C   UNL A   1      35.952  32.644  28.158  1.00  0.00     0.016 A 
ATOM     31  C   UNL A   1      36.307  29.900  28.614  1.00  0.00     0.010 A 
ATOM     32  C   UNL A   1      37.195  32.156  28.581  1.00  0.00     0.010 A 
ATOM     33  C   UNL A   1      37.365  30.788  28.852  1.00  0.00    -0.014 A 
BRANCH  33  34
ATOM     34  C   UNL A   1      38.566  30.291  29.569  1.00  0.00     0.031 A 
ATOM     35  C   UNL A   1      38.791  30.745  30.986  1.00  0.00     0.074 A 
ATOM     36  C   UNL A   1      39.406  29.405  29.007  1.00  0.00     0.049 A 
ATOM     37  N   UNL A   1      39.719  30.388  31.838  1.00  0.00    -0.248 NA
ATOM     38  C   UNL A   1      37.837  31.731  31.516  1.00  0.00     0.031 C 
ATOM     39  C   UNL A   1      39.287  28.863  27.656  1.00  0.00     0.029 A 
ATOM     40  N   UNL A   1      40.529  28.800  29.517  1.00  0.00    -0.354 N 
ATOM     41  C   UNL A   1      39.449  31.089  33.004  1.00  0.00     0.074 A 
ATOM     42  C   UNL A   1      38.299  31.927  32.741  1.00  0.00     0.031 C 
ATOM     43  C   UNL A   1      40.298  28.002  27.443  1.00  0.00     0.029 A 
ATOM     44  C   UNL A   1      41.141  27.942  28.637  1.00  0.00     0.049 A 
ATOM     45  H   UNL A   1      40.862  28.965  30.429  1.00  0.00     0.167 HD
ATOM     46  C   UNL A   1      40.084  31.025  34.197  1.00  0.00     0.037 A 
ATOM     47  C   UNL A   1      42.253  27.195  28.784  1.00  0.00     0.037 A 
ATOM     48  C   UNL A   1      41.232  30.203  34.467  1.00  0.00     0.049 A 
ATOM     49  C   UNL A   1      42.993  27.206  30.098  1.00  0.00     0.074 A 
ATOM     50  C   UNL A   1      41.935  30.064  35.651  1.00  0.00     0.029 A 
ATOM     51  N   UNL A   1      41.850  29.386  33.535  1.00  0.00    -0.354 N 
ATOM     52  N   UNL A   1      42.699  27.833  31.211  1.00  0.00    -0.248 NA
ATOM     53  C   UNL A   1      44.219  26.395  30.176  1.00  0.00     0.031 C 
ATOM     54  C   UNL A   1      43.008  29.195  35.422  1.00  0.00     0.029 A 
ATOM     55  C   UNL A   1      42.945  28.761  34.108  1.00  0.00     0.049 A 
ATOM     56  H   UNL A   1      41.555  29.268  32.603  1.00  0.00     0.167 HD
ATOM     57  C   UNL A   1      43.679  27.468  32.126  1.00  0.00     0.074 A 
ATOM     58  C   UNL A   1      44.574  26.561  31.442  1.00  0.00     0.031 C 
ATOM     59  C   UNL A   1      43.821  27.849  33.420  1.00  0.00     0.037 A 
BRANCH  46  60
ATOM     60  C   UNL A   1      39.552  31.885  35.303  1.00  0.00     0.064 A 
ATOM     61  C   UNL A   1      38.626  31.389  36.233  1.00  0.00     0.173 A 
ATOM     62  C   UNL A   1      39.989  33.210  35.448  1.00  0.00     0.173 A 
ATOM     63  F   UNL A   1      38.166  30.134  36.123  1.00  0.00    -0.203 F 
ATOM     64  C   UNL A   1      38.140  32.197  37.256  1.00  0.00     0.198 A 
ATOM     65  C   UNL A   1      39.518  34.006  36.488  1.00  0.00     0.198 A 
ATOM     66  F   UNL A   1      40.873  33.728  34.583  1.00  0.00    -0.203 F 
ATOM     67  F   UNL A   1      37.224  31.717  38.110  1.00  0.00    -0.200 F 
ATOM     68  C   UNL A   1      38.591  33.502  37.386  1.00  0.00     0.200 A 
ATOM     69  F   UNL A   1      39.959  35.266  36.615  1.00  0.00    -0.200 F 
ATOM     70  F   UNL A   1      38.123  34.278  38.374  1.00  0.00    -0.200 F 
ENDBRANCH  46  60
BRANCH  47  71
ATOM     71  C   UNL A   1      42.745  26.362  27.657  1.00  0.00     0.064 A 
ATOM     72  C   UNL A   1      43.708  26.849  26.763  1.00  0.00     0.173 A 
ATOM     73  C   UNL A   1      42.230  25.079  27.427  1.00  0.00     0.173 A 
ATOM     74  F   UNL A   1      44.208  28.083  26.924  1.00  0.00    -0.203 F 
ATOM     75  C   UNL A   1      44.124  26.090  25.670  1.00  0.00     0.198 A 
ATOM     76  C   UNL A   1      42.664  24.312  26.348  1.00  0.00     0.198 A 
ATOM     77  F   UNL A   1      41.301  24.571  28.251  1.00  0.00    -0.203 F 
ATOM     78  F   UNL A   1      45.010  26.599  24.803  1.00  0.00    -0.200 F 
ATOM     79  C   UNL A   1      43.605  24.822  25.466  1.00  0.00     0.200 A 
ATOM     80  F   UNL A   1      42.162  23.084  26.156  1.00  0.00    -0.200 F 
ATOM     81  F   UNL A   1      43.999  24.095  24.412  1.00  0.00    -0.200 F 
ENDBRANCH  47  71
BRANCH  59  82
ATOM     82  C   UNL A   1      44.964  27.264  34.196  1.00  0.00     0.064 A 
ATOM     83  C   UNL A   1      44.843  26.041  34.871  1.00  0.00     0.173 A 
ATOM     84  C   UNL A   1      46.212  27.906  34.216  1.00  0.00     0.173 A 
ATOM     85  F   UNL A   1      43.667  25.396  34.893  1.00  0.00    -0.203 F 
ATOM     86  C   UNL A   1      45.925  25.492  35.555  1.00  0.00     0.198 A 
ATOM     87  C   UNL A   1      47.298  27.342  34.879  1.00  0.00     0.198 A 
ATOM     88  F   UNL A   1      46.381  29.074  33.578  1.00  0.00    -0.203 F 
ATOM     89  F   UNL A   1      45.777  24.341  36.225  1.00  0.00    -0.200 F 
ATOM     90  C   UNL A   1      47.152  26.138  35.552  1.00  0.00     0.200 A 
ATOM     91  F   UNL A   1      48.486  27.961  34.865  1.00  0.00    -0.200 F 
ATOM     92  F   UNL A   1      48.195  25.602  36.202  1.00  0.00    -0.200 F 
ENDBRANCH  59  82
ENDBRANCH  33  34
ENDBRANCH  26  28
ENDBRANCH  25  26
ENDBRANCH  24  25
ENDBRANCH   1  24
TORSDOF 14
ENDMDL
MODEL 2
REMARK VINA RESULT:     -12.1      2.557      3.728
REMARK SMILES O=C(C[C@H]1C(=O)NCC[N@@H+]1Cc1ccc(Cl)c(F)c1)OCCOC(=O)c1ccc(-c2c3nc(c(-c4c(F)c(F)c(F)c(F)c4F)c4ccc([nH]4)c(-c4c(F)c(F)c(F)c(F)c4F)c4nc(c(-c5c(F)c(F)c(F)c(F)c5F)c5ccc2[nH]5)C=C4)C=C3)cc1
REMARK SMILES IDX 21 1 20 2 2 3 1 4 3 5 4 6 5 7 10 8 6 9 7 10 9 11 8 13 11 15
REMARK SMILES IDX 12 16 13 17 19 18 14 19 17 20 15 21 18 22 16 23 22 24 23 25
REMARK SMILES IDX 24 26 25 27 26 28 27 29 88 30 28 31 87 32 29 33 30 34 31 35
REMARK SMILES IDX 81 36 32 37 86 38 80 39 82 40 33 41 85 42 79 43 78 44 34 46
REMARK SMILES IDX 66 47 46 48 65 49 47 50 50 51 64 52 83 53 48 54 49 55 63 57
REMARK SMILES IDX 84 58 51 59 35 60 36 61 44 62 37 63 38 64 42 65 45 66 39 67
REMARK SMILES IDX 40 68 43 69 41 70 67 71 68 72 76 73 69 74 70 75 74 76 77 77
REMARK SMILES IDX 71 78 72 79 75 80 73 81 52 82 53 83 61 84 54 85 55 86 59 87
REMARK SMILES IDX 62 88 56 89 57 90 60 91 58 92
REMARK H PARENT 10 12 7 14 82 45 50 56
REMARK Flexibility Score: inf
ROOT
ATOM      1  C   UNL A   1      32.489  29.085  25.132  1.00  0.00     0.274 C 
ENDROOT
BRANCH   1   2
ATOM      2  O   UNL A   1      31.613  27.987  25.451  1.00  0.00    -0.462 OA
BRANCH   2   3
ATOM      3  C   UNL A   1      31.888  27.129  26.471  1.00  0.00     0.312 C 
ATOM      4  O   UNL A   1      31.387  27.290  27.579  1.00  0.00    -0.252 OA
BRANCH   3   5
ATOM      5  C   UNL A   1      32.989  26.121  26.240  1.00  0.00     0.198 C 
BRANCH   5   6
ATOM      6  C   UNL A   1      32.604  24.676  25.919  1.00  0.00     0.285 C 
ATOM      7  C   UNL A   1      31.104  24.389  26.055  1.00  0.00     0.279 C 
ATOM      8  N   UNL A   1      33.158  24.313  24.579  1.00  0.00    -0.319 N 
ATOM      9  O   UNL A   1      30.586  24.087  27.128  1.00  0.00    -0.268 OA
ATOM     10  N   UNL A   1      30.317  24.551  24.952  1.00  0.00    -0.345 N 
ATOM     11  C   UNL A   1      32.334  24.786  23.461  1.00  0.00     0.284 C 
ATOM     12  H   UNL A   1      34.021  24.853  24.510  1.00  0.00     0.349 HD
ATOM     13  C   UNL A   1      30.813  24.590  23.595  1.00  0.00     0.177 C 
ATOM     14  H   UNL A   1      29.347  24.647  25.089  1.00  0.00     0.163 HD
BRANCH   8  15
ATOM     15  C   UNL A   1      33.657  22.940  24.452  1.00  0.00     0.299 C 
BRANCH  15  16
ATOM     16  C   UNL A   1      35.122  22.743  24.745  1.00  0.00     0.009 A 
ATOM     17  C   UNL A   1      35.903  23.809  25.215  1.00  0.00     0.011 A 
ATOM     18  C   UNL A   1      35.707  21.475  24.630  1.00  0.00     0.050 A 
ATOM     19  C   UNL A   1      37.215  23.597  25.641  1.00  0.00     0.024 A 
ATOM     20  C   UNL A   1      37.008  21.264  25.077  1.00  0.00     0.142 A 
ATOM     21  C   UNL A   1      37.760  22.315  25.593  1.00  0.00     0.076 A 
ATOM     22  F   UNL A   1      37.501  20.017  25.038  1.00  0.00    -0.205 F 
ATOM     23  Cl  UNL A   1      39.346  22.043  26.199  1.00  0.00    -0.081 Cl
ENDBRANCH  15  16
ENDBRANCH   8  15
ENDBRANCH   5   6
ENDBRANCH   3   5
ENDBRANCH   2   3
ENDBRANCH   1   2
BRANCH   1  24
ATOM     24  C   UNL A   1      32.147  30.381  25.876  1.00  0.00     0.275 C 
BRANCH  24  25
ATOM     25  O   UNL A   1      32.739  30.396  27.184  1.00  0.00    -0.458 OA
BRANCH  25  26
ATOM     26  C   UNL A   1      33.457  31.515  27.459  1.00  0.00     0.338 C 
ATOM     27  O   UNL A   1      33.029  32.651  27.523  1.00  0.00    -0.246 OA
BRANCH  26  28
ATOM     28  C   UNL A   1      34.834  31.150  27.864  1.00  0.00     0.060 A 
ATOM     29  C   UNL A   1      35.087  29.792  28.096  1.00  0.00     0.016 A 
ATOM     30  C   UNL A   1      35.860  32.089  28.015  1.00  0.00     0.016 A 
ATOM     31  C   UNL A   1      36.341  29.377  28.541  1.00  0.00     0.010 A 
ATOM     32  C   UNL A   1      37.120  31.672  28.465  1.00  0.00     0.010 A 
ATOM     33  C   UNL A   1      37.352  30.320  28.771  1.00  0.00    -0.014 A 
BRANCH  33  34
ATOM     34  C   UNL A   1      38.566  29.899  29.514  1.00  0.00     0.031 A 
ATOM     35  C   UNL A   1      38.778  30.440  30.902  1.00  0.00     0.074 A 
ATOM     36  C   UNL A   1      39.431  29.005  29.003  1.00  0.00     0.049 A 
ATOM     37  N   UNL A   1      39.715  30.158  31.772  1.00  0.00    -0.248 NA
ATOM     38  C   UNL A   1      37.796  31.429  31.375  1.00  0.00     0.031 C 
ATOM     39  C   UNL A   1      39.327  28.383  27.686  1.00  0.00     0.029 A 
ATOM     40  N   UNL A   1      40.569  28.462  29.546  1.00  0.00    -0.354 N 
ATOM     41  C   UNL A   1      39.424  30.918  32.897  1.00  0.00     0.074 A 
ATOM     42  C   UNL A   1      38.252  31.708  32.586  1.00  0.00     0.031 C 
ATOM     43  C   UNL A   1      40.361  27.539  27.522  1.00  0.00     0.029 A 
ATOM     44  C   UNL A   1      41.205  27.572  28.717  1.00  0.00     0.049 A 
ATOM     45  H   UNL A   1      40.897  28.689  30.446  1.00  0.00     0.167 HD
ATOM     46  C   UNL A   1      40.061  30.941  34.091  1.00  0.00     0.037 A 
ATOM     47  C   UNL A   1      42.337  26.866  28.905  1.00  0.00     0.037 A 
ATOM     48  C   UNL A   1      41.231  30.167  34.406  1.00  0.00     0.049 A 
ATOM     49  C   UNL A   1      43.076  26.973  30.215  1.00  0.00     0.074 A 
ATOM     50  C   UNL A   1      41.937  30.117  35.595  1.00  0.00     0.029 A 
ATOM     51  N   UNL A   1      41.872  29.315  33.522  1.00  0.00    -0.354 N 
ATOM     52  N   UNL A   1      42.764  27.655  31.290  1.00  0.00    -0.248 NA
ATOM     53  C   UNL A   1      44.324  26.202  30.339  1.00  0.00     0.031 C 
ATOM     54  C   UNL A   1      43.033  29.266  35.416  1.00  0.00     0.029 A 
ATOM     55  C   UNL A   1      42.983  28.755  34.129  1.00  0.00     0.049 A 
ATOM     56  H   UNL A   1      41.581  29.135  32.599  1.00  0.00     0.167 HD
ATOM     57  C   UNL A   1      43.753  27.371  32.224  1.00  0.00     0.074 A 
ATOM     58  C   UNL A   1      44.674  26.450  31.593  1.00  0.00     0.031 C 
ATOM     59  C   UNL A   1      43.885  27.830  33.493  1.00  0.00     0.037 A 
BRANCH  46  60
ATOM     60  C   UNL A   1      39.504  31.848  35.146  1.00  0.00     0.064 A 
ATOM     61  C   UNL A   1      38.602  31.378  36.111  1.00  0.00     0.173 A 
ATOM     62  C   UNL A   1      39.895  33.194  35.205  1.00  0.00     0.173 A 
ATOM     63  F   UNL A   1      38.186  30.104  36.082  1.00  0.00    -0.203 F 
ATOM     64  C   UNL A   1      38.093  32.230  37.087  1.00  0.00     0.198 A 
ATOM     65  C   UNL A   1      39.402  34.036  36.197  1.00  0.00     0.198 A 
ATOM     66  F   UNL A   1      40.756  33.688  34.304  1.00  0.00    -0.203 F 
ATOM     67  F   UNL A   1      37.199  31.772  37.975  1.00  0.00    -0.200 F 
ATOM     68  C   UNL A   1      38.498  33.556  37.132  1.00  0.00     0.200 A 
ATOM     69  F   UNL A   1      39.798  35.316  36.244  1.00  0.00    -0.200 F 
ATOM     70  F   UNL A   1      38.008  34.375  38.074  1.00  0.00    -0.200 F 
ENDBRANCH  46  60
BRANCH  47  71
ATOM     71  C   UNL A   1      42.852  25.983  27.827  1.00  0.00     0.064 A 
ATOM     72  C   UNL A   1      43.707  26.477  26.833  1.00  0.00     0.173 A 
ATOM     73  C   UNL A   1      42.466  24.638  27.748  1.00  0.00     0.173 A 
ATOM     74  F   UNL A   1      44.080  27.766  26.850  1.00  0.00    -0.203 F 
ATOM     75  C   UNL A   1      44.141  25.664  25.788  1.00  0.00     0.198 A 
ATOM     76  C   UNL A   1      42.920  23.819  26.715  1.00  0.00     0.198 A 
ATOM     77  F   UNL A   1      41.644  24.119  28.672  1.00  0.00    -0.203 F 
ATOM     78  F   UNL A   1      44.918  26.174  24.823  1.00  0.00    -0.200 F 
ATOM     79  C   UNL A   1      43.750  24.336  25.732  1.00  0.00     0.200 A 
ATOM     80  F   UNL A   1      42.542  22.534  26.667  1.00  0.00    -0.200 F 
ATOM     81  F   UNL A   1      44.162  23.555  24.724  1.00  0.00    -0.200 F 
ENDBRANCH  47  71
BRANCH  59  82
ATOM     82  C   UNL A   1      45.043  27.322  34.301  1.00  0.00     0.064 A 
ATOM     83  C   UNL A   1      46.262  28.012  34.349  1.00  0.00     0.173 A 
ATOM     84  C   UNL A   1      44.912  26.160  35.079  1.00  0.00     0.173 A 
ATOM     85  F   UNL A   1      46.441  29.119  33.612  1.00  0.00    -0.203 F 
ATOM     86  C   UNL A   1      47.316  27.548  35.133  1.00  0.00     0.198 A 
ATOM     87  C   UNL A   1      45.958  25.714  35.881  1.00  0.00     0.198 A 
ATOM     88  F   UNL A   1      43.763  25.469  35.072  1.00  0.00    -0.203 F 
ATOM     89  F   UNL A   1      48.485  28.202  35.137  1.00  0.00    -0.200 F 
ATOM     90  C   UNL A   1      47.160  26.405  35.904  1.00  0.00     0.200 A 
ATOM     91  F   UNL A   1      45.803  24.617  36.634  1.00  0.00    -0.200 F 
ATOM     92  F   UNL A   1      48.172  25.966  36.666  1.00  0.00    -0.200 F 
ENDBRANCH  59  82
ENDBRANCH  33  34
ENDBRANCH  26  28
ENDBRANCH  25  26
ENDBRANCH  24  25
ENDBRANCH   1  24
TORSDOF 14
ENDMDL
MODEL 3
REMARK VINA RESULT:     -12.1      0.249      1.977
REMARK SMILES O=C(C[C@H]1C(=O)NCC[N@@H+]1Cc1ccc(Cl)c(F)c1)OCCOC(=O)c1ccc(-c2c3nc(c(-c4c(F)c(F)c(F)c(F)c4F)c4ccc([nH]4)c(-c4c(F)c(F)c(F)c(F)c4F)c4nc(c(-c5c(F)c(F)c(F)c(F)c5F)c5ccc2[nH]5)C=C4)C=C3)cc1
REMARK SMILES IDX 21 1 20 2 2 3 1 4 3 5 4 6 5 7 10 8 6 9 7 10 9 11 8 13 11 15
REMARK SMILES IDX 12 16 13 17 19 18 14 19 17 20 15 21 18 22 16 23 22 24 23 25
REMARK SMILES IDX 24 26 25 27 26 28 27 29 88 30 28 31 87 32 29 33 30 34 31 35
REMARK SMILES IDX 81 36 32 37 86 38 80 39 82 40 33 41 85 42 79 43 78 44 34 46
REMARK SMILES IDX 66 47 46 48 65 49 47 50 50 51 64 52 83 53 48 54 49 55 63 57
REMARK SMILES IDX 84 58 51 59 35 60 36 61 44 62 37 63 38 64 42 65 45 66 39 67
REMARK SMILES IDX 40 68 43 69 41 70 67 71 68 72 76 73 69 74 70 75 74 76 77 77
REMARK SMILES IDX 71 78 72 79 75 80 73 81 52 82 53 83 61 84 54 85 55 86 59 87
REMARK SMILES IDX 62 88 56 89 57 90 60 91 58 92
REMARK H PARENT 10 12 7 14 82 45 50 56
REMARK Flexibility Score: inf
ROOT
ATOM      1  C   UNL A   1      32.315  30.074  25.781  1.00  0.00     0.274 C 
ENDROOT
BRANCH   1   2
ATOM      2  O   UNL A   1      31.433  28.987  26.117  1.00  0.00    -0.462 OA
BRANCH   2   3
ATOM      3  C   UNL A   1      31.831  27.971  26.931  1.00  0.00     0.312 C 
ATOM      4  O   UNL A   1      31.443  27.910  28.093  1.00  0.00    -0.252 OA
BRANCH   3   5
ATOM      5  C   UNL A   1      32.926  27.068  26.415  1.00  0.00     0.198 C 
BRANCH   5   6
ATOM      6  C   UNL A   1      32.667  26.253  25.147  1.00  0.00     0.285 C 
ATOM      7  C   UNL A   1      33.546  25.003  25.023  1.00  0.00     0.279 C 
ATOM      8  N   UNL A   1      31.204  25.962  25.048  1.00  0.00    -0.319 N 
ATOM      9  O   UNL A   1      34.675  25.037  24.540  1.00  0.00    -0.268 OA
ATOM     10  N   UNL A   1      33.072  23.832  25.538  1.00  0.00    -0.345 N 
ATOM     11  C   UNL A   1      30.781  24.823  25.871  1.00  0.00     0.284 C 
ATOM     12  H   UNL A   1      30.758  26.772  25.478  1.00  0.00     0.349 HD
ATOM     13  C   UNL A   1      31.681  23.576  25.838  1.00  0.00     0.177 C 
ATOM     14  H   UNL A   1      33.720  23.113  25.718  1.00  0.00     0.163 HD
BRANCH   8  15
ATOM     15  C   UNL A   1      30.643  25.998  23.694  1.00  0.00     0.299 C 
BRANCH  15  16
ATOM     16  C   UNL A   1      29.981  27.291  23.292  1.00  0.00     0.009 A 
ATOM     17  C   UNL A   1      30.715  28.294  22.641  1.00  0.00     0.011 A 
ATOM     18  C   UNL A   1      28.606  27.479  23.488  1.00  0.00     0.050 A 
ATOM     19  C   UNL A   1      30.075  29.421  22.122  1.00  0.00     0.024 A 
ATOM     20  C   UNL A   1      27.970  28.593  22.951  1.00  0.00     0.142 A 
ATOM     21  C   UNL A   1      28.695  29.558  22.258  1.00  0.00     0.076 A 
ATOM     22  F   UNL A   1      26.639  28.690  23.078  1.00  0.00    -0.205 F 
ATOM     23  Cl  UNL A   1      27.901  30.906  21.543  1.00  0.00    -0.081 Cl
ENDBRANCH  15  16
ENDBRANCH   8  15
ENDBRANCH   5   6
ENDBRANCH   3   5
ENDBRANCH   2   3
ENDBRANCH   1   2
BRANCH   1  24
ATOM     24  C   UNL A   1      31.948  31.397  26.464  1.00  0.00     0.275 C 
BRANCH  24  25
ATOM     25  O   UNL A   1      32.661  31.553  27.700  1.00  0.00    -0.458 OA
BRANCH  25  26
ATOM     26  C   UNL A   1      33.550  32.579  27.705  1.00  0.00     0.338 C 
ATOM     27  O   UNL A   1      33.291  33.762  27.589  1.00  0.00    -0.246 OA
BRANCH  26  28
ATOM     28  C   UNL A   1      34.899  32.084  28.065  1.00  0.00     0.060 A 
ATOM     29  C   UNL A   1      35.035  30.704  28.261  1.00  0.00     0.016 A 
ATOM     30  C   UNL A   1      36.009  32.924  28.208  1.00  0.00     0.016 A 
ATOM     31  C   UNL A   1      36.257  30.168  28.662  1.00  0.00     0.010 A 
ATOM     32  C   UNL A   1      37.237  32.386  28.615  1.00  0.00     0.010 A 
ATOM     33  C   UNL A   1      37.354  31.011  28.884  1.00  0.00    -0.014 A 
BRANCH  33  34
ATOM     34  C   UNL A   1      38.544  30.467  29.585  1.00  0.00     0.031 A 
ATOM     35  C   UNL A   1      38.786  30.881  31.011  1.00  0.00     0.074 A 
ATOM     36  C   UNL A   1      39.358  29.572  28.999  1.00  0.00     0.049 A 
ATOM     37  N   UNL A   1      39.707  30.479  31.850  1.00  0.00    -0.248 NA
ATOM     38  C   UNL A   1      37.860  31.879  31.568  1.00  0.00     0.031 C 
ATOM     39  C   UNL A   1      39.220  29.064  27.637  1.00  0.00     0.029 A 
ATOM     40  N   UNL A   1      40.466  28.925  29.491  1.00  0.00    -0.354 N 
ATOM     41  C   UNL A   1      39.459  31.159  33.034  1.00  0.00     0.074 A 
ATOM     42  C   UNL A   1      38.332  32.034  32.795  1.00  0.00     0.031 C 
ATOM     43  C   UNL A   1      40.207  28.182  27.399  1.00  0.00     0.029 A 
ATOM     44  C   UNL A   1      41.052  28.072  28.588  1.00  0.00     0.049 A 
ATOM     45  H   UNL A   1      40.807  29.060  30.404  1.00  0.00     0.167 HD
ATOM     46  C   UNL A   1      40.096  31.051  34.223  1.00  0.00     0.037 A 
ATOM     47  C   UNL A   1      42.144  27.293  28.713  1.00  0.00     0.037 A 
ATOM     48  C   UNL A   1      41.223  30.192  34.469  1.00  0.00     0.049 A 
ATOM     49  C   UNL A   1      42.888  27.253  30.024  1.00  0.00     0.074 A 
ATOM     50  C   UNL A   1      41.926  30.007  35.646  1.00  0.00     0.029 A 
ATOM     51  N   UNL A   1      41.816  29.381  33.515  1.00  0.00    -0.354 N 
ATOM     52  N   UNL A   1      42.615  27.861  31.152  1.00  0.00    -0.248 NA
ATOM     53  C   UNL A   1      44.093  26.408  30.078  1.00  0.00     0.031 C 
ATOM     54  C   UNL A   1      42.974  29.115  35.393  1.00  0.00     0.029 A 
ATOM     55  C   UNL A   1      42.896  28.714  34.069  1.00  0.00     0.049 A 
ATOM     56  H   UNL A   1      41.515  29.293  32.582  1.00  0.00     0.167 HD
ATOM     57  C   UNL A   1      43.588  27.449  32.055  1.00  0.00     0.074 A 
ATOM     58  C   UNL A   1      44.457  26.534  31.346  1.00  0.00     0.031 C 
ATOM     59  C   UNL A   1      43.745  27.796  33.356  1.00  0.00     0.037 A 
BRANCH  46  60
ATOM     60  C   UNL A   1      39.591  31.898  35.351  1.00  0.00     0.064 A 
ATOM     61  C   UNL A   1      40.037  33.216  35.530  1.00  0.00     0.173 A 
ATOM     62  C   UNL A   1      38.636  31.396  36.246  1.00  0.00     0.173 A 
ATOM     63  F   UNL A   1      40.963  33.733  34.710  1.00  0.00    -0.203 F 
ATOM     64  C   UNL A   1      39.560  33.994  36.581  1.00  0.00     0.198 A 
ATOM     65  C   UNL A   1      38.144  32.186  37.281  1.00  0.00     0.198 A 
ATOM     66  F   UNL A   1      38.181  30.142  36.115  1.00  0.00    -0.203 F 
ATOM     67  F   UNL A   1      40.029  35.237  36.760  1.00  0.00    -0.200 F 
ATOM     68  C   UNL A   1      38.610  33.480  37.451  1.00  0.00     0.200 A 
ATOM     69  F   UNL A   1      37.222  31.690  38.119  1.00  0.00    -0.200 F 
ATOM     70  F   UNL A   1      38.150  34.232  38.461  1.00  0.00    -0.200 F 
ENDBRANCH  46  60
BRANCH  47  71
ATOM     71  C   UNL A   1      42.610  26.474  27.564  1.00  0.00     0.064 A 
ATOM     72  C   UNL A   1      42.107  25.185  27.344  1.00  0.00     0.173 A 
ATOM     73  C   UNL A   1      43.597  26.949  26.690  1.00  0.00     0.173 A 
ATOM     74  F   UNL A   1      41.183  24.676  28.173  1.00  0.00    -0.203 F 
ATOM     75  C   UNL A   1      42.588  24.393  26.303  1.00  0.00     0.198 A 
ATOM     76  C   UNL A   1      44.060  26.165  25.635  1.00  0.00     0.198 A 
ATOM     77  F   UNL A   1      44.115  28.174  26.862  1.00  0.00    -0.203 F 
ATOM     78  F   UNL A   1      42.125  23.146  26.144  1.00  0.00    -0.200 F 
ATOM     79  C   UNL A   1      43.561  24.885  25.447  1.00  0.00     0.200 A 
ATOM     80  F   UNL A   1      44.998  26.646  24.807  1.00  0.00    -0.200 F 
ATOM     81  F   UNL A   1      44.028  24.122  24.450  1.00  0.00    -0.200 F 
ENDBRANCH  47  71
BRANCH  59  82
ATOM     82  C   UNL A   1      44.875  27.162  34.114  1.00  0.00     0.064 A 
ATOM     83  C   UNL A   1      46.127  27.783  34.219  1.00  0.00     0.173 A 
ATOM     84  C   UNL A   1      44.684  25.946  34.789  1.00  0.00     0.173 A 
ATOM     85  F   UNL A   1      46.363  28.939  33.581  1.00  0.00    -0.203 F 
ATOM     86  C   UNL A   1      47.154  27.201  34.958  1.00  0.00     0.198 A 
ATOM     87  C   UNL A   1      45.704  25.379  35.547  1.00  0.00     0.198 A 
ATOM     88  F   UNL A   1      43.501  25.317  34.724  1.00  0.00    -0.203 F 
ATOM     89  F   UNL A   1      48.355  27.792  35.016  1.00  0.00    -0.200 F 
ATOM     90  C   UNL A   1      46.939  26.004  35.627  1.00  0.00     0.200 A 
ATOM     91  F   UNL A   1      45.492  24.230  36.202  1.00  0.00    -0.200 F 
ATOM     92  F   UNL A   1      47.926  25.450  36.346  1.00  0.00    -0.200 F 
ENDBRANCH  59  82
ENDBRANCH  33  34
ENDBRANCH  26  28
ENDBRANCH  25  26
ENDBRANCH  24  25
ENDBRANCH   1  24
TORSDOF 14
ENDMDL
