MODEL 1
REMARK VINA RESULT:     -12.3      0.000      0.000
REMARK SMILES O=C(OCCOC(=O)[C@H]1CCc2[nH]nc(C(F)(F)F)c2C1)c1ccc(-c2c3nc(c(-c4c(F)c(F)c(F)c(F)c4F)c4ccc([nH]4)c(-c4c(F)c(F)c(F)c(F)c4F)c4nc(c(-c5c(F)c(F)c(F)c(F)c5F)c5ccc2[nH]5)C=C4)C=C3)cc1
REMARK SMILES IDX 4 1 3 2 2 3 1 4 22 5 23 6 84 7 24 8 83 9 25 10 26 11 27 12
REMARK SMILES IDX 77 13 28 14 82 15 76 16 78 17 29 18 81 19 75 20 74 21 30 23
REMARK SMILES IDX 62 24 42 25 61 26 43 27 46 28 60 29 79 30 44 31 45 32 59 34
REMARK SMILES IDX 80 35 47 36 31 37 32 38 40 39 33 40 34 41 38 42 41 43 35 44
REMARK SMILES IDX 36 45 39 46 37 47 63 48 64 49 72 50 65 51 66 52 70 53 73 54
REMARK SMILES IDX 67 55 68 56 71 57 69 58 48 59 49 60 57 61 50 62 51 63 55 64
REMARK SMILES IDX 58 65 52 66 53 67 56 68 54 69 5 70 6 71 7 72 8 73 9 74 10 75
REMARK SMILES IDX 21 76 11 77 20 78 12 79 15 80 13 81 14 82 16 84 17 85 18 86
REMARK SMILES IDX 19 87
REMARK H PARENT 78 22 46 33 13 83
REMARK Flexibility Score: inf
ROOT
ATOM      1  C   UNL A   1      31.403  32.083  26.801  1.00  0.00     0.275 C 
ENDROOT
BRANCH   1   2
ATOM      2  O   UNL A   1      32.344  33.174  26.880  1.00  0.00    -0.458 OA
BRANCH   2   3
ATOM      3  C   UNL A   1      32.979  33.751  27.926  1.00  0.00     0.338 C 
ATOM      4  O   UNL A   1      32.554  34.829  28.342  1.00  0.00    -0.246 OA
BRANCH   3   5
ATOM      5  C   UNL A   1      34.244  33.241  28.553  1.00  0.00     0.060 A 
ATOM      6  C   UNL A   1      35.542  33.400  28.060  1.00  0.00     0.016 A 
ATOM      7  C   UNL A   1      34.087  32.486  29.735  1.00  0.00     0.016 A 
ATOM      8  C   UNL A   1      36.655  32.893  28.763  1.00  0.00     0.010 A 
ATOM      9  C   UNL A   1      35.190  31.985  30.443  1.00  0.00     0.010 A 
ATOM     10  C   UNL A   1      36.490  32.192  29.965  1.00  0.00    -0.014 A 
BRANCH  10  11
ATOM     11  C   UNL A   1      37.620  31.455  30.591  1.00  0.00     0.031 A 
ATOM     12  C   UNL A   1      38.061  31.915  31.941  1.00  0.00     0.074 A 
ATOM     13  C   UNL A   1      38.284  30.449  29.990  1.00  0.00     0.049 A 
ATOM     14  N   UNL A   1      38.987  31.420  32.715  1.00  0.00    -0.248 NA
ATOM     15  C   UNL A   1      37.331  33.058  32.513  1.00  0.00     0.031 C 
ATOM     16  C   UNL A   1      37.898  29.823  28.741  1.00  0.00     0.029 A 
ATOM     17  N   UNL A   1      39.441  29.788  30.326  1.00  0.00    -0.354 N 
ATOM     18  C   UNL A   1      38.907  32.148  33.889  1.00  0.00     0.074 A 
ATOM     19  C   UNL A   1      37.892  33.160  33.704  1.00  0.00     0.031 C 
ATOM     20  C   UNL A   1      38.855  28.981  28.326  1.00  0.00     0.029 A 
ATOM     21  C   UNL A   1      39.899  28.943  29.339  1.00  0.00     0.049 A 
ATOM     22  H   UNL A   1      39.898  29.907  31.189  1.00  0.00     0.167 HD
ATOM     23  C   UNL A   1      39.609  31.967  35.029  1.00  0.00     0.037 A 
ATOM     24  C   UNL A   1      41.019  28.197  29.267  1.00  0.00     0.037 A 
ATOM     25  C   UNL A   1      40.689  31.031  35.161  1.00  0.00     0.049 A 
ATOM     26  C   UNL A   1      41.890  28.116  30.486  1.00  0.00     0.074 A 
ATOM     27  C   UNL A   1      41.494  30.790  36.257  1.00  0.00     0.029 A 
ATOM     28  N   UNL A   1      41.148  30.213  34.135  1.00  0.00    -0.354 N 
ATOM     29  N   UNL A   1      41.743  28.733  31.634  1.00  0.00    -0.248 NA
ATOM     30  C   UNL A   1      43.039  27.204  30.434  1.00  0.00     0.031 C 
ATOM     31  C   UNL A   1      42.486  29.881  35.872  1.00  0.00     0.029 A 
ATOM     32  C   UNL A   1      42.259  29.504  34.556  1.00  0.00     0.049 A 
ATOM     33  H   UNL A   1      40.742  30.149  33.240  1.00  0.00     0.167 HD
ATOM     34  C   UNL A   1      42.748  28.255  32.457  1.00  0.00     0.074 A 
ATOM     35  C   UNL A   1      43.508  27.300  31.672  1.00  0.00     0.031 C 
ATOM     36  C   UNL A   1      43.003  28.565  33.751  1.00  0.00     0.037 A 
BRANCH  23  37
ATOM     37  C   UNL A   1      39.244  32.867  36.167  1.00  0.00     0.064 A 
ATOM     38  C   UNL A   1      39.850  34.125  36.327  1.00  0.00     0.173 A 
ATOM     39  C   UNL A   1      38.367  32.424  37.166  1.00  0.00     0.173 A 
ATOM     40  F   UNL A   1      40.725  34.574  35.414  1.00  0.00    -0.203 F 
ATOM     41  C   UNL A   1      39.629  34.882  37.473  1.00  0.00     0.198 A 
ATOM     42  C   UNL A   1      38.128  33.198  38.297  1.00  0.00     0.198 A 
ATOM     43  F   UNL A   1      37.778  31.224  37.064  1.00  0.00    -0.203 F 
ATOM     44  F   UNL A   1      40.285  36.038  37.647  1.00  0.00    -0.200 F 
ATOM     45  C   UNL A   1      38.770  34.417  38.457  1.00  0.00     0.200 A 
ATOM     46  F   UNL A   1      37.302  32.747  39.250  1.00  0.00    -0.200 F 
ATOM     47  F   UNL A   1      38.581  35.133  39.574  1.00  0.00    -0.200 F 
ENDBRANCH  23  37
BRANCH  24  48
ATOM     48  C   UNL A   1      41.326  27.435  28.026  1.00  0.00     0.064 A 
ATOM     49  C   UNL A   1      42.087  27.991  26.991  1.00  0.00     0.173 A 
ATOM     50  C   UNL A   1      40.891  26.108  27.870  1.00  0.00     0.173 A 
ATOM     51  F   UNL A   1      42.518  29.257  27.084  1.00  0.00    -0.203 F 
ATOM     52  C   UNL A   1      42.399  27.256  25.846  1.00  0.00     0.198 A 
ATOM     53  C   UNL A   1      41.217  25.368  26.734  1.00  0.00     0.198 A 
ATOM     54  F   UNL A   1      40.162  25.525  28.833  1.00  0.00    -0.203 F 
ATOM     55  F   UNL A   1      43.115  27.820  24.864  1.00  0.00    -0.200 F 
ATOM     56  C   UNL A   1      41.969  25.943  25.721  1.00  0.00     0.200 A 
ATOM     57  F   UNL A   1      40.807  24.097  26.622  1.00  0.00    -0.200 F 
ATOM     58  F   UNL A   1      42.279  25.235  24.626  1.00  0.00    -0.200 F 
ENDBRANCH  24  48
BRANCH  36  59
ATOM     59  C   UNL A   1      44.143  27.855  34.416  1.00  0.00     0.064 A 
ATOM     60  C   UNL A   1      45.423  28.423  34.481  1.00  0.00     0.173 A 
ATOM     61  C   UNL A   1      43.924  26.637  35.077  1.00  0.00     0.173 A 
ATOM     62  F   UNL A   1      45.682  29.579  33.850  1.00  0.00    -0.203 F 
ATOM     63  C   UNL A   1      46.446  27.793  35.183  1.00  0.00     0.198 A 
ATOM     64  C   UNL A   1      44.941  26.025  35.801  1.00  0.00     0.198 A 
ATOM     65  F   UNL A   1      42.715  26.058  35.043  1.00  0.00    -0.203 F 
ATOM     66  F   UNL A   1      47.669  28.339  35.214  1.00  0.00    -0.200 F 
ATOM     67  C   UNL A   1      46.201  26.604  35.853  1.00  0.00     0.200 A 
ATOM     68  F   UNL A   1      44.699  24.884  36.460  1.00  0.00    -0.200 F 
ATOM     69  F   UNL A   1      47.181  26.012  36.549  1.00  0.00    -0.200 F 
ENDBRANCH  36  59
ENDBRANCH  10  11
ENDBRANCH   3   5
ENDBRANCH   2   3
ENDBRANCH   1   2
BRANCH   1  70
ATOM     70  C   UNL A   1      32.053  30.742  26.485  1.00  0.00     0.274 C 
BRANCH  70  71
ATOM     71  O   UNL A   1      31.397  30.132  25.371  1.00  0.00    -0.462 OA
BRANCH  71  72
ATOM     72  C   UNL A   1      31.476  28.771  25.285  1.00  0.00     0.309 C 
ATOM     73  O   UNL A   1      31.403  28.003  26.228  1.00  0.00    -0.252 OA
BRANCH  72  74
ATOM     74  C   UNL A   1      31.534  28.343  23.832  1.00  0.00     0.104 C 
ATOM     75  C   UNL A   1      31.093  26.883  23.629  1.00  0.00     0.022 C 
ATOM     76  C   UNL A   1      30.713  29.259  22.911  1.00  0.00     0.055 C 
ATOM     77  C   UNL A   1      29.624  26.595  23.984  1.00  0.00     0.057 C 
ATOM     78  C   UNL A   1      29.269  28.920  23.012  1.00  0.00     0.006 A 
ATOM     79  C   UNL A   1      28.806  27.723  23.501  1.00  0.00     0.039 A 
ATOM     80  C   UNL A   1      28.111  29.651  22.659  1.00  0.00     0.169 A 
ATOM     81  N   UNL A   1      27.451  27.800  23.502  1.00  0.00    -0.282 N 
ATOM     82  N   UNL A   1      26.998  28.950  22.971  1.00  0.00    -0.171 NA
ATOM     83  H   UNL A   1      26.865  27.092  23.853  1.00  0.00     0.190 HD
BRANCH  80  84
ATOM     84  C   UNL A   1      28.090  31.019  22.031  1.00  0.00     0.435 C 
ATOM     85  F   UNL A   1      27.652  31.010  20.745  1.00  0.00    -0.164 F 
ATOM     86  F   UNL A   1      27.302  31.885  22.721  1.00  0.00    -0.164 F 
ATOM     87  F   UNL A   1      29.336  31.575  22.003  1.00  0.00    -0.164 F 
ENDBRANCH  80  84
ENDBRANCH  72  74
ENDBRANCH  71  72
ENDBRANCH  70  71
ENDBRANCH   1  70
TORSDOF 12
ENDMDL
MODEL 2
REMARK VINA RESULT:     -12.2      0.568      7.721
REMARK SMILES O=C(OCCOC(=O)[C@H]1CCc2[nH]nc(C(F)(F)F)c2C1)c1ccc(-c2c3nc(c(-c4c(F)c(F)c(F)c(F)c4F)c4ccc([nH]4)c(-c4c(F)c(F)c(F)c(F)c4F)c4nc(c(-c5c(F)c(F)c(F)c(F)c5F)c5ccc2[nH]5)C=C4)C=C3)cc1
REMARK SMILES IDX 4 1 3 2 2 3 1 4 22 5 23 6 84 7 24 8 83 9 25 10 26 11 27 12
REMARK SMILES IDX 77 13 28 14 82 15 76 16 78 17 29 18 81 19 75 20 74 21 30 23
REMARK SMILES IDX 62 24 42 25 61 26 43 27 46 28 60 29 79 30 44 31 45 32 59 34
REMARK SMILES IDX 80 35 47 36 31 37 32 38 40 39 33 40 34 41 38 42 41 43 35 44
REMARK SMILES IDX 36 45 39 46 37 47 63 48 64 49 72 50 65 51 66 52 70 53 73 54
REMARK SMILES IDX 67 55 68 56 71 57 69 58 48 59 49 60 57 61 50 62 51 63 55 64
REMARK SMILES IDX 58 65 52 66 53 67 56 68 54 69 5 70 6 71 7 72 8 73 9 74 10 75
REMARK SMILES IDX 21 76 11 77 20 78 12 79 15 80 13 81 14 82 16 84 17 85 18 86
REMARK SMILES IDX 19 87
REMARK H PARENT 78 22 46 33 13 83
REMARK Flexibility Score: inf
ROOT
ATOM      1  C   UNL A   1      31.488  32.072  26.879  1.00  0.00     0.275 C 
ENDROOT
BRANCH   1   2
ATOM      2  O   UNL A   1      32.425  33.166  26.955  1.00  0.00    -0.458 OA
BRANCH   2   3
ATOM      3  C   UNL A   1      32.935  33.854  28.002  1.00  0.00     0.338 C 
ATOM      4  O   UNL A   1      32.385  34.906  28.329  1.00  0.00    -0.246 OA
BRANCH   3   5
ATOM      5  C   UNL A   1      34.199  33.502  28.730  1.00  0.00     0.060 A 
ATOM      6  C   UNL A   1      35.501  33.845  28.357  1.00  0.00     0.016 A 
ATOM      7  C   UNL A   1      34.045  32.703  29.883  1.00  0.00     0.016 A 
ATOM      8  C   UNL A   1      36.608  33.474  29.149  1.00  0.00     0.010 A 
ATOM      9  C   UNL A   1      35.139  32.335  30.679  1.00  0.00     0.010 A 
ATOM     10  C   UNL A   1      36.436  32.726  30.321  1.00  0.00    -0.014 A 
BRANCH  10  11
ATOM     11  C   UNL A   1      37.598  32.130  31.035  1.00  0.00     0.031 A 
ATOM     12  C   UNL A   1      38.273  30.973  30.376  1.00  0.00     0.074 A 
ATOM     13  C   UNL A   1      38.027  32.543  32.243  1.00  0.00     0.049 A 
ATOM     14  N   UNL A   1      39.326  30.307  30.766  1.00  0.00    -0.248 NA
ATOM     15  C   UNL A   1      37.714  30.537  29.087  1.00  0.00     0.031 C 
ATOM     16  C   UNL A   1      37.548  33.718  32.943  1.00  0.00     0.029 A 
ATOM     17  N   UNL A   1      38.943  32.010  33.118  1.00  0.00    -0.354 N 
ATOM     18  C   UNL A   1      39.593  29.419  29.740  1.00  0.00     0.074 A 
ATOM     19  C   UNL A   1      38.558  29.580  28.744  1.00  0.00     0.031 C 
ATOM     20  C   UNL A   1      38.043  33.754  34.188  1.00  0.00     0.029 A 
ATOM     21  C   UNL A   1      38.957  32.632  34.347  1.00  0.00     0.049 A 
ATOM     22  H   UNL A   1      39.532  31.256  32.888  1.00  0.00     0.167 HD
ATOM     23  C   UNL A   1      40.630  28.558  29.634  1.00  0.00     0.037 A 
ATOM     24  C   UNL A   1      39.647  32.351  35.470  1.00  0.00     0.037 A 
ATOM     25  C   UNL A   1      41.587  28.330  30.679  1.00  0.00     0.049 A 
ATOM     26  C   UNL A   1      40.699  31.283  35.399  1.00  0.00     0.074 A 
ATOM     27  C   UNL A   1      42.654  27.455  30.695  1.00  0.00     0.029 A 
ATOM     28  N   UNL A   1      41.555  28.952  31.921  1.00  0.00    -0.354 N 
ATOM     29  N   UNL A   1      41.015  30.517  34.383  1.00  0.00    -0.248 NA
ATOM     30  C   UNL A   1      41.527  31.074  36.593  1.00  0.00     0.031 C 
ATOM     31  C   UNL A   1      43.224  27.494  31.973  1.00  0.00     0.029 A 
ATOM     32  C   UNL A   1      42.554  28.442  32.731  1.00  0.00     0.049 A 
ATOM     33  H   UNL A   1      40.915  29.653  32.185  1.00  0.00     0.167 HD
ATOM     34  C   UNL A   1      42.104  29.766  34.793  1.00  0.00     0.074 A 
ATOM     35  C   UNL A   1      42.390  30.163  36.159  1.00  0.00     0.031 C 
ATOM     36  C   UNL A   1      42.812  28.848  34.093  1.00  0.00     0.037 A 
BRANCH  23  37
ATOM     37  C   UNL A   1      40.697  27.775  28.361  1.00  0.00     0.064 A 
ATOM     38  C   UNL A   1      40.108  26.503  28.254  1.00  0.00     0.173 A 
ATOM     39  C   UNL A   1      41.449  28.248  27.278  1.00  0.00     0.173 A 
ATOM     40  F   UNL A   1      39.409  25.993  29.280  1.00  0.00    -0.203 F 
ATOM     41  C   UNL A   1      40.316  25.714  27.128  1.00  0.00     0.198 A 
ATOM     42  C   UNL A   1      41.631  27.466  26.142  1.00  0.00     0.198 A 
ATOM     43  F   UNL A   1      42.042  29.449  27.341  1.00  0.00    -0.203 F 
ATOM     44  F   UNL A   1      39.820  24.469  27.083  1.00  0.00    -0.200 F 
ATOM     45  C   UNL A   1      41.079  26.195  26.074  1.00  0.00     0.200 A 
ATOM     46  F   UNL A   1      42.370  27.929  25.126  1.00  0.00    -0.200 F 
ATOM     47  F   UNL A   1      41.303  25.423  25.002  1.00  0.00    -0.200 F 
ENDBRANCH  23  37
BRANCH  24  48
ATOM     48  C   UNL A   1      39.402  33.137  36.709  1.00  0.00     0.064 A 
ATOM     49  C   UNL A   1      38.492  32.707  37.683  1.00  0.00     0.173 A 
ATOM     50  C   UNL A   1      40.110  34.323  36.962  1.00  0.00     0.173 A 
ATOM     51  F   UNL A   1      37.783  31.587  37.487  1.00  0.00    -0.203 F 
ATOM     52  C   UNL A   1      38.295  33.433  38.859  1.00  0.00     0.198 A 
ATOM     53  C   UNL A   1      39.925  35.039  38.144  1.00  0.00     0.198 A 
ATOM     54  F   UNL A   1      40.997  34.778  36.064  1.00  0.00    -0.203 F 
ATOM     55  F   UNL A   1      37.405  33.006  39.766  1.00  0.00    -0.200 F 
ATOM     56  C   UNL A   1      39.015  34.594  39.092  1.00  0.00     0.200 A 
ATOM     57  F   UNL A   1      40.631  36.157  38.369  1.00  0.00    -0.200 F 
ATOM     58  F   UNL A   1      38.833  35.284  40.227  1.00  0.00    -0.200 F 
ENDBRANCH  24  48
BRANCH  36  59
ATOM     59  C   UNL A   1      43.983  28.213  34.780  1.00  0.00     0.064 A 
ATOM     60  C   UNL A   1      43.859  26.998  35.466  1.00  0.00     0.173 A 
ATOM     61  C   UNL A   1      45.260  28.784  34.665  1.00  0.00     0.173 A 
ATOM     62  F   UNL A   1      42.655  26.425  35.614  1.00  0.00    -0.203 F 
ATOM     63  C   UNL A   1      44.975  26.376  36.018  1.00  0.00     0.198 A 
ATOM     64  C   UNL A   1      46.376  28.145  35.193  1.00  0.00     0.198 A 
ATOM     65  F   UNL A   1      45.426  29.945  34.015  1.00  0.00    -0.203 F 
ATOM     66  F   UNL A   1      44.834  25.226  36.691  1.00  0.00    -0.200 F 
ATOM     67  C   UNL A   1      46.233  26.942  35.870  1.00  0.00     0.200 A 
ATOM     68  F   UNL A   1      47.592  28.686  35.036  1.00  0.00    -0.200 F 
ATOM     69  F   UNL A   1      47.309  26.328  36.380  1.00  0.00    -0.200 F 
ENDBRANCH  36  59
ENDBRANCH  10  11
ENDBRANCH   3   5
ENDBRANCH   2   3
ENDBRANCH   1   2
BRANCH   1  70
ATOM     70  C   UNL A   1      32.132  30.745  26.495  1.00  0.00     0.274 C 
BRANCH  70  71
ATOM     71  O   UNL A   1      31.391  30.131  25.438  1.00  0.00    -0.462 OA
BRANCH  71  72
ATOM     72  C   UNL A   1      31.482  28.772  25.336  1.00  0.00     0.309 C 
ATOM     73  O   UNL A   1      31.406  27.992  26.270  1.00  0.00    -0.252 OA
BRANCH  72  74
ATOM     74  C   UNL A   1      31.562  28.363  23.879  1.00  0.00     0.104 C 
ATOM     75  C   UNL A   1      31.125  26.905  23.651  1.00  0.00     0.022 C 
ATOM     76  C   UNL A   1      30.753  29.290  22.958  1.00  0.00     0.055 C 
ATOM     77  C   UNL A   1      29.652  26.611  23.981  1.00  0.00     0.057 C 
ATOM     78  C   UNL A   1      29.308  28.949  23.035  1.00  0.00     0.006 A 
ATOM     79  C   UNL A   1      28.840  27.744  23.502  1.00  0.00     0.039 A 
ATOM     80  C   UNL A   1      28.154  29.683  22.674  1.00  0.00     0.169 A 
ATOM     81  N   UNL A   1      27.485  27.820  23.484  1.00  0.00    -0.282 N 
ATOM     82  N   UNL A   1      27.038  28.977  22.962  1.00  0.00    -0.171 NA
ATOM     83  H   UNL A   1      26.894  27.108  23.817  1.00  0.00     0.190 HD
BRANCH  80  84
ATOM     84  C   UNL A   1      28.141  31.059  22.064  1.00  0.00     0.435 C 
ATOM     85  F   UNL A   1      27.630  31.080  20.805  1.00  0.00    -0.164 F 
ATOM     86  F   UNL A   1      27.422  31.940  22.807  1.00  0.00    -0.164 F 
ATOM     87  F   UNL A   1      29.401  31.576  21.970  1.00  0.00    -0.164 F 
ENDBRANCH  80  84
ENDBRANCH  72  74
ENDBRANCH  71  72
ENDBRANCH  70  71
ENDBRANCH   1  70
TORSDOF 12
ENDMDL
MODEL 3
REMARK VINA RESULT:     -12.2      2.381      3.069
REMARK SMILES O=C(OCCOC(=O)[C@H]1CCc2[nH]nc(C(F)(F)F)c2C1)c1ccc(-c2c3nc(c(-c4c(F)c(F)c(F)c(F)c4F)c4ccc([nH]4)c(-c4c(F)c(F)c(F)c(F)c4F)c4nc(c(-c5c(F)c(F)c(F)c(F)c5F)c5ccc2[nH]5)C=C4)C=C3)cc1
REMARK SMILES IDX 4 1 3 2 2 3 1 4 22 5 23 6 84 7 24 8 83 9 25 10 26 11 27 12
REMARK SMILES IDX 77 13 28 14 82 15 76 16 78 17 29 18 81 19 75 20 74 21 30 23
REMARK SMILES IDX 62 24 42 25 61 26 43 27 46 28 60 29 79 30 44 31 45 32 59 34
REMARK SMILES IDX 80 35 47 36 31 37 32 38 40 39 33 40 34 41 38 42 41 43 35 44
REMARK SMILES IDX 36 45 39 46 37 47 63 48 64 49 72 50 65 51 66 52 70 53 73 54
REMARK SMILES IDX 67 55 68 56 71 57 69 58 48 59 49 60 57 61 50 62 51 63 55 64
REMARK SMILES IDX 58 65 52 66 53 67 56 68 54 69 5 70 6 71 7 72 8 73 9 74 10 75
REMARK SMILES IDX 21 76 11 77 20 78 12 79 15 80 13 81 14 82 16 84 17 85 18 86
REMARK SMILES IDX 19 87
REMARK H PARENT 78 22 46 33 13 83
REMARK Flexibility Score: inf
ROOT
ATOM      1  C   UNL A   1      31.799  32.742  26.727  1.00  0.00     0.275 C 
ENDROOT
BRANCH   1   2
ATOM      2  O   UNL A   1      32.601  33.442  27.701  1.00  0.00    -0.458 OA
BRANCH   2   3
ATOM      3  C   UNL A   1      33.922  33.725  27.754  1.00  0.00     0.338 C 
ATOM      4  O   UNL A   1      34.319  34.758  27.214  1.00  0.00    -0.246 OA
BRANCH   3   5
ATOM      5  C   UNL A   1      34.975  32.816  28.319  1.00  0.00     0.060 A 
ATOM      6  C   UNL A   1      34.796  31.499  28.752  1.00  0.00     0.016 A 
ATOM      7  C   UNL A   1      36.262  33.377  28.466  1.00  0.00     0.016 A 
ATOM      8  C   UNL A   1      35.880  30.739  29.240  1.00  0.00     0.010 A 
ATOM      9  C   UNL A   1      37.345  32.626  28.944  1.00  0.00     0.010 A 
ATOM     10  C   UNL A   1      37.165  31.291  29.329  1.00  0.00    -0.014 A 
BRANCH  10  11
ATOM     11  C   UNL A   1      38.258  30.589  30.054  1.00  0.00     0.031 A 
ATOM     12  C   UNL A   1      38.553  31.051  31.442  1.00  0.00     0.074 A 
ATOM     13  C   UNL A   1      39.012  29.615  29.509  1.00  0.00     0.049 A 
ATOM     14  N   UNL A   1      39.421  30.581  32.296  1.00  0.00    -0.248 NA
ATOM     15  C   UNL A   1      37.732  32.160  31.951  1.00  0.00     0.031 C 
ATOM     16  C   UNL A   1      38.768  28.989  28.226  1.00  0.00     0.029 A 
ATOM     17  N   UNL A   1      40.157  28.993  29.948  1.00  0.00    -0.354 N 
ATOM     18  C   UNL A   1      39.205  31.293  33.462  1.00  0.00     0.074 A 
ATOM     19  C   UNL A   1      38.175  32.270  33.191  1.00  0.00     0.031 C 
ATOM     20  C   UNL A   1      39.790  28.187  27.896  1.00  0.00     0.029 A 
ATOM     21  C   UNL A   1      40.736  28.176  29.002  1.00  0.00     0.049 A 
ATOM     22  H   UNL A   1      40.526  29.119  30.851  1.00  0.00     0.167 HD
ATOM     23  C   UNL A   1      39.804  31.126  34.662  1.00  0.00     0.037 A 
ATOM     24  C   UNL A   1      41.885  27.472  29.030  1.00  0.00     0.037 A 
ATOM     25  C   UNL A   1      40.900  30.228  34.888  1.00  0.00     0.049 A 
ATOM     26  C   UNL A   1      42.640  27.410  30.324  1.00  0.00     0.074 A 
ATOM     27  C   UNL A   1      41.608  30.006  36.052  1.00  0.00     0.029 A 
ATOM     28  N   UNL A   1      41.483  29.439  33.903  1.00  0.00    -0.354 N 
ATOM     29  N   UNL A   1      42.364  28.009  31.458  1.00  0.00    -0.248 NA
ATOM     30  C   UNL A   1      43.822  26.541  30.374  1.00  0.00     0.031 C 
ATOM     31  C   UNL A   1      42.665  29.137  35.755  1.00  0.00     0.029 A 
ATOM     32  C   UNL A   1      42.575  28.766  34.421  1.00  0.00     0.049 A 
ATOM     33  H   UNL A   1      41.165  29.370  32.974  1.00  0.00     0.167 HD
ATOM     34  C   UNL A   1      43.305  27.558  32.368  1.00  0.00     0.074 A 
ATOM     35  C   UNL A   1      44.169  26.640  31.651  1.00  0.00     0.031 C 
ATOM     36  C   UNL A   1      43.426  27.863  33.683  1.00  0.00     0.037 A 
BRANCH  23  37
ATOM     37  C   UNL A   1      39.300  32.000  35.767  1.00  0.00     0.064 A 
ATOM     38  C   UNL A   1      39.859  33.266  36.009  1.00  0.00     0.173 A 
ATOM     39  C   UNL A   1      38.331  31.524  36.660  1.00  0.00     0.173 A 
ATOM     40  F   UNL A   1      40.818  33.747  35.202  1.00  0.00    -0.203 F 
ATOM     41  C   UNL A   1      39.502  34.000  37.136  1.00  0.00     0.198 A 
ATOM     42  C   UNL A   1      37.956  32.274  37.770  1.00  0.00     0.198 A 
ATOM     43  F   UNL A   1      37.780  30.315  36.478  1.00  0.00    -0.203 F 
ATOM     44  F   UNL A   1      40.112  35.165  37.396  1.00  0.00    -0.200 F 
ATOM     45  C   UNL A   1      38.552  33.502  38.016  1.00  0.00     0.200 A 
ATOM     46  F   UNL A   1      37.042  31.792  38.621  1.00  0.00    -0.200 F 
ATOM     47  F   UNL A   1      38.230  34.196  39.116  1.00  0.00    -0.200 F 
ENDBRANCH  23  37
BRANCH  24  48
ATOM     48  C   UNL A   1      42.334  26.735  27.818  1.00  0.00     0.064 A 
ATOM     49  C   UNL A   1      43.195  27.318  26.880  1.00  0.00     0.173 A 
ATOM     50  C   UNL A   1      41.937  25.406  27.595  1.00  0.00     0.173 A 
ATOM     51  F   UNL A   1      43.596  28.587  27.039  1.00  0.00    -0.203 F 
ATOM     52  C   UNL A   1      43.639  26.606  25.764  1.00  0.00     0.198 A 
ATOM     53  C   UNL A   1      42.394  24.689  26.489  1.00  0.00     0.198 A 
ATOM     54  F   UNL A   1      41.116  24.797  28.464  1.00  0.00    -0.203 F 
ATOM     55  F   UNL A   1      44.449  27.195  24.874  1.00  0.00    -0.200 F 
ATOM     56  C   UNL A   1      43.243  25.290  25.573  1.00  0.00     0.200 A 
ATOM     57  F   UNL A   1      42.015  23.415  26.314  1.00  0.00    -0.200 F 
ATOM     58  F   UNL A   1      43.679  24.604  24.507  1.00  0.00    -0.200 F 
ENDBRANCH  24  48
BRANCH  36  59
ATOM     59  C   UNL A   1      44.525  27.189  34.446  1.00  0.00     0.064 A 
ATOM     60  C   UNL A   1      44.343  25.930  35.035  1.00  0.00     0.173 A 
ATOM     61  C   UNL A   1      45.801  27.770  34.504  1.00  0.00     0.173 A 
ATOM     62  F   UNL A   1      43.137  25.343  35.018  1.00  0.00    -0.203 F 
ATOM     63  C   UNL A   1      45.402  25.278  35.660  1.00  0.00     0.198 A 
ATOM     64  C   UNL A   1      46.863  27.103  35.105  1.00  0.00     0.198 A 
ATOM     65  F   UNL A   1      46.021  28.973  33.952  1.00  0.00    -0.203 F 
ATOM     66  F   UNL A   1      45.204  24.085  36.238  1.00  0.00    -0.200 F 
ATOM     67  C   UNL A   1      46.662  25.857  35.682  1.00  0.00     0.200 A 
ATOM     68  F   UNL A   1      48.082  27.658  35.111  1.00  0.00    -0.200 F 
ATOM     69  F   UNL A   1      47.686  25.216  36.262  1.00  0.00    -0.200 F 
ENDBRANCH  36  59
ENDBRANCH  10  11
ENDBRANCH   3   5
ENDBRANCH   2   3
ENDBRANCH   1   2
BRANCH   1  70
ATOM     70  C   UNL A   1      31.866  31.225  26.863  1.00  0.00     0.274 C 
BRANCH  70  71
ATOM     71  O   UNL A   1      31.868  30.620  25.568  1.00  0.00    -0.462 OA
BRANCH  71  72
ATOM     72  C   UNL A   1      32.465  29.395  25.467  1.00  0.00     0.309 C 
ATOM     73  O   UNL A   1      33.650  29.175  25.646  1.00  0.00    -0.252 OA
BRANCH  72  74
ATOM     74  C   UNL A   1      31.419  28.324  25.228  1.00  0.00     0.104 C 
ATOM     75  C   UNL A   1      30.528  28.629  24.012  1.00  0.00     0.022 C 
ATOM     76  C   UNL A   1      32.031  26.922  25.076  1.00  0.00     0.055 C 
ATOM     77  C   UNL A   1      31.264  28.659  22.661  1.00  0.00     0.057 C 
ATOM     78  C   UNL A   1      32.593  26.759  23.709  1.00  0.00     0.006 A 
ATOM     79  C   UNL A   1      32.238  27.552  22.646  1.00  0.00     0.039 A 
ATOM     80  C   UNL A   1      33.530  25.835  23.190  1.00  0.00     0.169 A 
ATOM     81  N   UNL A   1      32.995  27.153  21.592  1.00  0.00    -0.282 N 
ATOM     82  N   UNL A   1      33.772  26.095  21.885  1.00  0.00    -0.171 NA
ATOM     83  H   UNL A   1      32.978  27.591  20.712  1.00  0.00     0.190 HD
BRANCH  80  84
ATOM     84  C   UNL A   1      34.187  24.720  23.957  1.00  0.00     0.435 C 
ATOM     85  F   UNL A   1      34.842  25.148  25.068  1.00  0.00    -0.164 F 
ATOM     86  F   UNL A   1      33.292  23.777  24.354  1.00  0.00    -0.164 F 
ATOM     87  F   UNL A   1      35.116  24.070  23.198  1.00  0.00    -0.164 F 
ENDBRANCH  80  84
ENDBRANCH  72  74
ENDBRANCH  71  72
ENDBRANCH  70  71
ENDBRANCH   1  70
TORSDOF 12
ENDMDL
