MODEL 1
REMARK VINA RESULT:     -13.6      0.000      0.000
REMARK SMILES O=C(N[C@H]1c2ccccc2C[C@H]1C(=O)OCCOC(=O)c1ccc(-c2c3nc(c(-c4c(F)c(F)c(F)c(F)c4F)c4ccc([nH]4)c(-c4c(F)c(F)c(F)c(F)c4F)c4nc(c(-c5c(F)c(F)c(F)c(F)c5F)c5ccc2[nH]5)C=C4)C=C3)cc1)OCC1c2ccccc2-c2ccccc21
REMARK SMILES IDX 16 1 15 2 13 3 14 4 12 5 4 6 5 7 6 8 10 9 11 10 7 11 9 12
REMARK SMILES IDX 8 13 3 14 1 15 2 16 84 18 85 19 86 20 87 21 98 22 88 23
REMARK SMILES IDX 92 24 93 25 97 26 89 27 91 28 94 29 96 30 90 31 95 32 17 33
REMARK SMILES IDX 18 34 19 35 20 36 21 37 22 38 83 39 23 40 82 41 24 42 25 43
REMARK SMILES IDX 26 44 76 45 27 46 81 47 75 48 77 49 28 50 80 51 74 52 73 53
REMARK SMILES IDX 29 55 61 56 41 57 60 58 42 59 45 60 59 61 78 62 43 63 44 64
REMARK SMILES IDX 58 66 79 67 46 68 30 69 31 70 39 71 32 72 33 73 37 74 40 75
REMARK SMILES IDX 34 76 35 77 38 78 36 79 62 80 63 81 71 82 64 83 65 84 69 85
REMARK SMILES IDX 72 86 66 87 67 88 70 89 68 90 47 91 48 92 56 93 49 94 50 95
REMARK SMILES IDX 54 96 57 97 51 98 52 99 55 100 53 101
REMARK H PARENT 3 17 77 54 45 65
REMARK Flexibility Score: inf
ROOT
ATOM      1  C   UNL A   1      31.451  29.619  24.943  1.00  0.00     0.274 C 
ENDROOT
BRANCH   1   2
ATOM      2  O   UNL A   1      32.675  29.444  24.198  1.00  0.00    -0.462 OA
BRANCH   2   3
ATOM      3  C   UNL A   1      33.193  28.194  24.101  1.00  0.00     0.311 C 
ATOM      4  O   UNL A   1      34.308  27.943  23.660  1.00  0.00    -0.252 OA
BRANCH   3   5
ATOM      5  C   UNL A   1      32.301  27.160  24.765  1.00  0.00     0.130 C 
ATOM      6  C   UNL A   1      31.516  26.155  23.897  1.00  0.00     0.130 C 
ATOM      7  C   UNL A   1      31.567  24.893  24.715  1.00  0.00    -0.021 A 
ATOM      8  C   UNL A   1      30.785  23.758  24.559  1.00  0.00     0.006 A 
ATOM      9  C   UNL A   1      32.366  25.056  25.848  1.00  0.00    -0.042 A 
ATOM     10  C   UNL A   1      33.107  26.349  25.801  1.00  0.00     0.053 C 
ATOM     11  C   UNL A   1      30.802  22.793  25.569  1.00  0.00     0.000 A 
ATOM     12  C   UNL A   1      32.398  24.102  26.851  1.00  0.00     0.004 A 
ATOM     13  C   UNL A   1      31.598  22.969  26.712  1.00  0.00     0.000 A 
BRANCH   6  14
ATOM     14  N   UNL A   1      31.915  26.040  22.535  1.00  0.00    -0.314 N 
ATOM     15  O   UNL A   1      33.132  25.399  20.785  1.00  0.00    -0.225 OA
ATOM     16  C   UNL A   1      32.969  25.347  22.002  1.00  0.00     0.407 C 
ATOM     17  H   UNL A   1      31.354  26.523  21.887  1.00  0.00     0.167 HD
BRANCH  16  18
ATOM     18  O   UNL A   1      33.872  24.693  22.780  1.00  0.00    -0.449 OA
BRANCH  18  19
ATOM     19  C   UNL A   1      34.372  23.322  22.731  1.00  0.00     0.248 C 
BRANCH  19  20
ATOM     20  C   UNL A   1      34.265  22.690  24.129  1.00  0.00     0.088 C 
ATOM     21  C   UNL A   1      33.909  21.199  24.144  1.00  0.00    -0.029 A 
ATOM     22  C   UNL A   1      35.646  22.673  24.781  1.00  0.00    -0.029 A 
ATOM     23  C   UNL A   1      32.712  20.575  23.815  1.00  0.00     0.005 A 
ATOM     24  C   UNL A   1      34.985  20.447  24.662  1.00  0.00    -0.014 A 
ATOM     25  C   UNL A   1      36.059  21.347  25.021  1.00  0.00    -0.014 A 
ATOM     26  C   UNL A   1      36.467  23.754  25.067  1.00  0.00     0.005 A 
ATOM     27  C   UNL A   1      32.611  19.190  23.963  1.00  0.00     0.000 A 
ATOM     28  C   UNL A   1      34.883  19.072  24.818  1.00  0.00     0.009 A 
ATOM     29  C   UNL A   1      37.322  21.088  25.523  1.00  0.00     0.009 A 
ATOM     30  C   UNL A   1      37.738  23.491  25.578  1.00  0.00     0.000 A 
ATOM     31  C   UNL A   1      33.688  18.443  24.458  1.00  0.00     0.001 A 
ATOM     32  C   UNL A   1      38.166  22.171  25.795  1.00  0.00     0.001 A 
ENDBRANCH  19  20
ENDBRANCH  18  19
ENDBRANCH  16  18
ENDBRANCH   6  14
ENDBRANCH   3   5
ENDBRANCH   2   3
ENDBRANCH   1   2
BRANCH   1  33
ATOM     33  C   UNL A   1      31.697  30.508  26.167  1.00  0.00     0.275 C 
BRANCH  33  34
ATOM     34  O   UNL A   1      33.105  30.613  26.455  1.00  0.00    -0.458 OA
BRANCH  34  35
ATOM     35  C   UNL A   1      33.472  31.725  27.138  1.00  0.00     0.338 C 
ATOM     36  O   UNL A   1      32.821  32.741  27.296  1.00  0.00    -0.246 OA
BRANCH  35  37
ATOM     37  C   UNL A   1      34.713  31.446  27.882  1.00  0.00     0.060 A 
ATOM     38  C   UNL A   1      34.825  30.188  28.478  1.00  0.00     0.016 A 
ATOM     39  C   UNL A   1      35.744  32.376  28.007  1.00  0.00     0.016 A 
ATOM     40  C   UNL A   1      35.974  29.823  29.159  1.00  0.00     0.010 A 
ATOM     41  C   UNL A   1      36.898  32.020  28.713  1.00  0.00     0.010 A 
ATOM     42  C   UNL A   1      37.021  30.738  29.278  1.00  0.00    -0.014 A 
BRANCH  42  43
ATOM     43  C   UNL A   1      38.220  30.346  30.045  1.00  0.00     0.031 A 
ATOM     44  C   UNL A   1      39.202  29.394  29.438  1.00  0.00     0.074 A 
ATOM     45  C   UNL A   1      38.444  30.889  31.254  1.00  0.00     0.049 A 
ATOM     46  N   UNL A   1      40.256  28.838  29.973  1.00  0.00    -0.248 NA
ATOM     47  C   UNL A   1      38.967  29.020  28.034  1.00  0.00     0.031 C 
ATOM     48  C   UNL A   1      37.594  31.893  31.896  1.00  0.00     0.029 A 
ATOM     49  N   UNL A   1      39.450  30.673  32.159  1.00  0.00    -0.354 N 
ATOM     50  C   UNL A   1      40.798  28.031  28.984  1.00  0.00     0.074 A 
ATOM     51  C   UNL A   1      39.954  28.162  27.816  1.00  0.00     0.031 C 
ATOM     52  C   UNL A   1      38.107  32.193  33.101  1.00  0.00     0.029 A 
ATOM     53  C   UNL A   1      39.286  31.364  33.333  1.00  0.00     0.049 A 
ATOM     54  H   UNL A   1      40.216  30.080  31.983  1.00  0.00     0.167 HD
ATOM     55  C   UNL A   1      41.903  27.252  29.054  1.00  0.00     0.037 A 
ATOM     56  C   UNL A   1      39.982  31.295  34.483  1.00  0.00     0.037 A 
ATOM     57  C   UNL A   1      42.732  27.138  30.225  1.00  0.00     0.049 A 
ATOM     58  C   UNL A   1      41.154  30.353  34.564  1.00  0.00     0.074 A 
ATOM     59  C   UNL A   1      43.866  26.367  30.410  1.00  0.00     0.029 A 
ATOM     60  N   UNL A   1      42.512  27.820  31.414  1.00  0.00    -0.354 N 
ATOM     61  N   UNL A   1      41.647  29.566  33.639  1.00  0.00    -0.248 NA
ATOM     62  C   UNL A   1      41.860  30.282  35.850  1.00  0.00     0.031 C 
ATOM     63  C   UNL A   1      44.305  26.548  31.726  1.00  0.00     0.029 A 
ATOM     64  C   UNL A   1      43.476  27.471  32.346  1.00  0.00     0.049 A 
ATOM     65  H   UNL A   1      41.779  28.457  31.572  1.00  0.00     0.167 HD
ATOM     66  C   UNL A   1      42.726  28.918  34.222  1.00  0.00     0.074 A 
ATOM     67  C   UNL A   1      42.829  29.420  35.577  1.00  0.00     0.031 C 
ATOM     68  C   UNL A   1      43.556  27.988  33.687  1.00  0.00     0.037 A 
BRANCH  55  69
ATOM     69  C   UNL A   1      42.245  26.430  27.846  1.00  0.00     0.064 A 
ATOM     70  C   UNL A   1      43.193  26.855  26.906  1.00  0.00     0.173 A 
ATOM     71  C   UNL A   1      41.624  25.189  27.639  1.00  0.00     0.173 A 
ATOM     72  F   UNL A   1      43.801  28.042  27.049  1.00  0.00    -0.203 F 
ATOM     73  C   UNL A   1      43.490  26.079  25.788  1.00  0.00     0.198 A 
ATOM     74  C   UNL A   1      41.942  24.404  26.533  1.00  0.00     0.198 A 
ATOM     75  F   UNL A   1      40.708  24.736  28.508  1.00  0.00    -0.203 F 
ATOM     76  F   UNL A   1      44.364  26.527  24.876  1.00  0.00    -0.200 F 
ATOM     77  C   UNL A   1      42.869  24.852  25.605  1.00  0.00     0.200 A 
ATOM     78  F   UNL A   1      41.347  23.215  26.365  1.00  0.00    -0.200 F 
ATOM     79  F   UNL A   1      43.157  24.107  24.530  1.00  0.00    -0.200 F 
ENDBRANCH  55  69
BRANCH  56  80
ATOM     80  C   UNL A   1      39.557  32.098  35.659  1.00  0.00     0.064 A 
ATOM     81  C   UNL A   1      40.115  33.355  35.921  1.00  0.00     0.173 A 
ATOM     82  C   UNL A   1      38.583  31.620  36.549  1.00  0.00     0.173 A 
ATOM     83  F   UNL A   1      41.069  33.846  35.114  1.00  0.00    -0.203 F 
ATOM     84  C   UNL A   1      39.728  34.098  37.035  1.00  0.00     0.198 A 
ATOM     85  C   UNL A   1      38.174  32.375  37.646  1.00  0.00     0.198 A 
ATOM     86  F   UNL A   1      38.018  30.420  36.347  1.00  0.00    -0.203 F 
ATOM     87  F   UNL A   1      40.310  35.277  37.288  1.00  0.00    -0.200 F 
ATOM     88  C   UNL A   1      38.752  33.610  37.893  1.00  0.00     0.200 A 
ATOM     89  F   UNL A   1      37.222  31.905  38.463  1.00  0.00    -0.200 F 
ATOM     90  F   UNL A   1      38.375  34.326  38.961  1.00  0.00    -0.200 F 
ENDBRANCH  56  80
BRANCH  68  91
ATOM     91  C   UNL A   1      44.662  27.476  34.562  1.00  0.00     0.064 A 
ATOM     92  C   UNL A   1      44.505  26.321  35.343  1.00  0.00     0.173 A 
ATOM     93  C   UNL A   1      45.906  28.123  34.585  1.00  0.00     0.173 A 
ATOM     94  F   UNL A   1      43.327  25.679  35.368  1.00  0.00    -0.203 F 
ATOM     95  C   UNL A   1      45.550  25.843  36.128  1.00  0.00     0.198 A 
ATOM     96  C   UNL A   1      46.958  27.625  35.348  1.00  0.00     0.198 A 
ATOM     97  F   UNL A   1      46.107  29.227  33.851  1.00  0.00    -0.203 F 
ATOM     98  F   UNL A   1      45.366  24.761  36.898  1.00  0.00    -0.200 F 
ATOM     99  C   UNL A   1      46.777  26.490  36.124  1.00  0.00     0.200 A 
ATOM    100  F   UNL A   1      48.147  28.243  35.333  1.00  0.00    -0.200 F 
ATOM    101  F   UNL A   1      47.785  26.022  36.872  1.00  0.00    -0.200 F 
ENDBRANCH  68  91
ENDBRANCH  42  43
ENDBRANCH  35  37
ENDBRANCH  34  35
ENDBRANCH  33  34
ENDBRANCH   1  33
TORSDOF 15
ENDMDL
MODEL 2
REMARK VINA RESULT:     -13.5      0.175      1.865
REMARK SMILES O=C(N[C@H]1c2ccccc2C[C@H]1C(=O)OCCOC(=O)c1ccc(-c2c3nc(c(-c4c(F)c(F)c(F)c(F)c4F)c4ccc([nH]4)c(-c4c(F)c(F)c(F)c(F)c4F)c4nc(c(-c5c(F)c(F)c(F)c(F)c5F)c5ccc2[nH]5)C=C4)C=C3)cc1)OCC1c2ccccc2-c2ccccc21
REMARK SMILES IDX 16 1 15 2 13 3 14 4 12 5 4 6 5 7 6 8 10 9 11 10 7 11 9 12
REMARK SMILES IDX 8 13 3 14 1 15 2 16 84 18 85 19 86 20 87 21 98 22 88 23
REMARK SMILES IDX 92 24 93 25 97 26 89 27 91 28 94 29 96 30 90 31 95 32 17 33
REMARK SMILES IDX 18 34 19 35 20 36 21 37 22 38 83 39 23 40 82 41 24 42 25 43
REMARK SMILES IDX 26 44 76 45 27 46 81 47 75 48 77 49 28 50 80 51 74 52 73 53
REMARK SMILES IDX 29 55 61 56 41 57 60 58 42 59 45 60 59 61 78 62 43 63 44 64
REMARK SMILES IDX 58 66 79 67 46 68 30 69 31 70 39 71 32 72 33 73 37 74 40 75
REMARK SMILES IDX 34 76 35 77 38 78 36 79 62 80 63 81 71 82 64 83 65 84 69 85
REMARK SMILES IDX 72 86 66 87 67 88 70 89 68 90 47 91 48 92 56 93 49 94 50 95
REMARK SMILES IDX 54 96 57 97 51 98 52 99 55 100 53 101
REMARK H PARENT 3 17 77 54 45 65
REMARK Flexibility Score: inf
ROOT
ATOM      1  C   UNL A   1      31.476  29.723  25.134  1.00  0.00     0.274 C 
ENDROOT
BRANCH   1   2
ATOM      2  O   UNL A   1      32.670  29.541  24.344  1.00  0.00    -0.462 OA
BRANCH   2   3
ATOM      3  C   UNL A   1      33.148  28.281  24.185  1.00  0.00     0.311 C 
ATOM      4  O   UNL A   1      34.251  28.017  23.721  1.00  0.00    -0.252 OA
BRANCH   3   5
ATOM      5  C   UNL A   1      32.231  27.246  24.812  1.00  0.00     0.130 C 
ATOM      6  C   UNL A   1      31.469  26.252  23.912  1.00  0.00     0.130 C 
ATOM      7  C   UNL A   1      31.489  24.984  24.721  1.00  0.00    -0.021 A 
ATOM      8  C   UNL A   1      30.707  23.854  24.531  1.00  0.00     0.006 A 
ATOM      9  C   UNL A   1      32.251  25.134  25.880  1.00  0.00    -0.042 A 
ATOM     10  C   UNL A   1      32.999  26.423  25.867  1.00  0.00     0.053 C 
ATOM     11  C   UNL A   1      30.688  22.881  25.533  1.00  0.00     0.000 A 
ATOM     12  C   UNL A   1      32.247  24.173  26.876  1.00  0.00     0.004 A 
ATOM     13  C   UNL A   1      31.447  23.044  26.703  1.00  0.00     0.000 A 
BRANCH   6  14
ATOM     14  N   UNL A   1      31.911  26.145  22.562  1.00  0.00    -0.314 N 
ATOM     15  O   UNL A   1      33.161  25.484  20.842  1.00  0.00    -0.225 OA
ATOM     16  C   UNL A   1      32.952  25.415  22.052  1.00  0.00     0.407 C 
ATOM     17  H   UNL A   1      31.397  26.667  21.905  1.00  0.00     0.167 HD
BRANCH  16  18
ATOM     18  O   UNL A   1      33.796  24.705  22.847  1.00  0.00    -0.449 OA
BRANCH  18  19
ATOM     19  C   UNL A   1      34.270  23.327  22.759  1.00  0.00     0.248 C 
BRANCH  19  20
ATOM     20  C   UNL A   1      34.181  22.668  24.147  1.00  0.00     0.088 C 
ATOM     21  C   UNL A   1      33.827  21.177  24.137  1.00  0.00    -0.029 A 
ATOM     22  C   UNL A   1      35.571  22.640  24.780  1.00  0.00    -0.029 A 
ATOM     23  C   UNL A   1      32.626  20.559  23.812  1.00  0.00     0.005 A 
ATOM     24  C   UNL A   1      34.910  20.416  24.627  1.00  0.00    -0.014 A 
ATOM     25  C   UNL A   1      35.988  21.310  24.990  1.00  0.00    -0.014 A 
ATOM     26  C   UNL A   1      36.394  23.716  25.076  1.00  0.00     0.005 A 
ATOM     27  C   UNL A   1      32.528  19.170  23.935  1.00  0.00     0.000 A 
ATOM     28  C   UNL A   1      34.811  19.039  24.758  1.00  0.00     0.009 A 
ATOM     29  C   UNL A   1      37.258  21.043  25.470  1.00  0.00     0.009 A 
ATOM     30  C   UNL A   1      37.672  23.445  25.565  1.00  0.00     0.000 A 
ATOM     31  C   UNL A   1      33.612  18.415  24.402  1.00  0.00     0.001 A 
ATOM     32  C   UNL A   1      38.104  22.121  25.751  1.00  0.00     0.001 A 
ENDBRANCH  19  20
ENDBRANCH  18  19
ENDBRANCH  16  18
ENDBRANCH   6  14
ENDBRANCH   3   5
ENDBRANCH   2   3
ENDBRANCH   1   2
BRANCH   1  33
ATOM     33  C   UNL A   1      31.774  30.603  26.353  1.00  0.00     0.275 C 
BRANCH  33  34
ATOM     34  O   UNL A   1      33.194  30.707  26.579  1.00  0.00    -0.458 OA
BRANCH  34  35
ATOM     35  C   UNL A   1      33.590  31.815  27.251  1.00  0.00     0.338 C 
ATOM     36  O   UNL A   1      32.965  32.849  27.401  1.00  0.00    -0.246 OA
BRANCH  35  37
ATOM     37  C   UNL A   1      34.825  31.511  27.996  1.00  0.00     0.060 A 
ATOM     38  C   UNL A   1      34.907  30.254  28.598  1.00  0.00     0.016 A 
ATOM     39  C   UNL A   1      35.876  32.418  28.118  1.00  0.00     0.016 A 
ATOM     40  C   UNL A   1      36.048  29.865  29.281  1.00  0.00     0.010 A 
ATOM     41  C   UNL A   1      37.022  32.039  28.825  1.00  0.00     0.010 A 
ATOM     42  C   UNL A   1      37.116  30.757  29.397  1.00  0.00    -0.014 A 
BRANCH  42  43
ATOM     43  C   UNL A   1      38.306  30.340  30.165  1.00  0.00     0.031 A 
ATOM     44  C   UNL A   1      39.280  29.385  29.551  1.00  0.00     0.074 A 
ATOM     45  C   UNL A   1      38.529  30.866  31.383  1.00  0.00     0.049 A 
ATOM     46  N   UNL A   1      40.325  28.810  30.085  1.00  0.00    -0.248 NA
ATOM     47  C   UNL A   1      39.049  29.033  28.141  1.00  0.00     0.031 C 
ATOM     48  C   UNL A   1      37.686  31.871  32.033  1.00  0.00     0.029 A 
ATOM     49  N   UNL A   1      39.527  30.626  32.290  1.00  0.00    -0.354 N 
ATOM     50  C   UNL A   1      40.863  28.010  29.089  1.00  0.00     0.074 A 
ATOM     51  C   UNL A   1      40.027  28.166  27.917  1.00  0.00     0.031 C 
ATOM     52  C   UNL A   1      38.195  32.149  33.244  1.00  0.00     0.029 A 
ATOM     53  C   UNL A   1      39.363  31.303  33.472  1.00  0.00     0.049 A 
ATOM     54  H   UNL A   1      40.287  30.026  32.111  1.00  0.00     0.167 HD
ATOM     55  C   UNL A   1      41.958  27.218  29.155  1.00  0.00     0.037 A 
ATOM     56  C   UNL A   1      40.051  31.211  34.625  1.00  0.00     0.037 A 
ATOM     57  C   UNL A   1      42.779  27.078  30.329  1.00  0.00     0.049 A 
ATOM     58  C   UNL A   1      41.212  30.255  34.701  1.00  0.00     0.074 A 
ATOM     59  C   UNL A   1      43.903  26.292  30.511  1.00  0.00     0.029 A 
ATOM     60  N   UNL A   1      42.559  27.747  31.526  1.00  0.00    -0.354 N 
ATOM     61  N   UNL A   1      41.701  29.474  33.768  1.00  0.00    -0.248 NA
ATOM     62  C   UNL A   1      41.909  30.159  35.990  1.00  0.00     0.031 C 
ATOM     63  C   UNL A   1      44.336  26.450  31.832  1.00  0.00     0.029 A 
ATOM     64  C   UNL A   1      43.514  27.375  32.458  1.00  0.00     0.049 A 
ATOM     65  H   UNL A   1      41.833  28.391  31.687  1.00  0.00     0.167 HD
ATOM     66  C   UNL A   1      42.769  28.805  34.349  1.00  0.00     0.074 A 
ATOM     67  C   UNL A   1      42.870  29.289  35.712  1.00  0.00     0.031 C 
ATOM     68  C   UNL A   1      43.592  27.874  33.807  1.00  0.00     0.037 A 
BRANCH  55  69
ATOM     69  C   UNL A   1      42.298  26.407  27.939  1.00  0.00     0.064 A 
ATOM     70  C   UNL A   1      41.683  25.176  27.674  1.00  0.00     0.173 A 
ATOM     71  C   UNL A   1      43.245  26.881  27.018  1.00  0.00     0.173 A 
ATOM     72  F   UNL A   1      40.786  24.670  28.533  1.00  0.00    -0.203 F 
ATOM     73  C   UNL A   1      42.021  24.436  26.543  1.00  0.00     0.198 A 
ATOM     74  C   UNL A   1      43.561  26.151  25.874  1.00  0.00     0.198 A 
ATOM     75  F   UNL A   1      43.863  28.053  27.225  1.00  0.00    -0.203 F 
ATOM     76  F   UNL A   1      41.456  23.238  26.335  1.00  0.00    -0.200 F 
ATOM     77  C   UNL A   1      42.954  24.926  25.642  1.00  0.00     0.200 A 
ATOM     78  F   UNL A   1      44.456  26.631  25.001  1.00  0.00    -0.200 F 
ATOM     79  F   UNL A   1      43.276  24.213  24.554  1.00  0.00    -0.200 F 
ENDBRANCH  55  69
BRANCH  56  80
ATOM     80  C   UNL A   1      39.629  32.004  35.809  1.00  0.00     0.064 A 
ATOM     81  C   UNL A   1      38.580  31.578  36.634  1.00  0.00     0.173 A 
ATOM     82  C   UNL A   1      40.268  33.210  36.138  1.00  0.00     0.173 A 
ATOM     83  F   UNL A   1      37.921  30.445  36.348  1.00  0.00    -0.203 F 
ATOM     84  C   UNL A   1      38.176  32.334  37.733  1.00  0.00     0.198 A 
ATOM     85  C   UNL A   1      39.883  33.950  37.253  1.00  0.00     0.198 A 
ATOM     86  F   UNL A   1      41.277  33.665  35.379  1.00  0.00    -0.203 F 
ATOM     87  F   UNL A   1      37.140  31.927  38.479  1.00  0.00    -0.200 F 
ATOM     88  C   UNL A   1      38.832  33.516  38.046  1.00  0.00     0.200 A 
ATOM     89  F   UNL A   1      40.529  35.084  37.559  1.00  0.00    -0.200 F 
ATOM     90  F   UNL A   1      38.447  34.240  39.106  1.00  0.00    -0.200 F 
ENDBRANCH  56  80
BRANCH  68  91
ATOM     91  C   UNL A   1      44.686  27.338  34.682  1.00  0.00     0.064 A 
ATOM     92  C   UNL A   1      45.932  27.976  34.773  1.00  0.00     0.173 A 
ATOM     93  C   UNL A   1      44.469  26.200  35.473  1.00  0.00     0.173 A 
ATOM     94  F   UNL A   1      46.192  29.057  34.023  1.00  0.00    -0.203 F 
ATOM     95  C   UNL A   1      46.928  27.482  35.611  1.00  0.00     0.198 A 
ATOM     96  C   UNL A   1      45.456  25.726  36.332  1.00  0.00     0.198 A 
ATOM     97  F   UNL A   1      43.292  25.558  35.426  1.00  0.00    -0.203 F 
ATOM     98  F   UNL A   1      48.125  28.083  35.652  1.00  0.00    -0.200 F 
ATOM     99  C   UNL A   1      46.687  26.363  36.395  1.00  0.00     0.200 A 
ATOM    100  F   UNL A   1      45.218  24.653  37.098  1.00  0.00    -0.200 F 
ATOM    101  F   UNL A   1      47.642  25.895  37.209  1.00  0.00    -0.200 F 
ENDBRANCH  68  91
ENDBRANCH  42  43
ENDBRANCH  35  37
ENDBRANCH  34  35
ENDBRANCH  33  34
ENDBRANCH   1  33
TORSDOF 15
ENDMDL
MODEL 3
REMARK VINA RESULT:     -13.3      4.270      9.733
REMARK SMILES O=C(N[C@H]1c2ccccc2C[C@H]1C(=O)OCCOC(=O)c1ccc(-c2c3nc(c(-c4c(F)c(F)c(F)c(F)c4F)c4ccc([nH]4)c(-c4c(F)c(F)c(F)c(F)c4F)c4nc(c(-c5c(F)c(F)c(F)c(F)c5F)c5ccc2[nH]5)C=C4)C=C3)cc1)OCC1c2ccccc2-c2ccccc21
REMARK SMILES IDX 16 1 15 2 13 3 14 4 12 5 4 6 5 7 6 8 10 9 11 10 7 11 9 12
REMARK SMILES IDX 8 13 3 14 1 15 2 16 84 18 85 19 86 20 87 21 98 22 88 23
REMARK SMILES IDX 92 24 93 25 97 26 89 27 91 28 94 29 96 30 90 31 95 32 17 33
REMARK SMILES IDX 18 34 19 35 20 36 21 37 22 38 83 39 23 40 82 41 24 42 25 43
REMARK SMILES IDX 26 44 76 45 27 46 81 47 75 48 77 49 28 50 80 51 74 52 73 53
REMARK SMILES IDX 29 55 61 56 41 57 60 58 42 59 45 60 59 61 78 62 43 63 44 64
REMARK SMILES IDX 58 66 79 67 46 68 30 69 31 70 39 71 32 72 33 73 37 74 40 75
REMARK SMILES IDX 34 76 35 77 38 78 36 79 62 80 63 81 71 82 64 83 65 84 69 85
REMARK SMILES IDX 72 86 66 87 67 88 70 89 68 90 47 91 48 92 56 93 49 94 50 95
REMARK SMILES IDX 54 96 57 97 51 98 52 99 55 100 53 101
REMARK H PARENT 3 17 77 54 45 65
REMARK Flexibility Score: inf
ROOT
ATOM      1  C   UNL A   1      35.707  20.747  25.281  1.00  0.00     0.274 C 
ENDROOT
BRANCH   1   2
ATOM      2  O   UNL A   1      35.448  21.465  26.507  1.00  0.00    -0.462 OA
BRANCH   2   3
ATOM      3  C   UNL A   1      34.479  22.413  26.500  1.00  0.00     0.311 C 
ATOM      4  O   UNL A   1      34.038  22.953  27.509  1.00  0.00    -0.252 OA
BRANCH   3   5
ATOM      5  C   UNL A   1      34.130  22.856  25.091  1.00  0.00     0.130 C 
ATOM      6  C   UNL A   1      32.659  22.834  24.623  1.00  0.00     0.130 C 
ATOM      7  C   UNL A   1      32.567  24.057  23.751  1.00  0.00    -0.021 A 
ATOM      8  C   UNL A   1      31.565  24.367  22.844  1.00  0.00     0.006 A 
ATOM      9  C   UNL A   1      33.755  24.789  23.778  1.00  0.00    -0.042 A 
ATOM     10  C   UNL A   1      34.681  24.272  24.825  1.00  0.00     0.053 C 
ATOM     11  C   UNL A   1      31.781  25.416  21.946  1.00  0.00     0.000 A 
ATOM     12  C   UNL A   1      33.975  25.837  22.901  1.00  0.00     0.004 A 
ATOM     13  C   UNL A   1      32.983  26.141  21.970  1.00  0.00     0.000 A 
BRANCH   6  14
ATOM     14  N   UNL A   1      31.669  22.707  25.638  1.00  0.00    -0.314 N 
ATOM     15  O   UNL A   1      30.264  23.336  27.246  1.00  0.00    -0.225 OA
ATOM     16  C   UNL A   1      31.101  23.682  26.414  1.00  0.00     0.407 C 
ATOM     17  H   UNL A   1      31.346  21.792  25.803  1.00  0.00     0.167 HD
BRANCH  16  18
ATOM     18  O   UNL A   1      31.499  24.980  26.351  1.00  0.00    -0.449 OA
BRANCH  18  19
ATOM     19  C   UNL A   1      30.737  26.213  26.176  1.00  0.00     0.248 C 
BRANCH  19  20
ATOM     20  C   UNL A   1      31.423  27.090  25.114  1.00  0.00     0.088 C 
ATOM     21  C   UNL A   1      30.486  28.014  24.327  1.00  0.00    -0.029 A 
ATOM     22  C   UNL A   1      32.329  28.105  25.808  1.00  0.00    -0.029 A 
ATOM     23  C   UNL A   1      29.522  27.692  23.380  1.00  0.00     0.005 A 
ATOM     24  C   UNL A   1      30.782  29.364  24.613  1.00  0.00    -0.014 A 
ATOM     25  C   UNL A   1      31.889  29.418  25.543  1.00  0.00    -0.014 A 
ATOM     26  C   UNL A   1      33.405  27.854  26.647  1.00  0.00     0.005 A 
ATOM     27  C   UNL A   1      28.823  28.726  22.751  1.00  0.00     0.000 A 
ATOM     28  C   UNL A   1      30.095  30.391  23.982  1.00  0.00     0.009 A 
ATOM     29  C   UNL A   1      32.507  30.498  26.147  1.00  0.00     0.009 A 
ATOM     30  C   UNL A   1      34.030  28.945  27.250  1.00  0.00     0.000 A 
ATOM     31  C   UNL A   1      29.105  30.065  23.051  1.00  0.00     0.001 A 
ATOM     32  C   UNL A   1      33.580  30.254  27.011  1.00  0.00     0.001 A 
ENDBRANCH  19  20
ENDBRANCH  18  19
ENDBRANCH  16  18
ENDBRANCH   6  14
ENDBRANCH   3   5
ENDBRANCH   2   3
ENDBRANCH   1   2
BRANCH   1  33
ATOM     33  C   UNL A   1      37.211  20.722  24.988  1.00  0.00     0.275 C 
BRANCH  33  34
ATOM     34  O   UNL A   1      37.901  21.738  25.742  1.00  0.00    -0.458 OA
BRANCH  34  35
ATOM     35  C   UNL A   1      39.099  21.363  26.252  1.00  0.00     0.338 C 
ATOM     36  O   UNL A   1      39.592  20.250  26.235  1.00  0.00    -0.246 OA
BRANCH  35  37
ATOM     37  C   UNL A   1      39.855  22.567  26.642  1.00  0.00     0.060 A 
ATOM     38  C   UNL A   1      39.489  23.769  26.032  1.00  0.00     0.016 A 
ATOM     39  C   UNL A   1      40.895  22.538  27.569  1.00  0.00     0.016 A 
ATOM     40  C   UNL A   1      40.115  24.957  26.370  1.00  0.00     0.010 A 
ATOM     41  C   UNL A   1      41.545  23.732  27.898  1.00  0.00     0.010 A 
ATOM     42  C   UNL A   1      41.147  24.946  27.310  1.00  0.00    -0.014 A 
BRANCH  42  43
ATOM     43  C   UNL A   1      41.831  26.216  27.626  1.00  0.00     0.031 A 
ATOM     44  C   UNL A   1      41.111  27.261  28.418  1.00  0.00     0.074 A 
ATOM     45  C   UNL A   1      43.108  26.397  27.245  1.00  0.00     0.049 A 
ATOM     46  N   UNL A   1      41.482  28.479  28.713  1.00  0.00    -0.248 NA
ATOM     47  C   UNL A   1      39.797  26.881  28.959  1.00  0.00     0.031 C 
ATOM     48  C   UNL A   1      43.926  25.405  26.545  1.00  0.00     0.029 A 
ATOM     49  N   UNL A   1      43.939  27.476  27.390  1.00  0.00    -0.354 N 
ATOM     50  C   UNL A   1      40.440  29.021  29.451  1.00  0.00     0.074 A 
ATOM     51  C   UNL A   1      39.416  28.002  29.555  1.00  0.00     0.031 C 
ATOM     52  C   UNL A   1      45.139  25.930  26.306  1.00  0.00     0.029 A 
ATOM     53  C   UNL A   1      45.161  27.308  26.787  1.00  0.00     0.049 A 
ATOM     54  H   UNL A   1      43.685  28.292  27.879  1.00  0.00     0.167 HD
ATOM     55  C   UNL A   1      40.353  30.259  29.988  1.00  0.00     0.037 A 
ATOM     56  C   UNL A   1      46.163  28.188  26.602  1.00  0.00     0.037 A 
ATOM     57  C   UNL A   1      41.384  31.258  29.876  1.00  0.00     0.049 A 
ATOM     58  C   UNL A   1      46.004  29.588  27.133  1.00  0.00     0.074 A 
ATOM     59  C   UNL A   1      41.394  32.550  30.370  1.00  0.00     0.029 A 
ATOM     60  N   UNL A   1      42.593  31.069  29.220  1.00  0.00    -0.354 N 
ATOM     61  N   UNL A   1      45.005  30.110  27.803  1.00  0.00    -0.248 NA
ATOM     62  C   UNL A   1      47.106  30.524  26.874  1.00  0.00     0.031 C 
ATOM     63  C   UNL A   1      42.590  33.158  29.973  1.00  0.00     0.029 A 
ATOM     64  C   UNL A   1      43.349  32.229  29.277  1.00  0.00     0.049 A 
ATOM     65  H   UNL A   1      42.872  30.234  28.780  1.00  0.00     0.167 HD
ATOM     66  C   UNL A   1      45.360  31.426  28.058  1.00  0.00     0.074 A 
ATOM     67  C   UNL A   1      46.679  31.618  27.488  1.00  0.00     0.031 C 
ATOM     68  C   UNL A   1      44.659  32.392  28.703  1.00  0.00     0.037 A 
BRANCH  55  69
ATOM     69  C   UNL A   1      39.082  30.615  30.702  1.00  0.00     0.064 A 
ATOM     70  C   UNL A   1      37.946  31.062  30.013  1.00  0.00     0.173 A 
ATOM     71  C   UNL A   1      38.998  30.490  32.097  1.00  0.00     0.173 A 
ATOM     72  F   UNL A   1      37.982  31.218  28.681  1.00  0.00    -0.203 F 
ATOM     73  C   UNL A   1      36.779  31.395  30.697  1.00  0.00     0.198 A 
ATOM     74  C   UNL A   1      37.821  30.798  32.775  1.00  0.00     0.198 A 
ATOM     75  F   UNL A   1      40.056  30.067  32.804  1.00  0.00    -0.203 F 
ATOM     76  F   UNL A   1      35.721  31.868  30.023  1.00  0.00    -0.200 F 
ATOM     77  C   UNL A   1      36.715  31.257  32.076  1.00  0.00     0.200 A 
ATOM     78  F   UNL A   1      37.759  30.655  34.106  1.00  0.00    -0.200 F 
ATOM     79  F   UNL A   1      35.591  31.576  32.731  1.00  0.00    -0.200 F 
ENDBRANCH  55  69
BRANCH  56  80
ATOM     80  C   UNL A   1      47.374  27.786  25.840  1.00  0.00     0.064 A 
ATOM     81  C   UNL A   1      47.399  27.823  24.441  1.00  0.00     0.173 A 
ATOM     82  C   UNL A   1      48.534  27.352  26.501  1.00  0.00     0.173 A 
ATOM     83  F   UNL A   1      46.306  28.206  23.761  1.00  0.00    -0.203 F 
ATOM     84  C   UNL A   1      48.530  27.428  23.730  1.00  0.00     0.198 A 
ATOM     85  C   UNL A   1      49.675  26.987  25.791  1.00  0.00     0.198 A 
ATOM     86  F   UNL A   1      48.563  27.295  27.841  1.00  0.00    -0.203 F 
ATOM     87  F   UNL A   1      48.512  27.431  22.390  1.00  0.00    -0.200 F 
ATOM     88  C   UNL A   1      49.670  27.017  24.405  1.00  0.00     0.200 A 
ATOM     89  F   UNL A   1      50.777  26.603  26.449  1.00  0.00    -0.200 F 
ATOM     90  F   UNL A   1      50.760  26.643  23.722  1.00  0.00    -0.200 F 
ENDBRANCH  56  80
BRANCH  68  91
ATOM     91  C   UNL A   1      45.318  33.732  28.847  1.00  0.00     0.064 A 
ATOM     92  C   UNL A   1      45.121  34.752  27.905  1.00  0.00     0.173 A 
ATOM     93  C   UNL A   1      46.117  34.013  29.965  1.00  0.00     0.173 A 
ATOM     94  F   UNL A   1      44.379  34.524  26.810  1.00  0.00    -0.203 F 
ATOM     95  C   UNL A   1      45.716  36.000  28.067  1.00  0.00     0.198 A 
ATOM     96  C   UNL A   1      46.687  35.271  30.140  1.00  0.00     0.198 A 
ATOM     97  F   UNL A   1      46.330  33.073  30.897  1.00  0.00    -0.203 F 
ATOM     98  F   UNL A   1      45.548  36.947  27.134  1.00  0.00    -0.200 F 
ATOM     99  C   UNL A   1      46.491  36.260  29.188  1.00  0.00     0.200 A 
ATOM    100  F   UNL A   1      47.424  35.526  31.229  1.00  0.00    -0.200 F 
ATOM    101  F   UNL A   1      47.054  37.465  29.348  1.00  0.00    -0.200 F 
ENDBRANCH  68  91
ENDBRANCH  42  43
ENDBRANCH  35  37
ENDBRANCH  34  35
ENDBRANCH  33  34
ENDBRANCH   1  33
TORSDOF 15
ENDMDL
