MODEL 1
REMARK VINA RESULT:     -12.9      0.000      0.000
REMARK SMILES Cc1ccc(S(=O)(=O)Nc2cccc(F)c2C(=O)OCCOC(=O)c2ccc(-c3c4nc(c(-c5c(F)c(F)c(F)c(F)c5F)c5ccc([nH]5)c(-c5c(F)c(F)c(F)c(F)c5F)c5nc(c(-c6c(F)c(F)c(F)c(F)c6F)c6ccc3[nH]6)C=C5)C=C4)cc2)cc1Cl
REMARK SMILES IDX 20 1 19 2 17 3 18 4 16 5 10 6 11 7 12 8 14 9 13 10 15 11
REMARK SMILES IDX 9 12 6 14 7 15 8 16 5 17 1 18 2 19 3 20 89 21 4 22 88 23
REMARK SMILES IDX 90 24 21 25 22 26 23 27 24 28 25 29 26 30 87 31 27 32 86 33
REMARK SMILES IDX 28 34 29 35 30 36 80 37 31 38 85 39 79 40 81 41 32 42 84 43
REMARK SMILES IDX 78 44 77 45 33 47 65 48 45 49 64 50 46 51 49 52 63 53 82 54
REMARK SMILES IDX 47 55 48 56 62 58 83 59 50 60 34 61 35 62 43 63 36 64 37 65
REMARK SMILES IDX 41 66 44 67 38 68 39 69 42 70 40 71 66 72 67 73 75 74 68 75
REMARK SMILES IDX 69 76 73 77 76 78 70 79 71 80 74 81 72 82 51 83 52 84 60 85
REMARK SMILES IDX 53 86 54 87 58 88 61 89 55 90 56 91 59 92 57 93
REMARK H PARENT 9 13 81 46 49 57
REMARK Flexibility Score: inf
ROOT
ATOM      1  C   UNL A   1      31.607  28.474  27.100  1.00  0.00     0.275 C 
ENDROOT
BRANCH   1   2
ATOM      2  O   UNL A   1      32.490  27.394  26.725  1.00  0.00    -0.458 OA
BRANCH   2   3
ATOM      3  C   UNL A   1      31.900  26.208  26.425  1.00  0.00     0.343 C 
ATOM      4  O   UNL A   1      30.731  25.921  26.595  1.00  0.00    -0.246 OA
BRANCH   3   5
ATOM      5  C   UNL A   1      32.917  25.280  25.910  1.00  0.00     0.119 A 
ATOM      6  C   UNL A   1      33.842  25.577  24.894  1.00  0.00     0.066 A 
ATOM      7  C   UNL A   1      34.824  24.623  24.571  1.00  0.00     0.028 A 
ATOM      8  C   UNL A   1      34.859  23.377  25.200  1.00  0.00     0.005 A 
ATOM      9  C   UNL A   1      32.954  24.018  26.518  1.00  0.00     0.139 A 
ATOM     10  C   UNL A   1      33.910  23.070  26.168  1.00  0.00     0.040 A 
ATOM     11  F   UNL A   1      32.051  23.682  27.451  1.00  0.00    -0.206 F 
BRANCH   6  12
ATOM     12  N   UNL A   1      33.905  26.787  24.141  1.00  0.00    -0.279 N 
ATOM     13  H   UNL A   1      34.354  27.562  24.552  1.00  0.00     0.180 HD
BRANCH  12  14
ATOM     14  S   UNL A   1      33.257  26.979  22.588  1.00  0.00     0.261 S 
ATOM     15  O   UNL A   1      33.008  25.619  22.154  1.00  0.00    -0.201 OA
ATOM     16  O   UNL A   1      34.071  27.861  21.793  1.00  0.00    -0.201 OA
BRANCH  14  17
ATOM     17  C   UNL A   1      31.664  27.734  22.730  1.00  0.00     0.089 A 
ATOM     18  C   UNL A   1      27.751  29.485  23.047  1.00  0.00     0.046 C 
ATOM     19  C   UNL A   1      29.107  28.847  22.942  1.00  0.00    -0.032 A 
ATOM     20  C   UNL A   1      30.158  29.573  22.359  1.00  0.00     0.006 A 
ATOM     21  C   UNL A   1      29.341  27.527  23.353  1.00  0.00     0.045 A 
ATOM     22  C   UNL A   1      31.426  29.007  22.224  1.00  0.00     0.022 A 
ATOM     23  C   UNL A   1      30.618  26.978  23.269  1.00  0.00     0.043 A 
ATOM     24  Cl  UNL A   1      28.070  26.519  23.948  1.00  0.00    -0.084 Cl
ENDBRANCH  14  17
ENDBRANCH  12  14
ENDBRANCH   6  12
ENDBRANCH   3   5
ENDBRANCH   2   3
ENDBRANCH   1   2
BRANCH   1  25
ATOM     25  C   UNL A   1      31.666  29.572  26.043  1.00  0.00     0.275 C 
BRANCH  25  26
ATOM     26  O   UNL A   1      33.002  30.103  26.027  1.00  0.00    -0.458 OA
BRANCH  26  27
ATOM     27  C   UNL A   1      33.264  31.108  26.893  1.00  0.00     0.338 C 
ATOM     28  O   UNL A   1      32.540  32.031  27.219  1.00  0.00    -0.246 OA
BRANCH  27  29
ATOM     29  C   UNL A   1      34.586  30.862  27.492  1.00  0.00     0.060 A 
ATOM     30  C   UNL A   1      34.934  29.552  27.793  1.00  0.00     0.016 A 
ATOM     31  C   UNL A   1      35.432  31.910  27.857  1.00  0.00     0.016 A 
ATOM     32  C   UNL A   1      36.088  29.304  28.523  1.00  0.00     0.010 A 
ATOM     33  C   UNL A   1      36.644  31.634  28.517  1.00  0.00     0.010 A 
ATOM     34  C   UNL A   1      36.977  30.321  28.889  1.00  0.00    -0.014 A 
BRANCH  34  35
ATOM     35  C   UNL A   1      38.185  29.977  29.709  1.00  0.00     0.031 A 
ATOM     36  C   UNL A   1      39.316  29.184  29.103  1.00  0.00     0.074 A 
ATOM     37  C   UNL A   1      38.352  30.471  30.956  1.00  0.00     0.049 A 
ATOM     38  N   UNL A   1      40.367  28.658  29.685  1.00  0.00    -0.248 NA
ATOM     39  C   UNL A   1      39.270  28.961  27.650  1.00  0.00     0.031 C 
ATOM     40  C   UNL A   1      37.425  31.369  31.645  1.00  0.00     0.029 A 
ATOM     41  N   UNL A   1      39.391  30.332  31.850  1.00  0.00    -0.354 N 
ATOM     42  C   UNL A   1      41.064  27.991  28.687  1.00  0.00     0.074 A 
ATOM     43  C   UNL A   1      40.334  28.193  27.454  1.00  0.00     0.031 C 
ATOM     44  C   UNL A   1      37.977  31.780  32.796  1.00  0.00     0.029 A 
ATOM     45  C   UNL A   1      39.228  31.061  33.006  1.00  0.00     0.049 A 
ATOM     46  H   UNL A   1      40.177  29.765  31.679  1.00  0.00     0.167 HD
ATOM     47  C   UNL A   1      42.202  27.264  28.796  1.00  0.00     0.037 A 
ATOM     48  C   UNL A   1      39.960  31.109  34.137  1.00  0.00     0.037 A 
ATOM     49  C   UNL A   1      42.965  27.115  30.008  1.00  0.00     0.049 A 
ATOM     50  C   UNL A   1      41.159  30.214  34.271  1.00  0.00     0.074 A 
ATOM     51  C   UNL A   1      44.105  26.359  30.222  1.00  0.00     0.029 A 
ATOM     52  N   UNL A   1      42.682  27.757  31.204  1.00  0.00    -0.354 N 
ATOM     53  N   UNL A   1      41.725  29.452  33.368  1.00  0.00    -0.248 NA
ATOM     54  C   UNL A   1      41.789  30.141  35.598  1.00  0.00     0.031 C 
ATOM     55  C   UNL A   1      44.488  26.510  31.558  1.00  0.00     0.029 A 
ATOM     56  C   UNL A   1      43.613  27.396  32.165  1.00  0.00     0.049 A 
ATOM     57  H   UNL A   1      41.931  28.376  31.349  1.00  0.00     0.167 HD
ATOM     58  C   UNL A   1      42.764  28.801  34.017  1.00  0.00     0.074 A 
ATOM     59  C   UNL A   1      42.776  29.281  35.382  1.00  0.00     0.031 C 
ATOM     60  C   UNL A   1      43.618  27.873  33.523  1.00  0.00     0.037 A 
BRANCH  47  61
ATOM     61  C   UNL A   1      42.671  26.511  27.586  1.00  0.00     0.064 A 
ATOM     62  C   UNL A   1      42.196  25.210  27.350  1.00  0.00     0.173 A 
ATOM     63  C   UNL A   1      43.632  27.029  26.709  1.00  0.00     0.173 A 
ATOM     64  F   UNL A   1      41.280  24.669  28.166  1.00  0.00    -0.203 F 
ATOM     65  C   UNL A   1      42.679  24.451  26.290  1.00  0.00     0.198 A 
ATOM     66  C   UNL A   1      44.096  26.274  25.633  1.00  0.00     0.198 A 
ATOM     67  F   UNL A   1      44.106  28.272  26.883  1.00  0.00    -0.203 F 
ATOM     68  F   UNL A   1      42.234  23.200  26.106  1.00  0.00    -0.200 F 
ATOM     69  C   UNL A   1      43.628  24.984  25.431  1.00  0.00     0.200 A 
ATOM     70  F   UNL A   1      44.997  26.796  24.789  1.00  0.00    -0.200 F 
ATOM     71  F   UNL A   1      44.089  24.254  24.405  1.00  0.00    -0.200 F 
ENDBRANCH  47  61
BRANCH  48  72
ATOM     72  C   UNL A   1      39.520  31.969  35.271  1.00  0.00     0.064 A 
ATOM     73  C   UNL A   1      38.603  31.502  36.226  1.00  0.00     0.173 A 
ATOM     74  C   UNL A   1      39.999  33.277  35.419  1.00  0.00     0.173 A 
ATOM     75  F   UNL A   1      38.130  30.248  36.147  1.00  0.00    -0.203 F 
ATOM     76  C   UNL A   1      38.147  32.321  37.255  1.00  0.00     0.198 A 
ATOM     77  C   UNL A   1      39.571  34.086  36.472  1.00  0.00     0.198 A 
ATOM     78  F   UNL A   1      40.911  33.759  34.561  1.00  0.00    -0.203 F 
ATOM     79  F   UNL A   1      37.236  31.861  38.122  1.00  0.00    -0.200 F 
ATOM     80  C   UNL A   1      38.634  33.612  37.379  1.00  0.00     0.200 A 
ATOM     81  F   UNL A   1      40.075  35.319  36.615  1.00  0.00    -0.200 F 
ATOM     82  F   UNL A   1      38.211  34.396  38.381  1.00  0.00    -0.200 F 
ENDBRANCH  48  72
BRANCH  60  83
ATOM     83  C   UNL A   1      44.641  27.300  34.458  1.00  0.00     0.064 A 
ATOM     84  C   UNL A   1      45.902  27.899  34.589  1.00  0.00     0.173 A 
ATOM     85  C   UNL A   1      44.398  26.111  35.160  1.00  0.00     0.173 A 
ATOM     86  F   UNL A   1      46.185  29.033  33.932  1.00  0.00    -0.203 F 
ATOM     87  C   UNL A   1      46.891  27.317  35.378  1.00  0.00     0.198 A 
ATOM     88  C   UNL A   1      45.382  25.544  35.966  1.00  0.00     0.198 A 
ATOM     89  F   UNL A   1      43.203  25.509  35.075  1.00  0.00    -0.203 F 
ATOM     90  F   UNL A   1      48.101  27.887  35.462  1.00  0.00    -0.200 F 
ATOM     91  C   UNL A   1      46.630  26.141  36.065  1.00  0.00     0.200 A 
ATOM     92  F   UNL A   1      45.122  24.420  36.647  1.00  0.00    -0.200 F 
ATOM     93  F   UNL A   1      47.582  25.583  36.826  1.00  0.00    -0.200 F 
ENDBRANCH  60  83
ENDBRANCH  34  35
ENDBRANCH  27  29
ENDBRANCH  26  27
ENDBRANCH  25  26
ENDBRANCH   1  25
TORSDOF 14
ENDMDL
MODEL 2
REMARK VINA RESULT:     -12.7      1.920      3.741
REMARK SMILES Cc1ccc(S(=O)(=O)Nc2cccc(F)c2C(=O)OCCOC(=O)c2ccc(-c3c4nc(c(-c5c(F)c(F)c(F)c(F)c5F)c5ccc([nH]5)c(-c5c(F)c(F)c(F)c(F)c5F)c5nc(c(-c6c(F)c(F)c(F)c(F)c6F)c6ccc3[nH]6)C=C5)C=C4)cc2)cc1Cl
REMARK SMILES IDX 20 1 19 2 17 3 18 4 16 5 10 6 11 7 12 8 14 9 13 10 15 11
REMARK SMILES IDX 9 12 6 14 7 15 8 16 5 17 1 18 2 19 3 20 89 21 4 22 88 23
REMARK SMILES IDX 90 24 21 25 22 26 23 27 24 28 25 29 26 30 87 31 27 32 86 33
REMARK SMILES IDX 28 34 29 35 30 36 80 37 31 38 85 39 79 40 81 41 32 42 84 43
REMARK SMILES IDX 78 44 77 45 33 47 65 48 45 49 64 50 46 51 49 52 63 53 82 54
REMARK SMILES IDX 47 55 48 56 62 58 83 59 50 60 34 61 35 62 43 63 36 64 37 65
REMARK SMILES IDX 41 66 44 67 38 68 39 69 42 70 40 71 66 72 67 73 75 74 68 75
REMARK SMILES IDX 69 76 73 77 76 78 70 79 71 80 74 81 72 82 51 83 52 84 60 85
REMARK SMILES IDX 53 86 54 87 58 88 61 89 55 90 56 91 59 92 57 93
REMARK H PARENT 9 13 81 46 49 57
REMARK Flexibility Score: inf
ROOT
ATOM      1  C   UNL A   1      31.437  28.630  26.563  1.00  0.00     0.275 C 
ENDROOT
BRANCH   1   2
ATOM      2  O   UNL A   1      31.347  27.420  25.780  1.00  0.00    -0.458 OA
BRANCH   2   3
ATOM      3  C   UNL A   1      32.470  26.660  25.712  1.00  0.00     0.343 C 
ATOM      4  O   UNL A   1      33.356  26.606  26.542  1.00  0.00    -0.246 OA
BRANCH   3   5
ATOM      5  C   UNL A   1      32.490  25.942  24.429  1.00  0.00     0.119 A 
ATOM      6  C   UNL A   1      31.655  24.862  24.095  1.00  0.00     0.066 A 
ATOM      7  C   UNL A   1      31.716  24.334  22.792  1.00  0.00     0.028 A 
ATOM      8  C   UNL A   1      32.625  24.827  21.853  1.00  0.00     0.005 A 
ATOM      9  C   UNL A   1      33.409  26.411  23.482  1.00  0.00     0.139 A 
ATOM     10  C   UNL A   1      33.483  25.861  22.206  1.00  0.00     0.040 A 
ATOM     11  F   UNL A   1      34.260  27.403  23.787  1.00  0.00    -0.206 F 
BRANCH   6  12
ATOM     12  N   UNL A   1      30.708  24.232  24.957  1.00  0.00    -0.279 N 
ATOM     13  H   UNL A   1      29.752  24.404  24.794  1.00  0.00     0.180 HD
BRANCH  12  14
ATOM     14  S   UNL A   1      31.121  23.209  26.242  1.00  0.00     0.261 S 
ATOM     15  O   UNL A   1      30.143  22.143  26.154  1.00  0.00    -0.201 OA
ATOM     16  O   UNL A   1      31.281  23.954  27.464  1.00  0.00    -0.201 OA
BRANCH  14  17
ATOM     17  C   UNL A   1      32.681  22.457  25.887  1.00  0.00     0.089 A 
ATOM     18  C   UNL A   1      36.438  20.543  25.053  1.00  0.00     0.046 C 
ATOM     19  C   UNL A   1      35.112  21.187  25.339  1.00  0.00    -0.032 A 
ATOM     20  C   UNL A   1      35.084  22.434  25.985  1.00  0.00     0.006 A 
ATOM     21  C   UNL A   1      33.898  20.553  25.036  1.00  0.00     0.045 A 
ATOM     22  C   UNL A   1      33.872  23.053  26.287  1.00  0.00     0.022 A 
ATOM     23  C   UNL A   1      32.687  21.194  25.288  1.00  0.00     0.043 A 
ATOM     24  Cl  UNL A   1      33.842  18.960  24.373  1.00  0.00    -0.084 Cl
ENDBRANCH  14  17
ENDBRANCH  12  14
ENDBRANCH   6  12
ENDBRANCH   3   5
ENDBRANCH   2   3
ENDBRANCH   1   2
BRANCH   1  25
ATOM     25  C   UNL A   1      31.731  29.812  25.646  1.00  0.00     0.275 C 
BRANCH  25  26
ATOM     26  O   UNL A   1      33.084  30.235  25.884  1.00  0.00    -0.458 OA
BRANCH  26  27
ATOM     27  C   UNL A   1      33.266  31.169  26.844  1.00  0.00     0.338 C 
ATOM     28  O   UNL A   1      32.492  32.033  27.214  1.00  0.00    -0.246 OA
BRANCH  27  29
ATOM     29  C   UNL A   1      34.571  30.921  27.481  1.00  0.00     0.060 A 
ATOM     30  C   UNL A   1      34.894  29.614  27.819  1.00  0.00     0.016 A 
ATOM     31  C   UNL A   1      35.419  31.967  27.845  1.00  0.00     0.016 A 
ATOM     32  C   UNL A   1      36.028  29.369  28.583  1.00  0.00     0.010 A 
ATOM     33  C   UNL A   1      36.611  31.692  28.541  1.00  0.00     0.010 A 
ATOM     34  C   UNL A   1      36.919  30.384  28.950  1.00  0.00    -0.014 A 
BRANCH  34  35
ATOM     35  C   UNL A   1      38.101  30.043  29.807  1.00  0.00     0.031 A 
ATOM     36  C   UNL A   1      39.247  29.240  29.242  1.00  0.00     0.074 A 
ATOM     37  C   UNL A   1      38.235  30.550  31.053  1.00  0.00     0.049 A 
ATOM     38  N   UNL A   1      40.279  28.717  29.859  1.00  0.00    -0.248 NA
ATOM     39  C   UNL A   1      39.241  29.002  27.790  1.00  0.00     0.031 C 
ATOM     40  C   UNL A   1      37.292  31.458  31.707  1.00  0.00     0.029 A 
ATOM     41  N   UNL A   1      39.248  30.417  31.978  1.00  0.00    -0.354 N 
ATOM     42  C   UNL A   1      41.001  28.037  28.888  1.00  0.00     0.074 A 
ATOM     43  C   UNL A   1      40.307  28.230  27.632  1.00  0.00     0.031 C 
ATOM     44  C   UNL A   1      37.813  31.879  32.868  1.00  0.00     0.029 A 
ATOM     45  C   UNL A   1      39.055  31.158  33.121  1.00  0.00     0.049 A 
ATOM     46  H   UNL A   1      40.036  29.845  31.834  1.00  0.00     0.167 HD
ATOM     47  C   UNL A   1      42.133  27.308  29.036  1.00  0.00     0.037 A 
ATOM     48  C   UNL A   1      39.755  31.215  34.271  1.00  0.00     0.037 A 
ATOM     49  C   UNL A   1      42.860  27.168  30.271  1.00  0.00     0.049 A 
ATOM     50  C   UNL A   1      40.946  30.317  34.448  1.00  0.00     0.074 A 
ATOM     51  C   UNL A   1      43.991  26.411  30.525  1.00  0.00     0.029 A 
ATOM     52  N   UNL A   1      42.546  27.823  31.451  1.00  0.00    -0.354 N 
ATOM     53  N   UNL A   1      41.535  29.544  33.570  1.00  0.00    -0.248 NA
ATOM     54  C   UNL A   1      41.538  30.256  35.794  1.00  0.00     0.031 C 
ATOM     55  C   UNL A   1      44.337  26.574  31.869  1.00  0.00     0.029 A 
ATOM     56  C   UNL A   1      43.449  27.469  32.442  1.00  0.00     0.049 A 
ATOM     57  H   UNL A   1      41.793  28.447  31.569  1.00  0.00     0.167 HD
ATOM     58  C   UNL A   1      42.553  28.896  34.255  1.00  0.00     0.074 A 
ATOM     59  C   UNL A   1      42.527  29.390  35.615  1.00  0.00     0.031 C 
ATOM     60  C   UNL A   1      43.416  27.960  33.795  1.00  0.00     0.037 A 
BRANCH  47  61
ATOM     61  C   UNL A   1      42.633  26.541  27.848  1.00  0.00     0.064 A 
ATOM     62  C   UNL A   1      43.528  27.150  26.953  1.00  0.00     0.173 A 
ATOM     63  C   UNL A   1      42.180  25.249  27.547  1.00  0.00     0.173 A 
ATOM     64  F   UNL A   1      43.985  28.388  27.195  1.00  0.00    -0.203 F 
ATOM     65  C   UNL A   1      43.939  26.500  25.795  1.00  0.00     0.198 A 
ATOM     66  C   UNL A   1      42.614  24.592  26.397  1.00  0.00     0.198 A 
ATOM     67  F   UNL A   1      41.336  24.619  28.377  1.00  0.00    -0.203 F 
ATOM     68  F   UNL A   1      44.769  27.116  24.941  1.00  0.00    -0.200 F 
ATOM     69  C   UNL A   1      43.483  25.221  25.518  1.00  0.00     0.200 A 
ATOM     70  F   UNL A   1      42.190  23.346  26.140  1.00  0.00    -0.200 F 
ATOM     71  F   UNL A   1      43.885  24.592  24.404  1.00  0.00    -0.200 F 
ENDBRANCH  47  61
BRANCH  48  72
ATOM     72  C   UNL A   1      39.286  32.089  35.384  1.00  0.00     0.064 A 
ATOM     73  C   UNL A   1      39.671  33.437  35.462  1.00  0.00     0.173 A 
ATOM     74  C   UNL A   1      38.452  31.594  36.395  1.00  0.00     0.173 A 
ATOM     75  F   UNL A   1      40.448  33.971  34.507  1.00  0.00    -0.203 F 
ATOM     76  C   UNL A   1      39.281  34.241  36.529  1.00  0.00     0.198 A 
ATOM     77  C   UNL A   1      38.030  32.410  37.444  1.00  0.00     0.198 A 
ATOM     78  F   UNL A   1      38.017  30.325  36.344  1.00  0.00    -0.203 F 
ATOM     79  F   UNL A   1      39.705  35.510  36.599  1.00  0.00    -0.200 F 
ATOM     80  C   UNL A   1      38.458  33.728  37.518  1.00  0.00     0.200 A 
ATOM     81  F   UNL A   1      37.200  31.924  38.377  1.00  0.00    -0.200 F 
ATOM     82  F   UNL A   1      38.065  34.507  38.536  1.00  0.00    -0.200 F 
ENDBRANCH  48  72
BRANCH  60  83
ATOM     83  C   UNL A   1      44.410  27.393  34.764  1.00  0.00     0.064 A 
ATOM     84  C   UNL A   1      44.107  26.243  35.507  1.00  0.00     0.173 A 
ATOM     85  C   UNL A   1      45.630  28.038  35.014  1.00  0.00     0.173 A 
ATOM     86  F   UNL A   1      42.950  25.595  35.310  1.00  0.00    -0.203 F 
ATOM     87  C   UNL A   1      44.984  25.770  36.481  1.00  0.00     0.198 A 
ATOM     88  C   UNL A   1      46.513  27.549  35.972  1.00  0.00     0.198 A 
ATOM     89  F   UNL A   1      45.968  29.134  34.319  1.00  0.00    -0.203 F 
ATOM     90  F   UNL A   1      44.659  24.689  37.204  1.00  0.00    -0.200 F 
ATOM     91  C   UNL A   1      46.185  26.423  36.711  1.00  0.00     0.200 A 
ATOM     92  F   UNL A   1      47.684  28.168  36.179  1.00  0.00    -0.200 F 
ATOM     93  F   UNL A   1      47.029  25.964  37.646  1.00  0.00    -0.200 F 
ENDBRANCH  60  83
ENDBRANCH  34  35
ENDBRANCH  27  29
ENDBRANCH  26  27
ENDBRANCH  25  26
ENDBRANCH   1  25
TORSDOF 14
ENDMDL
MODEL 3
REMARK VINA RESULT:     -12.7      1.582      3.661
REMARK SMILES Cc1ccc(S(=O)(=O)Nc2cccc(F)c2C(=O)OCCOC(=O)c2ccc(-c3c4nc(c(-c5c(F)c(F)c(F)c(F)c5F)c5ccc([nH]5)c(-c5c(F)c(F)c(F)c(F)c5F)c5nc(c(-c6c(F)c(F)c(F)c(F)c6F)c6ccc3[nH]6)C=C5)C=C4)cc2)cc1Cl
REMARK SMILES IDX 20 1 19 2 17 3 18 4 16 5 10 6 11 7 12 8 14 9 13 10 15 11
REMARK SMILES IDX 9 12 6 14 7 15 8 16 5 17 1 18 2 19 3 20 89 21 4 22 88 23
REMARK SMILES IDX 90 24 21 25 22 26 23 27 24 28 25 29 26 30 87 31 27 32 86 33
REMARK SMILES IDX 28 34 29 35 30 36 80 37 31 38 85 39 79 40 81 41 32 42 84 43
REMARK SMILES IDX 78 44 77 45 33 47 65 48 45 49 64 50 46 51 49 52 63 53 82 54
REMARK SMILES IDX 47 55 48 56 62 58 83 59 50 60 34 61 35 62 43 63 36 64 37 65
REMARK SMILES IDX 41 66 44 67 38 68 39 69 42 70 40 71 66 72 67 73 75 74 68 75
REMARK SMILES IDX 69 76 73 77 76 78 70 79 71 80 74 81 72 82 51 83 52 84 60 85
REMARK SMILES IDX 53 86 54 87 58 88 61 89 55 90 56 91 59 92 57 93
REMARK H PARENT 9 13 81 46 49 57
REMARK Flexibility Score: inf
ROOT
ATOM      1  C   UNL A   1      32.454  29.408  24.202  1.00  0.00     0.275 C 
ENDROOT
BRANCH   1   2
ATOM      2  O   UNL A   1      32.149  27.996  24.178  1.00  0.00    -0.458 OA
BRANCH   2   3
ATOM      3  C   UNL A   1      31.567  27.523  23.046  1.00  0.00     0.343 C 
ATOM      4  O   UNL A   1      32.135  27.221  22.015  1.00  0.00    -0.246 OA
BRANCH   3   5
ATOM      5  C   UNL A   1      30.109  27.488  23.233  1.00  0.00     0.119 A 
ATOM      6  C   UNL A   1      29.411  26.509  23.961  1.00  0.00     0.066 A 
ATOM      7  C   UNL A   1      28.023  26.657  24.139  1.00  0.00     0.028 A 
ATOM      8  C   UNL A   1      27.328  27.722  23.561  1.00  0.00     0.005 A 
ATOM      9  C   UNL A   1      29.394  28.538  22.643  1.00  0.00     0.139 A 
ATOM     10  C   UNL A   1      28.017  28.657  22.799  1.00  0.00     0.040 A 
ATOM     11  F   UNL A   1      30.022  29.458  21.895  1.00  0.00    -0.206 F 
BRANCH   6  12
ATOM     12  N   UNL A   1      29.978  25.352  24.574  1.00  0.00    -0.279 N 
ATOM     13  H   UNL A   1      29.994  24.516  24.053  1.00  0.00     0.180 HD
BRANCH  12  14
ATOM     14  S   UNL A   1      30.623  25.321  26.140  1.00  0.00     0.261 S 
ATOM     15  O   UNL A   1      29.844  24.296  26.806  1.00  0.00    -0.201 OA
ATOM     16  O   UNL A   1      30.707  26.648  26.691  1.00  0.00    -0.201 OA
BRANCH  14  17
ATOM     17  C   UNL A   1      32.272  24.690  26.059  1.00  0.00     0.089 A 
ATOM     18  C   UNL A   1      36.275  23.127  25.955  1.00  0.00     0.046 C 
ATOM     19  C   UNL A   1      34.869  23.653  26.010  1.00  0.00    -0.032 A 
ATOM     20  C   UNL A   1      34.588  24.907  25.445  1.00  0.00     0.006 A 
ATOM     21  C   UNL A   1      33.842  22.958  26.665  1.00  0.00     0.045 A 
ATOM     22  C   UNL A   1      33.300  25.440  25.497  1.00  0.00     0.022 A 
ATOM     23  C   UNL A   1      32.543  23.462  26.671  1.00  0.00     0.043 A 
ATOM     24  Cl  UNL A   1      34.134  21.479  27.508  1.00  0.00    -0.084 Cl
ENDBRANCH  14  17
ENDBRANCH  12  14
ENDBRANCH   6  12
ENDBRANCH   3   5
ENDBRANCH   2   3
ENDBRANCH   1   2
BRANCH   1  25
ATOM     25  C   UNL A   1      31.720  30.070  25.363  1.00  0.00     0.275 C 
BRANCH  25  26
ATOM     26  O   UNL A   1      32.561  29.988  26.526  1.00  0.00    -0.458 OA
BRANCH  26  27
ATOM     27  C   UNL A   1      32.996  31.159  27.042  1.00  0.00     0.338 C 
ATOM     28  O   UNL A   1      32.405  32.222  27.107  1.00  0.00    -0.246 OA
BRANCH  27  29
ATOM     29  C   UNL A   1      34.325  30.931  27.634  1.00  0.00     0.060 A 
ATOM     30  C   UNL A   1      34.708  29.623  27.896  1.00  0.00     0.016 A 
ATOM     31  C   UNL A   1      35.142  31.991  28.031  1.00  0.00     0.016 A 
ATOM     32  C   UNL A   1      35.870  29.385  28.619  1.00  0.00     0.010 A 
ATOM     33  C   UNL A   1      36.361  31.729  28.683  1.00  0.00     0.010 A 
ATOM     34  C   UNL A   1      36.730  30.415  29.016  1.00  0.00    -0.014 A 
BRANCH  34  35
ATOM     35  C   UNL A   1      37.947  30.080  29.826  1.00  0.00     0.031 A 
ATOM     36  C   UNL A   1      39.083  29.302  29.209  1.00  0.00     0.074 A 
ATOM     37  C   UNL A   1      38.118  30.570  31.074  1.00  0.00     0.049 A 
ATOM     38  N   UNL A   1      40.143  28.785  29.781  1.00  0.00    -0.248 NA
ATOM     39  C   UNL A   1      39.029  29.085  27.754  1.00  0.00     0.031 C 
ATOM     40  C   UNL A   1      37.186  31.454  31.774  1.00  0.00     0.029 A 
ATOM     41  N   UNL A   1      39.165  30.438  31.960  1.00  0.00    -0.354 N 
ATOM     42  C   UNL A   1      40.840  28.129  28.775  1.00  0.00     0.074 A 
ATOM     43  C   UNL A   1      40.100  28.330  27.547  1.00  0.00     0.031 C 
ATOM     44  C   UNL A   1      37.742  31.866  32.923  1.00  0.00     0.029 A 
ATOM     45  C   UNL A   1      39.002  31.159  33.120  1.00  0.00     0.049 A 
ATOM     46  H   UNL A   1      39.955  29.880  31.781  1.00  0.00     0.167 HD
ATOM     47  C   UNL A   1      41.987  27.415  28.872  1.00  0.00     0.037 A 
ATOM     48  C   UNL A   1      39.741  31.209  34.247  1.00  0.00     0.037 A 
ATOM     49  C   UNL A   1      42.759  27.268  30.078  1.00  0.00     0.049 A 
ATOM     50  C   UNL A   1      40.950  30.327  34.368  1.00  0.00     0.074 A 
ATOM     51  C   UNL A   1      43.909  26.523  30.281  1.00  0.00     0.029 A 
ATOM     52  N   UNL A   1      42.478  27.900  31.279  1.00  0.00    -0.354 N 
ATOM     53  N   UNL A   1      41.518  29.575  33.458  1.00  0.00    -0.248 NA
ATOM     54  C   UNL A   1      41.590  30.254  35.691  1.00  0.00     0.031 C 
ATOM     55  C   UNL A   1      44.300  26.671  31.614  1.00  0.00     0.029 A 
ATOM     56  C   UNL A   1      43.420  27.545  32.232  1.00  0.00     0.049 A 
ATOM     57  H   UNL A   1      41.721  28.511  31.432  1.00  0.00     0.167 HD
ATOM     58  C   UNL A   1      42.569  28.932  34.096  1.00  0.00     0.074 A 
ATOM     59  C   UNL A   1      42.585  29.405  35.464  1.00  0.00     0.031 C 
ATOM     60  C   UNL A   1      43.428  28.015  33.592  1.00  0.00     0.037 A 
BRANCH  47  61
ATOM     61  C   UNL A   1      42.455  26.672  27.655  1.00  0.00     0.064 A 
ATOM     62  C   UNL A   1      41.960  25.384  27.394  1.00  0.00     0.173 A 
ATOM     63  C   UNL A   1      43.435  27.186  26.797  1.00  0.00     0.173 A 
ATOM     64  F   UNL A   1      41.025  24.846  28.191  1.00  0.00    -0.203 F 
ATOM     65  C   UNL A   1      42.441  24.633  26.327  1.00  0.00     0.198 A 
ATOM     66  C   UNL A   1      43.897  26.440  25.714  1.00  0.00     0.198 A 
ATOM     67  F   UNL A   1      43.929  28.418  26.996  1.00  0.00    -0.203 F 
ATOM     68  F   UNL A   1      41.975  23.394  26.118  1.00  0.00    -0.200 F 
ATOM     69  C   UNL A   1      43.408  25.162  25.487  1.00  0.00     0.200 A 
ATOM     70  F   UNL A   1      44.816  26.960  24.888  1.00  0.00    -0.200 F 
ATOM     71  F   UNL A   1      43.867  24.441  24.454  1.00  0.00    -0.200 F 
ENDBRANCH  47  61
BRANCH  48  72
ATOM     72  C   UNL A   1      39.300  32.060  35.388  1.00  0.00     0.064 A 
ATOM     73  C   UNL A   1      39.701  33.401  35.493  1.00  0.00     0.173 A 
ATOM     74  C   UNL A   1      38.476  31.548  36.399  1.00  0.00     0.173 A 
ATOM     75  F   UNL A   1      40.469  33.951  34.540  1.00  0.00    -0.203 F 
ATOM     76  C   UNL A   1      39.337  34.182  36.587  1.00  0.00     0.198 A 
ATOM     77  C   UNL A   1      38.081  32.343  37.476  1.00  0.00     0.198 A 
ATOM     78  F   UNL A   1      38.027  30.287  36.324  1.00  0.00    -0.203 F 
ATOM     79  F   UNL A   1      39.776  35.444  36.682  1.00  0.00    -0.200 F 
ATOM     80  C   UNL A   1      38.524  33.654  37.575  1.00  0.00     0.200 A 
ATOM     81  F   UNL A   1      37.260  31.842  38.409  1.00  0.00    -0.200 F 
ATOM     82  F   UNL A   1      38.156  34.411  38.619  1.00  0.00    -0.200 F 
ENDBRANCH  48  72
BRANCH  60  83
ATOM     83  C   UNL A   1      44.464  27.449  34.517  1.00  0.00     0.064 A 
ATOM     84  C   UNL A   1      44.201  26.289  35.260  1.00  0.00     0.173 A 
ATOM     85  C   UNL A   1      45.686  28.103  34.726  1.00  0.00     0.173 A 
ATOM     86  F   UNL A   1      43.043  25.632  35.101  1.00  0.00    -0.203 F 
ATOM     87  C   UNL A   1      45.118  25.815  36.195  1.00  0.00     0.198 A 
ATOM     88  C   UNL A   1      46.611  27.613  35.645  1.00  0.00     0.198 A 
ATOM     89  F   UNL A   1      45.988  29.209  34.029  1.00  0.00    -0.203 F 
ATOM     90  F   UNL A   1      44.831  24.725  36.919  1.00  0.00    -0.200 F 
ATOM     91  C   UNL A   1      46.321  26.477  36.385  1.00  0.00     0.200 A 
ATOM     92  F   UNL A   1      47.783  28.241  35.813  1.00  0.00    -0.200 F 
ATOM     93  F   UNL A   1      47.204  26.018  37.283  1.00  0.00    -0.200 F 
ENDBRANCH  60  83
ENDBRANCH  34  35
ENDBRANCH  27  29
ENDBRANCH  26  27
ENDBRANCH  25  26
ENDBRANCH   1  25
TORSDOF 14
ENDMDL
