MODEL 1
REMARK VINA RESULT:     -12.4      0.000      0.000
REMARK SMILES O=C(OCCOC(=O)c1ccc(S(=O)(=O)Nc2ccccc2I)cc1)c1ccc(-c2c3nc(c(-c4c(F)c(F)c(F)c(F)c4F)c4ccc([nH]4)c(-c4c(F)c(F)c(F)c(F)c4F)c4nc(c(-c5c(F)c(F)c(F)c(F)c5F)c5ccc2[nH]5)C=C4)C=C3)cc1
REMARK SMILES IDX 5 1 4 2 3 3 2 4 1 5 26 6 27 7 88 8 28 9 87 10 29 11 30 12
REMARK SMILES IDX 31 13 81 14 32 15 86 16 80 17 82 18 33 19 85 20 79 21 78 22
REMARK SMILES IDX 34 24 66 25 46 26 65 27 47 28 50 29 64 30 83 31 48 32 49 33
REMARK SMILES IDX 63 35 84 36 51 37 35 38 36 39 44 40 37 41 38 42 42 43 45 44
REMARK SMILES IDX 39 45 40 46 43 47 41 48 67 49 68 50 76 51 69 52 70 53 74 54
REMARK SMILES IDX 77 55 71 56 72 57 75 58 73 59 52 60 53 61 61 62 54 63 55 64
REMARK SMILES IDX 59 65 62 66 56 67 57 68 60 69 58 70 6 71 7 72 8 73 9 74
REMARK SMILES IDX 10 75 25 76 11 77 24 78 12 79 13 80 14 81 15 82 16 83 17 85
REMARK SMILES IDX 18 86 22 87 19 88 21 89 23 90 20 91
REMARK H PARENT 82 23 50 34 16 84
REMARK Flexibility Score: inf
ROOT
ATOM      1  C   UNL A   1      33.131  31.752  27.197  1.00  0.00     0.275 C 
ENDROOT
BRANCH   1   2
ATOM      2  C   UNL A   1      31.925  32.690  27.254  1.00  0.00     0.275 C 
BRANCH   2   3
ATOM      3  O   UNL A   1      32.253  34.064  27.532  1.00  0.00    -0.458 OA
BRANCH   3   4
ATOM      4  C   UNL A   1      32.939  34.635  28.548  1.00  0.00     0.338 C 
ATOM      5  O   UNL A   1      32.549  35.724  28.971  1.00  0.00    -0.246 OA
BRANCH   4   6
ATOM      6  C   UNL A   1      34.214  34.096  29.135  1.00  0.00     0.060 A 
ATOM      7  C   UNL A   1      35.505  34.267  28.628  1.00  0.00     0.016 A 
ATOM      8  C   UNL A   1      34.080  33.325  30.305  1.00  0.00     0.016 A 
ATOM      9  C   UNL A   1      36.630  33.743  29.290  1.00  0.00     0.010 A 
ATOM     10  C   UNL A   1      35.200  32.804  30.973  1.00  0.00     0.010 A 
ATOM     11  C   UNL A   1      36.494  33.017  30.474  1.00  0.00    -0.014 A 
BRANCH  11  12
ATOM     12  C   UNL A   1      37.660  32.366  31.131  1.00  0.00     0.031 A 
ATOM     13  C   UNL A   1      38.210  31.109  30.518  1.00  0.00     0.074 A 
ATOM     14  C   UNL A   1      38.278  32.879  32.217  1.00  0.00     0.049 A 
ATOM     15  N   UNL A   1      39.200  30.361  30.932  1.00  0.00    -0.248 NA
ATOM     16  C   UNL A   1      37.634  30.689  29.231  1.00  0.00     0.031 C 
ATOM     17  C   UNL A   1      38.048  34.198  32.797  1.00  0.00     0.029 A 
ATOM     18  N   UNL A   1      39.227  32.324  33.051  1.00  0.00    -0.354 N 
ATOM     19  C   UNL A   1      39.424  29.448  29.915  1.00  0.00     0.074 A 
ATOM     20  C   UNL A   1      38.403  29.658  28.913  1.00  0.00     0.031 C 
ATOM     21  C   UNL A   1      38.742  34.300  33.945  1.00  0.00     0.029 A 
ATOM     22  C   UNL A   1      39.417  33.041  34.213  1.00  0.00     0.049 A 
ATOM     23  H   UNL A   1      39.721  31.500  32.838  1.00  0.00     0.167 HD
ATOM     24  C   UNL A   1      40.443  28.569  29.796  1.00  0.00     0.037 A 
ATOM     25  C   UNL A   1      40.004  32.675  35.371  1.00  0.00     0.037 A 
ATOM     26  C   UNL A   1      41.440  28.343  30.807  1.00  0.00     0.049 A 
ATOM     27  C   UNL A   1      40.834  31.430  35.383  1.00  0.00     0.074 A 
ATOM     28  C   UNL A   1      42.560  27.533  30.758  1.00  0.00     0.029 A 
ATOM     29  N   UNL A   1      41.406  28.904  32.073  1.00  0.00    -0.354 N 
ATOM     30  N   UNL A   1      41.054  30.582  34.415  1.00  0.00    -0.248 NA
ATOM     31  C   UNL A   1      41.574  31.148  36.622  1.00  0.00     0.031 C 
ATOM     32  C   UNL A   1      43.164  27.548  32.021  1.00  0.00     0.029 A 
ATOM     33  C   UNL A   1      42.450  28.408  32.838  1.00  0.00     0.049 A 
ATOM     34  H   UNL A   1      40.740  29.559  32.384  1.00  0.00     0.167 HD
ATOM     35  C   UNL A   1      42.023  29.717  34.890  1.00  0.00     0.074 A 
ATOM     36  C   UNL A   1      42.296  30.099  36.261  1.00  0.00     0.031 C 
ATOM     37  C   UNL A   1      42.683  28.748  34.215  1.00  0.00     0.037 A 
BRANCH  24  38
ATOM     38  C   UNL A   1      40.539  27.805  28.515  1.00  0.00     0.064 A 
ATOM     39  C   UNL A   1      41.258  28.312  27.420  1.00  0.00     0.173 A 
ATOM     40  C   UNL A   1      39.943  26.545  28.389  1.00  0.00     0.173 A 
ATOM     41  F   UNL A   1      41.831  29.524  27.489  1.00  0.00    -0.203 F 
ATOM     42  C   UNL A   1      41.365  27.586  26.239  1.00  0.00     0.198 A 
ATOM     43  C   UNL A   1      40.069  25.813  27.213  1.00  0.00     0.198 A 
ATOM     44  F   UNL A   1      39.244  26.025  29.408  1.00  0.00    -0.203 F 
ATOM     45  F   UNL A   1      42.031  28.099  25.195  1.00  0.00    -0.200 F 
ATOM     46  C   UNL A   1      40.777  26.334  26.139  1.00  0.00     0.200 A 
ATOM     47  F   UNL A   1      39.504  24.601  27.117  1.00  0.00    -0.200 F 
ATOM     48  F   UNL A   1      40.888  25.629  25.004  1.00  0.00    -0.200 F 
ENDBRANCH  24  38
BRANCH  25  49
ATOM     49  C   UNL A   1      39.808  33.401  36.656  1.00  0.00     0.064 A 
ATOM     50  C   UNL A   1      38.795  33.092  37.566  1.00  0.00     0.173 A 
ATOM     51  C   UNL A   1      40.598  34.535  36.927  1.00  0.00     0.173 A 
ATOM     52  F   UNL A   1      37.968  32.068  37.323  1.00  0.00    -0.203 F 
ATOM     53  C   UNL A   1      38.606  33.864  38.717  1.00  0.00     0.198 A 
ATOM     54  C   UNL A   1      40.429  35.287  38.087  1.00  0.00     0.198 A 
ATOM     55  F   UNL A   1      41.543  34.914  36.051  1.00  0.00    -0.203 F 
ATOM     56  F   UNL A   1      37.611  33.564  39.563  1.00  0.00    -0.200 F 
ATOM     57  C   UNL A   1      39.431  34.951  38.984  1.00  0.00     0.200 A 
ATOM     58  F   UNL A   1      41.228  36.336  38.328  1.00  0.00    -0.200 F 
ATOM     59  F   UNL A   1      39.251  35.678  40.095  1.00  0.00    -0.200 F 
ENDBRANCH  25  49
BRANCH  37  60
ATOM     60  C   UNL A   1      43.808  28.089  34.945  1.00  0.00     0.064 A 
ATOM     61  C   UNL A   1      45.102  28.625  34.948  1.00  0.00     0.173 A 
ATOM     62  C   UNL A   1      43.595  26.865  35.595  1.00  0.00     0.173 A 
ATOM     63  F   UNL A   1      45.360  29.771  34.298  1.00  0.00    -0.203 F 
ATOM     64  C   UNL A   1      46.153  27.939  35.549  1.00  0.00     0.198 A 
ATOM     65  C   UNL A   1      44.640  26.198  36.224  1.00  0.00     0.198 A 
ATOM     66  F   UNL A   1      42.376  26.305  35.602  1.00  0.00    -0.203 F 
ATOM     67  F   UNL A   1      47.398  28.429  35.474  1.00  0.00    -0.200 F 
ATOM     68  C   UNL A   1      45.921  26.730  36.190  1.00  0.00     0.200 A 
ATOM     69  F   UNL A   1      44.414  25.030  36.839  1.00  0.00    -0.200 F 
ATOM     70  F   UNL A   1      46.937  26.065  36.754  1.00  0.00    -0.200 F 
ENDBRANCH  37  60
ENDBRANCH  11  12
ENDBRANCH   4   6
ENDBRANCH   3   4
ENDBRANCH   2   3
ENDBRANCH   1   2
BRANCH   1  71
ATOM     71  O   UNL A   1      32.771  30.446  26.741  1.00  0.00    -0.458 OA
BRANCH  71  72
ATOM     72  C   UNL A   1      33.731  29.492  26.894  1.00  0.00     0.338 C 
ATOM     73  O   UNL A   1      34.888  29.668  27.220  1.00  0.00    -0.246 OA
BRANCH  72  74
ATOM     74  C   UNL A   1      33.114  28.158  26.716  1.00  0.00     0.060 A 
ATOM     75  C   UNL A   1      31.770  27.975  27.075  1.00  0.00     0.017 A 
ATOM     76  C   UNL A   1      33.828  27.115  26.126  1.00  0.00     0.017 A 
ATOM     77  C   UNL A   1      31.147  26.739  26.869  1.00  0.00     0.023 A 
ATOM     78  C   UNL A   1      33.193  25.906  25.878  1.00  0.00     0.023 A 
ATOM     79  C   UNL A   1      31.878  25.697  26.298  1.00  0.00     0.087 A 
BRANCH  79  80
ATOM     80  S   UNL A   1      31.151  24.101  26.038  1.00  0.00     0.261 S 
ATOM     81  O   UNL A   1      32.214  23.126  25.922  1.00  0.00    -0.201 OA
ATOM     82  O   UNL A   1      30.120  23.946  27.044  1.00  0.00    -0.201 OA
BRANCH  80  83
ATOM     83  N   UNL A   1      30.346  24.140  24.529  1.00  0.00    -0.279 N 
ATOM     84  H   UNL A   1      29.908  23.334  24.172  1.00  0.00     0.180 HD
BRANCH  83  85
ATOM     85  C   UNL A   1      30.318  25.379  23.790  1.00  0.00     0.062 A 
ATOM     86  C   UNL A   1      29.291  26.288  24.047  1.00  0.00     0.028 A 
ATOM     87  C   UNL A   1      31.335  25.747  22.897  1.00  0.00     0.037 A 
ATOM     88  C   UNL A   1      29.256  27.526  23.395  1.00  0.00     0.002 A 
ATOM     89  C   UNL A   1      31.321  27.013  22.292  1.00  0.00     0.017 A 
ATOM     90  I   UNL A   1      32.896  24.455  22.381  1.00  0.00    -0.042 I 
ATOM     91  C   UNL A   1      30.279  27.900  22.537  1.00  0.00     0.001 A 
ENDBRANCH  83  85
ENDBRANCH  80  83
ENDBRANCH  79  80
ENDBRANCH  72  74
ENDBRANCH  71  72
ENDBRANCH   1  71
TORSDOF 14
ENDMDL
MODEL 2
REMARK VINA RESULT:     -12.2      5.790     10.897
REMARK SMILES O=C(OCCOC(=O)c1ccc(S(=O)(=O)Nc2ccccc2I)cc1)c1ccc(-c2c3nc(c(-c4c(F)c(F)c(F)c(F)c4F)c4ccc([nH]4)c(-c4c(F)c(F)c(F)c(F)c4F)c4nc(c(-c5c(F)c(F)c(F)c(F)c5F)c5ccc2[nH]5)C=C4)C=C3)cc1
REMARK SMILES IDX 5 1 4 2 3 3 2 4 1 5 26 6 27 7 88 8 28 9 87 10 29 11 30 12
REMARK SMILES IDX 31 13 81 14 32 15 86 16 80 17 82 18 33 19 85 20 79 21 78 22
REMARK SMILES IDX 34 24 66 25 46 26 65 27 47 28 50 29 64 30 83 31 48 32 49 33
REMARK SMILES IDX 63 35 84 36 51 37 35 38 36 39 44 40 37 41 38 42 42 43 45 44
REMARK SMILES IDX 39 45 40 46 43 47 41 48 67 49 68 50 76 51 69 52 70 53 74 54
REMARK SMILES IDX 77 55 71 56 72 57 75 58 73 59 52 60 53 61 61 62 54 63 55 64
REMARK SMILES IDX 59 65 62 66 56 67 57 68 60 69 58 70 6 71 7 72 8 73 9 74
REMARK SMILES IDX 10 75 25 76 11 77 24 78 12 79 13 80 14 81 15 82 16 83 17 85
REMARK SMILES IDX 18 86 22 87 19 88 21 89 23 90 20 91
REMARK H PARENT 82 23 50 34 16 84
REMARK Flexibility Score: inf
ROOT
ATOM      1  C   UNL A   1      39.109  21.193  25.751  1.00  0.00     0.275 C 
ENDROOT
BRANCH   1   2
ATOM      2  C   UNL A   1      39.201  19.667  25.751  1.00  0.00     0.275 C 
BRANCH   2   3
ATOM      3  O   UNL A   1      40.522  19.151  25.508  1.00  0.00    -0.458 OA
BRANCH   3   4
ATOM      4  C   UNL A   1      41.707  19.394  26.115  1.00  0.00     0.338 C 
ATOM      5  O   UNL A   1      42.413  18.430  26.414  1.00  0.00    -0.246 OA
BRANCH   4   6
ATOM      6  C   UNL A   1      42.186  20.749  26.554  1.00  0.00     0.060 A 
ATOM      7  C   UNL A   1      42.212  21.242  27.862  1.00  0.00     0.016 A 
ATOM      8  C   UNL A   1      42.635  21.609  25.534  1.00  0.00     0.016 A 
ATOM      9  C   UNL A   1      42.721  22.521  28.154  1.00  0.00     0.010 A 
ATOM     10  C   UNL A   1      43.149  22.883  25.821  1.00  0.00     0.010 A 
ATOM     11  C   UNL A   1      43.206  23.350  27.143  1.00  0.00    -0.014 A 
BRANCH  11  12
ATOM     12  C   UNL A   1      43.649  24.744  27.419  1.00  0.00     0.031 A 
ATOM     13  C   UNL A   1      42.599  25.782  27.697  1.00  0.00     0.074 A 
ATOM     14  C   UNL A   1      44.948  25.107  27.486  1.00  0.00     0.049 A 
ATOM     15  N   UNL A   1      42.751  27.059  27.936  1.00  0.00    -0.248 NA
ATOM     16  C   UNL A   1      41.209  25.309  27.806  1.00  0.00     0.031 C 
ATOM     17  C   UNL A   1      46.096  24.205  27.490  1.00  0.00     0.029 A 
ATOM     18  N   UNL A   1      45.525  26.359  27.540  1.00  0.00    -0.354 N 
ATOM     19  C   UNL A   1      41.500  27.516  28.317  1.00  0.00     0.074 A 
ATOM     20  C   UNL A   1      40.575  26.414  28.171  1.00  0.00     0.031 C 
ATOM     21  C   UNL A   1      47.226  24.933  27.427  1.00  0.00     0.029 A 
ATOM     22  C   UNL A   1      46.886  26.342  27.318  1.00  0.00     0.049 A 
ATOM     23  H   UNL A   1      45.018  27.183  27.718  1.00  0.00     0.167 HD
ATOM     24  C   UNL A   1      41.175  28.727  28.819  1.00  0.00     0.037 A 
ATOM     25  C   UNL A   1      47.725  27.348  26.994  1.00  0.00     0.037 A 
ATOM     26  C   UNL A   1      42.091  29.828  28.935  1.00  0.00     0.049 A 
ATOM     27  C   UNL A   1      47.237  28.754  27.146  1.00  0.00     0.074 A 
ATOM     28  C   UNL A   1      41.887  31.073  29.501  1.00  0.00     0.029 A 
ATOM     29  N   UNL A   1      43.382  29.824  28.432  1.00  0.00    -0.354 N 
ATOM     30  N   UNL A   1      46.061  29.178  27.522  1.00  0.00    -0.248 NA
ATOM     31  C   UNL A   1      48.228  29.818  26.924  1.00  0.00     0.031 C 
ATOM     32  C   UNL A   1      43.031  31.848  29.276  1.00  0.00     0.029 A 
ATOM     33  C   UNL A   1      43.964  31.068  28.616  1.00  0.00     0.049 A 
ATOM     34  H   UNL A   1      43.821  29.053  28.006  1.00  0.00     0.167 HD
ATOM     35  C   UNL A   1      46.187  30.547  27.668  1.00  0.00     0.074 A 
ATOM     36  C   UNL A   1      47.538  30.893  27.271  1.00  0.00     0.031 C 
ATOM     37  C   UNL A   1      45.285  31.422  28.170  1.00  0.00     0.037 A 
BRANCH  24  38
ATOM     38  C   UNL A   1      39.773  28.911  29.302  1.00  0.00     0.064 A 
ATOM     39  C   UNL A   1      39.418  28.619  30.630  1.00  0.00     0.173 A 
ATOM     40  C   UNL A   1      38.784  29.415  28.449  1.00  0.00     0.173 A 
ATOM     41  F   UNL A   1      40.328  28.117  31.479  1.00  0.00    -0.203 F 
ATOM     42  C   UNL A   1      38.117  28.816  31.080  1.00  0.00     0.198 A 
ATOM     43  C   UNL A   1      37.488  29.629  28.908  1.00  0.00     0.198 A 
ATOM     44  F   UNL A   1      39.078  29.703  27.173  1.00  0.00    -0.203 F 
ATOM     45  F   UNL A   1      37.791  28.504  32.342  1.00  0.00    -0.200 F 
ATOM     46  C   UNL A   1      37.155  29.327  30.221  1.00  0.00     0.200 A 
ATOM     47  F   UNL A   1      36.560  30.127  28.080  1.00  0.00    -0.200 F 
ATOM     48  F   UNL A   1      35.904  29.526  30.658  1.00  0.00    -0.200 F 
ENDBRANCH  24  38
BRANCH  25  49
ATOM     49  C   UNL A   1      49.081  27.132  26.420  1.00  0.00     0.064 A 
ATOM     50  C   UNL A   1      49.334  27.072  25.048  1.00  0.00     0.173 A 
ATOM     51  C   UNL A   1      50.154  26.854  27.289  1.00  0.00     0.173 A 
ATOM     52  F   UNL A   1      48.336  27.258  24.176  1.00  0.00    -0.203 F 
ATOM     53  C   UNL A   1      50.615  26.782  24.567  1.00  0.00     0.198 A 
ATOM     54  C   UNL A   1      51.436  26.592  26.812  1.00  0.00     0.198 A 
ATOM     55  F   UNL A   1      49.949  26.833  28.616  1.00  0.00    -0.203 F 
ATOM     56  F   UNL A   1      50.829  26.704  23.247  1.00  0.00    -0.200 F 
ATOM     57  C   UNL A   1      51.667  26.557  25.448  1.00  0.00     0.200 A 
ATOM     58  F   UNL A   1      52.440  26.372  27.672  1.00  0.00    -0.200 F 
ATOM     59  F   UNL A   1      52.894  26.292  24.980  1.00  0.00    -0.200 F 
ENDBRANCH  25  49
BRANCH  37  60
ATOM     60  C   UNL A   1      45.769  32.821  28.373  1.00  0.00     0.064 A 
ATOM     61  C   UNL A   1      46.446  33.207  29.537  1.00  0.00     0.173 A 
ATOM     62  C   UNL A   1      45.488  33.802  27.411  1.00  0.00     0.173 A 
ATOM     63  F   UNL A   1      46.694  32.310  30.503  1.00  0.00    -0.203 F 
ATOM     64  C   UNL A   1      46.796  34.538  29.746  1.00  0.00     0.198 A 
ATOM     65  C   UNL A   1      45.869  35.125  27.608  1.00  0.00     0.198 A 
ATOM     66  F   UNL A   1      44.825  33.482  26.290  1.00  0.00    -0.203 F 
ATOM     67  F   UNL A   1      47.373  34.902  30.899  1.00  0.00    -0.200 F 
ATOM     68  C   UNL A   1      46.511  35.494  28.781  1.00  0.00     0.200 A 
ATOM     69  F   UNL A   1      45.590  36.046  26.676  1.00  0.00    -0.200 F 
ATOM     70  F   UNL A   1      46.835  36.776  28.991  1.00  0.00    -0.200 F 
ENDBRANCH  37  60
ENDBRANCH  11  12
ENDBRANCH   4   6
ENDBRANCH   3   4
ENDBRANCH   2   3
ENDBRANCH   1   2
BRANCH   1  71
ATOM     71  O   UNL A   1      37.756  21.647  25.667  1.00  0.00    -0.458 OA
BRANCH  71  72
ATOM     72  C   UNL A   1      37.587  22.993  25.774  1.00  0.00     0.338 C 
ATOM     73  O   UNL A   1      38.314  23.776  26.353  1.00  0.00    -0.246 OA
BRANCH  72  74
ATOM     74  C   UNL A   1      36.420  23.396  24.955  1.00  0.00     0.060 A 
ATOM     75  C   UNL A   1      35.558  24.391  25.441  1.00  0.00     0.017 A 
ATOM     76  C   UNL A   1      36.220  22.857  23.685  1.00  0.00     0.017 A 
ATOM     77  C   UNL A   1      34.478  24.828  24.666  1.00  0.00     0.023 A 
ATOM     78  C   UNL A   1      35.178  23.328  22.899  1.00  0.00     0.023 A 
ATOM     79  C   UNL A   1      34.275  24.265  23.405  1.00  0.00     0.087 A 
BRANCH  79  80
ATOM     80  S   UNL A   1      32.909  24.758  22.389  1.00  0.00     0.261 S 
ATOM     81  O   UNL A   1      32.548  26.117  22.734  1.00  0.00    -0.201 OA
ATOM     82  O   UNL A   1      33.260  24.416  21.026  1.00  0.00    -0.201 OA
BRANCH  80  83
ATOM     83  N   UNL A   1      31.575  23.769  22.802  1.00  0.00    -0.279 N 
ATOM     84  H   UNL A   1      30.654  24.065  22.619  1.00  0.00     0.180 HD
BRANCH  83  85
ATOM     85  C   UNL A   1      31.825  22.492  23.424  1.00  0.00     0.062 A 
ATOM     86  C   UNL A   1      32.219  21.422  22.619  1.00  0.00     0.028 A 
ATOM     87  C   UNL A   1      31.784  22.308  24.813  1.00  0.00     0.037 A 
ATOM     88  C   UNL A   1      32.528  20.180  23.185  1.00  0.00     0.002 A 
ATOM     89  C   UNL A   1      32.150  21.076  25.376  1.00  0.00     0.017 A 
ATOM     90  I   UNL A   1      31.153  23.810  26.125  1.00  0.00    -0.042 I 
ATOM     91  C   UNL A   1      32.517  20.010  24.561  1.00  0.00     0.001 A 
ENDBRANCH  83  85
ENDBRANCH  80  83
ENDBRANCH  79  80
ENDBRANCH  72  74
ENDBRANCH  71  72
ENDBRANCH   1  71
TORSDOF 14
ENDMDL
MODEL 3
REMARK VINA RESULT:     -12.1      5.420     10.607
REMARK SMILES O=C(OCCOC(=O)c1ccc(S(=O)(=O)Nc2ccccc2I)cc1)c1ccc(-c2c3nc(c(-c4c(F)c(F)c(F)c(F)c4F)c4ccc([nH]4)c(-c4c(F)c(F)c(F)c(F)c4F)c4nc(c(-c5c(F)c(F)c(F)c(F)c5F)c5ccc2[nH]5)C=C4)C=C3)cc1
REMARK SMILES IDX 5 1 4 2 3 3 2 4 1 5 26 6 27 7 88 8 28 9 87 10 29 11 30 12
REMARK SMILES IDX 31 13 81 14 32 15 86 16 80 17 82 18 33 19 85 20 79 21 78 22
REMARK SMILES IDX 34 24 66 25 46 26 65 27 47 28 50 29 64 30 83 31 48 32 49 33
REMARK SMILES IDX 63 35 84 36 51 37 35 38 36 39 44 40 37 41 38 42 42 43 45 44
REMARK SMILES IDX 39 45 40 46 43 47 41 48 67 49 68 50 76 51 69 52 70 53 74 54
REMARK SMILES IDX 77 55 71 56 72 57 75 58 73 59 52 60 53 61 61 62 54 63 55 64
REMARK SMILES IDX 59 65 62 66 56 67 57 68 60 69 58 70 6 71 7 72 8 73 9 74
REMARK SMILES IDX 10 75 25 76 11 77 24 78 12 79 13 80 14 81 15 82 16 83 17 85
REMARK SMILES IDX 18 86 22 87 19 88 21 89 23 90 20 91
REMARK H PARENT 82 23 50 34 16 84
REMARK Flexibility Score: inf
ROOT
ATOM      1  C   UNL A   1      38.690  21.214  25.669  1.00  0.00     0.275 C 
ENDROOT
BRANCH   1   2
ATOM      2  C   UNL A   1      38.789  19.757  25.218  1.00  0.00     0.275 C 
BRANCH   2   3
ATOM      3  O   UNL A   1      39.868  19.020  25.822  1.00  0.00    -0.458 OA
BRANCH   3   4
ATOM      4  C   UNL A   1      41.181  19.312  25.973  1.00  0.00     0.338 C 
ATOM      5  O   UNL A   1      41.999  18.410  25.792  1.00  0.00    -0.246 OA
BRANCH   4   6
ATOM      6  C   UNL A   1      41.719  20.631  26.452  1.00  0.00     0.060 A 
ATOM      7  C   UNL A   1      41.768  21.082  27.774  1.00  0.00     0.016 A 
ATOM      8  C   UNL A   1      42.205  21.501  25.458  1.00  0.00     0.016 A 
ATOM      9  C   UNL A   1      42.332  22.328  28.104  1.00  0.00     0.010 A 
ATOM     10  C   UNL A   1      42.774  22.742  25.783  1.00  0.00     0.010 A 
ATOM     11  C   UNL A   1      42.852  23.166  27.118  1.00  0.00    -0.014 A 
BRANCH  11  12
ATOM     12  C   UNL A   1      43.356  24.530  27.436  1.00  0.00     0.031 A 
ATOM     13  C   UNL A   1      42.351  25.607  27.733  1.00  0.00     0.074 A 
ATOM     14  C   UNL A   1      44.669  24.831  27.523  1.00  0.00     0.049 A 
ATOM     15  N   UNL A   1      42.560  26.869  28.009  1.00  0.00    -0.248 NA
ATOM     16  C   UNL A   1      40.940  25.196  27.818  1.00  0.00     0.031 C 
ATOM     17  C   UNL A   1      45.775  23.878  27.513  1.00  0.00     0.029 A 
ATOM     18  N   UNL A   1      45.302  26.054  27.616  1.00  0.00    -0.354 N 
ATOM     19  C   UNL A   1      41.328  27.373  28.392  1.00  0.00     0.074 A 
ATOM     20  C   UNL A   1      40.354  26.319  28.208  1.00  0.00     0.031 C 
ATOM     21  C   UNL A   1      46.937  24.554  27.478  1.00  0.00     0.029 A 
ATOM     22  C   UNL A   1      46.663  25.980  27.405  1.00  0.00     0.049 A 
ATOM     23  H   UNL A   1      44.831  26.895  27.813  1.00  0.00     0.167 HD
ATOM     24  C   UNL A   1      41.053  28.584  28.924  1.00  0.00     0.037 A 
ATOM     25  C   UNL A   1      47.550  26.954  27.116  1.00  0.00     0.037 A 
ATOM     26  C   UNL A   1      42.018  29.638  29.077  1.00  0.00     0.049 A 
ATOM     27  C   UNL A   1      47.126  28.377  27.302  1.00  0.00     0.074 A 
ATOM     28  C   UNL A   1      41.865  30.876  29.675  1.00  0.00     0.029 A 
ATOM     29  N   UNL A   1      43.312  29.588  28.585  1.00  0.00    -0.354 N 
ATOM     30  N   UNL A   1      45.966  28.844  27.679  1.00  0.00    -0.248 NA
ATOM     31  C   UNL A   1      48.166  29.400  27.117  1.00  0.00     0.031 C 
ATOM     32  C   UNL A   1      43.045  31.603  29.480  1.00  0.00     0.029 A 
ATOM     33  C   UNL A   1      43.948  30.799  28.807  1.00  0.00     0.049 A 
ATOM     34  H   UNL A   1      43.719  28.809  28.142  1.00  0.00     0.167 HD
ATOM     35  C   UNL A   1      46.154  30.202  27.864  1.00  0.00     0.074 A 
ATOM     36  C   UNL A   1      47.522  30.495  27.488  1.00  0.00     0.031 C 
ATOM     37  C   UNL A   1      45.288  31.103  28.382  1.00  0.00     0.037 A 
BRANCH  24  38
ATOM     38  C   UNL A   1      39.656  28.818  29.400  1.00  0.00     0.064 A 
ATOM     39  C   UNL A   1      39.275  28.505  30.715  1.00  0.00     0.173 A 
ATOM     40  C   UNL A   1      38.701  29.393  28.553  1.00  0.00     0.173 A 
ATOM     41  F   UNL A   1      40.153  27.937  31.557  1.00  0.00    -0.203 F 
ATOM     42  C   UNL A   1      37.980  28.749  31.160  1.00  0.00     0.198 A 
ATOM     43  C   UNL A   1      37.412  29.654  29.008  1.00  0.00     0.198 A 
ATOM     44  F   UNL A   1      39.020  29.704  27.289  1.00  0.00    -0.203 F 
ATOM     45  F   UNL A   1      37.628  28.416  32.410  1.00  0.00    -0.200 F 
ATOM     46  C   UNL A   1      37.052  29.330  30.309  1.00  0.00     0.200 A 
ATOM     47  F   UNL A   1      36.516  30.219  28.188  1.00  0.00    -0.200 F 
ATOM     48  F   UNL A   1      35.807  29.574  30.741  1.00  0.00    -0.200 F 
ENDBRANCH  24  38
BRANCH  25  49
ATOM     49  C   UNL A   1      48.901  26.692  26.547  1.00  0.00     0.064 A 
ATOM     50  C   UNL A   1      50.030  26.447  27.331  1.00  0.00     0.173 A 
ATOM     51  C   UNL A   1      49.091  26.811  25.157  1.00  0.00     0.173 A 
ATOM     52  F   UNL A   1      49.920  26.395  28.664  1.00  0.00    -0.203 F 
ATOM     53  C   UNL A   1      51.290  26.291  26.744  1.00  0.00     0.198 A 
ATOM     54  C   UNL A   1      50.340  26.629  24.569  1.00  0.00     0.198 A 
ATOM     55  F   UNL A   1      48.049  27.111  24.365  1.00  0.00    -0.203 F 
ATOM     56  F   UNL A   1      52.364  26.083  27.518  1.00  0.00    -0.200 F 
ATOM     57  C   UNL A   1      51.442  26.368  25.365  1.00  0.00     0.200 A 
ATOM     58  F   UNL A   1      50.473  26.710  23.238  1.00  0.00    -0.200 F 
ATOM     59  F   UNL A   1      52.650  26.206  24.809  1.00  0.00    -0.200 F 
ENDBRANCH  25  49
BRANCH  37  60
ATOM     60  C   UNL A   1      45.833  32.473  28.627  1.00  0.00     0.064 A 
ATOM     61  C   UNL A   1      46.452  32.816  29.836  1.00  0.00     0.173 A 
ATOM     62  C   UNL A   1      45.671  33.472  27.656  1.00  0.00     0.173 A 
ATOM     63  F   UNL A   1      46.586  31.903  30.810  1.00  0.00    -0.203 F 
ATOM     64  C   UNL A   1      46.860  34.125  30.077  1.00  0.00     0.198 A 
ATOM     65  C   UNL A   1      46.110  34.770  27.887  1.00  0.00     0.198 A 
ATOM     66  F   UNL A   1      45.068  33.192  26.491  1.00  0.00    -0.203 F 
ATOM     67  F   UNL A   1      47.378  34.452  31.269  1.00  0.00    -0.200 F 
ATOM     68  C   UNL A   1      46.693  35.099  29.103  1.00  0.00     0.200 A 
ATOM     69  F   UNL A   1      45.945  35.709  26.946  1.00  0.00    -0.200 F 
ATOM     70  F   UNL A   1      47.072  36.360  29.344  1.00  0.00    -0.200 F 
ENDBRANCH  37  60
ENDBRANCH  11  12
ENDBRANCH   4   6
ENDBRANCH   3   4
ENDBRANCH   2   3
ENDBRANCH   1   2
BRANCH   1  71
ATOM     71  O   UNL A   1      37.351  21.710  25.583  1.00  0.00    -0.458 OA
BRANCH  71  72
ATOM     72  C   UNL A   1      37.206  23.038  25.844  1.00  0.00     0.338 C 
ATOM     73  O   UNL A   1      38.076  23.885  25.826  1.00  0.00    -0.246 OA
BRANCH  72  74
ATOM     74  C   UNL A   1      35.768  23.333  26.042  1.00  0.00     0.060 A 
ATOM     75  C   UNL A   1      35.271  24.591  25.668  1.00  0.00     0.017 A 
ATOM     76  C   UNL A   1      34.898  22.351  26.518  1.00  0.00     0.017 A 
ATOM     77  C   UNL A   1      33.908  24.877  25.796  1.00  0.00     0.023 A 
ATOM     78  C   UNL A   1      33.539  22.622  26.596  1.00  0.00     0.023 A 
ATOM     79  C   UNL A   1      33.051  23.894  26.293  1.00  0.00     0.087 A 
BRANCH  79  80
ATOM     80  S   UNL A   1      31.319  24.208  26.503  1.00  0.00     0.261 S 
ATOM     81  O   UNL A   1      30.771  23.192  27.376  1.00  0.00    -0.201 OA
ATOM     82  O   UNL A   1      31.189  25.612  26.840  1.00  0.00    -0.201 OA
BRANCH  80  83
ATOM     83  N   UNL A   1      30.570  24.010  24.977  1.00  0.00    -0.279 N 
ATOM     84  H   UNL A   1      30.112  23.169  24.748  1.00  0.00     0.180 HD
BRANCH  83  85
ATOM     85  C   UNL A   1      30.620  25.100  24.034  1.00  0.00     0.062 A 
ATOM     86  C   UNL A   1      29.807  26.213  24.254  1.00  0.00     0.028 A 
ATOM     87  C   UNL A   1      31.524  25.128  22.962  1.00  0.00     0.037 A 
ATOM     88  C   UNL A   1      29.864  27.318  23.396  1.00  0.00     0.002 A 
ATOM     89  C   UNL A   1      31.614  26.264  22.142  1.00  0.00     0.017 A 
ATOM     90  I   UNL A   1      32.754  23.505  22.489  1.00  0.00    -0.042 I 
ATOM     91  C   UNL A   1      30.781  27.356  22.356  1.00  0.00     0.001 A 
ENDBRANCH  83  85
ENDBRANCH  80  83
ENDBRANCH  79  80
ENDBRANCH  72  74
ENDBRANCH  71  72
ENDBRANCH   1  71
TORSDOF 14
ENDMDL
