MODEL 1
REMARK VINA RESULT:     -10.4      0.000      0.000
REMARK SMILES CCCCc1nc(C[N@H+]2CC[NH2+][C@H](C(=O)OCCOC(=O)c3ccc(-c4c5nc(c(-c6c(F)c(F)c(F)c(F)c6F)c6ccc([nH]6)c(-c6c(F)c(F)c(F)c(F)c6F)c6nc(c(-c7c(F)c(F)c(F)c(F)c7F)c7ccc4[nH]7)C=C6)C=C5)cc3)C2)c(Cl)[nH]1
REMARK SMILES IDX 16 1 14 2 15 3 13 4 9 5 10 6 85 7 11 9 12 10 8 13 7 14 5 15
REMARK SMILES IDX 6 16 88 17 86 18 87 20 4 21 3 22 2 23 1 24 17 25 18 26 19 27
REMARK SMILES IDX 20 28 21 29 22 30 23 31 84 32 24 33 83 34 25 35 26 36 27 37
REMARK SMILES IDX 77 38 28 39 82 40 76 41 78 42 29 43 81 44 75 45 74 46 30 48
REMARK SMILES IDX 62 49 42 50 61 51 43 52 46 53 60 54 79 55 44 56 45 57 59 59
REMARK SMILES IDX 80 60 47 61 31 62 32 63 40 64 33 65 34 66 38 67 41 68 35 69
REMARK SMILES IDX 36 70 39 71 37 72 63 73 64 74 72 75 65 76 66 77 70 78 73 79
REMARK SMILES IDX 67 80 68 81 71 82 69 83 48 84 49 85 57 86 50 87 51 88 55 89
REMARK SMILES IDX 58 90 52 91 53 92 56 93 54 94
REMARK H PARENT 9 8 12 11 12 12 88 19 78 47 46 58
REMARK Flexibility Score: inf
ROOT
ATOM      1  O   UNL A   1      32.823  34.527  29.685  1.00  0.00    -0.457 OA
ENDROOT
BRANCH   1   2
ATOM      2  C   UNL A   1      33.235  35.547  30.505  1.00  0.00     0.371 C 
ATOM      3  O   UNL A   1      32.863  36.712  30.400  1.00  0.00    -0.245 OA
BRANCH   2   4
ATOM      4  C   UNL A   1      34.139  34.999  31.626  1.00  0.00     0.348 C 
ATOM      5  N   UNL A   1      36.331  33.682  31.988  1.00  0.00    -0.320 N 
ATOM      6  C   UNL A   1      35.587  32.950  33.021  1.00  0.00     0.324 C 
ATOM      7  C   UNL A   1      35.429  34.366  31.032  1.00  0.00     0.341 C 
ATOM      8  H   UNL A   1      36.819  32.968  31.446  1.00  0.00     0.348 HD
ATOM      9  C   UNL A   1      34.316  33.641  33.572  1.00  0.00     0.323 C 
ATOM     10  N   UNL A   1      33.386  34.069  32.514  1.00  0.00    -0.325 N 
ATOM     11  H   UNL A   1      32.584  34.547  32.924  1.00  0.00     0.347 HD
ATOM     12  H   UNL A   1      33.036  33.267  31.989  1.00  0.00     0.347 HD
BRANCH   5  13
ATOM     13  C   UNL A   1      37.462  34.497  32.479  1.00  0.00     0.323 C 
BRANCH  13  14
ATOM     14  C   UNL A   1      38.807  33.974  32.104  1.00  0.00     0.132 A 
ATOM     15  C   UNL A   1      40.678  34.014  31.022  1.00  0.00     0.107 A 
ATOM     16  N   UNL A   1      39.408  34.364  30.930  1.00  0.00    -0.231 NA
ATOM     17  N   UNL A   1      40.856  33.193  32.109  1.00  0.00    -0.333 N 
ATOM     18  C   UNL A   1      39.674  33.161  32.785  1.00  0.00     0.135 A 
ATOM     19  H   UNL A   1      41.682  32.716  32.352  1.00  0.00     0.169 HD
ATOM     20  Cl  UNL A   1      39.605  32.334  34.259  1.00  0.00    -0.062 Cl
BRANCH  15  21
ATOM     21  C   UNL A   1      41.759  34.586  30.162  1.00  0.00     0.075 C 
BRANCH  21  22
ATOM     22  C   UNL A   1      41.349  35.276  28.867  1.00  0.00     0.008 C 
BRANCH  22  23
ATOM     23  C   UNL A   1      42.392  36.192  28.228  1.00  0.00    -0.003 C 
ATOM     24  C   UNL A   1      42.492  36.060  26.718  1.00  0.00     0.004 C 
ENDBRANCH  22  23
ENDBRANCH  21  22
ENDBRANCH  15  21
ENDBRANCH  13  14
ENDBRANCH   5  13
ENDBRANCH   2   4
ENDBRANCH   1   2
BRANCH   1  25
ATOM     25  C   UNL A   1      33.313  34.540  28.332  1.00  0.00     0.274 C 
BRANCH  25  26
ATOM     26  C   UNL A   1      33.575  33.121  27.829  1.00  0.00     0.275 C 
BRANCH  26  27
ATOM     27  O   UNL A   1      34.865  32.616  28.200  1.00  0.00    -0.458 OA
BRANCH  27  28
ATOM     28  C   UNL A   1      34.992  31.287  27.995  1.00  0.00     0.338 C 
ATOM     29  O   UNL A   1      34.113  30.526  27.656  1.00  0.00    -0.246 OA
BRANCH  28  30
ATOM     30  C   UNL A   1      36.217  30.752  28.573  1.00  0.00     0.060 A 
ATOM     31  C   UNL A   1      37.149  31.692  29.043  1.00  0.00     0.016 A 
ATOM     32  C   UNL A   1      36.555  29.423  28.326  1.00  0.00     0.016 A 
ATOM     33  C   UNL A   1      38.471  31.327  29.144  1.00  0.00     0.010 A 
ATOM     34  C   UNL A   1      37.876  29.065  28.405  1.00  0.00     0.010 A 
ATOM     35  C   UNL A   1      38.820  30.030  28.771  1.00  0.00    -0.014 A 
BRANCH  35  36
ATOM     36  C   UNL A   1      40.183  29.596  28.987  1.00  0.00     0.031 A 
ATOM     37  C   UNL A   1      40.506  29.561  30.435  1.00  0.00     0.074 A 
ATOM     38  C   UNL A   1      40.919  29.087  27.981  1.00  0.00     0.049 A 
ATOM     39  N   UNL A   1      41.402  30.239  31.071  1.00  0.00    -0.248 NA
ATOM     40  C   UNL A   1      39.586  28.821  31.327  1.00  0.00     0.031 C 
ATOM     41  C   UNL A   1      40.459  28.837  26.609  1.00  0.00     0.029 A 
ATOM     42  N   UNL A   1      42.169  28.542  27.991  1.00  0.00    -0.354 N 
ATOM     43  C   UNL A   1      41.314  29.801  32.393  1.00  0.00     0.074 A 
ATOM     44  C   UNL A   1      40.041  29.160  32.532  1.00  0.00     0.031 C 
ATOM     45  C   UNL A   1      41.308  27.979  26.003  1.00  0.00     0.029 A 
ATOM     46  C   UNL A   1      42.430  27.731  26.890  1.00  0.00     0.049 A 
ATOM     47  H   UNL A   1      42.824  28.707  28.708  1.00  0.00     0.167 HD
ATOM     48  C   UNL A   1      42.448  29.635  33.124  1.00  0.00     0.037 A 
ATOM     49  C   UNL A   1      43.460  26.858  26.767  1.00  0.00     0.037 A 
ATOM     50  C   UNL A   1      43.545  30.342  32.518  1.00  0.00     0.049 A 
ATOM     51  C   UNL A   1      44.485  27.225  27.772  1.00  0.00     0.074 A 
ATOM     52  C   UNL A   1      43.979  31.646  32.445  1.00  0.00     0.029 A 
ATOM     53  N   UNL A   1      44.143  29.650  31.501  1.00  0.00    -0.354 N 
ATOM     54  N   UNL A   1      45.174  28.332  27.720  1.00  0.00    -0.248 NA
ATOM     55  C   UNL A   1      44.499  26.537  29.060  1.00  0.00     0.031 C 
ATOM     56  C   UNL A   1      44.803  31.729  31.284  1.00  0.00     0.029 A 
ATOM     57  C   UNL A   1      44.885  30.469  30.698  1.00  0.00     0.049 A 
ATOM     58  H   UNL A   1      44.049  28.679  31.364  1.00  0.00     0.167 HD
ATOM     59  C   UNL A   1      45.343  28.687  29.044  1.00  0.00     0.074 A 
ATOM     60  C   UNL A   1      45.072  27.481  29.813  1.00  0.00     0.031 C 
ATOM     61  C   UNL A   1      45.345  29.998  29.414  1.00  0.00     0.037 A 
BRANCH  48  62
ATOM     62  C   UNL A   1      42.712  28.443  34.026  1.00  0.00     0.064 A 
ATOM     63  C   UNL A   1      42.995  28.681  35.386  1.00  0.00     0.173 A 
ATOM     64  C   UNL A   1      43.015  27.139  33.569  1.00  0.00     0.173 A 
ATOM     65  F   UNL A   1      42.772  29.887  35.928  1.00  0.00    -0.203 F 
ATOM     66  C   UNL A   1      43.594  27.714  36.199  1.00  0.00     0.198 A 
ATOM     67  C   UNL A   1      43.563  26.161  34.397  1.00  0.00     0.198 A 
ATOM     68  F   UNL A   1      42.908  26.780  32.285  1.00  0.00    -0.203 F 
ATOM     69  F   UNL A   1      43.953  28.025  37.452  1.00  0.00    -0.200 F 
ATOM     70  C   UNL A   1      43.882  26.455  35.702  1.00  0.00     0.200 A 
ATOM     71  F   UNL A   1      43.857  24.957  33.884  1.00  0.00    -0.200 F 
ATOM     72  F   UNL A   1      44.507  25.546  36.460  1.00  0.00    -0.200 F 
ENDBRANCH  48  62
BRANCH  49  73
ATOM     73  C   UNL A   1      43.496  25.571  26.039  1.00  0.00     0.064 A 
ATOM     74  C   UNL A   1      44.585  25.222  25.226  1.00  0.00     0.173 A 
ATOM     75  C   UNL A   1      42.583  24.542  26.343  1.00  0.00     0.173 A 
ATOM     76  F   UNL A   1      45.520  26.135  24.926  1.00  0.00    -0.203 F 
ATOM     77  C   UNL A   1      44.764  23.914  24.762  1.00  0.00     0.198 A 
ATOM     78  C   UNL A   1      42.760  23.238  25.876  1.00  0.00     0.198 A 
ATOM     79  F   UNL A   1      41.555  24.763  27.175  1.00  0.00    -0.203 F 
ATOM     80  F   UNL A   1      45.847  23.604  24.035  1.00  0.00    -0.200 F 
ATOM     81  C   UNL A   1      43.858  22.921  25.097  1.00  0.00     0.200 A 
ATOM     82  F   UNL A   1      41.897  22.279  26.240  1.00  0.00    -0.200 F 
ATOM     83  F   UNL A   1      44.062  21.656  24.706  1.00  0.00    -0.200 F 
ENDBRANCH  49  73
BRANCH  61  84
ATOM     84  C   UNL A   1      45.703  31.008  28.376  1.00  0.00     0.064 A 
ATOM     85  C   UNL A   1      44.777  31.674  27.558  1.00  0.00     0.173 A 
ATOM     86  C   UNL A   1      47.050  31.374  28.271  1.00  0.00     0.173 A 
ATOM     87  F   UNL A   1      43.465  31.422  27.657  1.00  0.00    -0.203 F 
ATOM     88  C   UNL A   1      45.196  32.646  26.651  1.00  0.00     0.198 A 
ATOM     89  C   UNL A   1      47.461  32.368  27.393  1.00  0.00     0.198 A 
ATOM     90  F   UNL A   1      47.967  30.791  29.059  1.00  0.00    -0.203 F 
ATOM     91  F   UNL A   1      44.300  33.264  25.866  1.00  0.00    -0.200 F 
ATOM     92  C   UNL A   1      46.535  32.998  26.576  1.00  0.00     0.200 A 
ATOM     93  F   UNL A   1      48.749  32.731  27.355  1.00  0.00    -0.200 F 
ATOM     94  F   UNL A   1      46.933  33.958  25.730  1.00  0.00    -0.200 F 
ENDBRANCH  61  84
ENDBRANCH  35  36
ENDBRANCH  28  30
ENDBRANCH  27  28
ENDBRANCH  26  27
ENDBRANCH  25  26
ENDBRANCH   1  25
TORSDOF 16
ENDMDL
MODEL 2
REMARK VINA RESULT:     -10.3      2.545      7.460
REMARK SMILES CCCCc1nc(C[N@H+]2CC[NH2+][C@H](C(=O)OCCOC(=O)c3ccc(-c4c5nc(c(-c6c(F)c(F)c(F)c(F)c6F)c6ccc([nH]6)c(-c6c(F)c(F)c(F)c(F)c6F)c6nc(c(-c7c(F)c(F)c(F)c(F)c7F)c7ccc4[nH]7)C=C6)C=C5)cc3)C2)c(Cl)[nH]1
REMARK SMILES IDX 16 1 14 2 15 3 13 4 9 5 10 6 85 7 11 9 12 10 8 13 7 14 5 15
REMARK SMILES IDX 6 16 88 17 86 18 87 20 4 21 3 22 2 23 1 24 17 25 18 26 19 27
REMARK SMILES IDX 20 28 21 29 22 30 23 31 84 32 24 33 83 34 25 35 26 36 27 37
REMARK SMILES IDX 77 38 28 39 82 40 76 41 78 42 29 43 81 44 75 45 74 46 30 48
REMARK SMILES IDX 62 49 42 50 61 51 43 52 46 53 60 54 79 55 44 56 45 57 59 59
REMARK SMILES IDX 80 60 47 61 31 62 32 63 40 64 33 65 34 66 38 67 41 68 35 69
REMARK SMILES IDX 36 70 39 71 37 72 63 73 64 74 72 75 65 76 66 77 70 78 73 79
REMARK SMILES IDX 67 80 68 81 71 82 69 83 48 84 49 85 57 86 50 87 51 88 55 89
REMARK SMILES IDX 58 90 52 91 53 92 56 93 54 94
REMARK H PARENT 9 8 12 11 12 12 88 19 78 47 46 58
REMARK Flexibility Score: inf
ROOT
ATOM      1  O   UNL A   1      33.408  35.193  32.833  1.00  0.00    -0.457 OA
ENDROOT
BRANCH   1   2
ATOM      2  C   UNL A   1      32.700  36.162  32.168  1.00  0.00     0.371 C 
ATOM      3  O   UNL A   1      32.064  37.055  32.720  1.00  0.00    -0.245 OA
BRANCH   2   4
ATOM      4  C   UNL A   1      32.906  36.026  30.647  1.00  0.00     0.348 C 
ATOM      5  N   UNL A   1      34.221  34.647  28.905  1.00  0.00    -0.320 N 
ATOM      6  C   UNL A   1      34.468  35.934  28.241  1.00  0.00     0.324 C 
ATOM      7  C   UNL A   1      33.830  34.820  30.323  1.00  0.00     0.341 C 
ATOM      8  H   UNL A   1      35.124  34.171  28.922  1.00  0.00     0.348 HD
ATOM      9  C   UNL A   1      33.507  37.091  28.606  1.00  0.00     0.323 C 
ATOM     10  N   UNL A   1      33.388  37.307  30.057  1.00  0.00    -0.325 N 
ATOM     11  H   UNL A   1      32.720  38.055  30.247  1.00  0.00     0.347 HD
ATOM     12  H   UNL A   1      34.284  37.581  30.460  1.00  0.00     0.347 HD
BRANCH   5  13
ATOM     13  C   UNL A   1      33.401  33.686  28.138  1.00  0.00     0.323 C 
BRANCH  13  14
ATOM     14  C   UNL A   1      34.013  32.335  27.988  1.00  0.00     0.132 A 
ATOM     15  C   UNL A   1      35.444  30.784  28.457  1.00  0.00     0.107 A 
ATOM     16  N   UNL A   1      35.297  32.096  28.419  1.00  0.00    -0.231 NA
ATOM     17  N   UNL A   1      34.384  30.179  27.828  1.00  0.00    -0.333 N 
ATOM     18  C   UNL A   1      33.486  31.158  27.524  1.00  0.00     0.135 A 
ATOM     19  H   UNL A   1      34.290  29.219  27.632  1.00  0.00     0.169 HD
ATOM     20  Cl  UNL A   1      31.997  30.715  26.857  1.00  0.00    -0.062 Cl
BRANCH  15  21
ATOM     21  C   UNL A   1      36.523  30.094  29.229  1.00  0.00     0.075 C 
BRANCH  21  22
ATOM     22  C   UNL A   1      37.465  29.169  28.468  1.00  0.00     0.008 C 
BRANCH  22  23
ATOM     23  C   UNL A   1      38.897  29.669  28.279  1.00  0.00    -0.003 C 
ATOM     24  C   UNL A   1      39.608  29.069  27.078  1.00  0.00     0.004 C 
ENDBRANCH  22  23
ENDBRANCH  21  22
ENDBRANCH  15  21
ENDBRANCH  13  14
ENDBRANCH   5  13
ENDBRANCH   2   4
ENDBRANCH   1   2
BRANCH   1  25
ATOM     25  C   UNL A   1      34.583  35.617  33.546  1.00  0.00     0.274 C 
BRANCH  25  26
ATOM     26  C   UNL A   1      35.265  34.436  34.235  1.00  0.00     0.275 C 
BRANCH  26  27
ATOM     27  O   UNL A   1      36.147  33.706  33.372  1.00  0.00    -0.458 OA
BRANCH  27  28
ATOM     28  C   UNL A   1      37.451  33.908  33.655  1.00  0.00     0.338 C 
ATOM     29  O   UNL A   1      37.977  34.972  33.898  1.00  0.00    -0.246 OA
BRANCH  28  30
ATOM     30  C   UNL A   1      38.280  32.768  33.288  1.00  0.00     0.060 A 
ATOM     31  C   UNL A   1      39.428  32.552  34.069  1.00  0.00     0.016 A 
ATOM     32  C   UNL A   1      38.109  32.186  32.033  1.00  0.00     0.016 A 
ATOM     33  C   UNL A   1      40.478  31.847  33.530  1.00  0.00     0.010 A 
ATOM     34  C   UNL A   1      39.164  31.502  31.487  1.00  0.00     0.010 A 
ATOM     35  C   UNL A   1      40.347  31.378  32.224  1.00  0.00    -0.014 A 
BRANCH  35  36
ATOM     36  C   UNL A   1      41.392  30.532  31.690  1.00  0.00     0.031 A 
ATOM     37  C   UNL A   1      42.265  31.289  30.758  1.00  0.00     0.074 A 
ATOM     38  C   UNL A   1      41.618  29.304  32.194  1.00  0.00     0.049 A 
ATOM     39  N   UNL A   1      42.468  31.074  29.501  1.00  0.00    -0.248 NA
ATOM     40  C   UNL A   1      42.837  32.566  31.237  1.00  0.00     0.031 C 
ATOM     41  C   UNL A   1      40.934  28.698  33.343  1.00  0.00     0.029 A 
ATOM     42  N   UNL A   1      42.595  28.398  31.904  1.00  0.00    -0.354 N 
ATOM     43  C   UNL A   1      43.397  32.043  29.118  1.00  0.00     0.074 A 
ATOM     44  C   UNL A   1      43.372  33.063  30.123  1.00  0.00     0.031 C 
ATOM     45  C   UNL A   1      41.666  27.660  33.802  1.00  0.00     0.029 A 
ATOM     46  C   UNL A   1      42.788  27.449  32.905  1.00  0.00     0.049 A 
ATOM     47  H   UNL A   1      43.114  28.413  31.067  1.00  0.00     0.167 HD
ATOM     48  C   UNL A   1      44.387  31.717  28.244  1.00  0.00     0.037 A 
ATOM     49  C   UNL A   1      43.847  26.611  33.018  1.00  0.00     0.037 A 
ATOM     50  C   UNL A   1      44.058  30.506  27.541  1.00  0.00     0.049 A 
ATOM     51  C   UNL A   1      44.520  26.555  31.700  1.00  0.00     0.074 A 
ATOM     52  C   UNL A   1      43.241  30.146  26.493  1.00  0.00     0.029 A 
ATOM     53  N   UNL A   1      44.353  29.370  28.243  1.00  0.00    -0.354 N 
ATOM     54  N   UNL A   1      43.976  26.023  30.640  1.00  0.00    -0.248 NA
ATOM     55  C   UNL A   1      45.667  27.424  31.446  1.00  0.00     0.031 C 
ATOM     56  C   UNL A   1      42.987  28.750  26.645  1.00  0.00     0.029 A 
ATOM     57  C   UNL A   1      43.686  28.283  27.755  1.00  0.00     0.049 A 
ATOM     58  H   UNL A   1      44.973  29.340  29.008  1.00  0.00     0.167 HD
ATOM     59  C   UNL A   1      44.427  26.808  29.598  1.00  0.00     0.074 A 
ATOM     60  C   UNL A   1      45.581  27.527  30.117  1.00  0.00     0.031 C 
ATOM     61  C   UNL A   1      43.624  27.067  28.528  1.00  0.00     0.037 A 
BRANCH  48  62
ATOM     62  C   UNL A   1      45.837  32.137  28.406  1.00  0.00     0.064 A 
ATOM     63  C   UNL A   1      46.486  32.741  27.311  1.00  0.00     0.173 A 
ATOM     64  C   UNL A   1      46.692  31.694  29.441  1.00  0.00     0.173 A 
ATOM     65  F   UNL A   1      45.781  33.179  26.257  1.00  0.00    -0.203 F 
ATOM     66  C   UNL A   1      47.879  32.829  27.231  1.00  0.00     0.198 A 
ATOM     67  C   UNL A   1      48.078  31.833  29.383  1.00  0.00     0.198 A 
ATOM     68  F   UNL A   1      46.251  31.007  30.500  1.00  0.00    -0.203 F 
ATOM     69  F   UNL A   1      48.455  33.303  26.118  1.00  0.00    -0.200 F 
ATOM     70  C   UNL A   1      48.675  32.371  28.266  1.00  0.00     0.200 A 
ATOM     71  F   UNL A   1      48.829  31.357  30.387  1.00  0.00    -0.200 F 
ATOM     72  F   UNL A   1      50.010  32.402  28.170  1.00  0.00    -0.200 F 
ENDBRANCH  48  62
BRANCH  49  73
ATOM     73  C   UNL A   1      44.476  26.080  34.248  1.00  0.00     0.064 A 
ATOM     74  C   UNL A   1      45.016  26.937  35.219  1.00  0.00     0.173 A 
ATOM     75  C   UNL A   1      44.315  24.731  34.618  1.00  0.00     0.173 A 
ATOM     76  F   UNL A   1      45.161  28.244  34.959  1.00  0.00    -0.203 F 
ATOM     77  C   UNL A   1      45.355  26.474  36.496  1.00  0.00     0.198 A 
ATOM     78  C   UNL A   1      44.658  24.270  35.890  1.00  0.00     0.198 A 
ATOM     79  F   UNL A   1      43.736  23.857  33.782  1.00  0.00    -0.203 F 
ATOM     80  F   UNL A   1      45.815  27.332  37.418  1.00  0.00    -0.200 F 
ATOM     81  C   UNL A   1      45.166  25.144  36.833  1.00  0.00     0.200 A 
ATOM     82  F   UNL A   1      44.433  22.989  36.215  1.00  0.00    -0.200 F 
ATOM     83  F   UNL A   1      45.431  24.714  38.075  1.00  0.00    -0.200 F 
ENDBRANCH  49  73
BRANCH  61  84
ATOM     84  C   UNL A   1      42.525  26.099  28.240  1.00  0.00     0.064 A 
ATOM     85  C   UNL A   1      41.212  26.218  28.720  1.00  0.00     0.173 A 
ATOM     86  C   UNL A   1      42.808  25.046  27.361  1.00  0.00     0.173 A 
ATOM     87  F   UNL A   1      40.857  27.242  29.507  1.00  0.00    -0.203 F 
ATOM     88  C   UNL A   1      40.233  25.295  28.355  1.00  0.00     0.198 A 
ATOM     89  C   UNL A   1      41.823  24.150  26.970  1.00  0.00     0.198 A 
ATOM     90  F   UNL A   1      44.041  24.914  26.848  1.00  0.00    -0.203 F 
ATOM     91  F   UNL A   1      38.985  25.414  28.833  1.00  0.00    -0.200 F 
ATOM     92  C   UNL A   1      40.537  24.268  27.474  1.00  0.00     0.200 A 
ATOM     93  F   UNL A   1      42.114  23.185  26.088  1.00  0.00    -0.200 F 
ATOM     94  F   UNL A   1      39.587  23.403  27.093  1.00  0.00    -0.200 F 
ENDBRANCH  61  84
ENDBRANCH  35  36
ENDBRANCH  28  30
ENDBRANCH  27  28
ENDBRANCH  26  27
ENDBRANCH  25  26
ENDBRANCH   1  25
TORSDOF 16
ENDMDL
MODEL 3
REMARK VINA RESULT:     -10.1      3.737      6.162
REMARK SMILES CCCCc1nc(C[N@H+]2CC[NH2+][C@H](C(=O)OCCOC(=O)c3ccc(-c4c5nc(c(-c6c(F)c(F)c(F)c(F)c6F)c6ccc([nH]6)c(-c6c(F)c(F)c(F)c(F)c6F)c6nc(c(-c7c(F)c(F)c(F)c(F)c7F)c7ccc4[nH]7)C=C6)C=C5)cc3)C2)c(Cl)[nH]1
REMARK SMILES IDX 16 1 14 2 15 3 13 4 9 5 10 6 85 7 11 9 12 10 8 13 7 14 5 15
REMARK SMILES IDX 6 16 88 17 86 18 87 20 4 21 3 22 2 23 1 24 17 25 18 26 19 27
REMARK SMILES IDX 20 28 21 29 22 30 23 31 84 32 24 33 83 34 25 35 26 36 27 37
REMARK SMILES IDX 77 38 28 39 82 40 76 41 78 42 29 43 81 44 75 45 74 46 30 48
REMARK SMILES IDX 62 49 42 50 61 51 43 52 46 53 60 54 79 55 44 56 45 57 59 59
REMARK SMILES IDX 80 60 47 61 31 62 32 63 40 64 33 65 34 66 38 67 41 68 35 69
REMARK SMILES IDX 36 70 39 71 37 72 63 73 64 74 72 75 65 76 66 77 70 78 73 79
REMARK SMILES IDX 67 80 68 81 71 82 69 83 48 84 49 85 57 86 50 87 51 88 55 89
REMARK SMILES IDX 58 90 52 91 53 92 56 93 54 94
REMARK H PARENT 9 8 12 11 12 12 88 19 78 47 46 58
REMARK Flexibility Score: inf
ROOT
ATOM      1  O   UNL A   1      33.758  33.263  29.224  1.00  0.00    -0.457 OA
ENDROOT
BRANCH   1   2
ATOM      2  C   UNL A   1      33.089  32.974  28.062  1.00  0.00     0.371 C 
ATOM      3  O   UNL A   1      32.247  33.705  27.549  1.00  0.00    -0.245 OA
BRANCH   2   4
ATOM      4  C   UNL A   1      33.623  31.665  27.449  1.00  0.00     0.348 C 
ATOM      5  N   UNL A   1      32.810  29.427  26.449  1.00  0.00    -0.320 N 
ATOM      6  C   UNL A   1      33.880  28.813  27.246  1.00  0.00     0.324 C 
ATOM      7  C   UNL A   1      32.452  30.776  26.945  1.00  0.00     0.341 C 
ATOM      8  H   UNL A   1      31.986  28.846  26.605  1.00  0.00     0.348 HD
ATOM      9  C   UNL A   1      35.017  29.755  27.711  1.00  0.00     0.323 C 
ATOM     10  N   UNL A   1      34.526  30.958  28.401  1.00  0.00    -0.325 N 
ATOM     11  H   UNL A   1      35.308  31.561  28.657  1.00  0.00     0.347 HD
ATOM     12  H   UNL A   1      34.030  30.711  29.259  1.00  0.00     0.347 HD
BRANCH   5  13
ATOM     13  C   UNL A   1      32.970  29.317  24.983  1.00  0.00     0.323 C 
BRANCH  13  14
ATOM     14  C   UNL A   1      31.788  28.744  24.276  1.00  0.00     0.132 A 
ATOM     15  C   UNL A   1      29.948  28.866  23.150  1.00  0.00     0.107 A 
ATOM     16  N   UNL A   1      30.669  29.510  24.050  1.00  0.00    -0.231 NA
ATOM     17  N   UNL A   1      30.444  27.597  22.978  1.00  0.00    -0.333 N 
ATOM     18  C   UNL A   1      31.599  27.518  23.696  1.00  0.00     0.135 A 
ATOM     19  H   UNL A   1      30.040  26.879  22.439  1.00  0.00     0.169 HD
ATOM     20  Cl  UNL A   1      32.530  26.111  23.582  1.00  0.00    -0.062 Cl
BRANCH  15  21
ATOM     21  C   UNL A   1      28.872  29.511  22.335  1.00  0.00     0.075 C 
BRANCH  21  22
ATOM     22  C   UNL A   1      27.590  29.925  23.047  1.00  0.00     0.008 C 
BRANCH  22  23
ATOM     23  C   UNL A   1      27.553  31.350  23.600  1.00  0.00    -0.003 C 
ATOM     24  C   UNL A   1      28.465  32.321  22.870  1.00  0.00     0.004 C 
ENDBRANCH  22  23
ENDBRANCH  21  22
ENDBRANCH  15  21
ENDBRANCH  13  14
ENDBRANCH   5  13
ENDBRANCH   2   4
ENDBRANCH   1   2
BRANCH   1  25
ATOM     25  C   UNL A   1      34.229  34.612  29.388  1.00  0.00     0.274 C 
BRANCH  25  26
ATOM     26  C   UNL A   1      33.364  35.379  30.387  1.00  0.00     0.275 C 
BRANCH  26  27
ATOM     27  O   UNL A   1      33.970  35.511  31.680  1.00  0.00    -0.458 OA
BRANCH  27  28
ATOM     28  C   UNL A   1      33.863  34.395  32.432  1.00  0.00     0.338 C 
ATOM     29  O   UNL A   1      32.934  34.100  33.152  1.00  0.00    -0.246 OA
BRANCH  28  30
ATOM     30  C   UNL A   1      35.139  33.714  32.598  1.00  0.00     0.060 A 
ATOM     31  C   UNL A   1      36.285  34.526  32.599  1.00  0.00     0.016 A 
ATOM     32  C   UNL A   1      35.200  32.336  32.402  1.00  0.00     0.016 A 
ATOM     33  C   UNL A   1      37.498  33.969  32.268  1.00  0.00     0.010 A 
ATOM     34  C   UNL A   1      36.404  31.784  32.050  1.00  0.00     0.010 A 
ATOM     35  C   UNL A   1      37.527  32.613  31.947  1.00  0.00    -0.014 A 
BRANCH  35  36
ATOM     36  C   UNL A   1      38.811  31.988  31.718  1.00  0.00     0.031 A 
ATOM     37  C   UNL A   1      39.561  31.832  32.989  1.00  0.00     0.074 A 
ATOM     38  C   UNL A   1      39.115  31.439  30.527  1.00  0.00     0.049 A 
ATOM     39  N   UNL A   1      40.699  32.348  33.314  1.00  0.00    -0.248 NA
ATOM     40  C   UNL A   1      38.868  31.176  34.119  1.00  0.00     0.031 C 
ATOM     41  C   UNL A   1      38.219  31.327  29.369  1.00  0.00     0.029 A 
ATOM     42  N   UNL A   1      40.212  30.731  30.136  1.00  0.00    -0.354 N 
ATOM     43  C   UNL A   1      40.964  31.855  34.592  1.00  0.00     0.074 A 
ATOM     44  C   UNL A   1      39.720  31.385  35.122  1.00  0.00     0.031 C 
ATOM     45  C   UNL A   1      38.703  30.397  28.518  1.00  0.00     0.029 A 
ATOM     46  C   UNL A   1      39.997  29.952  29.002  1.00  0.00     0.049 A 
ATOM     47  H   UNL A   1      41.075  30.767  30.611  1.00  0.00     0.167 HD
ATOM     48  C   UNL A   1      42.234  31.499  34.926  1.00  0.00     0.037 A 
ATOM     49  C   UNL A   1      40.799  28.956  28.552  1.00  0.00     0.037 A 
ATOM     50  C   UNL A   1      43.177  32.083  34.010  1.00  0.00     0.049 A 
ATOM     51  C   UNL A   1      42.128  29.127  29.184  1.00  0.00     0.074 A 
ATOM     52  C   UNL A   1      43.751  33.318  33.815  1.00  0.00     0.029 A 
ATOM     53  N   UNL A   1      43.321  31.373  32.850  1.00  0.00    -0.354 N 
ATOM     54  N   UNL A   1      42.920  30.132  28.927  1.00  0.00    -0.248 NA
ATOM     55  C   UNL A   1      42.444  28.375  30.396  1.00  0.00     0.031 C 
ATOM     56  C   UNL A   1      44.174  33.352  32.453  1.00  0.00     0.029 A 
ATOM     57  C   UNL A   1      43.886  32.126  31.861  1.00  0.00     0.049 A 
ATOM     58  H   UNL A   1      43.050  30.432  32.742  1.00  0.00     0.167 HD
ATOM     59  C   UNL A   1      43.542  30.389  30.132  1.00  0.00     0.074 A 
ATOM     60  C   UNL A   1      43.352  29.192  30.937  1.00  0.00     0.031 C 
ATOM     61  C   UNL A   1      43.849  31.667  30.494  1.00  0.00     0.037 A 
BRANCH  48  62
ATOM     62  C   UNL A   1      42.590  30.235  35.689  1.00  0.00     0.064 A 
ATOM     63  C   UNL A   1      43.504  30.332  36.756  1.00  0.00     0.173 A 
ATOM     64  C   UNL A   1      42.339  28.921  35.230  1.00  0.00     0.173 A 
ATOM     65  F   UNL A   1      43.840  31.529  37.260  1.00  0.00    -0.203 F 
ATOM     66  C   UNL A   1      44.162  29.211  37.273  1.00  0.00     0.198 A 
ATOM     67  C   UNL A   1      42.956  27.801  35.784  1.00  0.00     0.198 A 
ATOM     68  F   UNL A   1      41.581  28.661  34.159  1.00  0.00    -0.203 F 
ATOM     69  F   UNL A   1      45.111  29.367  38.206  1.00  0.00    -0.200 F 
ATOM     70  C   UNL A   1      43.890  27.946  36.783  1.00  0.00     0.200 A 
ATOM     71  F   UNL A   1      42.695  26.588  35.274  1.00  0.00    -0.200 F 
ATOM     72  F   UNL A   1      44.558  26.878  37.236  1.00  0.00    -0.200 F 
ENDBRANCH  48  62
BRANCH  49  73
ATOM     73  C   UNL A   1      40.419  27.717  27.839  1.00  0.00     0.064 A 
ATOM     74  C   UNL A   1      41.045  27.344  26.640  1.00  0.00     0.173 A 
ATOM     75  C   UNL A   1      39.624  26.737  28.465  1.00  0.00     0.173 A 
ATOM     76  F   UNL A   1      41.852  28.206  26.006  1.00  0.00    -0.203 F 
ATOM     77  C   UNL A   1      40.901  26.057  26.108  1.00  0.00     0.198 A 
ATOM     78  C   UNL A   1      39.478  25.456  27.932  1.00  0.00     0.198 A 
ATOM     79  F   UNL A   1      39.050  26.977  29.653  1.00  0.00    -0.203 F 
ATOM     80  F   UNL A   1      41.559  25.718  24.990  1.00  0.00    -0.200 F 
ATOM     81  C   UNL A   1      40.127  25.112  26.760  1.00  0.00     0.200 A 
ATOM     82  F   UNL A   1      38.757  24.539  28.593  1.00  0.00    -0.200 F 
ATOM     83  F   UNL A   1      40.040  23.861  26.286  1.00  0.00    -0.200 F 
ENDBRANCH  49  73
BRANCH  61  84
ATOM     84  C   UNL A   1      44.008  32.674  29.404  1.00  0.00     0.064 A 
ATOM     85  C   UNL A   1      43.023  33.596  29.020  1.00  0.00     0.173 A 
ATOM     86  C   UNL A   1      45.259  32.755  28.780  1.00  0.00     0.173 A 
ATOM     87  F   UNL A   1      41.828  33.618  29.626  1.00  0.00    -0.203 F 
ATOM     88  C   UNL A   1      43.277  34.540  28.027  1.00  0.00     0.198 A 
ATOM     89  C   UNL A   1      45.522  33.720  27.816  1.00  0.00     0.198 A 
ATOM     90  F   UNL A   1      46.244  31.918  29.140  1.00  0.00    -0.203 F 
ATOM     91  F   UNL A   1      42.319  35.406  27.661  1.00  0.00    -0.200 F 
ATOM     92  C   UNL A   1      44.528  34.606  27.432  1.00  0.00     0.200 A 
ATOM     93  F   UNL A   1      46.744  33.804  27.276  1.00  0.00    -0.200 F 
ATOM     94  F   UNL A   1      44.784  35.538  26.503  1.00  0.00    -0.200 F 
ENDBRANCH  61  84
ENDBRANCH  35  36
ENDBRANCH  28  30
ENDBRANCH  27  28
ENDBRANCH  26  27
ENDBRANCH  25  26
ENDBRANCH   1  25
TORSDOF 16
ENDMDL
