MODEL 1
REMARK VINA RESULT:     -11.8      0.000      0.000
REMARK SMILES Cc1cc(CNC(=O)C[C@H](C)CC(=O)OCCOC(=O)c2ccc(-c3c4nc(c(-c5c(F)c(F)c(F)c(F)c5F)c5ccc([nH]5)c(-c5c(F)c(F)c(F)c(F)c5F)c5nc(c(-c6c(F)c(F)c(F)c(F)c6F)c6ccc3[nH]6)C=C5)C=C4)cc2)cc(C)c1F
REMARK SMILES IDX 15 1 13 2 14 3 12 4 10 5 11 6 9 7 7 8 6 9 8 11 5 12 4 13
REMARK SMILES IDX 1 14 2 15 3 16 87 17 85 18 88 19 84 20 86 21 16 22 17 23
REMARK SMILES IDX 18 24 19 25 20 26 21 27 22 28 83 29 23 30 82 31 24 32 25 33
REMARK SMILES IDX 26 34 76 35 27 36 81 37 75 38 77 39 28 40 80 41 74 42 73 43
REMARK SMILES IDX 29 45 61 46 41 47 60 48 42 49 45 50 59 51 78 52 43 53 44 54
REMARK SMILES IDX 58 56 79 57 46 58 30 59 31 60 39 61 32 62 33 63 37 64 40 65
REMARK SMILES IDX 34 66 35 67 38 68 36 69 62 70 63 71 71 72 64 73 65 74 69 75
REMARK SMILES IDX 72 76 66 77 67 78 70 79 68 80 47 81 48 82 56 83 49 84 50 85
REMARK SMILES IDX 54 86 57 87 51 88 52 89 55 90 53 91
REMARK H PARENT 6 10 77 44 45 55
REMARK Flexibility Score: inf
ROOT
ATOM      1  O   UNL A   1      42.003  19.081  25.636  1.00  0.00    -0.462 OA
ENDROOT
BRANCH   1   2
ATOM      2  C   UNL A   1      40.783  19.368  26.155  1.00  0.00     0.306 C 
ATOM      3  O   UNL A   1      39.718  19.172  25.570  1.00  0.00    -0.252 OA
BRANCH   2   4
ATOM      4  C   UNL A   1      40.812  20.030  27.527  1.00  0.00     0.126 C 
BRANCH   4   5
ATOM      5  C   UNL A   1      41.020  21.557  27.701  1.00  0.00     0.006 C 
ATOM      6  C   UNL A   1      42.494  21.870  27.955  1.00  0.00     0.009 C 
BRANCH   5   7
ATOM      7  C   UNL A   1      40.486  22.339  26.474  1.00  0.00     0.104 C 
BRANCH   7   8
ATOM      8  C   UNL A   1      39.197  23.123  26.714  1.00  0.00     0.220 C 
ATOM      9  N   UNL A   1      38.068  22.824  26.020  1.00  0.00    -0.352 N 
ATOM     10  H   UNL A   1      37.288  23.394  26.208  1.00  0.00     0.163 HD
ATOM     11  O   UNL A   1      39.159  24.078  27.491  1.00  0.00    -0.275 OA
BRANCH   9  12
ATOM     12  C   UNL A   1      37.863  21.788  25.052  1.00  0.00     0.151 C 
BRANCH  12  13
ATOM     13  C   UNL A   1      36.456  21.767  24.482  1.00  0.00    -0.028 A 
ATOM     14  C   UNL A   1      32.527  19.556  24.656  1.00  0.00     0.047 C 
ATOM     15  C   UNL A   1      33.492  20.672  24.417  1.00  0.00    -0.015 A 
ATOM     16  C   UNL A   1      35.205  20.548  25.034  1.00  0.00     0.012 A 
ATOM     17  C   UNL A   1      32.957  22.173  23.494  1.00  0.00     0.129 A 
ATOM     18  C   UNL A   1      34.185  23.461  23.071  1.00  0.00    -0.015 A 
ATOM     19  F   UNL A   1      31.652  22.394  23.283  1.00  0.00    -0.206 F 
ATOM     20  C   UNL A   1      35.945  23.172  23.417  1.00  0.00     0.012 A 
ATOM     21  C   UNL A   1      33.755  24.887  22.873  1.00  0.00     0.047 C 
ENDBRANCH  12  13
ENDBRANCH   9  12
ENDBRANCH   7   8
ENDBRANCH   5   7
ENDBRANCH   4   5
ENDBRANCH   2   4
ENDBRANCH   1   2
BRANCH   1  22
ATOM     22  C   UNL A   1      42.904  18.387  26.528  1.00  0.00     0.274 C 
BRANCH  22  23
ATOM     23  C   UNL A   1      44.285  18.167  25.907  1.00  0.00     0.275 C 
BRANCH  23  24
ATOM     24  O   UNL A   1      44.271  18.198  24.453  1.00  0.00    -0.458 OA
BRANCH  24  25
ATOM     25  C   UNL A   1      44.696  19.477  23.810  1.00  0.00     0.338 C 
ATOM     26  O   UNL A   1      44.986  19.062  22.665  1.00  0.00    -0.246 OA
BRANCH  25  27
ATOM     27  C   UNL A   1      44.871  21.405  24.732  1.00  0.00     0.060 A 
ATOM     28  C   UNL A   1      45.544  21.785  26.027  1.00  0.00     0.016 A 
ATOM     29  C   UNL A   1      44.346  22.766  24.242  1.00  0.00     0.016 A 
ATOM     30  C   UNL A   1      45.638  23.009  26.641  1.00  0.00     0.010 A 
ATOM     31  C   UNL A   1      44.506  24.028  24.783  1.00  0.00     0.010 A 
ATOM     32  C   UNL A   1      45.168  24.104  25.967  1.00  0.00    -0.014 A 
BRANCH  32  33
ATOM     33  C   UNL A   1      45.425  25.363  26.591  1.00  0.00     0.031 A 
ATOM     34  C   UNL A   1      46.749  25.935  26.306  1.00  0.00     0.074 A 
ATOM     35  C   UNL A   1      44.324  25.923  27.110  1.00  0.00     0.049 A 
ATOM     36  N   UNL A   1      47.175  27.122  26.577  1.00  0.00    -0.248 NA
ATOM     37  C   UNL A   1      47.726  25.075  25.600  1.00  0.00     0.031 C 
ATOM     38  C   UNL A   1      43.016  25.249  27.226  1.00  0.00     0.029 A 
ATOM     39  N   UNL A   1      44.081  27.187  27.511  1.00  0.00    -0.354 N 
ATOM     40  C   UNL A   1      48.470  27.154  26.101  1.00  0.00     0.074 A 
ATOM     41  C   UNL A   1      48.778  25.872  25.522  1.00  0.00     0.031 C 
ATOM     42  C   UNL A   1      42.089  26.149  27.568  1.00  0.00     0.029 A 
ATOM     43  C   UNL A   1      42.760  27.415  27.802  1.00  0.00     0.049 A 
ATOM     44  H   UNL A   1      44.780  27.876  27.587  1.00  0.00     0.167 HD
ATOM     45  C   UNL A   1      49.295  28.213  26.185  1.00  0.00     0.037 A 
ATOM     46  C   UNL A   1      42.206  28.552  28.244  1.00  0.00     0.037 A 
ATOM     47  C   UNL A   1      48.846  29.426  26.810  1.00  0.00     0.049 A 
ATOM     48  C   UNL A   1      43.181  29.683  28.402  1.00  0.00     0.074 A 
ATOM     49  C   UNL A   1      49.550  30.568  27.106  1.00  0.00     0.029 A 
ATOM     50  N   UNL A   1      47.531  29.629  27.248  1.00  0.00    -0.354 N 
ATOM     51  N   UNL A   1      44.449  29.722  28.043  1.00  0.00    -0.248 NA
ATOM     52  C   UNL A   1      42.699  30.890  29.061  1.00  0.00     0.031 C 
ATOM     53  C   UNL A   1      48.677  31.435  27.772  1.00  0.00     0.029 A 
ATOM     54  C   UNL A   1      47.403  30.870  27.831  1.00  0.00     0.049 A 
ATOM     55  H   UNL A   1      46.799  28.977  27.152  1.00  0.00     0.167 HD
ATOM     56  C   UNL A   1      44.936  30.946  28.452  1.00  0.00     0.074 A 
ATOM     57  C   UNL A   1      43.795  31.639  29.042  1.00  0.00     0.031 C 
ATOM     58  C   UNL A   1      46.195  31.453  28.383  1.00  0.00     0.037 A 
BRANCH  45  59
ATOM     59  C   UNL A   1      50.698  28.026  25.707  1.00  0.00     0.064 A 
ATOM     60  C   UNL A   1      51.038  28.074  24.346  1.00  0.00     0.173 A 
ATOM     61  C   UNL A   1      51.715  27.720  26.623  1.00  0.00     0.173 A 
ATOM     62  F   UNL A   1      50.092  28.293  23.419  1.00  0.00    -0.203 F 
ATOM     63  C   UNL A   1      52.342  27.825  23.921  1.00  0.00     0.198 A 
ATOM     64  C   UNL A   1      53.023  27.501  26.200  1.00  0.00     0.198 A 
ATOM     65  F   UNL A   1      51.435  27.609  27.930  1.00  0.00    -0.203 F 
ATOM     66  F   UNL A   1      52.632  27.822  22.613  1.00  0.00    -0.200 F 
ATOM     67  C   UNL A   1      53.336  27.552  24.850  1.00  0.00     0.200 A 
ATOM     68  F   UNL A   1      53.977  27.223  27.098  1.00  0.00    -0.200 F 
ATOM     69  F   UNL A   1      54.592  27.320  24.443  1.00  0.00    -0.200 F 
ENDBRANCH  45  59
BRANCH  46  70
ATOM     70  C   UNL A   1      40.764  28.597  28.598  1.00  0.00     0.064 A 
ATOM     71  C   UNL A   1      40.308  28.252  29.875  1.00  0.00     0.173 A 
ATOM     72  C   UNL A   1      39.805  29.073  27.681  1.00  0.00     0.173 A 
ATOM     73  F   UNL A   1      41.172  27.795  30.793  1.00  0.00    -0.203 F 
ATOM     74  C   UNL A   1      38.962  28.382  30.222  1.00  0.00     0.198 A 
ATOM     75  C   UNL A   1      38.470  29.238  28.039  1.00  0.00     0.198 A 
ATOM     76  F   UNL A   1      40.177  29.428  26.442  1.00  0.00    -0.203 F 
ATOM     77  F   UNL A   1      38.550  28.026  31.447  1.00  0.00    -0.200 F 
ATOM     78  C   UNL A   1      38.046  28.886  29.308  1.00  0.00     0.200 A 
ATOM     79  F   UNL A   1      37.602  29.757  27.160  1.00  0.00    -0.200 F 
ATOM     80  F   UNL A   1      36.760  29.035  29.652  1.00  0.00    -0.200 F 
ENDBRANCH  46  70
BRANCH  58  81
ATOM     81  C   UNL A   1      46.355  32.824  28.945  1.00  0.00     0.064 A 
ATOM     82  C   UNL A   1      46.142  33.962  28.156  1.00  0.00     0.173 A 
ATOM     83  C   UNL A   1      46.636  32.986  30.307  1.00  0.00     0.173 A 
ATOM     84  F   UNL A   1      45.886  33.839  26.845  1.00  0.00    -0.203 F 
ATOM     85  C   UNL A   1      46.227  35.228  28.716  1.00  0.00     0.198 A 
ATOM     86  C   UNL A   1      46.671  34.251  30.872  1.00  0.00     0.198 A 
ATOM     87  F   UNL A   1      46.829  31.914  31.092  1.00  0.00    -0.203 F 
ATOM     88  F   UNL A   1      46.072  36.309  27.942  1.00  0.00    -0.200 F 
ATOM     89  C   UNL A   1      46.476  35.371  30.075  1.00  0.00     0.200 A 
ATOM     90  F   UNL A   1      46.882  34.387  32.187  1.00  0.00    -0.200 F 
ATOM     91  F   UNL A   1      46.530  36.592  30.618  1.00  0.00    -0.200 F 
ENDBRANCH  58  81
ENDBRANCH  32  33
ENDBRANCH  25  27
ENDBRANCH  24  25
ENDBRANCH  23  24
ENDBRANCH  22  23
ENDBRANCH   1  22
TORSDOF 16
ENDMDL
MODEL 2
REMARK VINA RESULT:     -11.7      5.848     11.023
REMARK SMILES Cc1cc(CNC(=O)C[C@H](C)CC(=O)OCCOC(=O)c2ccc(-c3c4nc(c(-c5c(F)c(F)c(F)c(F)c5F)c5ccc([nH]5)c(-c5c(F)c(F)c(F)c(F)c5F)c5nc(c(-c6c(F)c(F)c(F)c(F)c6F)c6ccc3[nH]6)C=C5)C=C4)cc2)cc(C)c1F
REMARK SMILES IDX 15 1 13 2 14 3 12 4 10 5 11 6 9 7 7 8 6 9 8 11 5 12 4 13
REMARK SMILES IDX 1 14 2 15 3 16 87 17 85 18 88 19 84 20 86 21 16 22 17 23
REMARK SMILES IDX 18 24 19 25 20 26 21 27 22 28 83 29 23 30 82 31 24 32 25 33
REMARK SMILES IDX 26 34 76 35 27 36 81 37 75 38 77 39 28 40 80 41 74 42 73 43
REMARK SMILES IDX 29 45 61 46 41 47 60 48 42 49 45 50 59 51 78 52 43 53 44 54
REMARK SMILES IDX 58 56 79 57 46 58 30 59 31 60 39 61 32 62 33 63 37 64 40 65
REMARK SMILES IDX 34 66 35 67 38 68 36 69 62 70 63 71 71 72 64 73 65 74 69 75
REMARK SMILES IDX 72 76 66 77 67 78 70 79 68 80 47 81 48 82 56 83 49 84 50 85
REMARK SMILES IDX 54 86 57 87 51 88 52 89 55 90 53 91
REMARK H PARENT 6 10 77 44 45 55
REMARK Flexibility Score: inf
ROOT
ATOM      1  O   UNL A   1      34.012  27.535  23.459  1.00  0.00    -0.462 OA
ENDROOT
BRANCH   1   2
ATOM      2  C   UNL A   1      33.478  26.440  22.864  1.00  0.00     0.306 C 
ATOM      3  O   UNL A   1      33.531  26.213  21.656  1.00  0.00    -0.252 OA
BRANCH   2   4
ATOM      4  C   UNL A   1      32.725  25.505  23.803  1.00  0.00     0.126 C 
BRANCH   4   5
ATOM      5  C   UNL A   1      31.336  24.916  23.440  1.00  0.00     0.006 C 
ATOM      6  C   UNL A   1      31.483  23.496  22.899  1.00  0.00     0.009 C 
BRANCH   5   7
ATOM      7  C   UNL A   1      30.376  24.954  24.657  1.00  0.00     0.104 C 
BRANCH   7   8
ATOM      8  C   UNL A   1      30.994  25.465  25.956  1.00  0.00     0.220 C 
ATOM      9  N   UNL A   1      31.476  24.594  26.880  1.00  0.00    -0.352 N 
ATOM     10  H   UNL A   1      31.829  24.998  27.705  1.00  0.00     0.163 HD
ATOM     11  O   UNL A   1      31.019  26.666  26.231  1.00  0.00    -0.275 OA
BRANCH   9  12
ATOM     12  C   UNL A   1      31.538  23.164  26.812  1.00  0.00     0.151 C 
BRANCH  12  13
ATOM     13  C   UNL A   1      32.801  22.648  26.144  1.00  0.00    -0.028 A 
ATOM     14  C   UNL A   1      37.254  23.313  25.850  1.00  0.00     0.047 C 
ATOM     15  C   UNL A   1      35.940  22.604  25.777  1.00  0.00    -0.015 A 
ATOM     16  C   UNL A   1      34.448  23.367  26.499  1.00  0.00     0.012 A 
ATOM     17  C   UNL A   1      35.821  20.963  24.951  1.00  0.00     0.129 A 
ATOM     18  C   UNL A   1      34.184  20.178  24.728  1.00  0.00    -0.015 A 
ATOM     19  F   UNL A   1      36.937  20.278  24.669  1.00  0.00    -0.206 F 
ATOM     20  C   UNL A   1      32.680  21.096  25.171  1.00  0.00     0.012 A 
ATOM     21  C   UNL A   1      34.063  18.684  24.624  1.00  0.00     0.047 C 
ENDBRANCH  12  13
ENDBRANCH   9  12
ENDBRANCH   7   8
ENDBRANCH   5   7
ENDBRANCH   4   5
ENDBRANCH   2   4
ENDBRANCH   1   2
BRANCH   1  22
ATOM     22  C   UNL A   1      33.067  28.575  23.801  1.00  0.00     0.274 C 
BRANCH  22  23
ATOM     23  C   UNL A   1      33.214  29.044  25.250  1.00  0.00     0.275 C 
BRANCH  23  24
ATOM     24  O   UNL A   1      32.444  30.243  25.544  1.00  0.00    -0.458 OA
BRANCH  24  25
ATOM     25  C   UNL A   1      32.890  31.048  26.721  1.00  0.00     0.338 C 
ATOM     26  O   UNL A   1      31.955  31.877  26.787  1.00  0.00    -0.246 OA
BRANCH  25  27
ATOM     27  C   UNL A   1      34.720  30.848  27.820  1.00  0.00     0.060 A 
ATOM     28  C   UNL A   1      35.238  29.667  28.602  1.00  0.00     0.016 A 
ATOM     29  C   UNL A   1      35.852  31.872  28.015  1.00  0.00     0.016 A 
ATOM     30  C   UNL A   1      36.393  29.537  29.332  1.00  0.00     0.010 A 
ATOM     31  C   UNL A   1      37.068  31.743  28.659  1.00  0.00     0.010 A 
ATOM     32  C   UNL A   1      37.301  30.560  29.287  1.00  0.00    -0.014 A 
BRANCH  32  33
ATOM     33  C   UNL A   1      38.543  30.307  29.947  1.00  0.00     0.031 A 
ATOM     34  C   UNL A   1      38.607  30.772  31.341  1.00  0.00     0.074 A 
ATOM     35  C   UNL A   1      39.332  29.463  29.269  1.00  0.00     0.049 A 
ATOM     36  N   UNL A   1      39.516  30.517  32.220  1.00  0.00    -0.248 NA
ATOM     37  C   UNL A   1      37.493  31.614  31.831  1.00  0.00     0.031 C 
ATOM     38  C   UNL A   1      39.071  28.992  27.895  1.00  0.00     0.029 A 
ATOM     39  N   UNL A   1      40.415  28.762  29.658  1.00  0.00    -0.354 N 
ATOM     40  C   UNL A   1      39.107  31.180  33.359  1.00  0.00     0.074 A 
ATOM     41  C   UNL A   1      37.868  31.857  33.076  1.00  0.00     0.031 C 
ATOM     42  C   UNL A   1      39.915  27.997  27.606  1.00  0.00     0.029 A 
ATOM     43  C   UNL A   1      40.833  27.851  28.721  1.00  0.00     0.049 A 
ATOM     44  H   UNL A   1      40.862  28.890  30.526  1.00  0.00     0.167 HD
ATOM     45  C   UNL A   1      39.776  31.190  34.526  1.00  0.00     0.037 A 
ATOM     46  C   UNL A   1      41.884  27.024  28.797  1.00  0.00     0.037 A 
ATOM     47  C   UNL A   1      41.016  30.475  34.649  1.00  0.00     0.049 A 
ATOM     48  C   UNL A   1      42.650  27.131  30.085  1.00  0.00     0.074 A 
ATOM     49  C   UNL A   1      41.909  30.450  35.694  1.00  0.00     0.029 A 
ATOM     50  N   UNL A   1      41.536  29.649  33.645  1.00  0.00    -0.354 N 
ATOM     51  N   UNL A   1      42.339  27.824  31.163  1.00  0.00    -0.248 NA
ATOM     52  C   UNL A   1      43.915  26.412  30.168  1.00  0.00     0.031 C 
ATOM     53  C   UNL A   1      42.991  29.657  35.298  1.00  0.00     0.029 A 
ATOM     54  C   UNL A   1      42.748  29.122  34.033  1.00  0.00     0.049 A 
ATOM     55  H   UNL A   1      41.096  29.468  32.782  1.00  0.00     0.167 HD
ATOM     56  C   UNL A   1      43.379  27.653  32.053  1.00  0.00     0.074 A 
ATOM     57  C   UNL A   1      44.306  26.738  31.394  1.00  0.00     0.031 C 
ATOM     58  C   UNL A   1      43.580  28.205  33.278  1.00  0.00     0.037 A 
BRANCH  45  59
ATOM     59  C   UNL A   1      39.230  32.050  35.619  1.00  0.00     0.064 A 
ATOM     60  C   UNL A   1      39.607  33.393  35.774  1.00  0.00     0.173 A 
ATOM     61  C   UNL A   1      38.364  31.501  36.575  1.00  0.00     0.173 A 
ATOM     62  F   UNL A   1      40.488  33.951  34.928  1.00  0.00    -0.203 F 
ATOM     63  C   UNL A   1      39.138  34.153  36.844  1.00  0.00     0.198 A 
ATOM     64  C   UNL A   1      37.873  32.269  37.627  1.00  0.00     0.198 A 
ATOM     65  F   UNL A   1      38.013  30.208  36.505  1.00  0.00    -0.203 F 
ATOM     66  F   UNL A   1      39.556  35.416  37.004  1.00  0.00    -0.200 F 
ATOM     67  C   UNL A   1      38.261  33.594  37.763  1.00  0.00     0.200 A 
ATOM     68  F   UNL A   1      37.038  31.722  38.520  1.00  0.00    -0.200 F 
ATOM     69  F   UNL A   1      37.804  34.325  38.788  1.00  0.00    -0.200 F 
ENDBRANCH  45  59
BRANCH  46  70
ATOM     70  C   UNL A   1      42.246  26.161  27.644  1.00  0.00     0.064 A 
ATOM     71  C   UNL A   1      43.234  26.535  26.727  1.00  0.00     0.173 A 
ATOM     72  C   UNL A   1      41.665  24.888  27.478  1.00  0.00     0.173 A 
ATOM     73  F   UNL A   1      43.827  27.734  26.832  1.00  0.00    -0.203 F 
ATOM     74  C   UNL A   1      43.627  25.678  25.697  1.00  0.00     0.198 A 
ATOM     75  C   UNL A   1      42.084  24.018  26.475  1.00  0.00     0.198 A 
ATOM     76  F   UNL A   1      40.718  24.465  28.329  1.00  0.00    -0.203 F 
ATOM     77  F   UNL A   1      44.563  26.069  24.821  1.00  0.00    -0.200 F 
ATOM     78  C   UNL A   1      43.061  24.415  25.579  1.00  0.00     0.200 A 
ATOM     79  F   UNL A   1      41.555  22.789  26.392  1.00  0.00    -0.200 F 
ATOM     80  F   UNL A   1      43.459  23.584  24.607  1.00  0.00    -0.200 F 
ENDBRANCH  46  70
BRANCH  58  81
ATOM     81  C   UNL A   1      44.843  27.795  33.956  1.00  0.00     0.064 A 
ATOM     82  C   UNL A   1      46.014  28.555  33.833  1.00  0.00     0.173 A 
ATOM     83  C   UNL A   1      44.844  26.681  34.804  1.00  0.00     0.173 A 
ATOM     84  F   UNL A   1      46.048  29.619  33.016  1.00  0.00    -0.203 F 
ATOM     85  C   UNL A   1      47.158  28.195  34.529  1.00  0.00     0.198 A 
ATOM     86  C   UNL A   1      45.976  26.355  35.535  1.00  0.00     0.198 A 
ATOM     87  F   UNL A   1      43.733  25.943  34.955  1.00  0.00    -0.203 F 
ATOM     88  F   UNL A   1      48.285  28.899  34.364  1.00  0.00    -0.200 F 
ATOM     89  C   UNL A   1      47.133  27.106  35.389  1.00  0.00     0.200 A 
ATOM     90  F   UNL A   1      45.942  25.323  36.387  1.00  0.00    -0.200 F 
ATOM     91  F   UNL A   1      48.231  26.778  36.081  1.00  0.00    -0.200 F 
ENDBRANCH  58  81
ENDBRANCH  32  33
ENDBRANCH  25  27
ENDBRANCH  24  25
ENDBRANCH  23  24
ENDBRANCH  22  23
ENDBRANCH   1  22
TORSDOF 16
ENDMDL
MODEL 3
REMARK VINA RESULT:     -11.5      5.672     10.030
REMARK SMILES Cc1cc(CNC(=O)C[C@H](C)CC(=O)OCCOC(=O)c2ccc(-c3c4nc(c(-c5c(F)c(F)c(F)c(F)c5F)c5ccc([nH]5)c(-c5c(F)c(F)c(F)c(F)c5F)c5nc(c(-c6c(F)c(F)c(F)c(F)c6F)c6ccc3[nH]6)C=C5)C=C4)cc2)cc(C)c1F
REMARK SMILES IDX 15 1 13 2 14 3 12 4 10 5 11 6 9 7 7 8 6 9 8 11 5 12 4 13
REMARK SMILES IDX 1 14 2 15 3 16 87 17 85 18 88 19 84 20 86 21 16 22 17 23
REMARK SMILES IDX 18 24 19 25 20 26 21 27 22 28 83 29 23 30 82 31 24 32 25 33
REMARK SMILES IDX 26 34 76 35 27 36 81 37 75 38 77 39 28 40 80 41 74 42 73 43
REMARK SMILES IDX 29 45 61 46 41 47 60 48 42 49 45 50 59 51 78 52 43 53 44 54
REMARK SMILES IDX 58 56 79 57 46 58 30 59 31 60 39 61 32 62 33 63 37 64 40 65
REMARK SMILES IDX 34 66 35 67 38 68 36 69 62 70 63 71 71 72 64 73 65 74 69 75
REMARK SMILES IDX 72 76 66 77 67 78 70 79 68 80 47 81 48 82 56 83 49 84 50 85
REMARK SMILES IDX 54 86 57 87 51 88 52 89 55 90 53 91
REMARK H PARENT 6 10 77 44 45 55
REMARK Flexibility Score: inf
ROOT
ATOM      1  O   UNL A   1      39.649  22.352  26.322  1.00  0.00    -0.462 OA
ENDROOT
BRANCH   1   2
ATOM      2  C   UNL A   1      38.532  21.820  25.767  1.00  0.00     0.306 C 
ATOM      3  O   UNL A   1      38.454  20.670  25.335  1.00  0.00    -0.252 OA
BRANCH   2   4
ATOM      4  C   UNL A   1      37.356  22.781  25.648  1.00  0.00     0.126 C 
BRANCH   4   5
ATOM      5  C   UNL A   1      35.885  22.304  25.778  1.00  0.00     0.006 C 
ATOM      6  C   UNL A   1      35.065  23.310  26.582  1.00  0.00     0.009 C 
BRANCH   5   7
ATOM      7  C   UNL A   1      35.252  22.053  24.385  1.00  0.00     0.104 C 
BRANCH   7   8
ATOM      8  C   UNL A   1      33.903  21.338  24.404  1.00  0.00     0.220 C 
ATOM      9  N   UNL A   1      32.903  21.728  23.572  1.00  0.00    -0.352 N 
ATOM     10  H   UNL A   1      32.054  21.240  23.666  1.00  0.00     0.163 HD
ATOM     11  O   UNL A   1      33.662  20.436  25.208  1.00  0.00    -0.275 OA
BRANCH   9  12
ATOM     12  C   UNL A   1      32.923  22.756  22.574  1.00  0.00     0.151 C 
BRANCH  12  13
ATOM     13  C   UNL A   1      32.407  24.093  23.078  1.00  0.00    -0.028 A 
ATOM     14  C   UNL A   1      28.633  26.411  23.938  1.00  0.00     0.047 C 
ATOM     15  C   UNL A   1      30.071  26.007  24.008  1.00  0.00    -0.015 A 
ATOM     16  C   UNL A   1      30.617  24.436  23.258  1.00  0.00     0.012 A 
ATOM     17  C   UNL A   1      31.296  27.097  24.845  1.00  0.00     0.129 A 
ATOM     18  C   UNL A   1      33.074  26.672  24.788  1.00  0.00    -0.015 A 
ATOM     19  F   UNL A   1      30.870  28.098  25.628  1.00  0.00    -0.206 F 
ATOM     20  C   UNL A   1      33.631  25.275  23.769  1.00  0.00     0.012 A 
ATOM     21  C   UNL A   1      34.003  27.135  25.875  1.00  0.00     0.047 C 
ENDBRANCH  12  13
ENDBRANCH   9  12
ENDBRANCH   7   8
ENDBRANCH   5   7
ENDBRANCH   4   5
ENDBRANCH   2   4
ENDBRANCH   1   2
BRANCH   1  22
ATOM     22  C   UNL A   1      40.455  21.431  27.091  1.00  0.00     0.274 C 
BRANCH  22  23
ATOM     23  C   UNL A   1      41.901  21.364  26.592  1.00  0.00     0.275 C 
BRANCH  23  24
ATOM     24  O   UNL A   1      42.097  22.031  25.314  1.00  0.00    -0.458 OA
BRANCH  24  25
ATOM     25  C   UNL A   1      42.709  23.393  25.362  1.00  0.00     0.338 C 
ATOM     26  O   UNL A   1      43.586  23.270  24.476  1.00  0.00    -0.246 OA
BRANCH  25  27
ATOM     27  C   UNL A   1      42.243  24.986  26.717  1.00  0.00     0.060 A 
ATOM     28  C   UNL A   1      41.303  24.990  27.897  1.00  0.00     0.016 A 
ATOM     29  C   UNL A   1      42.782  26.427  26.743  1.00  0.00     0.016 A 
ATOM     30  C   UNL A   1      40.975  26.011  28.754  1.00  0.00     0.010 A 
ATOM     31  C   UNL A   1      42.549  27.448  27.646  1.00  0.00     0.010 A 
ATOM     32  C   UNL A   1      41.656  27.192  28.638  1.00  0.00    -0.014 A 
BRANCH  32  33
ATOM     33  C   UNL A   1      41.375  28.164  29.646  1.00  0.00     0.031 A 
ATOM     34  C   UNL A   1      40.125  28.915  29.449  1.00  0.00     0.074 A 
ATOM     35  C   UNL A   1      42.159  28.039  30.725  1.00  0.00     0.049 A 
ATOM     36  N   UNL A   1      39.536  29.705  30.281  1.00  0.00    -0.248 NA
ATOM     37  C   UNL A   1      39.422  28.741  28.159  1.00  0.00     0.031 C 
ATOM     38  C   UNL A   1      43.330  27.144  30.811  1.00  0.00     0.029 A 
ATOM     39  N   UNL A   1      42.036  28.543  31.969  1.00  0.00    -0.354 N 
ATOM     40  C   UNL A   1      38.409  30.145  29.618  1.00  0.00     0.074 A 
ATOM     41  C   UNL A   1      38.382  29.543  28.310  1.00  0.00     0.031 C 
ATOM     42  C   UNL A   1      43.745  27.088  32.081  1.00  0.00     0.029 A 
ATOM     43  C   UNL A   1      42.947  28.023  32.854  1.00  0.00     0.049 A 
ATOM     44  H   UNL A   1      41.362  29.216  32.219  1.00  0.00     0.167 HD
ATOM     45  C   UNL A   1      37.505  31.004  30.122  1.00  0.00     0.037 A 
ATOM     46  C   UNL A   1      43.097  28.333  34.149  1.00  0.00     0.037 A 
ATOM     47  C   UNL A   1      37.679  31.535  31.446  1.00  0.00     0.049 A 
ATOM     48  C   UNL A   1      42.118  29.358  34.646  1.00  0.00     0.074 A 
ATOM     49  C   UNL A   1      36.954  32.501  32.100  1.00  0.00     0.029 A 
ATOM     50  N   UNL A   1      38.694  31.121  32.318  1.00  0.00    -0.354 N 
ATOM     51  N   UNL A   1      41.081  29.870  34.013  1.00  0.00    -0.248 NA
ATOM     52  C   UNL A   1      42.338  29.893  35.984  1.00  0.00     0.031 C 
ATOM     53  C   UNL A   1      37.565  32.710  33.342  1.00  0.00     0.029 A 
ATOM     54  C   UNL A   1      38.630  31.824  33.500  1.00  0.00     0.049 A 
ATOM     55  H   UNL A   1      39.359  30.423  32.115  1.00  0.00     0.167 HD
ATOM     56  C   UNL A   1      40.531  30.811  34.856  1.00  0.00     0.074 A 
ATOM     57  C   UNL A   1      41.330  30.753  36.077  1.00  0.00     0.031 C 
ATOM     58  C   UNL A   1      39.493  31.665  34.656  1.00  0.00     0.037 A 
BRANCH  45  59
ATOM     59  C   UNL A   1      36.403  31.446  29.216  1.00  0.00     0.064 A 
ATOM     60  C   UNL A   1      36.300  32.765  28.749  1.00  0.00     0.173 A 
ATOM     61  C   UNL A   1      35.385  30.548  28.862  1.00  0.00     0.173 A 
ATOM     62  F   UNL A   1      37.208  33.684  29.114  1.00  0.00    -0.203 F 
ATOM     63  C   UNL A   1      35.222  33.168  27.963  1.00  0.00     0.198 A 
ATOM     64  C   UNL A   1      34.325  30.945  28.052  1.00  0.00     0.198 A 
ATOM     65  F   UNL A   1      35.405  29.289  29.324  1.00  0.00    -0.203 F 
ATOM     66  F   UNL A   1      35.116  34.447  27.575  1.00  0.00    -0.200 F 
ATOM     67  C   UNL A   1      34.242  32.255  27.604  1.00  0.00     0.200 A 
ATOM     68  F   UNL A   1      33.372  30.063  27.720  1.00  0.00    -0.200 F 
ATOM     69  F   UNL A   1      33.210  32.639  26.842  1.00  0.00    -0.200 F 
ENDBRANCH  45  59
BRANCH  46  70
ATOM     70  C   UNL A   1      44.201  27.735  34.941  1.00  0.00     0.064 A 
ATOM     71  C   UNL A   1      45.444  28.366  35.065  1.00  0.00     0.173 A 
ATOM     72  C   UNL A   1      44.010  26.545  35.672  1.00  0.00     0.173 A 
ATOM     73  F   UNL A   1      45.688  29.502  34.396  1.00  0.00    -0.203 F 
ATOM     74  C   UNL A   1      46.445  27.837  35.883  1.00  0.00     0.198 A 
ATOM     75  C   UNL A   1      44.994  26.039  36.517  1.00  0.00     0.198 A 
ATOM     76  F   UNL A   1      42.838  25.895  35.604  1.00  0.00    -0.203 F 
ATOM     77  F   UNL A   1      47.632  28.453  35.968  1.00  0.00    -0.200 F 
ATOM     78  C   UNL A   1      46.215  26.682  36.618  1.00  0.00     0.200 A 
ATOM     79  F   UNL A   1      44.748  24.943  37.248  1.00  0.00    -0.200 F 
ATOM     80  F   UNL A   1      47.167  26.192  37.423  1.00  0.00    -0.200 F 
ENDBRANCH  46  70
BRANCH  58  81
ATOM     81  C   UNL A   1      39.182  32.564  35.804  1.00  0.00     0.064 A 
ATOM     82  C   UNL A   1      38.373  32.134  36.864  1.00  0.00     0.173 A 
ATOM     83  C   UNL A   1      39.779  33.828  35.875  1.00  0.00     0.173 A 
ATOM     84  F   UNL A   1      37.775  30.934  36.817  1.00  0.00    -0.203 F 
ATOM     85  C   UNL A   1      38.154  32.960  37.956  1.00  0.00     0.198 A 
ATOM     86  C   UNL A   1      39.596  34.630  36.991  1.00  0.00     0.198 A 
ATOM     87  F   UNL A   1      40.572  34.261  34.882  1.00  0.00    -0.203 F 
ATOM     88  F   UNL A   1      37.338  32.560  38.939  1.00  0.00    -0.200 F 
ATOM     89  C   UNL A   1      38.777  34.199  38.026  1.00  0.00     0.200 A 
ATOM     90  F   UNL A   1      40.221  35.811  37.071  1.00  0.00    -0.200 F 
ATOM     91  F   UNL A   1      38.587  34.983  39.094  1.00  0.00    -0.200 F 
ENDBRANCH  58  81
ENDBRANCH  32  33
ENDBRANCH  25  27
ENDBRANCH  24  25
ENDBRANCH  23  24
ENDBRANCH  22  23
ENDBRANCH   1  22
TORSDOF 16
ENDMDL
