MODEL 1
REMARK VINA RESULT:     -12.3      0.000      0.000
REMARK SMILES COc1ccc(-c2c(C)n[nH]c2C)c(C(=O)OCCOC(=O)c2ccc(-c3c4nc(c(-c5c(F)c(F)c(F)c(F)c5F)c5ccc([nH]5)c(-c5c(F)c(F)c(F)c(F)c5F)c5nc(c(-c6c(F)c(F)c(F)c(F)c6F)c6ccc3[nH]6)C=C5)C=C4)cc2)c1
REMARK SMILES IDX 19 1 18 2 17 3 15 4 16 5 14 6 3 7 4 8 86 9 5 10 6 11 2 12
REMARK SMILES IDX 1 13 7 14 8 15 12 16 9 17 10 18 11 19 13 20 20 22 21 23
REMARK SMILES IDX 22 24 23 25 24 26 85 27 25 28 84 29 26 30 27 31 28 32 78 33
REMARK SMILES IDX 29 34 83 35 77 36 79 37 30 38 82 39 76 40 75 41 31 43 63 44
REMARK SMILES IDX 43 45 62 46 44 47 47 48 61 49 80 50 45 51 46 52 60 54 81 55
REMARK SMILES IDX 48 56 32 57 33 58 41 59 34 60 35 61 39 62 42 63 36 64 37 65
REMARK SMILES IDX 40 66 38 67 64 68 65 69 73 70 66 71 67 72 71 73 74 74 68 75
REMARK SMILES IDX 69 76 72 77 70 78 49 79 50 80 58 81 51 82 52 83 56 84 59 85
REMARK SMILES IDX 53 86 54 87 57 88 55 89
REMARK H PARENT 11 21 79 42 47 53
REMARK Flexibility Score: inf
ROOT
ATOM      1  C   UNL A   1      31.477  31.316  26.468  1.00  0.00     0.275 C 
ENDROOT
BRANCH   1   2
ATOM      2  C   UNL A   1      31.420  30.126  25.509  1.00  0.00     0.275 C 
BRANCH   2   3
ATOM      3  O   UNL A   1      31.653  28.889  26.237  1.00  0.00    -0.458 OA
BRANCH   3   4
ATOM      4  C   UNL A   1      32.700  28.119  25.836  1.00  0.00     0.339 C 
ATOM      5  O   UNL A   1      33.831  28.525  25.616  1.00  0.00    -0.246 OA
BRANCH   4   6
ATOM      6  C   UNL A   1      32.251  26.758  25.434  1.00  0.00     0.071 A 
ATOM      7  C   UNL A   1      31.705  24.668  26.544  1.00  0.00     0.119 A 
ATOM      8  C   UNL A   1      30.987  24.277  25.413  1.00  0.00     0.047 A 
ATOM      9  C   UNL A   1      32.367  25.885  26.530  1.00  0.00     0.062 A 
ATOM     10  C   UNL A   1      30.901  25.110  24.285  1.00  0.00     0.013 A 
ATOM     11  C   UNL A   1      31.519  26.369  24.270  1.00  0.00     0.000 A 
BRANCH   7  12
ATOM     12  O   UNL A   1      31.693  23.815  27.611  1.00  0.00    -0.497 OA
ATOM     13  C   UNL A   1      32.551  22.676  27.496  1.00  0.00     0.278 C 
ENDBRANCH   7  12
BRANCH  11  14
ATOM     14  C   UNL A   1      31.125  27.278  23.162  1.00  0.00     0.026 A 
ATOM     15  C   UNL A   1      29.409  28.125  23.242  1.00  0.00     0.067 A 
ATOM     16  C   UNL A   1      32.235  28.368  22.210  1.00  0.00     0.040 A 
ATOM     17  C   UNL A   1      28.157  27.326  23.427  1.00  0.00     0.069 C 
ATOM     18  N   UNL A   1      29.391  29.657  22.534  1.00  0.00    -0.180 NA
ATOM     19  N   UNL A   1      31.096  29.999  21.820  1.00  0.00    -0.282 N 
ATOM     20  C   UNL A   1      33.661  27.880  21.913  1.00  0.00     0.067 C 
ATOM     21  H   UNL A   1      31.381  30.814  21.347  1.00  0.00     0.190 HD
ENDBRANCH  11  14
ENDBRANCH   4   6
ENDBRANCH   3   4
ENDBRANCH   2   3
ENDBRANCH   1   2
BRANCH   1  22
ATOM     22  O   UNL A   1      32.848  31.734  26.560  1.00  0.00    -0.458 OA
BRANCH  22  23
ATOM     23  C   UNL A   1      32.985  32.742  27.434  1.00  0.00     0.338 C 
ATOM     24  O   UNL A   1      32.309  33.755  27.513  1.00  0.00    -0.246 OA
BRANCH  23  25
ATOM     25  C   UNL A   1      34.060  32.481  28.381  1.00  0.00     0.060 A 
ATOM     26  C   UNL A   1      35.417  33.605  28.426  1.00  0.00     0.016 A 
ATOM     27  C   UNL A   1      34.405  30.826  28.596  1.00  0.00     0.016 A 
ATOM     28  C   UNL A   1      37.333  32.766  28.635  1.00  0.00     0.010 A 
ATOM     29  C   UNL A   1      35.981  30.148  28.843  1.00  0.00     0.010 A 
ATOM     30  C   UNL A   1      37.442  31.025  28.881  1.00  0.00    -0.014 A 
BRANCH  30  31
ATOM     31  C   UNL A   1      38.596  30.472  29.652  1.00  0.00     0.031 A 
ATOM     32  C   UNL A   1      39.532  29.486  29.043  1.00  0.00     0.074 A 
ATOM     33  C   UNL A   1      38.743  30.829  30.949  1.00  0.00     0.049 A 
ATOM     34  N   UNL A   1      40.549  28.885  29.604  1.00  0.00    -0.248 NA
ATOM     35  C   UNL A   1      39.275  29.076  27.656  1.00  0.00     0.031 C 
ATOM     36  C   UNL A   1      37.804  31.642  31.703  1.00  0.00     0.029 A 
ATOM     37  N   UNL A   1      39.727  30.598  31.882  1.00  0.00    -0.354 N 
ATOM     38  C   UNL A   1      41.048  28.014  28.650  1.00  0.00     0.074 A 
ATOM     39  C   UNL A   1      40.212  28.152  27.474  1.00  0.00     0.031 C 
ATOM     40  C   UNL A   1      38.318  32.029  32.866  1.00  0.00     0.029 A 
ATOM     41  C   UNL A   1      39.529  31.278  33.069  1.00  0.00     0.049 A 
ATOM     42  H   UNL A   1      40.497  30.006  31.719  1.00  0.00     0.167 HD
ATOM     43  C   UNL A   1      42.100  27.175  28.777  1.00  0.00     0.037 A 
ATOM     44  C   UNL A   1      40.173  31.250  34.247  1.00  0.00     0.037 A 
ATOM     45  C   UNL A   1      42.893  27.060  29.978  1.00  0.00     0.049 A 
ATOM     46  C   UNL A   1      41.311  30.293  34.346  1.00  0.00     0.074 A 
ATOM     47  C   UNL A   1      44.007  26.272  30.201  1.00  0.00     0.029 A 
ATOM     48  N   UNL A   1      42.640  27.739  31.167  1.00  0.00    -0.354 N 
ATOM     49  N   UNL A   1      41.808  29.521  33.412  1.00  0.00    -0.248 NA
ATOM     50  C   UNL A   1      41.952  30.165  35.656  1.00  0.00     0.031 C 
ATOM     51  C   UNL A   1      44.380  26.411  31.540  1.00  0.00     0.029 A 
ATOM     52  C   UNL A   1      43.555  27.353  32.136  1.00  0.00     0.049 A 
ATOM     53  H   UNL A   1      41.920  28.396  31.300  1.00  0.00     0.167 HD
ATOM     54  C   UNL A   1      42.825  28.813  34.016  1.00  0.00     0.074 A 
ATOM     55  C   UNL A   1      42.905  29.286  35.387  1.00  0.00     0.031 C 
ATOM     56  C   UNL A   1      43.608  27.843  33.490  1.00  0.00     0.037 A 
BRANCH  43  57
ATOM     57  C   UNL A   1      42.438  26.283  27.618  1.00  0.00     0.064 A 
ATOM     58  C   UNL A   1      43.433  26.616  26.687  1.00  0.00     0.173 A 
ATOM     59  C   UNL A   1      41.803  25.038  27.479  1.00  0.00     0.173 A 
ATOM     60  F   UNL A   1      44.064  27.797  26.765  1.00  0.00    -0.203 F 
ATOM     61  C   UNL A   1      43.772  25.742  25.656  1.00  0.00     0.198 A 
ATOM     62  C   UNL A   1      42.166  24.154  26.467  1.00  0.00     0.198 A 
ATOM     63  F   UNL A   1      40.843  24.668  28.340  1.00  0.00    -0.203 F 
ATOM     64  F   UNL A   1      44.700  26.097  24.757  1.00  0.00    -0.200 F 
ATOM     65  C   UNL A   1      43.147  24.508  25.554  1.00  0.00     0.200 A 
ATOM     66  F   UNL A   1      41.571  22.956  26.380  1.00  0.00    -0.200 F 
ATOM     67  F   UNL A   1      43.488  23.661  24.573  1.00  0.00    -0.200 F 
ENDBRANCH  43  57
BRANCH  44  68
ATOM     68  C   UNL A   1      39.697  32.041  35.420  1.00  0.00     0.064 A 
ATOM     69  C   UNL A   1      38.732  31.528  36.296  1.00  0.00     0.173 A 
ATOM     70  C   UNL A   1      40.172  33.341  35.681  1.00  0.00     0.173 A 
ATOM     71  F   UNL A   1      38.229  30.301  36.094  1.00  0.00    -0.203 F 
ATOM     72  C   UNL A   1      38.231  32.291  37.352  1.00  0.00     0.198 A 
ATOM     73  C   UNL A   1      39.715  34.079  36.771  1.00  0.00     0.198 A 
ATOM     74  F   UNL A   1      41.095  33.897  34.882  1.00  0.00    -0.203 F 
ATOM     75  F   UNL A   1      37.245  31.804  38.117  1.00  0.00    -0.200 F 
ATOM     76  C   UNL A   1      38.728  33.563  37.593  1.00  0.00     0.200 A 
ATOM     77  F   UNL A   1      40.222  35.296  37.012  1.00  0.00    -0.200 F 
ATOM     78  F   UNL A   1      38.242  34.297  38.602  1.00  0.00    -0.200 F 
ENDBRANCH  44  68
BRANCH  56  79
ATOM     79  C   UNL A   1      44.644  27.273  34.405  1.00  0.00     0.064 A 
ATOM     80  C   UNL A   1      44.392  26.135  35.185  1.00  0.00     0.173 A 
ATOM     81  C   UNL A   1      45.905  27.878  34.500  1.00  0.00     0.173 A 
ATOM     82  F   UNL A   1      43.188  25.542  35.148  1.00  0.00    -0.203 F 
ATOM     83  C   UNL A   1      45.358  25.643  36.054  1.00  0.00     0.198 A 
ATOM     84  C   UNL A   1      46.883  27.355  35.334  1.00  0.00     0.198 A 
ATOM     85  F   UNL A   1      46.187  28.971  33.775  1.00  0.00    -0.203 F 
ATOM     86  F   UNL A   1      45.073  24.600  36.846  1.00  0.00    -0.200 F 
ATOM     87  C   UNL A   1      46.605  26.245  36.119  1.00  0.00     0.200 A 
ATOM     88  F   UNL A   1      48.093  27.927  35.382  1.00  0.00    -0.200 F 
ATOM     89  F   UNL A   1      47.539  25.763  36.949  1.00  0.00    -0.200 F 
ENDBRANCH  56  79
ENDBRANCH  30  31
ENDBRANCH  23  25
ENDBRANCH  22  23
ENDBRANCH   1  22
TORSDOF 13
ENDMDL
MODEL 2
REMARK VINA RESULT:     -12.2      0.273      1.642
REMARK SMILES COc1ccc(-c2c(C)n[nH]c2C)c(C(=O)OCCOC(=O)c2ccc(-c3c4nc(c(-c5c(F)c(F)c(F)c(F)c5F)c5ccc([nH]5)c(-c5c(F)c(F)c(F)c(F)c5F)c5nc(c(-c6c(F)c(F)c(F)c(F)c6F)c6ccc3[nH]6)C=C5)C=C4)cc2)c1
REMARK SMILES IDX 19 1 18 2 17 3 15 4 16 5 14 6 3 7 4 8 86 9 5 10 6 11 2 12
REMARK SMILES IDX 1 13 7 14 8 15 12 16 9 17 10 18 11 19 13 20 20 22 21 23
REMARK SMILES IDX 22 24 23 25 24 26 85 27 25 28 84 29 26 30 27 31 28 32 78 33
REMARK SMILES IDX 29 34 83 35 77 36 79 37 30 38 82 39 76 40 75 41 31 43 63 44
REMARK SMILES IDX 43 45 62 46 44 47 47 48 61 49 80 50 45 51 46 52 60 54 81 55
REMARK SMILES IDX 48 56 32 57 33 58 41 59 34 60 35 61 39 62 42 63 36 64 37 65
REMARK SMILES IDX 40 66 38 67 64 68 65 69 73 70 66 71 67 72 71 73 74 74 68 75
REMARK SMILES IDX 69 76 72 77 70 78 49 79 50 80 58 81 51 82 52 83 56 84 59 85
REMARK SMILES IDX 53 86 54 87 57 88 55 89
REMARK H PARENT 11 21 79 42 47 53
REMARK Flexibility Score: inf
ROOT
ATOM      1  C   UNL A   1      31.675  30.923  26.500  1.00  0.00     0.275 C 
ENDROOT
BRANCH   1   2
ATOM      2  C   UNL A   1      31.755  29.798  25.466  1.00  0.00     0.275 C 
BRANCH   2   3
ATOM      3  O   UNL A   1      31.701  28.507  26.132  1.00  0.00    -0.458 OA
BRANCH   3   4
ATOM      4  C   UNL A   1      32.746  27.659  25.932  1.00  0.00     0.339 C 
ATOM      5  O   UNL A   1      33.923  27.985  25.906  1.00  0.00    -0.246 OA
BRANCH   4   6
ATOM      6  C   UNL A   1      32.281  26.320  25.476  1.00  0.00     0.071 A 
ATOM      7  C   UNL A   1      31.722  24.192  26.502  1.00  0.00     0.119 A 
ATOM      8  C   UNL A   1      30.992  23.855  25.362  1.00  0.00     0.047 A 
ATOM      9  C   UNL A   1      32.396  25.401  26.534  1.00  0.00     0.062 A 
ATOM     10  C   UNL A   1      30.907  24.735  24.270  1.00  0.00     0.013 A 
ATOM     11  C   UNL A   1      31.537  25.987  24.303  1.00  0.00     0.000 A 
BRANCH   7  12
ATOM     12  O   UNL A   1      31.709  23.295  27.534  1.00  0.00    -0.497 OA
ATOM     13  C   UNL A   1      32.898  22.514  27.683  1.00  0.00     0.278 C 
ENDBRANCH   7  12
BRANCH  11  14
ATOM     14  C   UNL A   1      31.144  26.946  23.237  1.00  0.00     0.026 A 
ATOM     15  C   UNL A   1      29.457  27.838  23.387  1.00  0.00     0.067 A 
ATOM     16  C   UNL A   1      32.264  28.036  22.295  1.00  0.00     0.040 A 
ATOM     17  C   UNL A   1      28.186  27.070  23.575  1.00  0.00     0.069 C 
ATOM     18  N   UNL A   1      29.467  29.394  22.732  1.00  0.00    -0.180 NA
ATOM     19  N   UNL A   1      31.165  29.711  21.989  1.00  0.00    -0.282 N 
ATOM     20  C   UNL A   1      33.667  27.517  21.947  1.00  0.00     0.067 C 
ATOM     21  H   UNL A   1      31.463  30.533  21.537  1.00  0.00     0.190 HD
ENDBRANCH  11  14
ENDBRANCH   4   6
ENDBRANCH   3   4
ENDBRANCH   2   3
ENDBRANCH   1   2
BRANCH   1  22
ATOM     22  O   UNL A   1      32.843  31.743  26.341  1.00  0.00    -0.458 OA
BRANCH  22  23
ATOM     23  C   UNL A   1      32.889  32.701  27.277  1.00  0.00     0.338 C 
ATOM     24  O   UNL A   1      32.153  33.668  27.389  1.00  0.00    -0.246 OA
BRANCH  23  25
ATOM     25  C   UNL A   1      33.941  32.443  28.251  1.00  0.00     0.060 A 
ATOM     26  C   UNL A   1      35.278  33.586  28.351  1.00  0.00     0.016 A 
ATOM     27  C   UNL A   1      34.305  30.790  28.452  1.00  0.00     0.016 A 
ATOM     28  C   UNL A   1      37.200  32.774  28.602  1.00  0.00     0.010 A 
ATOM     29  C   UNL A   1      35.884  30.133  28.733  1.00  0.00     0.010 A 
ATOM     30  C   UNL A   1      37.329  31.031  28.825  1.00  0.00    -0.014 A 
BRANCH  30  31
ATOM     31  C   UNL A   1      38.470  30.484  29.621  1.00  0.00     0.031 A 
ATOM     32  C   UNL A   1      39.427  29.507  29.031  1.00  0.00     0.074 A 
ATOM     33  C   UNL A   1      38.585  30.838  30.923  1.00  0.00     0.049 A 
ATOM     34  N   UNL A   1      40.436  28.913  29.612  1.00  0.00    -0.248 NA
ATOM     35  C   UNL A   1      39.205  29.100  27.637  1.00  0.00     0.031 C 
ATOM     36  C   UNL A   1      37.622  31.641  31.657  1.00  0.00     0.029 A 
ATOM     37  N   UNL A   1      39.549  30.611  31.877  1.00  0.00    -0.354 N 
ATOM     38  C   UNL A   1      40.963  28.049  28.667  1.00  0.00     0.074 A 
ATOM     39  C   UNL A   1      40.153  28.184  27.473  1.00  0.00     0.031 C 
ATOM     40  C   UNL A   1      38.106  32.028  32.833  1.00  0.00     0.029 A 
ATOM     41  C   UNL A   1      39.318  31.285  33.062  1.00  0.00     0.049 A 
ATOM     42  H   UNL A   1      40.327  30.025  31.729  1.00  0.00     0.167 HD
ATOM     43  C   UNL A   1      42.018  27.217  28.816  1.00  0.00     0.037 A 
ATOM     44  C   UNL A   1      39.935  31.258  34.254  1.00  0.00     0.037 A 
ATOM     45  C   UNL A   1      42.784  27.104  30.034  1.00  0.00     0.049 A 
ATOM     46  C   UNL A   1      41.078  30.310  34.376  1.00  0.00     0.074 A 
ATOM     47  C   UNL A   1      43.899  26.324  30.280  1.00  0.00     0.029 A 
ATOM     48  N   UNL A   1      42.499  27.777  31.219  1.00  0.00    -0.354 N 
ATOM     49  N   UNL A   1      41.602  29.544  33.450  1.00  0.00    -0.248 NA
ATOM     50  C   UNL A   1      41.689  30.181  35.699  1.00  0.00     0.031 C 
ATOM     51  C   UNL A   1      44.241  26.461  31.628  1.00  0.00     0.029 A 
ATOM     52  C   UNL A   1      43.394  27.394  32.207  1.00  0.00     0.049 A 
ATOM     53  H   UNL A   1      41.771  28.427  31.338  1.00  0.00     0.167 HD
ATOM     54  C   UNL A   1      42.611  28.842  34.076  1.00  0.00     0.074 A 
ATOM     55  C   UNL A   1      42.655  29.311  35.449  1.00  0.00     0.031 C 
ATOM     56  C   UNL A   1      43.413  27.880  33.564  1.00  0.00     0.037 A 
BRANCH  43  57
ATOM     57  C   UNL A   1      42.389  26.331  27.661  1.00  0.00     0.064 A 
ATOM     58  C   UNL A   1      43.387  26.686  26.742  1.00  0.00     0.173 A 
ATOM     59  C   UNL A   1      41.785  25.072  27.518  1.00  0.00     0.173 A 
ATOM     60  F   UNL A   1      43.990  27.881  26.825  1.00  0.00    -0.203 F 
ATOM     61  C   UNL A   1      43.757  25.819  25.716  1.00  0.00     0.198 A 
ATOM     62  C   UNL A   1      42.179  24.195  26.510  1.00  0.00     0.198 A 
ATOM     63  F   UNL A   1      40.824  24.682  28.368  1.00  0.00    -0.203 F 
ATOM     64  F   UNL A   1      44.687  26.194  24.827  1.00  0.00    -0.200 F 
ATOM     65  C   UNL A   1      43.162  24.571  25.608  1.00  0.00     0.200 A 
ATOM     66  F   UNL A   1      41.612  22.984  26.419  1.00  0.00    -0.200 F 
ATOM     67  F   UNL A   1      43.533  23.731  24.632  1.00  0.00    -0.200 F 
ENDBRANCH  43  57
BRANCH  44  68
ATOM     68  C   UNL A   1      39.427  32.042  35.418  1.00  0.00     0.064 A 
ATOM     69  C   UNL A   1      39.845  33.360  35.642  1.00  0.00     0.173 A 
ATOM     70  C   UNL A   1      38.532  31.487  36.354  1.00  0.00     0.173 A 
ATOM     71  F   UNL A   1      40.709  33.940  34.795  1.00  0.00    -0.203 F 
ATOM     72  C   UNL A   1      39.429  34.073  36.766  1.00  0.00     0.198 A 
ATOM     73  C   UNL A   1      38.070  32.220  37.444  1.00  0.00     0.198 A 
ATOM     74  F   UNL A   1      38.091  30.229  36.204  1.00  0.00    -0.203 F 
ATOM     75  F   UNL A   1      39.918  35.299  36.997  1.00  0.00    -0.200 F 
ATOM     76  C   UNL A   1      38.537  33.505  37.663  1.00  0.00     0.200 A 
ATOM     77  F   UNL A   1      37.185  31.674  38.289  1.00  0.00    -0.200 F 
ATOM     78  F   UNL A   1      38.142  34.188  38.746  1.00  0.00    -0.200 F 
ENDBRANCH  44  68
BRANCH  56  79
ATOM     79  C   UNL A   1      44.432  27.315  34.501  1.00  0.00     0.064 A 
ATOM     80  C   UNL A   1      45.694  27.905  34.660  1.00  0.00     0.173 A 
ATOM     81  C   UNL A   1      44.137  26.166  35.247  1.00  0.00     0.173 A 
ATOM     82  F   UNL A   1      46.030  28.989  33.943  1.00  0.00    -0.203 F 
ATOM     83  C   UNL A   1      46.637  27.343  35.511  1.00  0.00     0.198 A 
ATOM     84  C   UNL A   1      45.065  25.635  36.132  1.00  0.00     0.198 A 
ATOM     85  F   UNL A   1      42.943  25.566  35.123  1.00  0.00    -0.203 F 
ATOM     86  F   UNL A   1      47.863  27.877  35.594  1.00  0.00    -0.200 F 
ATOM     87  C   UNL A   1      46.319  26.216  36.254  1.00  0.00     0.200 A 
ATOM     88  F   UNL A   1      44.749  24.558  36.862  1.00  0.00    -0.200 F 
ATOM     89  F   UNL A   1      47.226  25.682  37.082  1.00  0.00    -0.200 F 
ENDBRANCH  56  79
ENDBRANCH  30  31
ENDBRANCH  23  25
ENDBRANCH  22  23
ENDBRANCH   1  22
TORSDOF 13
ENDMDL
MODEL 3
REMARK VINA RESULT:     -12.0      2.116      8.073
REMARK SMILES COc1ccc(-c2c(C)n[nH]c2C)c(C(=O)OCCOC(=O)c2ccc(-c3c4nc(c(-c5c(F)c(F)c(F)c(F)c5F)c5ccc([nH]5)c(-c5c(F)c(F)c(F)c(F)c5F)c5nc(c(-c6c(F)c(F)c(F)c(F)c6F)c6ccc3[nH]6)C=C5)C=C4)cc2)c1
REMARK SMILES IDX 19 1 18 2 17 3 15 4 16 5 14 6 3 7 4 8 86 9 5 10 6 11 2 12
REMARK SMILES IDX 1 13 7 14 8 15 12 16 9 17 10 18 11 19 13 20 20 22 21 23
REMARK SMILES IDX 22 24 23 25 24 26 85 27 25 28 84 29 26 30 27 31 28 32 78 33
REMARK SMILES IDX 29 34 83 35 77 36 79 37 30 38 82 39 76 40 75 41 31 43 63 44
REMARK SMILES IDX 43 45 62 46 44 47 47 48 61 49 80 50 45 51 46 52 60 54 81 55
REMARK SMILES IDX 48 56 32 57 33 58 41 59 34 60 35 61 39 62 42 63 36 64 37 65
REMARK SMILES IDX 40 66 38 67 64 68 65 69 73 70 66 71 67 72 71 73 74 74 68 75
REMARK SMILES IDX 69 76 72 77 70 78 49 79 50 80 58 81 51 82 52 83 56 84 59 85
REMARK SMILES IDX 53 86 54 87 57 88 55 89
REMARK H PARENT 11 21 79 42 47 53
REMARK Flexibility Score: inf
ROOT
ATOM      1  C   UNL A   1      31.584  29.790  25.024  1.00  0.00     0.275 C 
ENDROOT
BRANCH   1   2
ATOM      2  C   UNL A   1      31.462  28.317  25.420  1.00  0.00     0.275 C 
BRANCH   2   3
ATOM      3  O   UNL A   1      31.800  27.469  24.288  1.00  0.00    -0.458 OA
BRANCH   3   4
ATOM      4  C   UNL A   1      33.002  26.833  24.325  1.00  0.00     0.339 C 
ATOM      5  O   UNL A   1      34.062  27.346  24.649  1.00  0.00    -0.246 OA
BRANCH   4   6
ATOM      6  C   UNL A   1      32.933  25.501  23.664  1.00  0.00     0.071 A 
ATOM      7  C   UNL A   1      33.159  24.622  21.412  1.00  0.00     0.119 A 
ATOM      8  C   UNL A   1      33.409  23.360  21.949  1.00  0.00     0.047 A 
ATOM      9  C   UNL A   1      32.879  25.673  22.269  1.00  0.00     0.062 A 
ATOM     10  C   UNL A   1      33.415  23.152  23.338  1.00  0.00     0.013 A 
ATOM     11  C   UNL A   1      33.188  24.213  24.227  1.00  0.00     0.000 A 
BRANCH   7  12
ATOM     12  O   UNL A   1      33.221  24.740  20.051  1.00  0.00    -0.497 OA
ATOM     13  C   UNL A   1      32.214  25.567  19.460  1.00  0.00     0.278 C 
ENDBRANCH   7  12
BRANCH  11  14
ATOM     14  C   UNL A   1      33.505  23.950  25.655  1.00  0.00     0.026 A 
ATOM     15  C   UNL A   1      32.133  23.224  26.777  1.00  0.00     0.067 A 
ATOM     16  C   UNL A   1      35.112  23.403  26.324  1.00  0.00     0.040 A 
ATOM     17  C   UNL A   1      30.794  23.882  26.889  1.00  0.00     0.069 C 
ATOM     18  N   UNL A   1      32.731  22.211  27.987  1.00  0.00    -0.180 NA
ATOM     19  N   UNL A   1      34.607  22.190  27.868  1.00  0.00    -0.282 N 
ATOM     20  C   UNL A   1      36.396  23.925  25.661  1.00  0.00     0.067 C 
ATOM     21  H   UNL A   1      35.226  21.687  28.445  1.00  0.00     0.190 HD
ENDBRANCH  11  14
ENDBRANCH   4   6
ENDBRANCH   3   4
ENDBRANCH   2   3
ENDBRANCH   1   2
BRANCH   1  22
ATOM     22  O   UNL A   1      32.806  30.291  25.587  1.00  0.00    -0.458 OA
BRANCH  22  23
ATOM     23  C   UNL A   1      32.558  31.155  26.583  1.00  0.00     0.338 C 
ATOM     24  O   UNL A   1      31.631  31.944  26.669  1.00  0.00    -0.246 OA
BRANCH  23  25
ATOM     25  C   UNL A   1      33.536  31.026  27.654  1.00  0.00     0.060 A 
ATOM     26  C   UNL A   1      34.596  32.396  27.978  1.00  0.00     0.016 A 
ATOM     27  C   UNL A   1      34.205  29.465  27.794  1.00  0.00     0.016 A 
ATOM     28  C   UNL A   1      36.607  31.956  28.400  1.00  0.00     0.010 A 
ATOM     29  C   UNL A   1      35.847  29.107  28.217  1.00  0.00     0.010 A 
ATOM     30  C   UNL A   1      37.064  30.259  28.531  1.00  0.00    -0.014 A 
BRANCH  30  31
ATOM     31  C   UNL A   1      38.205  29.880  29.419  1.00  0.00     0.031 A 
ATOM     32  C   UNL A   1      38.307  30.401  30.811  1.00  0.00     0.074 A 
ATOM     33  C   UNL A   1      39.194  29.106  28.915  1.00  0.00     0.049 A 
ATOM     34  N   UNL A   1      39.260  30.197  31.682  1.00  0.00    -0.248 NA
ATOM     35  C   UNL A   1      37.243  31.302  31.276  1.00  0.00     0.031 C 
ATOM     36  C   UNL A   1      39.297  28.681  27.530  1.00  0.00     0.029 A 
ATOM     37  N   UNL A   1      40.294  28.502  29.478  1.00  0.00    -0.354 N 
ATOM     38  C   UNL A   1      38.927  30.954  32.793  1.00  0.00     0.074 A 
ATOM     39  C   UNL A   1      37.686  31.636  32.483  1.00  0.00     0.031 C 
ATOM     40  C   UNL A   1      40.224  27.740  27.376  1.00  0.00     0.029 A 
ATOM     41  C   UNL A   1      40.973  27.675  28.604  1.00  0.00     0.049 A 
ATOM     42  H   UNL A   1      40.570  28.647  30.413  1.00  0.00     0.167 HD
ATOM     43  C   UNL A   1      39.621  31.063  33.948  1.00  0.00     0.037 A 
ATOM     44  C   UNL A   1      42.130  27.000  28.710  1.00  0.00     0.037 A 
ATOM     45  C   UNL A   1      40.865  30.376  34.203  1.00  0.00     0.049 A 
ATOM     46  C   UNL A   1      42.869  27.169  29.992  1.00  0.00     0.074 A 
ATOM     47  C   UNL A   1      41.631  30.382  35.355  1.00  0.00     0.029 A 
ATOM     48  N   UNL A   1      41.537  29.576  33.283  1.00  0.00    -0.354 N 
ATOM     49  N   UNL A   1      42.508  27.841  31.057  1.00  0.00    -0.248 NA
ATOM     50  C   UNL A   1      44.185  26.535  30.082  1.00  0.00     0.031 C 
ATOM     51  C   UNL A   1      42.799  29.656  35.108  1.00  0.00     0.029 A 
ATOM     52  C   UNL A   1      42.727  29.121  33.831  1.00  0.00     0.049 A 
ATOM     53  H   UNL A   1      41.214  29.365  32.377  1.00  0.00     0.167 HD
ATOM     54  C   UNL A   1      43.549  27.709  31.951  1.00  0.00     0.074 A 
ATOM     55  C   UNL A   1      44.535  26.852  31.319  1.00  0.00     0.031 C 
ATOM     56  C   UNL A   1      43.686  28.267  33.176  1.00  0.00     0.037 A 
BRANCH  43  57
ATOM     57  C   UNL A   1      39.090  31.983  35.009  1.00  0.00     0.064 A 
ATOM     58  C   UNL A   1      38.380  31.505  36.120  1.00  0.00     0.173 A 
ATOM     59  C   UNL A   1      39.361  33.360  34.948  1.00  0.00     0.173 A 
ATOM     60  F   UNL A   1      38.083  30.201  36.224  1.00  0.00    -0.203 F 
ATOM     61  C   UNL A   1      37.951  32.372  37.123  1.00  0.00     0.198 A 
ATOM     62  C   UNL A   1      38.959  34.218  35.968  1.00  0.00     0.198 A 
ATOM     63  F   UNL A   1      40.036  33.871  33.908  1.00  0.00    -0.203 F 
ATOM     64  F   UNL A   1      37.242  31.899  38.157  1.00  0.00    -0.200 F 
ATOM     65  C   UNL A   1      38.251  33.725  37.053  1.00  0.00     0.200 A 
ATOM     66  F   UNL A   1      39.264  35.521  35.903  1.00  0.00    -0.200 F 
ATOM     67  F   UNL A   1      37.855  34.553  38.028  1.00  0.00    -0.200 F 
ENDBRANCH  43  57
BRANCH  44  68
ATOM     68  C   UNL A   1      42.693  26.226  27.564  1.00  0.00     0.064 A 
ATOM     69  C   UNL A   1      43.639  26.795  26.702  1.00  0.00     0.173 A 
ATOM     70  C   UNL A   1      42.282  24.909  27.283  1.00  0.00     0.173 A 
ATOM     71  F   UNL A   1      44.061  28.052  26.907  1.00  0.00    -0.203 F 
ATOM     72  C   UNL A   1      44.115  26.102  25.588  1.00  0.00     0.198 A 
ATOM     73  C   UNL A   1      42.803  24.196  26.206  1.00  0.00     0.198 A 
ATOM     74  F   UNL A   1      41.377  24.301  28.066  1.00  0.00    -0.203 F 
ATOM     75  F   UNL A   1      44.952  26.708  24.734  1.00  0.00    -0.200 F 
ATOM     76  C   UNL A   1      43.703  24.801  25.345  1.00  0.00     0.200 A 
ATOM     77  F   UNL A   1      42.421  22.929  25.996  1.00  0.00    -0.200 F 
ATOM     78  F   UNL A   1      44.156  24.139  24.273  1.00  0.00    -0.200 F 
ENDBRANCH  44  68
BRANCH  56  79
ATOM     79  C   UNL A   1      44.936  27.916  33.916  1.00  0.00     0.064 A 
ATOM     80  C   UNL A   1      45.013  26.782  34.737  1.00  0.00     0.173 A 
ATOM     81  C   UNL A   1      46.072  28.730  33.798  1.00  0.00     0.173 A 
ATOM     82  F   UNL A   1      43.940  25.992  34.903  1.00  0.00    -0.203 F 
ATOM     83  C   UNL A   1      46.176  26.495  35.442  1.00  0.00     0.198 A 
ATOM     84  C   UNL A   1      47.246  28.412  34.467  1.00  0.00     0.198 A 
ATOM     85  F   UNL A   1      46.042  29.827  33.026  1.00  0.00    -0.203 F 
ATOM     86  F   UNL A   1      46.206  25.449  36.280  1.00  0.00    -0.200 F 
ATOM     87  C   UNL A   1      47.294  27.302  35.298  1.00  0.00     0.200 A 
ATOM     88  F   UNL A   1      48.331  29.183  34.312  1.00  0.00    -0.200 F 
ATOM     89  F   UNL A   1      48.417  27.017  35.970  1.00  0.00    -0.200 F 
ENDBRANCH  56  79
ENDBRANCH  30  31
ENDBRANCH  23  25
ENDBRANCH  22  23
ENDBRANCH   1  22
TORSDOF 13
ENDMDL
