MODEL 1
REMARK VINA RESULT:     -10.5      0.000      0.000
REMARK SMILES C[NH+](C)CCOc1ccccc1C(=O)OCCOC(=O)c1ccc(-c2c3nc(c(-c4c(F)c(F)c(F)c(F)c4F)c4ccc([nH]4)c(-c4c(F)c(F)c(F)c(F)c4F)c4nc(c(-c5c(F)c(F)c(F)c(F)c5F)c5ccc2[nH]5)C=C4)C=C3)cc1
REMARK SMILES IDX 16 1 15 2 13 3 14 4 12 5 7 6 8 7 9 8 11 9 10 10 6 11 5 12
REMARK SMILES IDX 4 13 2 14 1 15 3 16 17 18 18 19 19 20 20 21 21 22 22 23
REMARK SMILES IDX 83 24 23 25 82 26 24 27 25 28 26 29 76 30 27 31 81 32 75 33
REMARK SMILES IDX 77 34 28 35 80 36 74 37 73 38 29 40 61 41 41 42 60 43 42 44
REMARK SMILES IDX 45 45 59 46 78 47 43 48 44 49 58 51 79 52 46 53 30 54 31 55
REMARK SMILES IDX 39 56 32 57 33 58 37 59 40 60 34 61 35 62 38 63 36 64 62 65
REMARK SMILES IDX 63 66 71 67 64 68 65 69 69 70 72 71 66 72 67 73 70 74 68 75
REMARK SMILES IDX 47 76 48 77 56 78 49 79 50 80 54 81 57 82 51 83 52 84 55 85
REMARK SMILES IDX 53 86
REMARK H PARENT 2 17 77 39 45 50
REMARK Flexibility Score: inf
ROOT
ATOM      1  C   UNL A   1      32.659  30.804  26.707  1.00  0.00     0.275 C 
ENDROOT
BRANCH   1   2
ATOM      2  O   UNL A   1      31.663  30.177  25.852  1.00  0.00    -0.458 OA
BRANCH   2   3
ATOM      3  C   UNL A   1      32.104  29.345  24.865  1.00  0.00     0.342 C 
ATOM      4  O   UNL A   1      33.226  29.339  24.389  1.00  0.00    -0.246 OA
BRANCH   3   5
ATOM      5  C   UNL A   1      31.036  28.369  24.506  1.00  0.00     0.102 A 
ATOM      6  C   UNL A   1      30.055  28.575  23.507  1.00  0.00     0.134 A 
ATOM      7  C   UNL A   1      29.094  27.577  23.284  1.00  0.00     0.047 A 
ATOM      8  C   UNL A   1      29.085  26.407  24.044  1.00  0.00     0.004 A 
ATOM      9  C   UNL A   1      31.051  27.160  25.219  1.00  0.00     0.019 A 
ATOM     10  C   UNL A   1      30.070  26.191  25.001  1.00  0.00     0.001 A 
BRANCH   6  11
ATOM     11  O   UNL A   1      30.109  29.690  22.711  1.00  0.00    -0.487 OA
BRANCH  11  12
ATOM     12  C   UNL A   1      28.990  29.961  21.841  1.00  0.00     0.290 C 
BRANCH  12  13
ATOM     13  C   UNL A   1      28.811  31.473  21.560  1.00  0.00     0.303 C 
BRANCH  13  14
ATOM     14  N   UNL A   1      28.099  32.265  22.565  1.00  0.00    -0.337 N 
ATOM     15  C   UNL A   1      27.510  31.388  23.578  1.00  0.00     0.332 C 
ATOM     16  C   UNL A   1      28.959  33.336  23.071  1.00  0.00     0.332 C 
ATOM     17  H   UNL A   1      27.304  32.749  22.149  1.00  0.00     0.347 HD
ENDBRANCH  13  14
ENDBRANCH  12  13
ENDBRANCH  11  12
ENDBRANCH   6  11
ENDBRANCH   3   5
ENDBRANCH   2   3
ENDBRANCH   1   2
BRANCH   1  18
ATOM     18  C   UNL A   1      32.171  32.180  27.220  1.00  0.00     0.275 C 
BRANCH  18  19
ATOM     19  O   UNL A   1      33.253  33.120  27.138  1.00  0.00    -0.458 OA
BRANCH  19  20
ATOM     20  C   UNL A   1      33.340  33.969  28.187  1.00  0.00     0.338 C 
ATOM     21  O   UNL A   1      32.476  34.692  28.654  1.00  0.00    -0.246 OA
BRANCH  20  22
ATOM     22  C   UNL A   1      34.554  33.556  28.897  1.00  0.00     0.060 A 
ATOM     23  C   UNL A   1      34.412  32.511  29.816  1.00  0.00     0.016 A 
ATOM     24  C   UNL A   1      35.808  34.062  28.561  1.00  0.00     0.016 A 
ATOM     25  C   UNL A   1      35.535  31.932  30.384  1.00  0.00     0.010 A 
ATOM     26  C   UNL A   1      36.935  33.496  29.149  1.00  0.00     0.010 A 
ATOM     27  C   UNL A   1      36.800  32.431  30.058  1.00  0.00    -0.014 A 
BRANCH  27  28
ATOM     28  C   UNL A   1      37.979  31.954  30.805  1.00  0.00     0.031 A 
ATOM     29  C   UNL A   1      38.831  30.910  30.153  1.00  0.00     0.074 A 
ATOM     30  C   UNL A   1      38.278  32.449  32.016  1.00  0.00     0.049 A 
ATOM     31  N   UNL A   1      39.805  30.200  30.654  1.00  0.00    -0.248 NA
ATOM     32  C   UNL A   1      38.530  30.620  28.741  1.00  0.00     0.031 C 
ATOM     33  C   UNL A   1      37.560  33.528  32.693  1.00  0.00     0.029 A 
ATOM     34  N   UNL A   1      39.264  32.093  32.899  1.00  0.00    -0.354 N 
ATOM     35  C   UNL A   1      40.207  29.353  29.631  1.00  0.00     0.074 A 
ATOM     36  C   UNL A   1      39.367  29.627  28.488  1.00  0.00     0.031 C 
ATOM     37  C   UNL A   1      38.120  33.735  33.898  1.00  0.00     0.029 A 
ATOM     38  C   UNL A   1      39.194  32.764  34.095  1.00  0.00     0.049 A 
ATOM     39  H   UNL A   1      39.955  31.421  32.696  1.00  0.00     0.167 HD
ATOM     40  C   UNL A   1      41.192  28.428  29.657  1.00  0.00     0.037 A 
ATOM     41  C   UNL A   1      39.893  32.573  35.229  1.00  0.00     0.037 A 
ATOM     42  C   UNL A   1      42.019  28.184  30.808  1.00  0.00     0.049 A 
ATOM     43  C   UNL A   1      40.933  31.481  35.259  1.00  0.00     0.074 A 
ATOM     44  C   UNL A   1      43.045  27.270  30.957  1.00  0.00     0.029 A 
ATOM     45  N   UNL A   1      41.907  28.865  32.013  1.00  0.00    -0.354 N 
ATOM     46  N   UNL A   1      41.299  30.658  34.304  1.00  0.00    -0.248 NA
ATOM     47  C   UNL A   1      41.653  31.286  36.524  1.00  0.00     0.031 C 
ATOM     48  C   UNL A   1      43.518  27.361  32.271  1.00  0.00     0.029 A 
ATOM     49  C   UNL A   1      42.833  28.379  32.919  1.00  0.00     0.049 A 
ATOM     50  H   UNL A   1      41.265  29.588  32.196  1.00  0.00     0.167 HD
ATOM     51  C   UNL A   1      42.310  29.872  34.841  1.00  0.00     0.074 A 
ATOM     52  C   UNL A   1      42.507  30.326  36.203  1.00  0.00     0.031 C 
ATOM     53  C   UNL A   1      43.014  28.865  34.265  1.00  0.00     0.037 A 
BRANCH  40  54
ATOM     54  C   UNL A   1      41.382  27.588  28.429  1.00  0.00     0.064 A 
ATOM     55  C   UNL A   1      40.644  26.415  28.206  1.00  0.00     0.173 A 
ATOM     56  C   UNL A   1      42.325  27.962  27.459  1.00  0.00     0.173 A 
ATOM     57  F   UNL A   1      39.748  25.999  29.113  1.00  0.00    -0.203 F 
ATOM     58  C   UNL A   1      40.866  25.633  27.075  1.00  0.00     0.198 A 
ATOM     59  C   UNL A   1      42.519  27.197  26.313  1.00  0.00     0.198 A 
ATOM     60  F   UNL A   1      43.062  29.072  27.624  1.00  0.00    -0.203 F 
ATOM     61  F   UNL A   1      40.193  24.485  26.914  1.00  0.00    -0.200 F 
ATOM     62  C   UNL A   1      41.796  26.028  26.126  1.00  0.00     0.200 A 
ATOM     63  F   UNL A   1      43.412  27.586  25.393  1.00  0.00    -0.200 F 
ATOM     64  F   UNL A   1      42.007  25.277  25.036  1.00  0.00    -0.200 F 
ENDBRANCH  40  54
BRANCH  41  65
ATOM     65  C   UNL A   1      39.613  33.400  36.434  1.00  0.00     0.064 A 
ATOM     66  C   UNL A   1      40.290  34.607  36.657  1.00  0.00     0.173 A 
ATOM     67  C   UNL A   1      38.675  32.995  37.397  1.00  0.00     0.173 A 
ATOM     68  F   UNL A   1      41.214  35.027  35.779  1.00  0.00    -0.203 F 
ATOM     69  C   UNL A   1      40.058  35.364  37.803  1.00  0.00     0.198 A 
ATOM     70  C   UNL A   1      38.420  33.769  38.528  1.00  0.00     0.198 A 
ATOM     71  F   UNL A   1      38.001  31.846  37.238  1.00  0.00    -0.203 F 
ATOM     72  F   UNL A   1      40.760  36.486  38.016  1.00  0.00    -0.200 F 
ATOM     73  C   UNL A   1      39.118  34.949  38.735  1.00  0.00     0.200 A 
ATOM     74  F   UNL A   1      37.502  33.368  39.418  1.00  0.00    -0.200 F 
ATOM     75  F   UNL A   1      38.894  35.678  39.837  1.00  0.00    -0.200 F 
ENDBRANCH  41  65
BRANCH  53  76
ATOM     76  C   UNL A   1      44.100  28.228  35.084  1.00  0.00     0.064 A 
ATOM     77  C   UNL A   1      45.404  28.742  35.115  1.00  0.00     0.173 A 
ATOM     78  C   UNL A   1      43.812  27.114  35.889  1.00  0.00     0.173 A 
ATOM     79  F   UNL A   1      45.732  29.797  34.354  1.00  0.00    -0.203 F 
ATOM     80  C   UNL A   1      46.387  28.147  35.900  1.00  0.00     0.198 A 
ATOM     81  C   UNL A   1      44.787  26.545  36.700  1.00  0.00     0.198 A 
ATOM     82  F   UNL A   1      42.576  26.590  35.902  1.00  0.00    -0.203 F 
ATOM     83  F   UNL A   1      47.640  28.622  35.875  1.00  0.00    -0.200 F 
ATOM     84  C   UNL A   1      46.076  27.056  36.699  1.00  0.00     0.200 A 
ATOM     85  F   UNL A   1      44.480  25.502  37.484  1.00  0.00    -0.200 F 
ATOM     86  F   UNL A   1      47.022  26.492  37.463  1.00  0.00    -0.200 F 
ENDBRANCH  53  76
ENDBRANCH  27  28
ENDBRANCH  20  22
ENDBRANCH  19  20
ENDBRANCH  18  19
ENDBRANCH   1  18
TORSDOF 15
ENDMDL
MODEL 2
REMARK VINA RESULT:     -10.5      4.370     10.099
REMARK SMILES C[NH+](C)CCOc1ccccc1C(=O)OCCOC(=O)c1ccc(-c2c3nc(c(-c4c(F)c(F)c(F)c(F)c4F)c4ccc([nH]4)c(-c4c(F)c(F)c(F)c(F)c4F)c4nc(c(-c5c(F)c(F)c(F)c(F)c5F)c5ccc2[nH]5)C=C4)C=C3)cc1
REMARK SMILES IDX 16 1 15 2 13 3 14 4 12 5 7 6 8 7 9 8 11 9 10 10 6 11 5 12
REMARK SMILES IDX 4 13 2 14 1 15 3 16 17 18 18 19 19 20 20 21 21 22 22 23
REMARK SMILES IDX 83 24 23 25 82 26 24 27 25 28 26 29 76 30 27 31 81 32 75 33
REMARK SMILES IDX 77 34 28 35 80 36 74 37 73 38 29 40 61 41 41 42 60 43 42 44
REMARK SMILES IDX 45 45 59 46 78 47 43 48 44 49 58 51 79 52 46 53 30 54 31 55
REMARK SMILES IDX 39 56 32 57 33 58 37 59 40 60 34 61 35 62 38 63 36 64 62 65
REMARK SMILES IDX 63 66 71 67 64 68 65 69 69 70 72 71 66 72 67 73 70 74 68 75
REMARK SMILES IDX 47 76 48 77 56 78 49 79 50 80 54 81 57 82 51 83 52 84 55 85
REMARK SMILES IDX 53 86
REMARK H PARENT 2 17 77 39 45 50
REMARK Flexibility Score: inf
ROOT
ATOM      1  C   UNL A   1      35.845  33.861  29.212  1.00  0.00     0.275 C 
ENDROOT
BRANCH   1   2
ATOM      2  O   UNL A   1      36.110  33.230  30.496  1.00  0.00    -0.458 OA
BRANCH   2   3
ATOM      3  C   UNL A   1      37.360  33.366  31.026  1.00  0.00     0.342 C 
ATOM      4  O   UNL A   1      38.348  33.750  30.426  1.00  0.00    -0.246 OA
BRANCH   3   5
ATOM      5  C   UNL A   1      37.330  33.062  32.486  1.00  0.00     0.102 A 
ATOM      6  C   UNL A   1      36.881  33.955  33.487  1.00  0.00     0.134 A 
ATOM      7  C   UNL A   1      36.924  33.546  34.829  1.00  0.00     0.047 A 
ATOM      8  C   UNL A   1      37.419  32.289  35.180  1.00  0.00     0.004 A 
ATOM      9  C   UNL A   1      37.767  31.779  32.849  1.00  0.00     0.019 A 
ATOM     10  C   UNL A   1      37.826  31.401  34.191  1.00  0.00     0.001 A 
BRANCH   6  11
ATOM     11  O   UNL A   1      36.326  35.159  33.137  1.00  0.00    -0.487 OA
BRANCH  11  12
ATOM     12  C   UNL A   1      34.943  35.395  33.471  1.00  0.00     0.290 C 
BRANCH  12  13
ATOM     13  C   UNL A   1      34.006  35.256  32.246  1.00  0.00     0.303 C 
BRANCH  13  14
ATOM     14  N   UNL A   1      33.847  36.428  31.384  1.00  0.00    -0.337 N 
ATOM     15  C   UNL A   1      32.803  36.187  30.386  1.00  0.00     0.332 C 
ATOM     16  C   UNL A   1      33.688  37.636  32.193  1.00  0.00     0.332 C 
ATOM     17  H   UNL A   1      34.692  36.594  30.837  1.00  0.00     0.347 HD
ENDBRANCH  13  14
ENDBRANCH  12  13
ENDBRANCH  11  12
ENDBRANCH   6  11
ENDBRANCH   3   5
ENDBRANCH   2   3
ENDBRANCH   1   2
BRANCH   1  18
ATOM     18  C   UNL A   1      34.921  32.982  28.336  1.00  0.00     0.275 C 
BRANCH  18  19
ATOM     19  O   UNL A   1      34.717  31.722  28.990  1.00  0.00    -0.458 OA
BRANCH  19  20
ATOM     20  C   UNL A   1      34.909  30.640  28.200  1.00  0.00     0.338 C 
ATOM     21  O   UNL A   1      34.253  30.276  27.239  1.00  0.00    -0.246 OA
BRANCH  20  22
ATOM     22  C   UNL A   1      36.284  30.217  28.479  1.00  0.00     0.060 A 
ATOM     23  C   UNL A   1      36.509  29.615  29.720  1.00  0.00     0.016 A 
ATOM     24  C   UNL A   1      37.277  30.263  27.503  1.00  0.00     0.016 A 
ATOM     25  C   UNL A   1      37.730  29.015  29.987  1.00  0.00     0.010 A 
ATOM     26  C   UNL A   1      38.511  29.681  27.779  1.00  0.00     0.010 A 
ATOM     27  C   UNL A   1      38.737  29.056  29.019  1.00  0.00    -0.014 A 
BRANCH  27  28
ATOM     28  C   UNL A   1      40.094  28.595  29.368  1.00  0.00     0.031 A 
ATOM     29  C   UNL A   1      40.933  29.500  30.214  1.00  0.00     0.074 A 
ATOM     30  C   UNL A   1      40.549  27.404  28.948  1.00  0.00     0.049 A 
ATOM     31  N   UNL A   1      42.201  29.422  30.512  1.00  0.00    -0.248 NA
ATOM     32  C   UNL A   1      40.242  30.663  30.796  1.00  0.00     0.031 C 
ATOM     33  C   UNL A   1      39.777  26.417  28.195  1.00  0.00     0.029 A 
ATOM     34  N   UNL A   1      41.786  26.829  29.089  1.00  0.00    -0.354 N 
ATOM     35  C   UNL A   1      42.469  30.544  31.283  1.00  0.00     0.074 A 
ATOM     36  C   UNL A   1      41.238  31.293  31.397  1.00  0.00     0.031 C 
ATOM     37  C   UNL A   1      40.565  25.363  27.923  1.00  0.00     0.029 A 
ATOM     38  C   UNL A   1      41.908  25.630  28.433  1.00  0.00     0.049 A 
ATOM     39  H   UNL A   1      42.515  27.237  29.610  1.00  0.00     0.167 HD
ATOM     40  C   UNL A   1      43.646  30.909  31.838  1.00  0.00     0.037 A 
ATOM     41  C   UNL A   1      43.000  24.868  28.232  1.00  0.00     0.037 A 
ATOM     42  C   UNL A   1      44.852  30.137  31.716  1.00  0.00     0.049 A 
ATOM     43  C   UNL A   1      44.318  25.336  28.795  1.00  0.00     0.074 A 
ATOM     44  C   UNL A   1      46.107  30.408  32.228  1.00  0.00     0.029 A 
ATOM     45  N   UNL A   1      44.949  28.938  31.022  1.00  0.00    -0.354 N 
ATOM     46  N   UNL A   1      44.584  26.411  29.500  1.00  0.00    -0.248 NA
ATOM     47  C   UNL A   1      45.490  24.492  28.529  1.00  0.00     0.031 C 
ATOM     48  C   UNL A   1      46.976  29.398  31.800  1.00  0.00     0.029 A 
ATOM     49  C   UNL A   1      46.248  28.463  31.078  1.00  0.00     0.049 A 
ATOM     50  H   UNL A   1      44.204  28.490  30.560  1.00  0.00     0.167 HD
ATOM     51  C   UNL A   1      45.942  26.355  29.789  1.00  0.00     0.074 A 
ATOM     52  C   UNL A   1      46.440  25.133  29.192  1.00  0.00     0.031 C 
ATOM     53  C   UNL A   1      46.709  27.232  30.484  1.00  0.00     0.037 A 
BRANCH  40  54
ATOM     54  C   UNL A   1      43.685  32.216  32.574  1.00  0.00     0.064 A 
ATOM     55  C   UNL A   1      43.928  33.433  31.919  1.00  0.00     0.173 A 
ATOM     56  C   UNL A   1      43.480  32.249  33.962  1.00  0.00     0.173 A 
ATOM     57  F   UNL A   1      44.155  33.456  30.597  1.00  0.00    -0.203 F 
ATOM     58  C   UNL A   1      43.996  34.629  32.631  1.00  0.00     0.198 A 
ATOM     59  C   UNL A   1      43.515  33.449  34.665  1.00  0.00     0.198 A 
ATOM     60  F   UNL A   1      43.249  31.113  34.639  1.00  0.00    -0.203 F 
ATOM     61  F   UNL A   1      44.291  35.770  31.993  1.00  0.00    -0.200 F 
ATOM     62  C   UNL A   1      43.782  34.637  34.001  1.00  0.00     0.200 A 
ATOM     63  F   UNL A   1      43.297  33.456  35.987  1.00  0.00    -0.200 F 
ATOM     64  F   UNL A   1      43.844  35.788  34.684  1.00  0.00    -0.200 F 
ENDBRANCH  40  54
BRANCH  41  65
ATOM     65  C   UNL A   1      42.905  23.613  27.439  1.00  0.00     0.064 A 
ATOM     66  C   UNL A   1      42.462  22.418  28.025  1.00  0.00     0.173 A 
ATOM     67  C   UNL A   1      43.272  23.574  26.085  1.00  0.00     0.173 A 
ATOM     68  F   UNL A   1      42.123  22.396  29.323  1.00  0.00    -0.203 F 
ATOM     69  C   UNL A   1      42.410  21.233  27.295  1.00  0.00     0.198 A 
ATOM     70  C   UNL A   1      43.189  22.394  25.347  1.00  0.00     0.198 A 
ATOM     71  F   UNL A   1      43.708  24.685  25.474  1.00  0.00    -0.203 F 
ATOM     72  F   UNL A   1      42.033  20.095  27.896  1.00  0.00    -0.200 F 
ATOM     73  C   UNL A   1      42.766  21.222  25.955  1.00  0.00     0.200 A 
ATOM     74  F   UNL A   1      43.523  22.393  24.050  1.00  0.00    -0.200 F 
ATOM     75  F   UNL A   1      42.715  20.081  25.254  1.00  0.00    -0.200 F 
ENDBRANCH  41  65
BRANCH  53  76
ATOM     76  C   UNL A   1      48.153  26.872  30.686  1.00  0.00     0.064 A 
ATOM     77  C   UNL A   1      49.159  27.334  29.826  1.00  0.00     0.173 A 
ATOM     78  C   UNL A   1      48.536  26.092  31.789  1.00  0.00     0.173 A 
ATOM     79  F   UNL A   1      48.843  28.072  28.751  1.00  0.00    -0.203 F 
ATOM     80  C   UNL A   1      50.494  27.005  30.047  1.00  0.00     0.198 A 
ATOM     81  C   UNL A   1      49.874  25.797  32.027  1.00  0.00     0.198 A 
ATOM     82  F   UNL A   1      47.612  25.633  32.647  1.00  0.00    -0.203 F 
ATOM     83  F   UNL A   1      51.434  27.415  29.185  1.00  0.00    -0.200 F 
ATOM     84  C   UNL A   1      50.851  26.246  31.152  1.00  0.00     0.200 A 
ATOM     85  F   UNL A   1      50.218  25.078  33.105  1.00  0.00    -0.200 F 
ATOM     86  F   UNL A   1      52.138  25.941  31.370  1.00  0.00    -0.200 F 
ENDBRANCH  53  76
ENDBRANCH  27  28
ENDBRANCH  20  22
ENDBRANCH  19  20
ENDBRANCH  18  19
ENDBRANCH   1  18
TORSDOF 15
ENDMDL
MODEL 3
REMARK VINA RESULT:     -10.5      6.002     11.227
REMARK SMILES C[NH+](C)CCOc1ccccc1C(=O)OCCOC(=O)c1ccc(-c2c3nc(c(-c4c(F)c(F)c(F)c(F)c4F)c4ccc([nH]4)c(-c4c(F)c(F)c(F)c(F)c4F)c4nc(c(-c5c(F)c(F)c(F)c(F)c5F)c5ccc2[nH]5)C=C4)C=C3)cc1
REMARK SMILES IDX 16 1 15 2 13 3 14 4 12 5 7 6 8 7 9 8 11 9 10 10 6 11 5 12
REMARK SMILES IDX 4 13 2 14 1 15 3 16 17 18 18 19 19 20 20 21 21 22 22 23
REMARK SMILES IDX 83 24 23 25 82 26 24 27 25 28 26 29 76 30 27 31 81 32 75 33
REMARK SMILES IDX 77 34 28 35 80 36 74 37 73 38 29 40 61 41 41 42 60 43 42 44
REMARK SMILES IDX 45 45 59 46 78 47 43 48 44 49 58 51 79 52 46 53 30 54 31 55
REMARK SMILES IDX 39 56 32 57 33 58 37 59 40 60 34 61 35 62 38 63 36 64 62 65
REMARK SMILES IDX 63 66 71 67 64 68 65 69 69 70 72 71 66 72 67 73 70 74 68 75
REMARK SMILES IDX 47 76 48 77 56 78 49 79 50 80 54 81 57 82 51 83 52 84 55 85
REMARK SMILES IDX 53 86
REMARK H PARENT 2 17 77 39 45 50
REMARK Flexibility Score: inf
ROOT
ATOM      1  C   UNL A   1      36.755  22.158  24.212  1.00  0.00     0.275 C 
ENDROOT
BRANCH   1   2
ATOM      2  O   UNL A   1      35.893  22.916  25.106  1.00  0.00    -0.458 OA
BRANCH   2   3
ATOM      3  C   UNL A   1      34.826  22.271  25.660  1.00  0.00     0.342 C 
ATOM      4  O   UNL A   1      34.671  22.045  26.847  1.00  0.00    -0.246 OA
BRANCH   3   5
ATOM      5  C   UNL A   1      33.819  21.955  24.608  1.00  0.00     0.102 A 
ATOM      6  C   UNL A   1      33.395  20.650  24.261  1.00  0.00     0.134 A 
ATOM      7  C   UNL A   1      32.449  20.494  23.235  1.00  0.00     0.047 A 
ATOM      8  C   UNL A   1      31.947  21.601  22.550  1.00  0.00     0.004 A 
ATOM      9  C   UNL A   1      33.257  23.061  23.951  1.00  0.00     0.019 A 
ATOM     10  C   UNL A   1      32.338  22.883  22.916  1.00  0.00     0.001 A 
BRANCH   6  11
ATOM     11  O   UNL A   1      33.833  19.570  24.983  1.00  0.00    -0.487 OA
BRANCH  11  12
ATOM     12  C   UNL A   1      32.845  18.702  25.578  1.00  0.00     0.290 C 
BRANCH  12  13
ATOM     13  C   UNL A   1      33.188  17.203  25.397  1.00  0.00     0.303 C 
BRANCH  13  14
ATOM     14  N   UNL A   1      34.390  16.876  24.628  1.00  0.00    -0.337 N 
ATOM     15  C   UNL A   1      35.158  15.830  25.307  1.00  0.00     0.332 C 
ATOM     16  C   UNL A   1      34.043  16.608  23.232  1.00  0.00     0.332 C 
ATOM     17  H   UNL A   1      35.023  17.674  24.587  1.00  0.00     0.347 HD
ENDBRANCH  13  14
ENDBRANCH  12  13
ENDBRANCH  11  12
ENDBRANCH   6  11
ENDBRANCH   3   5
ENDBRANCH   2   3
ENDBRANCH   1   2
BRANCH   1  18
ATOM     18  C   UNL A   1      37.598  21.121  24.992  1.00  0.00     0.275 C 
BRANCH  18  19
ATOM     19  O   UNL A   1      38.206  21.767  26.120  1.00  0.00    -0.458 OA
BRANCH  19  20
ATOM     20  C   UNL A   1      39.436  21.301  26.438  1.00  0.00     0.338 C 
ATOM     21  O   UNL A   1      39.918  20.205  26.204  1.00  0.00    -0.246 OA
BRANCH  20  22
ATOM     22  C   UNL A   1      40.213  22.500  26.765  1.00  0.00     0.060 A 
ATOM     23  C   UNL A   1      39.823  23.685  26.133  1.00  0.00     0.016 A 
ATOM     24  C   UNL A   1      41.180  22.496  27.768  1.00  0.00     0.016 A 
ATOM     25  C   UNL A   1      40.374  24.893  26.528  1.00  0.00     0.010 A 
ATOM     26  C   UNL A   1      41.751  23.707  28.149  1.00  0.00     0.010 A 
ATOM     27  C   UNL A   1      41.347  24.905  27.531  1.00  0.00    -0.014 A 
BRANCH  27  28
ATOM     28  C   UNL A   1      42.076  26.155  27.817  1.00  0.00     0.031 A 
ATOM     29  C   UNL A   1      41.363  27.201  28.615  1.00  0.00     0.074 A 
ATOM     30  C   UNL A   1      43.334  26.337  27.384  1.00  0.00     0.049 A 
ATOM     31  N   UNL A   1      41.699  28.440  28.851  1.00  0.00    -0.248 NA
ATOM     32  C   UNL A   1      40.085  26.791  29.221  1.00  0.00     0.031 C 
ATOM     33  C   UNL A   1      44.140  25.343  26.676  1.00  0.00     0.029 A 
ATOM     34  N   UNL A   1      44.149  27.436  27.468  1.00  0.00    -0.354 N 
ATOM     35  C   UNL A   1      40.658  28.969  29.599  1.00  0.00     0.074 A 
ATOM     36  C   UNL A   1      39.673  27.924  29.768  1.00  0.00     0.031 C 
ATOM     37  C   UNL A   1      45.332  25.886  26.374  1.00  0.00     0.029 A 
ATOM     38  C   UNL A   1      45.346  27.279  26.815  1.00  0.00     0.049 A 
ATOM     39  H   UNL A   1      43.900  28.258  27.950  1.00  0.00     0.167 HD
ATOM     40  C   UNL A   1      40.542  30.221  30.094  1.00  0.00     0.037 A 
ATOM     41  C   UNL A   1      46.314  28.181  26.567  1.00  0.00     0.037 A 
ATOM     42  C   UNL A   1      41.543  31.238  29.918  1.00  0.00     0.049 A 
ATOM     43  C   UNL A   1      46.126  29.594  27.061  1.00  0.00     0.074 A 
ATOM     44  C   UNL A   1      41.536  32.545  30.367  1.00  0.00     0.029 A 
ATOM     45  N   UNL A   1      42.735  31.054  29.229  1.00  0.00    -0.354 N 
ATOM     46  N   UNL A   1      45.130  30.107  27.745  1.00  0.00    -0.248 NA
ATOM     47  C   UNL A   1      47.190  30.554  26.744  1.00  0.00     0.031 C 
ATOM     48  C   UNL A   1      42.700  33.168  29.904  1.00  0.00     0.029 A 
ATOM     49  C   UNL A   1      43.465  32.230  29.225  1.00  0.00     0.049 A 
ATOM     50  H   UNL A   1      43.020  30.212  28.808  1.00  0.00     0.167 HD
ATOM     51  C   UNL A   1      45.462  31.437  27.968  1.00  0.00     0.074 A 
ATOM     52  C   UNL A   1      46.758  31.647  27.355  1.00  0.00     0.031 C 
ATOM     53  C   UNL A   1      44.762  32.401  28.618  1.00  0.00     0.037 A 
BRANCH  40  54
ATOM     54  C   UNL A   1      39.273  30.562  30.817  1.00  0.00     0.064 A 
ATOM     55  C   UNL A   1      39.143  30.415  32.207  1.00  0.00     0.173 A 
ATOM     56  C   UNL A   1      38.162  31.039  30.104  1.00  0.00     0.173 A 
ATOM     57  F   UNL A   1      40.166  29.940  32.934  1.00  0.00    -0.203 F 
ATOM     58  C   UNL A   1      37.942  30.704  32.849  1.00  0.00     0.198 A 
ATOM     59  C   UNL A   1      36.974  31.359  30.753  1.00  0.00     0.198 A 
ATOM     60  F   UNL A   1      38.228  31.193  28.772  1.00  0.00    -0.203 F 
ATOM     61  F   UNL A   1      37.823  30.497  34.168  1.00  0.00    -0.200 F 
ATOM     62  C   UNL A   1      36.861  31.182  32.124  1.00  0.00     0.200 A 
ATOM     63  F   UNL A   1      35.934  31.830  30.051  1.00  0.00    -0.200 F 
ATOM     64  F   UNL A   1      35.706  31.463  32.744  1.00  0.00    -0.200 F 
ENDBRANCH  40  54
BRANCH  41  65
ATOM     65  C   UNL A   1      47.521  27.794  25.789  1.00  0.00     0.064 A 
ATOM     66  C   UNL A   1      47.509  27.790  24.387  1.00  0.00     0.173 A 
ATOM     67  C   UNL A   1      48.708  27.401  26.429  1.00  0.00     0.173 A 
ATOM     68  F   UNL A   1      46.392  28.133  23.728  1.00  0.00    -0.203 F 
ATOM     69  C   UNL A   1      48.627  27.390  23.657  1.00  0.00     0.198 A 
ATOM     70  C   UNL A   1      49.835  27.032  25.697  1.00  0.00     0.198 A 
ATOM     71  F   UNL A   1      48.774  27.380  27.768  1.00  0.00    -0.203 F 
ATOM     72  F   UNL A   1      48.568  27.346  22.318  1.00  0.00    -0.200 F 
ATOM     73  C   UNL A   1      49.791  27.018  24.311  1.00  0.00     0.200 A 
ATOM     74  F   UNL A   1      50.961  26.685  26.335  1.00  0.00    -0.200 F 
ATOM     75  F   UNL A   1      50.866  26.635  23.608  1.00  0.00    -0.200 F 
ENDBRANCH  41  65
BRANCH  53  76
ATOM     76  C   UNL A   1      45.409  33.749  28.751  1.00  0.00     0.064 A 
ATOM     77  C   UNL A   1      46.274  34.055  29.811  1.00  0.00     0.173 A 
ATOM     78  C   UNL A   1      45.195  34.732  27.771  1.00  0.00     0.173 A 
ATOM     79  F   UNL A   1      46.501  33.155  30.780  1.00  0.00    -0.203 F 
ATOM     80  C   UNL A   1      46.879  35.306  29.900  1.00  0.00     0.198 A 
ATOM     81  C   UNL A   1      45.831  35.966  27.844  1.00  0.00     0.198 A 
ATOM     82  F   UNL A   1      44.383  34.485  26.732  1.00  0.00    -0.203 F 
ATOM     83  F   UNL A   1      47.662  35.595  30.949  1.00  0.00    -0.200 F 
ATOM     84  C   UNL A   1      46.666  36.256  28.912  1.00  0.00     0.200 A 
ATOM     85  F   UNL A   1      45.636  36.876  26.879  1.00  0.00    -0.200 F 
ATOM     86  F   UNL A   1      47.259  37.455  28.994  1.00  0.00    -0.200 F 
ENDBRANCH  53  76
ENDBRANCH  27  28
ENDBRANCH  20  22
ENDBRANCH  19  20
ENDBRANCH  18  19
ENDBRANCH   1  18
TORSDOF 15
ENDMDL
