MODEL 1
REMARK VINA RESULT:     -11.4      0.000      0.000
REMARK SMILES CC[C@@](C)([NH3+])C(=O)N1CC[NH+]([C@H](C)C(=O)OCCOC(=O)c2ccc(-c3c4nc(c(-c5c(F)c(F)c(F)c(F)c5F)c5ccc([nH]5)c(-c5c(F)c(F)c(F)c(F)c5F)c5nc(c(-c6c(F)c(F)c(F)c(F)c6F)c6ccc3[nH]6)C=C5)C=C4)cc2)CC1
REMARK SMILES IDX 17 1 16 2 14 3 15 4 12 5 13 6 11 7 6 8 7 9 8 10 9 11 86 12
REMARK SMILES IDX 10 13 85 14 3 16 4 17 2 18 1 19 5 20 18 24 19 25 20 26 21 27
REMARK SMILES IDX 22 28 23 29 84 30 24 31 83 32 25 33 26 34 27 35 77 36 28 37
REMARK SMILES IDX 82 38 76 39 78 40 29 41 81 42 75 43 74 44 30 46 62 47 42 48
REMARK SMILES IDX 61 49 43 50 46 51 60 52 79 53 44 54 45 55 59 57 80 58 47 59
REMARK SMILES IDX 31 60 32 61 40 62 33 63 34 64 38 65 41 66 35 67 36 68 39 69
REMARK SMILES IDX 37 70 63 71 64 72 72 73 65 74 66 75 70 76 73 77 67 78 68 79
REMARK SMILES IDX 71 80 69 81 48 82 49 83 57 84 50 85 51 86 55 87 58 88 52 89
REMARK SMILES IDX 53 90 56 91 54 92
REMARK H PARENT 11 15 5 21 5 22 5 23 78 45 46 56
REMARK Flexibility Score: inf
ROOT
ATOM      1  C   UNL A   1      31.452  28.911  24.942  1.00  0.00     0.274 C 
ENDROOT
BRANCH   1   2
ATOM      2  O   UNL A   1      32.235  27.791  25.395  1.00  0.00    -0.458 OA
BRANCH   2   3
ATOM      3  C   UNL A   1      31.585  26.871  26.161  1.00  0.00     0.364 C 
ATOM      4  O   UNL A   1      31.052  27.118  27.238  1.00  0.00    -0.245 OA
BRANCH   3   5
ATOM      5  C   UNL A   1      31.596  25.463  25.531  1.00  0.00     0.292 C 
ATOM      6  C   UNL A   1      31.519  25.476  23.998  1.00  0.00     0.088 C 
BRANCH   5   7
ATOM      7  N   UNL A   1      32.686  24.654  26.125  1.00  0.00    -0.321 N 
ATOM      8  C   UNL A   1      34.610  21.028  25.742  1.00  0.00     0.283 C 
ATOM      9  O   UNL A   1      35.786  20.872  25.389  1.00  0.00    -0.268 OA
ATOM     10  N   UNL A   1      34.236  22.240  26.290  1.00  0.00    -0.326 N 
ATOM     11  C   UNL A   1      34.868  23.458  25.797  1.00  0.00     0.181 C 
ATOM     12  C   UNL A   1      33.243  22.500  27.325  1.00  0.00     0.181 C 
ATOM     13  C   UNL A   1      33.776  24.350  25.175  1.00  0.00     0.284 C 
ATOM     14  C   UNL A   1      32.154  23.453  26.808  1.00  0.00     0.284 C 
ATOM     15  H   UNL A   1      33.125  25.232  26.842  1.00  0.00     0.348 HD
BRANCH   8  16
ATOM     16  C   UNL A   1      33.510  19.972  25.338  1.00  0.00     0.171 C 
ATOM     17  C   UNL A   1      32.364  20.693  24.607  1.00  0.00     0.090 C 
BRANCH  16  18
ATOM     18  C   UNL A   1      34.134  18.879  24.422  1.00  0.00     0.075 C 
ATOM     19  C   UNL A   1      33.798  17.433  24.783  1.00  0.00     0.011 C 
ENDBRANCH  16  18
BRANCH  16  20
ATOM     20  N   UNL A   1      32.961  19.270  26.525  1.00  0.00    -0.345 N 
ATOM     21  H   UNL A   1      33.284  18.302  26.527  1.00  0.00     0.345 HD
ATOM     22  H   UNL A   1      31.941  19.287  26.489  1.00  0.00     0.345 HD
ATOM     23  H   UNL A   1      33.279  19.738  27.373  1.00  0.00     0.345 HD
ENDBRANCH  16  20
ENDBRANCH   8  16
ENDBRANCH   5   7
ENDBRANCH   3   5
ENDBRANCH   2   3
ENDBRANCH   1   2
BRANCH   1  24
ATOM     24  C   UNL A   1      31.765  30.178  25.745  1.00  0.00     0.275 C 
BRANCH  24  25
ATOM     25  O   UNL A   1      33.145  30.225  26.155  1.00  0.00    -0.458 OA
BRANCH  25  26
ATOM     26  C   UNL A   1      33.462  31.245  26.986  1.00  0.00     0.338 C 
ATOM     27  O   UNL A   1      32.766  32.199  27.286  1.00  0.00    -0.246 OA
BRANCH  26  28
ATOM     28  C   UNL A   1      34.757  30.982  27.629  1.00  0.00     0.060 A 
ATOM     29  C   UNL A   1      35.021  29.679  28.058  1.00  0.00     0.016 A 
ATOM     30  C   UNL A   1      35.663  32.010  27.890  1.00  0.00     0.016 A 
ATOM     31  C   UNL A   1      36.191  29.388  28.750  1.00  0.00     0.010 A 
ATOM     32  C   UNL A   1      36.838  31.720  28.590  1.00  0.00     0.010 A 
ATOM     33  C   UNL A   1      37.102  30.410  29.030  1.00  0.00    -0.014 A 
BRANCH  33  34
ATOM     34  C   UNL A   1      38.301  30.110  29.843  1.00  0.00     0.031 A 
ATOM     35  C   UNL A   1      39.372  29.224  29.280  1.00  0.00     0.074 A 
ATOM     36  C   UNL A   1      38.440  30.661  31.061  1.00  0.00     0.049 A 
ATOM     37  N   UNL A   1      40.448  28.757  29.858  1.00  0.00    -0.248 NA
ATOM     38  C   UNL A   1      39.210  28.809  27.878  1.00  0.00     0.031 C 
ATOM     39  C   UNL A   1      37.494  31.590  31.679  1.00  0.00     0.029 A 
ATOM     40  N   UNL A   1      39.429  30.514  32.000  1.00  0.00    -0.354 N 
ATOM     41  C   UNL A   1      41.077  27.973  28.901  1.00  0.00     0.074 A 
ATOM     42  C   UNL A   1      40.261  28.021  27.706  1.00  0.00     0.031 C 
ATOM     43  C   UNL A   1      37.947  31.928  32.897  1.00  0.00     0.029 A 
ATOM     44  C   UNL A   1      39.185  31.199  33.162  1.00  0.00     0.049 A 
ATOM     45  H   UNL A   1      40.236  29.969  31.852  1.00  0.00     0.167 HD
ATOM     46  C   UNL A   1      42.232  27.275  29.016  1.00  0.00     0.037 A 
ATOM     47  C   UNL A   1      39.868  31.210  34.323  1.00  0.00     0.037 A 
ATOM     48  C   UNL A   1      43.045  27.247  30.203  1.00  0.00     0.049 A 
ATOM     49  C   UNL A   1      41.116  30.378  34.444  1.00  0.00     0.074 A 
ATOM     50  C   UNL A   1      44.233  26.573  30.422  1.00  0.00     0.029 A 
ATOM     51  N   UNL A   1      42.750  27.930  31.375  1.00  0.00    -0.354 N 
ATOM     52  N   UNL A   1      41.694  29.618  33.545  1.00  0.00    -0.248 NA
ATOM     53  C   UNL A   1      41.802  30.398  35.743  1.00  0.00     0.031 C 
ATOM     54  C   UNL A   1      44.640  26.819  31.738  1.00  0.00     0.029 A 
ATOM     55  C   UNL A   1      43.726  27.680  32.326  1.00  0.00     0.049 A 
ATOM     56  H   UNL A   1      41.964  28.506  31.510  1.00  0.00     0.167 HD
ATOM     57  C   UNL A   1      42.818  29.086  34.160  1.00  0.00     0.074 A 
ATOM     58  C   UNL A   1      42.849  29.620  35.507  1.00  0.00     0.031 C 
ATOM     59  C   UNL A   1      43.740  28.229  33.657  1.00  0.00     0.037 A 
BRANCH  46  60
ATOM     60  C   UNL A   1      42.664  26.456  27.838  1.00  0.00     0.064 A 
ATOM     61  C   UNL A   1      43.526  26.967  26.858  1.00  0.00     0.173 A 
ATOM     62  C   UNL A   1      42.230  25.128  27.704  1.00  0.00     0.173 A 
ATOM     63  F   UNL A   1      43.955  28.236  26.932  1.00  0.00    -0.203 F 
ATOM     64  C   UNL A   1      43.921  26.187  25.774  1.00  0.00     0.198 A 
ATOM     65  C   UNL A   1      42.645  24.343  26.633  1.00  0.00     0.198 A 
ATOM     66  F   UNL A   1      41.404  24.592  28.615  1.00  0.00    -0.203 F 
ATOM     67  F   UNL A   1      44.714  26.708  24.827  1.00  0.00    -0.200 F 
ATOM     68  C   UNL A   1      43.486  24.873  25.666  1.00  0.00     0.200 A 
ATOM     69  F   UNL A   1      42.230  23.072  26.534  1.00  0.00    -0.200 F 
ATOM     70  F   UNL A   1      43.871  24.122  24.626  1.00  0.00    -0.200 F 
ENDBRANCH  46  60
BRANCH  47  71
ATOM     71  C   UNL A   1      39.368  32.012  35.468  1.00  0.00     0.064 A 
ATOM     72  C   UNL A   1      38.507  31.451  36.421  1.00  0.00     0.173 A 
ATOM     73  C   UNL A   1      39.740  33.354  35.632  1.00  0.00     0.173 A 
ATOM     74  F   UNL A   1      38.103  30.178  36.291  1.00  0.00    -0.203 F 
ATOM     75  C   UNL A   1      38.029  32.206  37.490  1.00  0.00     0.198 A 
ATOM     76  C   UNL A   1      39.283  34.100  36.716  1.00  0.00     0.198 A 
ATOM     77  F   UNL A   1      40.559  33.938  34.745  1.00  0.00    -0.203 F 
ATOM     78  F   UNL A   1      37.176  31.658  38.366  1.00  0.00    -0.200 F 
ATOM     79  C   UNL A   1      38.422  33.527  37.641  1.00  0.00     0.200 A 
ATOM     80  F   UNL A   1      39.674  35.374  36.863  1.00  0.00    -0.200 F 
ATOM     81  F   UNL A   1      37.967  34.251  38.671  1.00  0.00    -0.200 F 
ENDBRANCH  47  71
BRANCH  59  82
ATOM     82  C   UNL A   1      44.876  27.844  34.557  1.00  0.00     0.064 A 
ATOM     83  C   UNL A   1      44.814  26.702  35.367  1.00  0.00     0.173 A 
ATOM     84  C   UNL A   1      46.055  28.603  34.574  1.00  0.00     0.173 A 
ATOM     85  F   UNL A   1      43.701  25.954  35.396  1.00  0.00    -0.203 F 
ATOM     86  C   UNL A   1      45.887  26.345  36.180  1.00  0.00     0.198 A 
ATOM     87  C   UNL A   1      47.135  28.230  35.368  1.00  0.00     0.198 A 
ATOM     88  F   UNL A   1      46.164  29.701  33.810  1.00  0.00    -0.203 F 
ATOM     89  F   UNL A   1      45.793  25.272  36.976  1.00  0.00    -0.200 F 
ATOM     90  C   UNL A   1      47.048  27.105  36.174  1.00  0.00     0.200 A 
ATOM     91  F   UNL A   1      48.259  28.958  35.355  1.00  0.00    -0.200 F 
ATOM     92  F   UNL A   1      48.081  26.756  36.952  1.00  0.00    -0.200 F 
ENDBRANCH  59  82
ENDBRANCH  33  34
ENDBRANCH  26  28
ENDBRANCH  25  26
ENDBRANCH  24  25
ENDBRANCH   1  24
TORSDOF 15
ENDMDL
MODEL 2
REMARK VINA RESULT:     -11.3      1.082      2.614
REMARK SMILES CC[C@@](C)([NH3+])C(=O)N1CC[NH+]([C@H](C)C(=O)OCCOC(=O)c2ccc(-c3c4nc(c(-c5c(F)c(F)c(F)c(F)c5F)c5ccc([nH]5)c(-c5c(F)c(F)c(F)c(F)c5F)c5nc(c(-c6c(F)c(F)c(F)c(F)c6F)c6ccc3[nH]6)C=C5)C=C4)cc2)CC1
REMARK SMILES IDX 17 1 16 2 14 3 15 4 12 5 13 6 11 7 6 8 7 9 8 10 9 11 86 12
REMARK SMILES IDX 10 13 85 14 3 16 4 17 2 18 1 19 5 20 18 24 19 25 20 26 21 27
REMARK SMILES IDX 22 28 23 29 84 30 24 31 83 32 25 33 26 34 27 35 77 36 28 37
REMARK SMILES IDX 82 38 76 39 78 40 29 41 81 42 75 43 74 44 30 46 62 47 42 48
REMARK SMILES IDX 61 49 43 50 46 51 60 52 79 53 44 54 45 55 59 57 80 58 47 59
REMARK SMILES IDX 31 60 32 61 40 62 33 63 34 64 38 65 41 66 35 67 36 68 39 69
REMARK SMILES IDX 37 70 63 71 64 72 72 73 65 74 66 75 70 76 73 77 67 78 68 79
REMARK SMILES IDX 71 80 69 81 48 82 49 83 57 84 50 85 51 86 55 87 58 88 52 89
REMARK SMILES IDX 53 90 56 91 54 92
REMARK H PARENT 11 15 5 21 5 22 5 23 78 45 46 56
REMARK Flexibility Score: inf
ROOT
ATOM      1  C   UNL A   1      31.037  29.785  24.775  1.00  0.00     0.274 C 
ENDROOT
BRANCH   1   2
ATOM      2  O   UNL A   1      31.814  29.262  23.681  1.00  0.00    -0.458 OA
BRANCH   2   3
ATOM      3  C   UNL A   1      31.306  28.167  23.049  1.00  0.00     0.364 C 
ATOM      4  O   UNL A   1      30.204  28.126  22.512  1.00  0.00    -0.245 OA
BRANCH   3   5
ATOM      5  C   UNL A   1      32.269  26.963  23.086  1.00  0.00     0.292 C 
ATOM      6  C   UNL A   1      33.698  27.332  23.507  1.00  0.00     0.088 C 
BRANCH   5   7
ATOM      7  N   UNL A   1      31.641  25.838  23.817  1.00  0.00    -0.321 N 
ATOM      8  C   UNL A   1      32.447  22.970  26.667  1.00  0.00     0.283 C 
ATOM      9  O   UNL A   1      31.946  22.919  27.797  1.00  0.00    -0.268 OA
ATOM     10  N   UNL A   1      31.769  23.645  25.669  1.00  0.00    -0.326 N 
ATOM     11  C   UNL A   1      30.998  24.830  26.024  1.00  0.00     0.181 C 
ATOM     12  C   UNL A   1      31.722  23.348  24.244  1.00  0.00     0.181 C 
ATOM     13  C   UNL A   1      31.601  26.039  25.280  1.00  0.00     0.284 C 
ATOM     14  C   UNL A   1      32.234  24.540  23.421  1.00  0.00     0.284 C 
ATOM     15  H   UNL A   1      30.661  25.814  23.535  1.00  0.00     0.348 HD
BRANCH   8  16
ATOM     16  C   UNL A   1      33.937  22.506  26.433  1.00  0.00     0.171 C 
ATOM     17  C   UNL A   1      33.957  21.391  25.373  1.00  0.00     0.090 C 
BRANCH  16  18
ATOM     18  C   UNL A   1      34.801  23.713  25.963  1.00  0.00     0.075 C 
ATOM     19  C   UNL A   1      35.622  23.493  24.693  1.00  0.00     0.011 C 
ENDBRANCH  16  18
BRANCH  16  20
ATOM     20  N   UNL A   1      34.557  21.998  27.682  1.00  0.00    -0.345 N 
ATOM     21  H   UNL A   1      34.189  21.070  27.891  1.00  0.00     0.345 HD
ATOM     22  H   UNL A   1      34.338  22.632  28.451  1.00  0.00     0.345 HD
ATOM     23  H   UNL A   1      35.568  21.945  27.562  1.00  0.00     0.345 HD
ENDBRANCH  16  20
ENDBRANCH   8  16
ENDBRANCH   5   7
ENDBRANCH   3   5
ENDBRANCH   2   3
ENDBRANCH   1   2
BRANCH   1  24
ATOM     24  C   UNL A   1      31.789  29.668  26.105  1.00  0.00     0.275 C 
BRANCH  24  25
ATOM     25  O   UNL A   1      33.108  30.242  26.027  1.00  0.00    -0.458 OA
BRANCH  25  26
ATOM     26  C   UNL A   1      33.368  31.206  26.940  1.00  0.00     0.338 C 
ATOM     27  O   UNL A   1      32.626  32.102  27.303  1.00  0.00    -0.246 OA
BRANCH  26  28
ATOM     28  C   UNL A   1      34.666  30.951  27.580  1.00  0.00     0.060 A 
ATOM     29  C   UNL A   1      34.948  29.646  27.990  1.00  0.00     0.016 A 
ATOM     30  C   UNL A   1      35.558  31.988  27.857  1.00  0.00     0.016 A 
ATOM     31  C   UNL A   1      36.121  29.361  28.678  1.00  0.00     0.010 A 
ATOM     32  C   UNL A   1      36.736  31.703  28.554  1.00  0.00     0.010 A 
ATOM     33  C   UNL A   1      37.017  30.391  28.975  1.00  0.00    -0.014 A 
BRANCH  33  34
ATOM     34  C   UNL A   1      38.220  30.095  29.784  1.00  0.00     0.031 A 
ATOM     35  C   UNL A   1      39.286  29.201  29.224  1.00  0.00     0.074 A 
ATOM     36  C   UNL A   1      38.367  30.656  30.997  1.00  0.00     0.049 A 
ATOM     37  N   UNL A   1      40.363  28.736  29.800  1.00  0.00    -0.248 NA
ATOM     38  C   UNL A   1      39.115  28.774  27.827  1.00  0.00     0.031 C 
ATOM     39  C   UNL A   1      37.427  31.594  31.611  1.00  0.00     0.029 A 
ATOM     40  N   UNL A   1      39.361  30.516  31.931  1.00  0.00    -0.354 N 
ATOM     41  C   UNL A   1      40.986  27.942  28.848  1.00  0.00     0.074 A 
ATOM     42  C   UNL A   1      40.163  27.981  27.657  1.00  0.00     0.031 C 
ATOM     43  C   UNL A   1      37.887  31.941  32.824  1.00  0.00     0.029 A 
ATOM     44  C   UNL A   1      39.125  31.212  33.089  1.00  0.00     0.049 A 
ATOM     45  H   UNL A   1      40.165  29.968  31.785  1.00  0.00     0.167 HD
ATOM     46  C   UNL A   1      42.139  27.242  28.963  1.00  0.00     0.037 A 
ATOM     47  C   UNL A   1      39.814  31.232  34.245  1.00  0.00     0.037 A 
ATOM     48  C   UNL A   1      42.959  27.223  30.146  1.00  0.00     0.049 A 
ATOM     49  C   UNL A   1      41.060  30.398  34.367  1.00  0.00     0.074 A 
ATOM     50  C   UNL A   1      44.146  26.547  30.365  1.00  0.00     0.029 A 
ATOM     51  N   UNL A   1      42.672  27.917  31.313  1.00  0.00    -0.354 N 
ATOM     52  N   UNL A   1      41.631  29.628  33.473  1.00  0.00    -0.248 NA
ATOM     53  C   UNL A   1      41.753  30.428  35.663  1.00  0.00     0.031 C 
ATOM     54  C   UNL A   1      44.560  26.804  31.676  1.00  0.00     0.029 A 
ATOM     55  C   UNL A   1      43.652  27.674  32.261  1.00  0.00     0.049 A 
ATOM     56  H   UNL A   1      41.887  28.497  31.447  1.00  0.00     0.167 HD
ATOM     57  C   UNL A   1      42.757  29.098  34.087  1.00  0.00     0.074 A 
ATOM     58  C   UNL A   1      42.796  29.645  35.428  1.00  0.00     0.031 C 
ATOM     59  C   UNL A   1      43.674  28.234  33.587  1.00  0.00     0.037 A 
BRANCH  46  60
ATOM     60  C   UNL A   1      42.563  26.411  27.790  1.00  0.00     0.064 A 
ATOM     61  C   UNL A   1      42.066  25.117  27.582  1.00  0.00     0.173 A 
ATOM     62  C   UNL A   1      43.461  26.930  26.844  1.00  0.00     0.173 A 
ATOM     63  F   UNL A   1      41.220  24.569  28.468  1.00  0.00    -0.203 F 
ATOM     64  C   UNL A   1      42.468  24.364  26.482  1.00  0.00     0.198 A 
ATOM     65  C   UNL A   1      43.842  26.185  25.733  1.00  0.00     0.198 A 
ATOM     66  F   UNL A   1      43.965  28.164  26.997  1.00  0.00    -0.203 F 
ATOM     67  F   UNL A   1      42.012  23.113  26.324  1.00  0.00    -0.200 F 
ATOM     68  C   UNL A   1      43.349  24.900  25.554  1.00  0.00     0.200 A 
ATOM     69  F   UNL A   1      44.688  26.708  24.834  1.00  0.00    -0.200 F 
ATOM     70  F   UNL A   1      43.731  24.176  24.494  1.00  0.00    -0.200 F 
ENDBRANCH  46  60
BRANCH  47  71
ATOM     71  C   UNL A   1      39.321  32.045  35.386  1.00  0.00     0.064 A 
ATOM     72  C   UNL A   1      39.669  33.397  35.513  1.00  0.00     0.173 A 
ATOM     73  C   UNL A   1      38.493  31.487  36.370  1.00  0.00     0.173 A 
ATOM     74  F   UNL A   1      40.481  33.966  34.609  1.00  0.00    -0.203 F 
ATOM     75  C   UNL A   1      39.215  34.157  36.588  1.00  0.00     0.198 A 
ATOM     76  C   UNL A   1      38.018  32.256  37.432  1.00  0.00     0.198 A 
ATOM     77  F   UNL A   1      38.135  30.197  36.296  1.00  0.00    -0.203 F 
ATOM     78  F   UNL A   1      39.594  35.437  36.709  1.00  0.00    -0.200 F 
ATOM     79  C   UNL A   1      38.385  33.588  37.543  1.00  0.00     0.200 A 
ATOM     80  F   UNL A   1      37.208  31.704  38.346  1.00  0.00    -0.200 F 
ATOM     81  F   UNL A   1      37.945  34.321  38.574  1.00  0.00    -0.200 F 
ENDBRANCH  47  71
BRANCH  59  82
ATOM     82  C   UNL A   1      44.814  27.855  34.484  1.00  0.00     0.064 A 
ATOM     83  C   UNL A   1      45.987  28.619  34.542  1.00  0.00     0.173 A 
ATOM     84  C   UNL A   1      44.711  26.738  35.327  1.00  0.00     0.173 A 
ATOM     85  F   UNL A   1      46.137  29.687  33.744  1.00  0.00    -0.203 F 
ATOM     86  C   UNL A   1      47.027  28.267  35.398  1.00  0.00     0.198 A 
ATOM     87  C   UNL A   1      45.742  26.403  36.199  1.00  0.00     0.198 A 
ATOM     88  F   UNL A   1      43.604  25.979  35.312  1.00  0.00    -0.203 F 
ATOM     89  F   UNL A   1      48.156  28.988  35.410  1.00  0.00    -0.200 F 
ATOM     90  C   UNL A   1      46.900  27.163  36.230  1.00  0.00     0.200 A 
ATOM     91  F   UNL A   1      45.615  25.343  37.009  1.00  0.00    -0.200 F 
ATOM     92  F   UNL A   1      47.900  26.830  37.057  1.00  0.00    -0.200 F 
ENDBRANCH  59  82
ENDBRANCH  33  34
ENDBRANCH  26  28
ENDBRANCH  25  26
ENDBRANCH  24  25
ENDBRANCH   1  24
TORSDOF 15
ENDMDL
MODEL 3
REMARK VINA RESULT:     -11.3      0.940      1.914
REMARK SMILES CC[C@@](C)([NH3+])C(=O)N1CC[NH+]([C@H](C)C(=O)OCCOC(=O)c2ccc(-c3c4nc(c(-c5c(F)c(F)c(F)c(F)c5F)c5ccc([nH]5)c(-c5c(F)c(F)c(F)c(F)c5F)c5nc(c(-c6c(F)c(F)c(F)c(F)c6F)c6ccc3[nH]6)C=C5)C=C4)cc2)CC1
REMARK SMILES IDX 17 1 16 2 14 3 15 4 12 5 13 6 11 7 6 8 7 9 8 10 9 11 86 12
REMARK SMILES IDX 10 13 85 14 3 16 4 17 2 18 1 19 5 20 18 24 19 25 20 26 21 27
REMARK SMILES IDX 22 28 23 29 84 30 24 31 83 32 25 33 26 34 27 35 77 36 28 37
REMARK SMILES IDX 82 38 76 39 78 40 29 41 81 42 75 43 74 44 30 46 62 47 42 48
REMARK SMILES IDX 61 49 43 50 46 51 60 52 79 53 44 54 45 55 59 57 80 58 47 59
REMARK SMILES IDX 31 60 32 61 40 62 33 63 34 64 38 65 41 66 35 67 36 68 39 69
REMARK SMILES IDX 37 70 63 71 64 72 72 73 65 74 66 75 70 76 73 77 67 78 68 79
REMARK SMILES IDX 71 80 69 81 48 82 49 83 57 84 50 85 51 86 55 87 58 88 52 89
REMARK SMILES IDX 53 90 56 91 54 92
REMARK H PARENT 11 15 5 21 5 22 5 23 78 45 46 56
REMARK Flexibility Score: inf
ROOT
ATOM      1  C   UNL A   1      31.364  29.612  24.713  1.00  0.00     0.274 C 
ENDROOT
BRANCH   1   2
ATOM      2  O   UNL A   1      31.520  28.189  24.558  1.00  0.00    -0.458 OA
BRANCH   2   3
ATOM      3  C   UNL A   1      32.527  27.778  23.736  1.00  0.00     0.364 C 
ATOM      4  O   UNL A   1      32.690  28.176  22.588  1.00  0.00    -0.245 OA
BRANCH   3   5
ATOM      5  C   UNL A   1      33.448  26.738  24.406  1.00  0.00     0.292 C 
ATOM      6  C   UNL A   1      33.344  26.720  25.937  1.00  0.00     0.088 C 
BRANCH   5   7
ATOM      7  N   UNL A   1      33.308  25.429  23.725  1.00  0.00    -0.321 N 
ATOM      8  C   UNL A   1      33.017  21.389  24.493  1.00  0.00     0.283 C 
ATOM      9  O   UNL A   1      32.019  20.688  24.286  1.00  0.00    -0.268 OA
ATOM     10  N   UNL A   1      33.168  22.559  23.774  1.00  0.00    -0.326 N 
ATOM     11  C   UNL A   1      31.978  23.322  23.419  1.00  0.00     0.181 C 
ATOM     12  C   UNL A   1      34.399  23.187  23.310  1.00  0.00     0.181 C 
ATOM     13  C   UNL A   1      32.073  24.706  24.092  1.00  0.00     0.284 C 
ATOM     14  C   UNL A   1      34.532  24.609  23.876  1.00  0.00     0.284 C 
ATOM     15  H   UNL A   1      33.204  25.625  22.729  1.00  0.00     0.348 HD
BRANCH   8  16
ATOM     16  C   UNL A   1      33.958  21.094  25.725  1.00  0.00     0.171 C 
ATOM     17  C   UNL A   1      35.353  20.699  25.211  1.00  0.00     0.090 C 
BRANCH  16  18
ATOM     18  C   UNL A   1      34.053  22.355  26.633  1.00  0.00     0.075 C 
ATOM     19  C   UNL A   1      32.761  22.774  27.333  1.00  0.00     0.011 C 
ENDBRANCH  16  18
BRANCH  16  20
ATOM     20  N   UNL A   1      33.425  19.998  26.573  1.00  0.00    -0.345 N 
ATOM     21  H   UNL A   1      32.426  20.139  26.722  1.00  0.00     0.345 HD
ATOM     22  H   UNL A   1      33.906  20.002  27.473  1.00  0.00     0.345 HD
ATOM     23  H   UNL A   1      33.579  19.104  26.109  1.00  0.00     0.345 HD
ENDBRANCH  16  20
ENDBRANCH   8  16
ENDBRANCH   5   7
ENDBRANCH   3   5
ENDBRANCH   2   3
ENDBRANCH   1   2
BRANCH   1  24
ATOM     24  C   UNL A   1      31.735  30.067  26.129  1.00  0.00     0.275 C 
BRANCH  24  25
ATOM     25  O   UNL A   1      33.152  30.284  26.268  1.00  0.00    -0.458 OA
BRANCH  25  26
ATOM     26  C   UNL A   1      33.498  31.303  27.088  1.00  0.00     0.338 C 
ATOM     27  O   UNL A   1      32.823  32.271  27.392  1.00  0.00    -0.246 OA
BRANCH  26  28
ATOM     28  C   UNL A   1      34.797  31.020  27.716  1.00  0.00     0.060 A 
ATOM     29  C   UNL A   1      35.047  29.714  28.142  1.00  0.00     0.016 A 
ATOM     30  C   UNL A   1      35.721  32.035  27.966  1.00  0.00     0.016 A 
ATOM     31  C   UNL A   1      36.220  29.405  28.819  1.00  0.00     0.010 A 
ATOM     32  C   UNL A   1      36.899  31.727  28.651  1.00  0.00     0.010 A 
ATOM     33  C   UNL A   1      37.149  30.414  29.089  1.00  0.00    -0.014 A 
BRANCH  33  34
ATOM     34  C   UNL A   1      38.353  30.096  29.887  1.00  0.00     0.031 A 
ATOM     35  C   UNL A   1      39.396  29.180  29.318  1.00  0.00     0.074 A 
ATOM     36  C   UNL A   1      38.523  30.657  31.097  1.00  0.00     0.049 A 
ATOM     37  N   UNL A   1      40.470  28.695  29.885  1.00  0.00    -0.248 NA
ATOM     38  C   UNL A   1      39.204  28.754  27.924  1.00  0.00     0.031 C 
ATOM     39  C   UNL A   1      37.608  31.613  31.718  1.00  0.00     0.029 A 
ATOM     40  N   UNL A   1      39.523  30.498  32.022  1.00  0.00    -0.354 N 
ATOM     41  C   UNL A   1      41.067  27.887  28.928  1.00  0.00     0.074 A 
ATOM     42  C   UNL A   1      40.234  27.940  27.745  1.00  0.00     0.031 C 
ATOM     43  C   UNL A   1      38.087  31.954  32.926  1.00  0.00     0.029 A 
ATOM     44  C   UNL A   1      39.312  31.201  33.180  1.00  0.00     0.049 A 
ATOM     45  H   UNL A   1      40.316  29.934  31.869  1.00  0.00     0.167 HD
ATOM     46  C   UNL A   1      42.208  27.165  29.033  1.00  0.00     0.037 A 
ATOM     47  C   UNL A   1      40.013  31.209  34.330  1.00  0.00     0.037 A 
ATOM     48  C   UNL A   1      43.038  27.132  30.208  1.00  0.00     0.049 A 
ATOM     49  C   UNL A   1      41.243  30.351  34.442  1.00  0.00     0.074 A 
ATOM     50  C   UNL A   1      44.214  26.433  30.417  1.00  0.00     0.029 A 
ATOM     51  N   UNL A   1      42.776  27.833  31.377  1.00  0.00    -0.354 N 
ATOM     52  N   UNL A   1      41.790  29.569  33.543  1.00  0.00    -0.248 NA
ATOM     53  C   UNL A   1      41.949  30.370  35.730  1.00  0.00     0.031 C 
ATOM     54  C   UNL A   1      44.646  26.684  31.724  1.00  0.00     0.029 A 
ATOM     55  C   UNL A   1      43.760  27.572  32.316  1.00  0.00     0.049 A 
ATOM     56  H   UNL A   1      42.005  28.429  31.517  1.00  0.00     0.167 HD
ATOM     57  C   UNL A   1      42.911  29.018  34.147  1.00  0.00     0.074 A 
ATOM     58  C   UNL A   1      42.975  29.566  35.487  1.00  0.00     0.031 C 
ATOM     59  C   UNL A   1      43.807  28.135  33.641  1.00  0.00     0.037 A 
BRANCH  46  60
ATOM     60  C   UNL A   1      42.604  26.323  27.858  1.00  0.00     0.064 A 
ATOM     61  C   UNL A   1      42.100  25.028  27.672  1.00  0.00     0.173 A 
ATOM     62  C   UNL A   1      43.480  26.834  26.887  1.00  0.00     0.173 A 
ATOM     63  F   UNL A   1      41.273  24.489  28.581  1.00  0.00    -0.203 F 
ATOM     64  C   UNL A   1      42.476  24.265  26.570  1.00  0.00     0.198 A 
ATOM     65  C   UNL A   1      43.835  26.078  25.774  1.00  0.00     0.198 A 
ATOM     66  F   UNL A   1      43.989  28.067  27.020  1.00  0.00    -0.203 F 
ATOM     67  F   UNL A   1      42.014  23.014  26.433  1.00  0.00    -0.200 F 
ATOM     68  C   UNL A   1      43.337  24.793  25.618  1.00  0.00     0.200 A 
ATOM     69  F   UNL A   1      44.661  26.592  24.853  1.00  0.00    -0.200 F 
ATOM     70  F   UNL A   1      43.694  24.060  24.555  1.00  0.00    -0.200 F 
ENDBRANCH  46  60
BRANCH  47  71
ATOM     71  C   UNL A   1      39.547  32.034  35.474  1.00  0.00     0.064 A 
ATOM     72  C   UNL A   1      38.625  31.530  36.400  1.00  0.00     0.173 A 
ATOM     73  C   UNL A   1      40.017  33.342  35.663  1.00  0.00     0.173 A 
ATOM     74  F   UNL A   1      38.128  30.294  36.244  1.00  0.00    -0.203 F 
ATOM     75  C   UNL A   1      38.181  32.308  37.467  1.00  0.00     0.198 A 
ATOM     76  C   UNL A   1      39.592  34.110  36.746  1.00  0.00     0.198 A 
ATOM     77  F   UNL A   1      40.898  33.872  34.801  1.00  0.00    -0.203 F 
ATOM     78  F   UNL A   1      37.267  31.817  38.317  1.00  0.00    -0.200 F 
ATOM     79  C   UNL A   1      38.669  33.594  37.643  1.00  0.00     0.200 A 
ATOM     80  F   UNL A   1      40.074  35.348  36.917  1.00  0.00    -0.200 F 
ATOM     81  F   UNL A   1      38.245  34.340  38.672  1.00  0.00    -0.200 F 
ENDBRANCH  47  71
BRANCH  59  82
ATOM     82  C   UNL A   1      44.947  27.735  34.527  1.00  0.00     0.064 A 
ATOM     83  C   UNL A   1      44.872  26.604  35.352  1.00  0.00     0.173 A 
ATOM     84  C   UNL A   1      46.144  28.467  34.517  1.00  0.00     0.173 A 
ATOM     85  F   UNL A   1      43.742  25.882  35.407  1.00  0.00    -0.203 F 
ATOM     86  C   UNL A   1      45.949  26.232  36.153  1.00  0.00     0.198 A 
ATOM     87  C   UNL A   1      47.227  28.078  35.300  1.00  0.00     0.198 A 
ATOM     88  F   UNL A   1      46.266  29.553  33.738  1.00  0.00    -0.203 F 
ATOM     89  F   UNL A   1      45.842  25.171  36.964  1.00  0.00    -0.200 F 
ATOM     90  C   UNL A   1      47.126  26.965  36.120  1.00  0.00     0.200 A 
ATOM     91  F   UNL A   1      48.367  28.780  35.260  1.00  0.00    -0.200 F 
ATOM     92  F   UNL A   1      48.163  26.601  36.887  1.00  0.00    -0.200 F 
ENDBRANCH  59  82
ENDBRANCH  33  34
ENDBRANCH  26  28
ENDBRANCH  25  26
ENDBRANCH  24  25
ENDBRANCH   1  24
TORSDOF 15
ENDMDL
