MODEL 1
REMARK VINA RESULT:     -14.3      0.000      0.000
REMARK SMILES Cc1ccc(-c2cc3cccnc3n2CCC(=O)OCCOC(=O)c2ccc(-c3c4nc(c(-c5c(F)c(F)c(F)c(F)c5F)c5ccc([nH]5)c(-c5c(F)c(F)c(F)c(F)c5F)c5nc(c(-c6c(F)c(F)c(F)c(F)c6F)c6ccc3[nH]6)C=C5)C=C4)cc2)cn1
REMARK SMILES IDX 20 1 19 2 17 3 18 4 16 5 15 6 14 7 6 8 7 9 8 10 13 11 9 12
REMARK SMILES IDX 12 13 10 14 11 15 5 16 1 17 2 18 3 19 89 20 4 21 88 22 21 23
REMARK SMILES IDX 22 24 23 25 24 26 25 27 26 28 87 29 27 30 86 31 28 32 29 33
REMARK SMILES IDX 30 34 80 35 31 36 85 37 79 38 81 39 32 40 84 41 78 42 77 43
REMARK SMILES IDX 33 45 65 46 45 47 64 48 46 49 49 50 63 51 82 52 47 53 48 54
REMARK SMILES IDX 62 56 83 57 50 58 34 59 35 60 43 61 36 62 37 63 41 64 44 65
REMARK SMILES IDX 38 66 39 67 42 68 40 69 66 70 67 71 75 72 68 73 69 74 73 75
REMARK SMILES IDX 76 76 70 77 71 78 74 79 72 80 51 81 52 82 60 83 53 84 54 85
REMARK SMILES IDX 58 86 61 87 55 88 56 89 59 90 57 91
REMARK H PARENT 81 44 49 55
REMARK Flexibility Score: inf
ROOT
ATOM      1  C   UNL A   1      36.287  23.382  24.839  1.00  0.00     0.274 C 
ENDROOT
BRANCH   1   2
ATOM      2  O   UNL A   1      35.369  24.331  25.465  1.00  0.00    -0.462 OA
BRANCH   2   3
ATOM      3  C   UNL A   1      34.214  23.840  25.996  1.00  0.00     0.307 C 
ATOM      4  O   UNL A   1      33.296  24.554  26.387  1.00  0.00    -0.252 OA
BRANCH   3   5
ATOM      5  C   UNL A   1      34.088  22.312  25.985  1.00  0.00     0.144 C 
BRANCH   5   6
ATOM      6  C   UNL A   1      32.703  21.652  26.006  1.00  0.00     0.136 C 
BRANCH   6   7
ATOM      7  N   UNL A   1      32.400  20.933  24.792  1.00  0.00    -0.325 N 
ATOM      8  C   UNL A   1      32.154  21.492  23.561  1.00  0.00     0.052 A 
ATOM      9  C   UNL A   1      32.249  20.462  22.636  1.00  0.00     0.039 A 
ATOM     10  C   UNL A   1      32.499  19.259  23.323  1.00  0.00     0.020 A 
ATOM     11  C   UNL A   1      32.500  19.566  24.677  1.00  0.00     0.140 A 
ATOM     12  C   UNL A   1      32.760  17.938  22.943  1.00  0.00     0.013 A 
ATOM     13  N   UNL A   1      32.662  18.701  25.698  1.00  0.00    -0.238 NA
ATOM     14  C   UNL A   1      32.927  17.004  23.960  1.00  0.00     0.021 A 
ATOM     15  C   UNL A   1      32.842  17.426  25.282  1.00  0.00     0.113 A 
BRANCH   8  16
ATOM     16  C   UNL A   1      32.067  22.912  23.233  1.00  0.00     0.017 A 
ATOM     17  C   UNL A   1      32.627  27.874  22.352  1.00  0.00     0.066 C 
ATOM     18  C   UNL A   1      32.429  26.426  22.668  1.00  0.00     0.037 A 
ATOM     19  C   UNL A   1      30.930  25.844  23.439  1.00  0.00     0.024 A 
ATOM     20  N   UNL A   1      33.712  25.334  22.196  1.00  0.00    -0.261 NA
ATOM     21  C   UNL A   1      30.711  24.068  23.676  1.00  0.00     0.014 A 
ATOM     22  C   UNL A   1      33.535  23.604  22.446  1.00  0.00     0.121 A 
ENDBRANCH   8  16
ENDBRANCH   6   7
ENDBRANCH   5   6
ENDBRANCH   3   5
ENDBRANCH   2   3
ENDBRANCH   1   2
BRANCH   1  23
ATOM     23  C   UNL A   1      37.812  23.078  25.544  1.00  0.00     0.275 C 
BRANCH  23  24
ATOM     24  O   UNL A   1      38.667  21.303  25.947  1.00  0.00    -0.458 OA
BRANCH  24  25
ATOM     25  C   UNL A   1      39.644  20.290  25.944  1.00  0.00     0.338 C 
ATOM     26  O   UNL A   1      39.616  19.173  25.439  1.00  0.00    -0.246 OA
BRANCH  25  27
ATOM     27  C   UNL A   1      40.915  20.787  26.429  1.00  0.00     0.060 A 
ATOM     28  C   UNL A   1      41.132  20.671  27.812  1.00  0.00     0.016 A 
ATOM     29  C   UNL A   1      41.477  21.768  25.626  1.00  0.00     0.016 A 
ATOM     30  C   UNL A   1      41.701  21.742  28.447  1.00  0.00     0.010 A 
ATOM     31  C   UNL A   1      42.065  22.820  26.256  1.00  0.00     0.010 A 
ATOM     32  C   UNL A   1      42.037  22.838  27.653  1.00  0.00    -0.014 A 
BRANCH  32  33
ATOM     33  C   UNL A   1      42.266  24.106  28.295  1.00  0.00     0.031 A 
ATOM     34  C   UNL A   1      41.158  25.057  28.119  1.00  0.00     0.074 A 
ATOM     35  C   UNL A   1      43.317  24.246  29.125  1.00  0.00     0.049 A 
ATOM     36  N   UNL A   1      41.200  26.253  27.639  1.00  0.00    -0.248 NA
ATOM     37  C   UNL A   1      39.798  24.556  28.388  1.00  0.00     0.031 C 
ATOM     38  C   UNL A   1      44.266  23.213  29.566  1.00  0.00     0.029 A 
ATOM     39  N   UNL A   1      43.666  25.317  29.878  1.00  0.00    -0.354 N 
ATOM     40  C   UNL A   1      39.894  26.718  27.716  1.00  0.00     0.074 A 
ATOM     41  C   UNL A   1      39.054  25.587  28.001  1.00  0.00     0.031 C 
ATOM     42  C   UNL A   1      44.910  23.648  30.671  1.00  0.00     0.029 A 
ATOM     43  C   UNL A   1      44.500  25.014  30.943  1.00  0.00     0.049 A 
ATOM     44  H   UNL A   1      43.354  26.231  29.685  1.00  0.00     0.167 HD
ATOM     45  C   UNL A   1      39.625  28.045  27.808  1.00  0.00     0.037 A 
ATOM     46  C   UNL A   1      44.732  25.812  32.014  1.00  0.00     0.037 A 
ATOM     47  C   UNL A   1      40.729  28.846  27.363  1.00  0.00     0.049 A 
ATOM     48  C   UNL A   1      44.275  27.181  31.648  1.00  0.00     0.074 A 
ATOM     49  C   UNL A   1      41.403  28.962  26.162  1.00  0.00     0.029 A 
ATOM     50  N   UNL A   1      41.547  29.409  28.312  1.00  0.00    -0.354 N 
ATOM     51  N   UNL A   1      44.859  27.941  30.764  1.00  0.00    -0.248 NA
ATOM     52  C   UNL A   1      42.896  27.540  31.958  1.00  0.00     0.031 C 
ATOM     53  C   UNL A   1      42.766  29.177  26.515  1.00  0.00     0.029 A 
ATOM     54  C   UNL A   1      42.845  29.215  27.908  1.00  0.00     0.049 A 
ATOM     55  H   UNL A   1      41.256  29.869  29.132  1.00  0.00     0.167 HD
ATOM     56  C   UNL A   1      43.823  28.597  30.115  1.00  0.00     0.074 A 
ATOM     57  C   UNL A   1      42.651  28.392  30.959  1.00  0.00     0.031 C 
ATOM     58  C   UNL A   1      43.948  28.992  28.815  1.00  0.00     0.037 A 
BRANCH  45  59
ATOM     59  C   UNL A   1      38.491  28.579  28.631  1.00  0.00     0.064 A 
ATOM     60  C   UNL A   1      37.639  29.549  28.083  1.00  0.00     0.173 A 
ATOM     61  C   UNL A   1      38.369  28.362  30.023  1.00  0.00     0.173 A 
ATOM     62  F   UNL A   1      37.710  29.861  26.780  1.00  0.00    -0.203 F 
ATOM     63  C   UNL A   1      36.752  30.276  28.880  1.00  0.00     0.198 A 
ATOM     64  C   UNL A   1      37.439  29.041  30.803  1.00  0.00     0.198 A 
ATOM     65  F   UNL A   1      39.215  27.573  30.698  1.00  0.00    -0.203 F 
ATOM     66  F   UNL A   1      36.035  31.270  28.339  1.00  0.00    -0.200 F 
ATOM     67  C   UNL A   1      36.648  30.017  30.237  1.00  0.00     0.200 A 
ATOM     68  F   UNL A   1      37.373  28.790  32.118  1.00  0.00    -0.200 F 
ATOM     69  F   UNL A   1      35.828  30.742  31.008  1.00  0.00    -0.200 F 
ENDBRANCH  45  59
BRANCH  46  70
ATOM     70  C   UNL A   1      45.021  25.418  33.414  1.00  0.00     0.064 A 
ATOM     71  C   UNL A   1      46.059  26.037  34.130  1.00  0.00     0.173 A 
ATOM     72  C   UNL A   1      44.135  24.621  34.167  1.00  0.00     0.173 A 
ATOM     73  F   UNL A   1      46.923  26.847  33.500  1.00  0.00    -0.203 F 
ATOM     74  C   UNL A   1      46.186  25.890  35.515  1.00  0.00     0.198 A 
ATOM     75  C   UNL A   1      44.272  24.463  35.547  1.00  0.00     0.198 A 
ATOM     76  F   UNL A   1      43.059  24.057  33.600  1.00  0.00    -0.203 F 
ATOM     77  F   UNL A   1      47.149  26.552  36.170  1.00  0.00    -0.200 F 
ATOM     78  C   UNL A   1      45.288  25.110  36.223  1.00  0.00     0.200 A 
ATOM     79  F   UNL A   1      43.374  23.732  36.224  1.00  0.00    -0.200 F 
ATOM     80  F   UNL A   1      45.373  25.017  37.557  1.00  0.00    -0.200 F 
ENDBRANCH  46  70
BRANCH  58  81
ATOM     81  C   UNL A   1      45.318  28.937  28.201  1.00  0.00     0.064 A 
ATOM     82  C   UNL A   1      45.849  27.790  27.583  1.00  0.00     0.173 A 
ATOM     83  C   UNL A   1      46.052  30.125  28.091  1.00  0.00     0.173 A 
ATOM     84  F   UNL A   1      45.159  26.645  27.552  1.00  0.00    -0.203 F 
ATOM     85  C   UNL A   1      47.076  27.824  26.925  1.00  0.00     0.198 A 
ATOM     86  C   UNL A   1      47.261  30.165  27.401  1.00  0.00     0.198 A 
ATOM     87  F   UNL A   1      45.567  31.264  28.608  1.00  0.00    -0.203 F 
ATOM     88  F   UNL A   1      47.563  26.713  26.351  1.00  0.00    -0.200 F 
ATOM     89  C   UNL A   1      47.776  29.014  26.826  1.00  0.00     0.200 A 
ATOM     90  F   UNL A   1      47.910  31.330  27.261  1.00  0.00    -0.200 F 
ATOM     91  F   UNL A   1      48.934  29.060  26.151  1.00  0.00    -0.200 F 
ENDBRANCH  58  81
ENDBRANCH  32  33
ENDBRANCH  25  27
ENDBRANCH  24  25
ENDBRANCH  23  24
ENDBRANCH   1  23
TORSDOF 14
ENDMDL
MODEL 2
REMARK VINA RESULT:     -14.1      4.105      9.253
REMARK SMILES Cc1ccc(-c2cc3cccnc3n2CCC(=O)OCCOC(=O)c2ccc(-c3c4nc(c(-c5c(F)c(F)c(F)c(F)c5F)c5ccc([nH]5)c(-c5c(F)c(F)c(F)c(F)c5F)c5nc(c(-c6c(F)c(F)c(F)c(F)c6F)c6ccc3[nH]6)C=C5)C=C4)cc2)cn1
REMARK SMILES IDX 20 1 19 2 17 3 18 4 16 5 15 6 14 7 6 8 7 9 8 10 13 11 9 12
REMARK SMILES IDX 12 13 10 14 11 15 5 16 1 17 2 18 3 19 89 20 4 21 88 22 21 23
REMARK SMILES IDX 22 24 23 25 24 26 25 27 26 28 87 29 27 30 86 31 28 32 29 33
REMARK SMILES IDX 30 34 80 35 31 36 85 37 79 38 81 39 32 40 84 41 78 42 77 43
REMARK SMILES IDX 33 45 65 46 45 47 64 48 46 49 49 50 63 51 82 52 47 53 48 54
REMARK SMILES IDX 62 56 83 57 50 58 34 59 35 60 43 61 36 62 37 63 41 64 44 65
REMARK SMILES IDX 38 66 39 67 42 68 40 69 66 70 67 71 75 72 68 73 69 74 73 75
REMARK SMILES IDX 76 76 70 77 71 78 74 79 72 80 51 81 52 82 60 83 53 84 54 85
REMARK SMILES IDX 58 86 61 87 55 88 56 89 59 90 57 91
REMARK H PARENT 81 44 49 55
REMARK Flexibility Score: inf
ROOT
ATOM      1  C   UNL A   1      34.391  28.609  26.317  1.00  0.00     0.274 C 
ENDROOT
BRANCH   1   2
ATOM      2  O   UNL A   1      33.506  27.527  25.894  1.00  0.00    -0.462 OA
BRANCH   2   3
ATOM      3  C   UNL A   1      33.466  27.222  24.566  1.00  0.00     0.307 C 
ATOM      4  O   UNL A   1      33.983  26.215  24.091  1.00  0.00    -0.252 OA
BRANCH   3   5
ATOM      5  C   UNL A   1      32.636  28.178  23.702  1.00  0.00     0.144 C 
BRANCH   5   6
ATOM      6  C   UNL A   1      31.813  27.636  22.525  1.00  0.00     0.136 C 
BRANCH   6   7
ATOM      7  N   UNL A   1      30.393  27.634  22.782  1.00  0.00    -0.325 N 
ATOM      8  C   UNL A   1      29.718  26.744  23.582  1.00  0.00     0.052 A 
ATOM      9  C   UNL A   1      28.466  27.298  23.816  1.00  0.00     0.039 A 
ATOM     10  C   UNL A   1      28.367  28.507  23.102  1.00  0.00     0.020 A 
ATOM     11  C   UNL A   1      29.551  28.650  22.392  1.00  0.00     0.140 A 
ATOM     12  C   UNL A   1      27.409  29.522  23.003  1.00  0.00     0.013 A 
ATOM     13  N   UNL A   1      29.866  29.649  21.544  1.00  0.00    -0.238 NA
ATOM     14  C   UNL A   1      27.682  30.573  22.134  1.00  0.00     0.021 A 
ATOM     15  C   UNL A   1      28.880  30.569  21.429  1.00  0.00     0.113 A 
BRANCH   8  16
ATOM     16  C   UNL A   1      30.265  25.580  24.273  1.00  0.00     0.017 A 
ATOM     17  C   UNL A   1      32.622  22.141  27.159  1.00  0.00     0.066 C 
ATOM     18  C   UNL A   1      31.970  23.141  26.259  1.00  0.00     0.037 A 
ATOM     19  C   UNL A   1      31.803  22.840  24.508  1.00  0.00     0.024 A 
ATOM     20  N   UNL A   1      31.334  24.586  27.014  1.00  0.00    -0.261 NA
ATOM     21  C   UNL A   1      30.894  24.035  23.507  1.00  0.00     0.014 A 
ATOM     22  C   UNL A   1      30.474  25.778  26.053  1.00  0.00     0.121 A 
ENDBRANCH   8  16
ENDBRANCH   6   7
ENDBRANCH   5   6
ENDBRANCH   3   5
ENDBRANCH   2   3
ENDBRANCH   1   2
BRANCH   1  23
ATOM     23  C   UNL A   1      33.971  29.584  27.654  1.00  0.00     0.275 C 
BRANCH  23  24
ATOM     24  O   UNL A   1      33.113  31.403  27.649  1.00  0.00    -0.458 OA
BRANCH  24  25
ATOM     25  C   UNL A   1      33.015  32.804  27.734  1.00  0.00     0.338 C 
ATOM     26  O   UNL A   1      32.122  33.554  27.356  1.00  0.00    -0.246 OA
BRANCH  25  27
ATOM     27  C   UNL A   1      34.042  33.349  28.598  1.00  0.00     0.060 A 
ATOM     28  C   UNL A   1      35.076  34.050  27.956  1.00  0.00     0.016 A 
ATOM     29  C   UNL A   1      34.182  32.672  29.800  1.00  0.00     0.016 A 
ATOM     30  C   UNL A   1      36.353  33.820  28.394  1.00  0.00     0.010 A 
ATOM     31  C   UNL A   1      35.449  32.464  30.248  1.00  0.00     0.010 A 
ATOM     32  C   UNL A   1      36.502  32.930  29.456  1.00  0.00    -0.014 A 
BRANCH  32  33
ATOM     33  C   UNL A   1      37.803  32.360  29.697  1.00  0.00     0.031 A 
ATOM     34  C   UNL A   1      37.952  31.000  29.156  1.00  0.00     0.074 A 
ATOM     35  C   UNL A   1      38.785  33.140  30.186  1.00  0.00     0.049 A 
ATOM     36  N   UNL A   1      38.304  29.927  29.777  1.00  0.00    -0.248 NA
ATOM     37  C   UNL A   1      37.520  30.784  27.763  1.00  0.00     0.031 C 
ATOM     38  C   UNL A   1      38.749  34.587  30.443  1.00  0.00     0.029 A 
ATOM     39  N   UNL A   1      40.083  32.825  30.413  1.00  0.00    -0.354 N 
ATOM     40  C   UNL A   1      38.310  28.935  28.807  1.00  0.00     0.074 A 
ATOM     41  C   UNL A   1      37.648  29.466  27.648  1.00  0.00     0.031 C 
ATOM     42  C   UNL A   1      40.014  35.048  30.549  1.00  0.00     0.029 A 
ATOM     43  C   UNL A   1      40.929  33.922  30.479  1.00  0.00     0.049 A 
ATOM     44  H   UNL A   1      40.398  31.899  30.520  1.00  0.00     0.167 HD
ATOM     45  C   UNL A   1      39.099  27.838  28.929  1.00  0.00     0.037 A 
ATOM     46  C   UNL A   1      42.280  33.884  30.372  1.00  0.00     0.037 A 
ATOM     47  C   UNL A   1      39.511  27.624  30.288  1.00  0.00     0.049 A 
ATOM     48  C   UNL A   1      42.696  32.469  30.580  1.00  0.00     0.074 A 
ATOM     49  C   UNL A   1      38.829  27.391  31.467  1.00  0.00     0.029 A 
ATOM     50  N   UNL A   1      40.776  28.015  30.652  1.00  0.00    -0.354 N 
ATOM     51  N   UNL A   1      42.616  31.837  31.718  1.00  0.00    -0.248 NA
ATOM     52  C   UNL A   1      42.799  31.614  29.403  1.00  0.00     0.031 C 
ATOM     53  C   UNL A   1      39.570  28.080  32.470  1.00  0.00     0.029 A 
ATOM     54  C   UNL A   1      40.678  28.665  31.856  1.00  0.00     0.049 A 
ATOM     55  H   UNL A   1      41.603  27.856  30.142  1.00  0.00     0.167 HD
ATOM     56  C   UNL A   1      42.247  30.542  31.383  1.00  0.00     0.074 A 
ATOM     57  C   UNL A   1      42.477  30.437  29.946  1.00  0.00     0.031 C 
ATOM     58  C   UNL A   1      41.517  29.775  32.245  1.00  0.00     0.037 A 
BRANCH  45  59
ATOM     59  C   UNL A   1      39.761  27.188  27.750  1.00  0.00     0.064 A 
ATOM     60  C   UNL A   1      39.730  25.791  27.626  1.00  0.00     0.173 A 
ATOM     61  C   UNL A   1      40.642  27.869  26.879  1.00  0.00     0.173 A 
ATOM     62  F   UNL A   1      38.961  25.051  28.438  1.00  0.00    -0.203 F 
ATOM     63  C   UNL A   1      40.551  25.121  26.716  1.00  0.00     0.198 A 
ATOM     64  C   UNL A   1      41.410  27.204  25.929  1.00  0.00     0.198 A 
ATOM     65  F   UNL A   1      40.877  29.183  26.987  1.00  0.00    -0.203 F 
ATOM     66  F   UNL A   1      40.574  23.782  26.705  1.00  0.00    -0.200 F 
ATOM     67  C   UNL A   1      41.385  25.828  25.865  1.00  0.00     0.200 A 
ATOM     68  F   UNL A   1      42.227  27.907  25.133  1.00  0.00    -0.200 F 
ATOM     69  F   UNL A   1      42.203  25.184  25.023  1.00  0.00    -0.200 F 
ENDBRANCH  45  59
BRANCH  46  70
ATOM     70  C   UNL A   1      43.191  34.904  29.800  1.00  0.00     0.064 A 
ATOM     71  C   UNL A   1      44.358  35.282  30.483  1.00  0.00     0.173 A 
ATOM     72  C   UNL A   1      43.082  35.342  28.464  1.00  0.00     0.173 A 
ATOM     73  F   UNL A   1      44.564  34.873  31.744  1.00  0.00    -0.203 F 
ATOM     74  C   UNL A   1      45.365  36.028  29.862  1.00  0.00     0.198 A 
ATOM     75  C   UNL A   1      44.080  36.099  27.850  1.00  0.00     0.198 A 
ATOM     76  F   UNL A   1      42.052  34.965  27.694  1.00  0.00    -0.203 F 
ATOM     77  F   UNL A   1      46.494  36.309  30.527  1.00  0.00    -0.200 F 
ATOM     78  C   UNL A   1      45.229  36.428  28.544  1.00  0.00     0.200 A 
ATOM     79  F   UNL A   1      43.950  36.451  26.563  1.00  0.00    -0.200 F 
ATOM     80  F   UNL A   1      46.218  37.091  27.930  1.00  0.00    -0.200 F 
ENDBRANCH  46  70
BRANCH  58  81
ATOM     81  C   UNL A   1      41.360  30.273  33.654  1.00  0.00     0.064 A 
ATOM     82  C   UNL A   1      42.299  30.034  34.673  1.00  0.00     0.173 A 
ATOM     83  C   UNL A   1      40.309  31.152  33.941  1.00  0.00     0.173 A 
ATOM     84  F   UNL A   1      43.388  29.292  34.445  1.00  0.00    -0.203 F 
ATOM     85  C   UNL A   1      42.166  30.616  35.932  1.00  0.00     0.198 A 
ATOM     86  C   UNL A   1      40.198  31.762  35.188  1.00  0.00     0.198 A 
ATOM     87  F   UNL A   1      39.416  31.465  32.989  1.00  0.00    -0.203 F 
ATOM     88  F   UNL A   1      43.072  30.366  36.889  1.00  0.00    -0.200 F 
ATOM     89  C   UNL A   1      41.121  31.487  36.185  1.00  0.00     0.200 A 
ATOM     90  F   UNL A   1      39.215  32.646  35.412  1.00  0.00    -0.200 F 
ATOM     91  F   UNL A   1      41.018  32.087  37.380  1.00  0.00    -0.200 F 
ENDBRANCH  58  81
ENDBRANCH  32  33
ENDBRANCH  25  27
ENDBRANCH  24  25
ENDBRANCH  23  24
ENDBRANCH   1  23
TORSDOF 14
ENDMDL
MODEL 3
REMARK VINA RESULT:     -14.1      2.093      7.078
REMARK SMILES Cc1ccc(-c2cc3cccnc3n2CCC(=O)OCCOC(=O)c2ccc(-c3c4nc(c(-c5c(F)c(F)c(F)c(F)c5F)c5ccc([nH]5)c(-c5c(F)c(F)c(F)c(F)c5F)c5nc(c(-c6c(F)c(F)c(F)c(F)c6F)c6ccc3[nH]6)C=C5)C=C4)cc2)cn1
REMARK SMILES IDX 20 1 19 2 17 3 18 4 16 5 15 6 14 7 6 8 7 9 8 10 13 11 9 12
REMARK SMILES IDX 12 13 10 14 11 15 5 16 1 17 2 18 3 19 89 20 4 21 88 22 21 23
REMARK SMILES IDX 22 24 23 25 24 26 25 27 26 28 87 29 27 30 86 31 28 32 29 33
REMARK SMILES IDX 30 34 80 35 31 36 85 37 79 38 81 39 32 40 84 41 78 42 77 43
REMARK SMILES IDX 33 45 65 46 45 47 64 48 46 49 49 50 63 51 82 52 47 53 48 54
REMARK SMILES IDX 62 56 83 57 50 58 34 59 35 60 43 61 36 62 37 63 41 64 44 65
REMARK SMILES IDX 38 66 39 67 42 68 40 69 66 70 67 71 75 72 68 73 69 74 73 75
REMARK SMILES IDX 76 76 70 77 71 78 74 79 72 80 51 81 52 82 60 83 53 84 54 85
REMARK SMILES IDX 58 86 61 87 55 88 56 89 59 90 57 91
REMARK H PARENT 81 44 49 55
REMARK Flexibility Score: inf
ROOT
ATOM      1  C   UNL A   1      39.660  22.288  26.506  1.00  0.00     0.274 C 
ENDROOT
BRANCH   1   2
ATOM      2  O   UNL A   1      38.653  21.672  25.646  1.00  0.00    -0.462 OA
BRANCH   2   3
ATOM      3  C   UNL A   1      37.594  22.437  25.259  1.00  0.00     0.307 C 
ATOM      4  O   UNL A   1      37.628  23.663  25.220  1.00  0.00    -0.252 OA
BRANCH   3   5
ATOM      5  C   UNL A   1      36.369  21.655  24.771  1.00  0.00     0.144 C 
BRANCH   5   6
ATOM      6  C   UNL A   1      35.408  21.016  25.784  1.00  0.00     0.136 C 
BRANCH   6   7
ATOM      7  N   UNL A   1      34.132  20.665  25.209  1.00  0.00    -0.325 N 
ATOM      8  C   UNL A   1      33.062  21.511  25.040  1.00  0.00     0.052 A 
ATOM      9  C   UNL A   1      32.193  20.873  24.165  1.00  0.00     0.039 A 
ATOM     10  C   UNL A   1      32.719  19.606  23.849  1.00  0.00     0.020 A 
ATOM     11  C   UNL A   1      33.887  19.464  24.585  1.00  0.00     0.140 A 
ATOM     12  C   UNL A   1      32.347  18.567  22.988  1.00  0.00     0.013 A 
ATOM     13  N   UNL A   1      34.692  18.383  24.616  1.00  0.00    -0.238 NA
ATOM     14  C   UNL A   1      33.142  17.425  22.989  1.00  0.00     0.021 A 
ATOM     15  C   UNL A   1      34.254  17.380  23.820  1.00  0.00     0.113 A 
BRANCH   8  16
ATOM     16  C   UNL A   1      32.955  22.903  25.467  1.00  0.00     0.017 A 
ATOM     17  C   UNL A   1      31.695  27.617  26.845  1.00  0.00     0.066 C 
ATOM     18  C   UNL A   1      32.085  26.251  26.379  1.00  0.00     0.037 A 
ATOM     19  C   UNL A   1      33.495  26.004  25.314  1.00  0.00     0.024 A 
ATOM     20  N   UNL A   1      31.127  24.912  26.973  1.00  0.00    -0.261 NA
ATOM     21  C   UNL A   1      33.977  24.316  24.894  1.00  0.00     0.014 A 
ATOM     22  C   UNL A   1      31.560  23.262  26.551  1.00  0.00     0.121 A 
ENDBRANCH   8  16
ENDBRANCH   6   7
ENDBRANCH   5   6
ENDBRANCH   3   5
ENDBRANCH   2   3
ENDBRANCH   1   2
BRANCH   1  23
ATOM     23  C   UNL A   1      40.920  21.341  27.162  1.00  0.00     0.275 C 
BRANCH  23  24
ATOM     24  O   UNL A   1      42.598  20.701  26.258  1.00  0.00    -0.458 OA
BRANCH  24  25
ATOM     25  C   UNL A   1      43.641  20.658  25.315  1.00  0.00     0.338 C 
ATOM     26  O   UNL A   1      43.945  19.777  24.517  1.00  0.00    -0.246 OA
BRANCH  25  27
ATOM     27  C   UNL A   1      44.266  21.956  25.166  1.00  0.00     0.060 A 
ATOM     28  C   UNL A   1      45.417  22.176  25.941  1.00  0.00     0.016 A 
ATOM     29  C   UNL A   1      43.396  22.954  24.754  1.00  0.00     0.016 A 
ATOM     30  C   UNL A   1      45.534  23.395  26.554  1.00  0.00     0.010 A 
ATOM     31  C   UNL A   1      43.527  24.172  25.344  1.00  0.00     0.010 A 
ATOM     32  C   UNL A   1      44.510  24.313  26.328  1.00  0.00    -0.014 A 
BRANCH  32  33
ATOM     33  C   UNL A   1      44.378  25.429  27.228  1.00  0.00     0.031 A 
ATOM     34  C   UNL A   1      45.433  26.441  27.060  1.00  0.00     0.074 A 
ATOM     35  C   UNL A   1      43.259  25.554  27.965  1.00  0.00     0.049 A 
ATOM     36  N   UNL A   1      46.239  26.911  27.949  1.00  0.00    -0.248 NA
ATOM     37  C   UNL A   1      45.716  26.889  25.684  1.00  0.00     0.031 C 
ATOM     38  C   UNL A   1      42.048  24.722  27.922  1.00  0.00     0.029 A 
ATOM     39  N   UNL A   1      42.906  26.556  28.807  1.00  0.00    -0.354 N 
ATOM     40  C   UNL A   1      47.011  27.848  27.277  1.00  0.00     0.074 A 
ATOM     41  C   UNL A   1      46.782  27.661  25.871  1.00  0.00     0.031 C 
ATOM     42  C   UNL A   1      41.031  25.391  28.508  1.00  0.00     0.029 A 
ATOM     43  C   UNL A   1      41.544  26.633  29.058  1.00  0.00     0.049 A 
ATOM     44  H   UNL A   1      43.559  27.175  29.206  1.00  0.00     0.167 HD
ATOM     45  C   UNL A   1      47.578  28.891  27.933  1.00  0.00     0.037 A 
ATOM     46  C   UNL A   1      40.899  27.703  29.583  1.00  0.00     0.037 A 
ATOM     47  C   UNL A   1      47.675  28.647  29.344  1.00  0.00     0.049 A 
ATOM     48  C   UNL A   1      41.933  28.579  30.200  1.00  0.00     0.074 A 
ATOM     49  C   UNL A   1      48.314  27.688  30.107  1.00  0.00     0.029 A 
ATOM     50  N   UNL A   1      46.740  29.225  30.168  1.00  0.00    -0.354 N 
ATOM     51  N   UNL A   1      42.615  28.274  31.268  1.00  0.00    -0.248 NA
ATOM     52  C   UNL A   1      42.520  29.622  29.367  1.00  0.00     0.031 C 
ATOM     53  C   UNL A   1      47.436  27.432  31.199  1.00  0.00     0.029 A 
ATOM     54  C   UNL A   1      46.329  28.270  31.063  1.00  0.00     0.049 A 
ATOM     55  H   UNL A   1      46.424  30.157  30.125  1.00  0.00     0.167 HD
ATOM     56  C   UNL A   1      43.889  28.772  31.034  1.00  0.00     0.074 A 
ATOM     57  C   UNL A   1      43.743  29.680  29.901  1.00  0.00     0.031 C 
ATOM     58  C   UNL A   1      44.986  28.182  31.590  1.00  0.00     0.037 A 
BRANCH  45  59
ATOM     59  C   UNL A   1      47.712  30.252  27.316  1.00  0.00     0.064 A 
ATOM     60  C   UNL A   1      48.965  30.879  27.293  1.00  0.00     0.173 A 
ATOM     61  C   UNL A   1      46.605  31.066  26.979  1.00  0.00     0.173 A 
ATOM     62  F   UNL A   1      50.071  30.204  27.642  1.00  0.00    -0.203 F 
ATOM     63  C   UNL A   1      49.098  32.236  26.990  1.00  0.00     0.198 A 
ATOM     64  C   UNL A   1      46.747  32.400  26.614  1.00  0.00     0.198 A 
ATOM     65  F   UNL A   1      45.342  30.637  27.099  1.00  0.00    -0.203 F 
ATOM     66  F   UNL A   1      50.298  32.824  27.088  1.00  0.00    -0.200 F 
ATOM     67  C   UNL A   1      47.991  32.993  26.645  1.00  0.00     0.200 A 
ATOM     68  F   UNL A   1      45.659  33.119  26.306  1.00  0.00    -0.200 F 
ATOM     69  F   UNL A   1      48.112  34.303  26.395  1.00  0.00    -0.200 F 
ENDBRANCH  45  59
BRANCH  46  70
ATOM     70  C   UNL A   1      39.516  28.169  29.318  1.00  0.00     0.064 A 
ATOM     71  C   UNL A   1      38.591  28.290  30.368  1.00  0.00     0.173 A 
ATOM     72  C   UNL A   1      39.144  28.751  28.090  1.00  0.00     0.173 A 
ATOM     73  F   UNL A   1      38.881  27.802  31.583  1.00  0.00    -0.203 F 
ATOM     74  C   UNL A   1      37.381  28.972  30.206  1.00  0.00     0.198 A 
ATOM     75  C   UNL A   1      37.929  29.419  27.925  1.00  0.00     0.198 A 
ATOM     76  F   UNL A   1      39.988  28.772  27.049  1.00  0.00    -0.203 F 
ATOM     77  F   UNL A   1      36.556  29.124  31.251  1.00  0.00    -0.200 F 
ATOM     78  C   UNL A   1      37.055  29.544  28.988  1.00  0.00     0.200 A 
ATOM     79  F   UNL A   1      37.643  29.996  26.749  1.00  0.00    -0.200 F 
ATOM     80  F   UNL A   1      35.924  30.249  28.848  1.00  0.00    -0.200 F 
ENDBRANCH  46  70
BRANCH  58  81
ATOM     81  C   UNL A   1      44.754  27.156  32.664  1.00  0.00     0.064 A 
ATOM     82  C   UNL A   1      44.550  27.479  34.017  1.00  0.00     0.173 A 
ATOM     83  C   UNL A   1      44.573  25.820  32.286  1.00  0.00     0.173 A 
ATOM     84  F   UNL A   1      44.600  28.748  34.436  1.00  0.00    -0.203 F 
ATOM     85  C   UNL A   1      44.222  26.501  34.954  1.00  0.00     0.198 A 
ATOM     86  C   UNL A   1      44.208  24.851  33.217  1.00  0.00     0.198 A 
ATOM     87  F   UNL A   1      44.695  25.464  30.999  1.00  0.00    -0.203 F 
ATOM     88  F   UNL A   1      44.040  26.835  36.240  1.00  0.00    -0.200 F 
ATOM     89  C   UNL A   1      44.042  25.189  34.551  1.00  0.00     0.200 A 
ATOM     90  F   UNL A   1      43.983  23.592  32.814  1.00  0.00    -0.200 F 
ATOM     91  F   UNL A   1      43.678  24.255  35.442  1.00  0.00    -0.200 F 
ENDBRANCH  58  81
ENDBRANCH  32  33
ENDBRANCH  25  27
ENDBRANCH  24  25
ENDBRANCH  23  24
ENDBRANCH   1  23
TORSDOF 14
ENDMDL
