MODEL 1
REMARK VINA RESULT:     -11.7      0.000      0.000
REMARK SMILES C[C@@](NC(=O)CCOC1CC[NH2+]CC1)(C(=O)OCCOC(=O)c1ccc(-c2c3nc(c(-c4c(F)c(F)c(F)c(F)c4F)c4ccc([nH]4)c(-c4c(F)c(F)c(F)c(F)c4F)c4nc(c(-c5c(F)c(F)c(F)c(F)c5F)c5ccc2[nH]5)C=C4)C=C3)cc1)C(F)(F)F
REMARK SMILES IDX 17 1 15 2 16 3 2 4 1 5 3 6 4 7 5 9 6 10 7 11 8 12 9 13 10 14
REMARK SMILES IDX 14 15 11 16 13 17 12 18 86 21 87 22 88 23 89 24 18 25 19 26
REMARK SMILES IDX 20 27 21 28 22 29 23 30 24 31 85 32 25 33 84 34 26 35 27 36
REMARK SMILES IDX 28 37 78 38 29 39 83 40 77 41 79 42 30 43 82 44 76 45 75 46
REMARK SMILES IDX 31 48 63 49 43 50 62 51 44 52 47 53 61 54 80 55 45 56 46 57
REMARK SMILES IDX 60 59 81 60 48 61 32 62 33 63 41 64 34 65 35 66 39 67 42 68
REMARK SMILES IDX 36 69 37 70 40 71 38 72 64 73 65 74 73 75 66 76 67 77 71 78
REMARK SMILES IDX 74 79 68 80 69 81 72 82 70 83 49 84 50 85 58 86 51 87 52 88
REMARK SMILES IDX 56 89 59 90 53 91 54 92 57 93 55 94
REMARK H PARENT 3 8 12 19 12 20 79 47 47 58
REMARK Flexibility Score: inf
ROOT
ATOM      1  O   UNL A   1      33.423  27.000  24.987  1.00  0.00    -0.460 OA
ENDROOT
BRANCH   1   2
ATOM      2  C   UNL A   1      32.674  26.030  24.376  1.00  0.00     0.341 C 
ATOM      3  O   UNL A   1      32.834  25.666  23.228  1.00  0.00    -0.249 OA
BRANCH   2   4
ATOM      4  C   UNL A   1      31.571  25.573  25.350  1.00  0.00     0.231 C 
ATOM      5  C   UNL A   1      31.770  26.341  26.669  1.00  0.00     0.058 C 
BRANCH   4   6
ATOM      6  N   UNL A   1      30.223  25.682  24.691  1.00  0.00    -0.333 N 
ATOM      7  C   UNL A   1      29.494  26.657  24.105  1.00  0.00     0.223 C 
ATOM      8  H   UNL A   1      29.749  24.820  24.685  1.00  0.00     0.164 HD
ATOM      9  O   UNL A   1      28.362  26.368  23.716  1.00  0.00    -0.275 OA
BRANCH   7  10
ATOM     10  C   UNL A   1      30.023  28.052  23.962  1.00  0.00     0.128 C 
BRANCH  10  11
ATOM     11  C   UNL A   1      30.257  28.367  22.490  1.00  0.00     0.170 C 
BRANCH  11  12
ATOM     12  O   UNL A   1      29.953  29.737  22.257  1.00  0.00    -0.377 OA
BRANCH  12  13
ATOM     13  C   UNL A   1      28.643  30.175  22.611  1.00  0.00     0.129 C 
ATOM     14  C   UNL A   1      27.852  30.414  21.335  1.00  0.00     0.093 C 
ATOM     15  C   UNL A   1      28.746  31.440  23.484  1.00  0.00     0.093 C 
ATOM     16  C   UNL A   1      28.289  31.700  20.644  1.00  0.00     0.263 C 
ATOM     17  C   UNL A   1      28.776  32.792  22.754  1.00  0.00     0.263 C 
ATOM     18  N   UNL A   1      28.023  32.846  21.507  1.00  0.00    -0.346 N 
ATOM     19  H   UNL A   1      27.027  32.864  21.727  1.00  0.00     0.346 HD
ATOM     20  H   UNL A   1      28.313  33.685  21.005  1.00  0.00     0.346 HD
ENDBRANCH  12  13
ENDBRANCH  11  12
ENDBRANCH  10  11
ENDBRANCH   7  10
ENDBRANCH   4   6
BRANCH   4  21
ATOM     21  C   UNL A   1      31.740  24.074  25.726  1.00  0.00     0.422 C 
ATOM     22  F   UNL A   1      31.493  23.822  27.030  1.00  0.00    -0.168 F 
ATOM     23  F   UNL A   1      30.818  23.326  25.050  1.00  0.00    -0.168 F 
ATOM     24  F   UNL A   1      32.940  23.548  25.423  1.00  0.00    -0.168 F 
ENDBRANCH   4  21
ENDBRANCH   2   4
ENDBRANCH   1   2
BRANCH   1  25
ATOM     25  C   UNL A   1      33.957  28.132  24.275  1.00  0.00     0.274 C 
BRANCH  25  26
ATOM     26  C   UNL A   1      33.109  29.342  24.682  1.00  0.00     0.275 C 
BRANCH  26  27
ATOM     27  O   UNL A   1      33.092  29.365  26.121  1.00  0.00    -0.458 OA
BRANCH  27  28
ATOM     28  C   UNL A   1      33.190  30.561  26.743  1.00  0.00     0.338 C 
ATOM     29  O   UNL A   1      32.338  31.435  26.819  1.00  0.00    -0.246 OA
BRANCH  28  30
ATOM     30  C   UNL A   1      34.490  30.586  27.446  1.00  0.00     0.060 A 
ATOM     31  C   UNL A   1      34.971  29.388  27.957  1.00  0.00     0.016 A 
ATOM     32  C   UNL A   1      35.203  31.754  27.692  1.00  0.00     0.016 A 
ATOM     33  C   UNL A   1      36.097  29.350  28.763  1.00  0.00     0.010 A 
ATOM     34  C   UNL A   1      36.434  31.682  28.374  1.00  0.00     0.010 A 
ATOM     35  C   UNL A   1      36.904  30.469  28.918  1.00  0.00    -0.014 A 
BRANCH  35  36
ATOM     36  C   UNL A   1      38.215  30.340  29.622  1.00  0.00     0.031 A 
ATOM     37  C   UNL A   1      39.302  29.501  29.013  1.00  0.00     0.074 A 
ATOM     38  C   UNL A   1      38.452  30.954  30.806  1.00  0.00     0.049 A 
ATOM     39  N   UNL A   1      40.305  28.901  29.595  1.00  0.00    -0.248 NA
ATOM     40  C   UNL A   1      39.237  29.292  27.558  1.00  0.00     0.031 C 
ATOM     41  C   UNL A   1      37.565  31.906  31.485  1.00  0.00     0.029 A 
ATOM     42  N   UNL A   1      39.521  30.851  31.670  1.00  0.00    -0.354 N 
ATOM     43  C   UNL A   1      40.922  28.152  28.603  1.00  0.00     0.074 A 
ATOM     44  C   UNL A   1      40.212  28.413  27.369  1.00  0.00     0.031 C 
ATOM     45  C   UNL A   1      38.133  32.321  32.624  1.00  0.00     0.029 A 
ATOM     46  C   UNL A   1      39.328  31.530  32.854  1.00  0.00     0.049 A 
ATOM     47  H   UNL A   1      40.340  30.345  31.463  1.00  0.00     0.167 HD
ATOM     48  C   UNL A   1      41.966  27.302  28.737  1.00  0.00     0.037 A 
ATOM     49  C   UNL A   1      39.951  31.439  34.044  1.00  0.00     0.037 A 
ATOM     50  C   UNL A   1      42.712  27.142  29.959  1.00  0.00     0.049 A 
ATOM     51  C   UNL A   1      41.062  30.443  34.194  1.00  0.00     0.074 A 
ATOM     52  C   UNL A   1      43.814  26.340  30.200  1.00  0.00     0.029 A 
ATOM     53  N   UNL A   1      42.442  27.818  31.140  1.00  0.00    -0.354 N 
ATOM     54  N   UNL A   1      41.574  29.639  33.295  1.00  0.00    -0.248 NA
ATOM     55  C   UNL A   1      41.653  30.310  35.531  1.00  0.00     0.031 C 
ATOM     56  C   UNL A   1      44.179  26.494  31.541  1.00  0.00     0.029 A 
ATOM     57  C   UNL A   1      43.338  27.430  32.121  1.00  0.00     0.049 A 
ATOM     58  H   UNL A   1      41.720  28.477  31.262  1.00  0.00     0.167 HD
ATOM     59  C   UNL A   1      42.549  28.906  33.954  1.00  0.00     0.074 A 
ATOM     60  C   UNL A   1      42.575  29.381  35.323  1.00  0.00     0.031 C 
ATOM     61  C   UNL A   1      43.344  27.920  33.474  1.00  0.00     0.037 A 
BRANCH  48  62
ATOM     62  C   UNL A   1      42.326  26.423  27.576  1.00  0.00     0.064 A 
ATOM     63  C   UNL A   1      43.343  26.742  26.670  1.00  0.00     0.173 A 
ATOM     64  C   UNL A   1      41.671  25.189  27.420  1.00  0.00     0.173 A 
ATOM     65  F   UNL A   1      43.989  27.915  26.763  1.00  0.00    -0.203 F 
ATOM     66  C   UNL A   1      43.689  25.863  25.644  1.00  0.00     0.198 A 
ATOM     67  C   UNL A   1      42.037  24.301  26.413  1.00  0.00     0.198 A 
ATOM     68  F   UNL A   1      40.689  24.834  28.263  1.00  0.00    -0.203 F 
ATOM     69  F   UNL A   1      44.647  26.199  24.769  1.00  0.00    -0.200 F 
ATOM     70  C   UNL A   1      43.044  24.640  25.524  1.00  0.00     0.200 A 
ATOM     71  F   UNL A   1      41.420  23.116  26.309  1.00  0.00    -0.200 F 
ATOM     72  F   UNL A   1      43.392  23.788  24.549  1.00  0.00    -0.200 F 
ENDBRANCH  48  62
BRANCH  49  73
ATOM     73  C   UNL A   1      39.437  32.201  35.217  1.00  0.00     0.064 A 
ATOM     74  C   UNL A   1      39.801  33.536  35.435  1.00  0.00     0.173 A 
ATOM     75  C   UNL A   1      38.572  31.605  36.152  1.00  0.00     0.173 A 
ATOM     76  F   UNL A   1      40.650  34.144  34.593  1.00  0.00    -0.203 F 
ATOM     77  C   UNL A   1      39.330  34.240  36.544  1.00  0.00     0.198 A 
ATOM     78  C   UNL A   1      38.069  32.321  37.235  1.00  0.00     0.198 A 
ATOM     79  F   UNL A   1      38.196  30.326  36.001  1.00  0.00    -0.203 F 
ATOM     80  F   UNL A   1      39.738  35.498  36.757  1.00  0.00    -0.200 F 
ATOM     81  C   UNL A   1      38.457  33.635  37.436  1.00  0.00     0.200 A 
ATOM     82  F   UNL A   1      37.211  31.736  38.081  1.00  0.00    -0.200 F 
ATOM     83  F   UNL A   1      37.997  34.315  38.495  1.00  0.00    -0.200 F 
ENDBRANCH  49  73
BRANCH  61  84
ATOM     84  C   UNL A   1      44.325  27.316  34.430  1.00  0.00     0.064 A 
ATOM     85  C   UNL A   1      44.038  26.128  35.117  1.00  0.00     0.173 A 
ATOM     86  C   UNL A   1      45.577  27.913  34.632  1.00  0.00     0.173 A 
ATOM     87  F   UNL A   1      42.844  25.535  34.972  1.00  0.00    -0.203 F 
ATOM     88  C   UNL A   1      44.969  25.568  35.987  1.00  0.00     0.198 A 
ATOM     89  C   UNL A   1      46.515  27.335  35.479  1.00  0.00     0.198 A 
ATOM     90  F   UNL A   1      45.894  29.050  33.994  1.00  0.00    -0.203 F 
ATOM     91  F   UNL A   1      44.660  24.455  36.668  1.00  0.00    -0.200 F 
ATOM     92  C   UNL A   1      46.208  26.166  36.160  1.00  0.00     0.200 A 
ATOM     93  F   UNL A   1      47.716  27.907  35.637  1.00  0.00    -0.200 F 
ATOM     94  F   UNL A   1      47.106  25.619  36.991  1.00  0.00    -0.200 F 
ENDBRANCH  61  84
ENDBRANCH  35  36
ENDBRANCH  28  30
ENDBRANCH  27  28
ENDBRANCH  26  27
ENDBRANCH  25  26
ENDBRANCH   1  25
TORSDOF 17
ENDMDL
MODEL 2
REMARK VINA RESULT:     -11.6      1.653      4.189
REMARK SMILES C[C@@](NC(=O)CCOC1CC[NH2+]CC1)(C(=O)OCCOC(=O)c1ccc(-c2c3nc(c(-c4c(F)c(F)c(F)c(F)c4F)c4ccc([nH]4)c(-c4c(F)c(F)c(F)c(F)c4F)c4nc(c(-c5c(F)c(F)c(F)c(F)c5F)c5ccc2[nH]5)C=C4)C=C3)cc1)C(F)(F)F
REMARK SMILES IDX 17 1 15 2 16 3 2 4 1 5 3 6 4 7 5 9 6 10 7 11 8 12 9 13 10 14
REMARK SMILES IDX 14 15 11 16 13 17 12 18 86 21 87 22 88 23 89 24 18 25 19 26
REMARK SMILES IDX 20 27 21 28 22 29 23 30 24 31 85 32 25 33 84 34 26 35 27 36
REMARK SMILES IDX 28 37 78 38 29 39 83 40 77 41 79 42 30 43 82 44 76 45 75 46
REMARK SMILES IDX 31 48 63 49 43 50 62 51 44 52 47 53 61 54 80 55 45 56 46 57
REMARK SMILES IDX 60 59 81 60 48 61 32 62 33 63 41 64 34 65 35 66 39 67 42 68
REMARK SMILES IDX 36 69 37 70 40 71 38 72 64 73 65 74 73 75 66 76 67 77 71 78
REMARK SMILES IDX 74 79 68 80 69 81 72 82 70 83 49 84 50 85 58 86 51 87 52 88
REMARK SMILES IDX 56 89 59 90 53 91 54 92 57 93 55 94
REMARK H PARENT 3 8 12 19 12 20 79 47 47 58
REMARK Flexibility Score: inf
ROOT
ATOM      1  O   UNL A   1      31.152  27.893  25.257  1.00  0.00    -0.460 OA
ENDROOT
BRANCH   1   2
ATOM      2  C   UNL A   1      30.619  26.708  24.824  1.00  0.00     0.341 C 
ATOM      3  O   UNL A   1      29.447  26.547  24.549  1.00  0.00    -0.249 OA
BRANCH   2   4
ATOM      4  C   UNL A   1      31.724  25.635  24.842  1.00  0.00     0.231 C 
ATOM      5  C   UNL A   1      31.044  24.273  25.072  1.00  0.00     0.058 C 
BRANCH   4   6
ATOM      6  N   UNL A   1      32.593  25.769  23.621  1.00  0.00    -0.333 N 
ATOM      7  C   UNL A   1      33.423  24.969  22.916  1.00  0.00     0.223 C 
ATOM      8  H   UNL A   1      32.546  26.673  23.236  1.00  0.00     0.164 HD
ATOM      9  O   UNL A   1      34.029  25.470  21.967  1.00  0.00    -0.275 OA
BRANCH   7  10
ATOM     10  C   UNL A   1      33.631  23.532  23.289  1.00  0.00     0.128 C 
BRANCH  10  11
ATOM     11  C   UNL A   1      34.874  23.400  24.158  1.00  0.00     0.170 C 
BRANCH  11  12
ATOM     12  O   UNL A   1      35.422  22.098  23.985  1.00  0.00    -0.377 OA
BRANCH  12  13
ATOM     13  C   UNL A   1      35.701  21.354  25.169  1.00  0.00     0.129 C 
ATOM     14  C   UNL A   1      35.392  19.890  24.905  1.00  0.00     0.093 C 
ATOM     15  C   UNL A   1      34.876  21.927  26.338  1.00  0.00     0.093 C 
ATOM     16  C   UNL A   1      33.890  19.635  24.884  1.00  0.00     0.263 C 
ATOM     17  C   UNL A   1      33.470  21.345  26.552  1.00  0.00     0.263 C 
ATOM     18  N   UNL A   1      33.313  19.943  26.189  1.00  0.00    -0.346 N 
ATOM     19  H   UNL A   1      33.776  19.368  26.893  1.00  0.00     0.346 HD
ATOM     20  H   UNL A   1      32.313  19.745  26.139  1.00  0.00     0.346 HD
ENDBRANCH  12  13
ENDBRANCH  11  12
ENDBRANCH  10  11
ENDBRANCH   7  10
ENDBRANCH   4   6
BRANCH   4  21
ATOM     21  C   UNL A   1      32.672  25.824  26.060  1.00  0.00     0.422 C 
ATOM     22  F   UNL A   1      32.092  26.480  27.088  1.00  0.00    -0.168 F 
ATOM     23  F   UNL A   1      33.004  24.603  26.574  1.00  0.00    -0.168 F 
ATOM     24  F   UNL A   1      33.834  26.439  25.779  1.00  0.00    -0.168 F 
ENDBRANCH   4  21
ENDBRANCH   2   4
ENDBRANCH   1   2
BRANCH   1  25
ATOM     25  C   UNL A   1      31.380  29.009  24.377  1.00  0.00     0.274 C 
BRANCH  25  26
ATOM     26  C   UNL A   1      32.823  29.468  24.619  1.00  0.00     0.275 C 
BRANCH  26  27
ATOM     27  O   UNL A   1      33.030  29.433  26.042  1.00  0.00    -0.458 OA
BRANCH  27  28
ATOM     28  C   UNL A   1      33.107  30.608  26.707  1.00  0.00     0.338 C 
ATOM     29  O   UNL A   1      32.240  31.464  26.812  1.00  0.00    -0.246 OA
BRANCH  28  30
ATOM     30  C   UNL A   1      34.406  30.631  27.412  1.00  0.00     0.060 A 
ATOM     31  C   UNL A   1      34.908  29.423  27.879  1.00  0.00     0.016 A 
ATOM     32  C   UNL A   1      35.097  31.801  27.702  1.00  0.00     0.016 A 
ATOM     33  C   UNL A   1      36.034  29.376  28.685  1.00  0.00     0.010 A 
ATOM     34  C   UNL A   1      36.329  31.726  28.383  1.00  0.00     0.010 A 
ATOM     35  C   UNL A   1      36.820  30.503  28.883  1.00  0.00    -0.014 A 
BRANCH  35  36
ATOM     36  C   UNL A   1      38.133  30.372  29.584  1.00  0.00     0.031 A 
ATOM     37  C   UNL A   1      39.214  29.525  28.976  1.00  0.00     0.074 A 
ATOM     38  C   UNL A   1      38.375  30.991  30.763  1.00  0.00     0.049 A 
ATOM     39  N   UNL A   1      40.216  28.923  29.559  1.00  0.00    -0.248 NA
ATOM     40  C   UNL A   1      39.144  29.308  27.523  1.00  0.00     0.031 C 
ATOM     41  C   UNL A   1      37.495  31.951  31.440  1.00  0.00     0.029 A 
ATOM     42  N   UNL A   1      39.447  30.888  31.625  1.00  0.00    -0.354 N 
ATOM     43  C   UNL A   1      40.826  28.166  28.569  1.00  0.00     0.074 A 
ATOM     44  C   UNL A   1      40.115  28.423  27.335  1.00  0.00     0.031 C 
ATOM     45  C   UNL A   1      38.068  32.369  32.575  1.00  0.00     0.029 A 
ATOM     46  C   UNL A   1      39.260  31.574  32.805  1.00  0.00     0.049 A 
ATOM     47  H   UNL A   1      40.263  30.377  31.418  1.00  0.00     0.167 HD
ATOM     48  C   UNL A   1      41.867  27.312  28.705  1.00  0.00     0.037 A 
ATOM     49  C   UNL A   1      39.887  31.487  33.994  1.00  0.00     0.037 A 
ATOM     50  C   UNL A   1      42.616  27.155  29.925  1.00  0.00     0.049 A 
ATOM     51  C   UNL A   1      40.993  30.487  34.147  1.00  0.00     0.074 A 
ATOM     52  C   UNL A   1      43.715  26.349  30.167  1.00  0.00     0.029 A 
ATOM     53  N   UNL A   1      42.352  27.839  31.103  1.00  0.00    -0.354 N 
ATOM     54  N   UNL A   1      41.499  29.675  33.251  1.00  0.00    -0.248 NA
ATOM     55  C   UNL A   1      41.588  30.358  35.483  1.00  0.00     0.031 C 
ATOM     56  C   UNL A   1      44.085  26.509  31.506  1.00  0.00     0.029 A 
ATOM     57  C   UNL A   1      43.250  27.452  32.084  1.00  0.00     0.049 A 
ATOM     58  H   UNL A   1      41.634  28.501  31.224  1.00  0.00     0.167 HD
ATOM     59  C   UNL A   1      42.472  28.942  33.911  1.00  0.00     0.074 A 
ATOM     60  C   UNL A   1      42.505  29.424  35.277  1.00  0.00     0.031 C 
ATOM     61  C   UNL A   1      43.262  27.950  33.434  1.00  0.00     0.037 A 
BRANCH  48  62
ATOM     62  C   UNL A   1      42.219  26.425  27.547  1.00  0.00     0.064 A 
ATOM     63  C   UNL A   1      43.256  26.720  26.654  1.00  0.00     0.173 A 
ATOM     64  C   UNL A   1      41.537  25.207  27.383  1.00  0.00     0.173 A 
ATOM     65  F   UNL A   1      43.928  27.876  26.756  1.00  0.00    -0.203 F 
ATOM     66  C   UNL A   1      43.592  25.832  25.632  1.00  0.00     0.198 A 
ATOM     67  C   UNL A   1      41.894  24.311  26.380  1.00  0.00     0.198 A 
ATOM     68  F   UNL A   1      40.536  24.875  28.213  1.00  0.00    -0.203 F 
ATOM     69  F   UNL A   1      44.569  26.145  24.769  1.00  0.00    -0.200 F 
ATOM     70  C   UNL A   1      42.919  24.625  25.503  1.00  0.00     0.200 A 
ATOM     71  F   UNL A   1      41.249  23.141  26.267  1.00  0.00    -0.200 F 
ATOM     72  F   UNL A   1      43.258  23.766  24.532  1.00  0.00    -0.200 F 
ENDBRANCH  48  62
BRANCH  49  73
ATOM     73  C   UNL A   1      39.379  32.258  35.165  1.00  0.00     0.064 A 
ATOM     74  C   UNL A   1      38.550  31.664  36.124  1.00  0.00     0.173 A 
ATOM     75  C   UNL A   1      39.711  33.613  35.344  1.00  0.00     0.173 A 
ATOM     76  F   UNL A   1      38.176  30.384  35.984  1.00  0.00    -0.203 F 
ATOM     77  C   UNL A   1      38.064  32.394  37.209  1.00  0.00     0.198 A 
ATOM     78  C   UNL A   1      39.259  34.329  36.450  1.00  0.00     0.198 A 
ATOM     79  F   UNL A   1      40.493  34.239  34.454  1.00  0.00    -0.203 F 
ATOM     80  F   UNL A   1      37.228  31.815  38.081  1.00  0.00    -0.200 F 
ATOM     81  C   UNL A   1      38.428  33.722  37.377  1.00  0.00     0.200 A 
ATOM     82  F   UNL A   1      39.631  35.606  36.616  1.00  0.00    -0.200 F 
ATOM     83  F   UNL A   1      37.969  34.420  38.424  1.00  0.00    -0.200 F 
ENDBRANCH  49  73
BRANCH  61  84
ATOM     84  C   UNL A   1      44.243  27.346  34.390  1.00  0.00     0.064 A 
ATOM     85  C   UNL A   1      45.496  27.930  34.617  1.00  0.00     0.173 A 
ATOM     86  C   UNL A   1      43.909  26.191  35.112  1.00  0.00     0.173 A 
ATOM     87  F   UNL A   1      45.867  29.022  33.931  1.00  0.00    -0.203 F 
ATOM     88  C   UNL A   1      46.389  27.369  35.524  1.00  0.00     0.198 A 
ATOM     89  C   UNL A   1      44.792  25.650  36.039  1.00  0.00     0.198 A 
ATOM     90  F   UNL A   1      42.719  25.599  34.928  1.00  0.00    -0.203 F 
ATOM     91  F   UNL A   1      47.601  27.917  35.695  1.00  0.00    -0.200 F 
ATOM     92  C   UNL A   1      46.033  26.235  36.240  1.00  0.00     0.200 A 
ATOM     93  F   UNL A   1      44.442  24.562  36.739  1.00  0.00    -0.200 F 
ATOM     94  F   UNL A   1      46.892  25.702  37.121  1.00  0.00    -0.200 F 
ENDBRANCH  61  84
ENDBRANCH  35  36
ENDBRANCH  28  30
ENDBRANCH  27  28
ENDBRANCH  26  27
ENDBRANCH  25  26
ENDBRANCH   1  25
TORSDOF 17
ENDMDL
MODEL 3
REMARK VINA RESULT:     -11.5      1.931      3.968
REMARK SMILES C[C@@](NC(=O)CCOC1CC[NH2+]CC1)(C(=O)OCCOC(=O)c1ccc(-c2c3nc(c(-c4c(F)c(F)c(F)c(F)c4F)c4ccc([nH]4)c(-c4c(F)c(F)c(F)c(F)c4F)c4nc(c(-c5c(F)c(F)c(F)c(F)c5F)c5ccc2[nH]5)C=C4)C=C3)cc1)C(F)(F)F
REMARK SMILES IDX 17 1 15 2 16 3 2 4 1 5 3 6 4 7 5 9 6 10 7 11 8 12 9 13 10 14
REMARK SMILES IDX 14 15 11 16 13 17 12 18 86 21 87 22 88 23 89 24 18 25 19 26
REMARK SMILES IDX 20 27 21 28 22 29 23 30 24 31 85 32 25 33 84 34 26 35 27 36
REMARK SMILES IDX 28 37 78 38 29 39 83 40 77 41 79 42 30 43 82 44 76 45 75 46
REMARK SMILES IDX 31 48 63 49 43 50 62 51 44 52 47 53 61 54 80 55 45 56 46 57
REMARK SMILES IDX 60 59 81 60 48 61 32 62 33 63 41 64 34 65 35 66 39 67 42 68
REMARK SMILES IDX 36 69 37 70 40 71 38 72 64 73 65 74 73 75 66 76 67 77 71 78
REMARK SMILES IDX 74 79 68 80 69 81 72 82 70 83 49 84 50 85 58 86 51 87 52 88
REMARK SMILES IDX 56 89 59 90 53 91 54 92 57 93 55 94
REMARK H PARENT 3 8 12 19 12 20 79 47 47 58
REMARK Flexibility Score: inf
ROOT
ATOM      1  O   UNL A   1      31.953  27.417  25.346  1.00  0.00    -0.460 OA
ENDROOT
BRANCH   1   2
ATOM      2  C   UNL A   1      31.090  27.122  24.326  1.00  0.00     0.341 C 
ATOM      3  O   UNL A   1      30.223  26.273  24.389  1.00  0.00    -0.249 OA
BRANCH   2   4
ATOM      4  C   UNL A   1      31.471  27.968  23.097  1.00  0.00     0.231 C 
ATOM      5  C   UNL A   1      32.684  28.833  23.487  1.00  0.00     0.058 C 
BRANCH   4   6
ATOM      6  N   UNL A   1      31.621  27.085  21.888  1.00  0.00    -0.333 N 
ATOM      7  C   UNL A   1      32.428  26.070  21.509  1.00  0.00     0.223 C 
ATOM      8  H   UNL A   1      30.960  27.303  21.192  1.00  0.00     0.164 HD
ATOM      9  O   UNL A   1      32.279  25.615  20.374  1.00  0.00    -0.275 OA
BRANCH   7  10
ATOM     10  C   UNL A   1      33.493  25.535  22.419  1.00  0.00     0.128 C 
BRANCH  10  11
ATOM     11  C   UNL A   1      33.170  24.096  22.800  1.00  0.00     0.170 C 
BRANCH  11  12
ATOM     12  O   UNL A   1      34.294  23.532  23.467  1.00  0.00    -0.377 OA
BRANCH  12  13
ATOM     13  C   UNL A   1      34.049  22.903  24.723  1.00  0.00     0.129 C 
ATOM     14  C   UNL A   1      34.587  23.801  25.826  1.00  0.00     0.093 C 
ATOM     15  C   UNL A   1      34.702  21.507  24.730  1.00  0.00     0.093 C 
ATOM     16  C   UNL A   1      36.108  23.746  25.893  1.00  0.00     0.263 C 
ATOM     17  C   UNL A   1      36.161  21.421  25.206  1.00  0.00     0.263 C 
ATOM     18  N   UNL A   1      36.546  22.393  26.220  1.00  0.00    -0.346 N 
ATOM     19  H   UNL A   1      36.127  22.122  27.110  1.00  0.00     0.346 HD
ATOM     20  H   UNL A   1      37.564  22.401  26.272  1.00  0.00     0.346 HD
ENDBRANCH  12  13
ENDBRANCH  11  12
ENDBRANCH  10  11
ENDBRANCH   7  10
ENDBRANCH   4   6
BRANCH   4  21
ATOM     21  C   UNL A   1      30.349  28.984  22.743  1.00  0.00     0.422 C 
ATOM     22  F   UNL A   1      29.140  28.404  22.577  1.00  0.00    -0.168 F 
ATOM     23  F   UNL A   1      30.174  29.852  23.782  1.00  0.00    -0.168 F 
ATOM     24  F   UNL A   1      30.596  29.743  21.661  1.00  0.00    -0.168 F 
ENDBRANCH   4  21
ENDBRANCH   2   4
ENDBRANCH   1   2
BRANCH   1  25
ATOM     25  C   UNL A   1      31.542  27.446  26.726  1.00  0.00     0.274 C 
BRANCH  25  26
ATOM     26  C   UNL A   1      31.613  28.911  27.172  1.00  0.00     0.275 C 
BRANCH  26  27
ATOM     27  O   UNL A   1      32.848  29.437  26.655  1.00  0.00    -0.458 OA
BRANCH  27  28
ATOM     28  C   UNL A   1      33.157  30.725  26.923  1.00  0.00     0.338 C 
ATOM     29  O   UNL A   1      32.458  31.713  26.747  1.00  0.00    -0.246 OA
BRANCH  28  30
ATOM     30  C   UNL A   1      34.470  30.731  27.604  1.00  0.00     0.060 A 
ATOM     31  C   UNL A   1      34.941  29.526  28.107  1.00  0.00     0.016 A 
ATOM     32  C   UNL A   1      35.205  31.888  27.835  1.00  0.00     0.016 A 
ATOM     33  C   UNL A   1      36.080  29.471  28.893  1.00  0.00     0.010 A 
ATOM     34  C   UNL A   1      36.447  31.797  28.495  1.00  0.00     0.010 A 
ATOM     35  C   UNL A   1      36.907  30.578  29.032  1.00  0.00    -0.014 A 
BRANCH  35  36
ATOM     36  C   UNL A   1      38.229  30.429  29.713  1.00  0.00     0.031 A 
ATOM     37  C   UNL A   1      39.286  29.560  29.095  1.00  0.00     0.074 A 
ATOM     38  C   UNL A   1      38.500  31.051  30.885  1.00  0.00     0.049 A 
ATOM     39  N   UNL A   1      40.287  28.945  29.665  1.00  0.00    -0.248 NA
ATOM     40  C   UNL A   1      39.189  29.336  27.643  1.00  0.00     0.031 C 
ATOM     41  C   UNL A   1      37.647  32.030  31.569  1.00  0.00     0.029 A 
ATOM     42  N   UNL A   1      39.583  30.935  31.730  1.00  0.00    -0.354 N 
ATOM     43  C   UNL A   1      40.868  28.172  28.670  1.00  0.00     0.074 A 
ATOM     44  C   UNL A   1      40.141  28.434  27.446  1.00  0.00     0.031 C 
ATOM     45  C   UNL A   1      38.245  32.445  32.692  1.00  0.00     0.029 A 
ATOM     46  C   UNL A   1      39.427  31.632  32.909  1.00  0.00     0.049 A 
ATOM     47  H   UNL A   1      40.388  30.410  31.514  1.00  0.00     0.167 HD
ATOM     48  C   UNL A   1      41.897  27.301  28.795  1.00  0.00     0.037 A 
ATOM     49  C   UNL A   1      40.071  31.542  34.088  1.00  0.00     0.037 A 
ATOM     50  C   UNL A   1      42.662  27.140  30.004  1.00  0.00     0.049 A 
ATOM     51  C   UNL A   1      41.163  30.524  34.229  1.00  0.00     0.074 A 
ATOM     52  C   UNL A   1      43.752  26.317  30.234  1.00  0.00     0.029 A 
ATOM     53  N   UNL A   1      42.429  27.835  31.182  1.00  0.00    -0.354 N 
ATOM     54  N   UNL A   1      41.641  29.699  33.331  1.00  0.00    -0.248 NA
ATOM     55  C   UNL A   1      41.776  30.394  35.557  1.00  0.00     0.031 C 
ATOM     56  C   UNL A   1      44.145  26.479  31.566  1.00  0.00     0.029 A 
ATOM     57  C   UNL A   1      43.335  27.439  32.151  1.00  0.00     0.049 A 
ATOM     58  H   UNL A   1      41.724  28.510  31.310  1.00  0.00     0.167 HD
ATOM     59  C   UNL A   1      42.612  28.953  33.980  1.00  0.00     0.074 A 
ATOM     60  C   UNL A   1      42.674  29.443  35.343  1.00  0.00     0.031 C 
ATOM     61  C   UNL A   1      43.377  27.945  33.497  1.00  0.00     0.037 A 
BRANCH  48  62
ATOM     62  C   UNL A   1      42.216  26.401  27.638  1.00  0.00     0.064 A 
ATOM     63  C   UNL A   1      43.208  26.699  26.697  1.00  0.00     0.173 A 
ATOM     64  C   UNL A   1      41.549  25.170  27.522  1.00  0.00     0.173 A 
ATOM     65  F   UNL A   1      43.864  27.868  26.752  1.00  0.00    -0.203 F 
ATOM     66  C   UNL A   1      43.517  25.801  25.676  1.00  0.00     0.198 A 
ATOM     67  C   UNL A   1      41.879  24.263  26.519  1.00  0.00     0.198 A 
ATOM     68  F   UNL A   1      40.590  24.835  28.399  1.00  0.00    -0.203 F 
ATOM     69  F   UNL A   1      44.451  26.116  24.767  1.00  0.00    -0.200 F 
ATOM     70  C   UNL A   1      42.861  24.581  25.594  1.00  0.00     0.200 A 
ATOM     71  F   UNL A   1      41.251  23.081  26.452  1.00  0.00    -0.200 F 
ATOM     72  F   UNL A   1      43.174  23.711  24.624  1.00  0.00    -0.200 F 
ENDBRANCH  48  62
BRANCH  49  73
ATOM     73  C   UNL A   1      39.595  32.329  35.262  1.00  0.00     0.064 A 
ATOM     74  C   UNL A   1      40.047  33.634  35.495  1.00  0.00     0.173 A 
ATOM     75  C   UNL A   1      38.680  31.785  36.181  1.00  0.00     0.173 A 
ATOM     76  F   UNL A   1      40.945  34.189  34.669  1.00  0.00    -0.203 F 
ATOM     77  C   UNL A   1      39.611  34.359  36.604  1.00  0.00     0.198 A 
ATOM     78  C   UNL A   1      38.214  32.526  37.264  1.00  0.00     0.198 A 
ATOM     79  F   UNL A   1      38.220  30.536  36.015  1.00  0.00    -0.203 F 
ATOM     80  F   UNL A   1      40.101  35.585  36.833  1.00  0.00    -0.200 F 
ATOM     81  C   UNL A   1      38.687  33.809  37.481  1.00  0.00     0.200 A 
ATOM     82  F   UNL A   1      37.307  31.994  38.095  1.00  0.00    -0.200 F 
ATOM     83  F   UNL A   1      38.262  34.511  38.540  1.00  0.00    -0.200 F 
ENDBRANCH  49  73
BRANCH  61  84
ATOM     84  C   UNL A   1      44.363  27.331  34.442  1.00  0.00     0.064 A 
ATOM     85  C   UNL A   1      45.629  27.896  34.645  1.00  0.00     0.173 A 
ATOM     86  C   UNL A   1      44.022  26.186  35.176  1.00  0.00     0.173 A 
ATOM     87  F   UNL A   1      46.006  28.978  33.948  1.00  0.00    -0.203 F 
ATOM     88  C   UNL A   1      46.527  27.325  35.542  1.00  0.00     0.198 A 
ATOM     89  C   UNL A   1      44.910  25.635  36.092  1.00  0.00     0.198 A 
ATOM     90  F   UNL A   1      42.820  25.612  35.013  1.00  0.00    -0.203 F 
ATOM     91  F   UNL A   1      47.750  27.855  35.691  1.00  0.00    -0.200 F 
ATOM     92  C   UNL A   1      46.164  26.201  36.270  1.00  0.00     0.200 A 
ATOM     93  F   UNL A   1      44.555  24.557  36.803  1.00  0.00    -0.200 F 
ATOM     94  F   UNL A   1      47.027  25.659  37.140  1.00  0.00    -0.200 F 
ENDBRANCH  61  84
ENDBRANCH  35  36
ENDBRANCH  28  30
ENDBRANCH  27  28
ENDBRANCH  26  27
ENDBRANCH  25  26
ENDBRANCH   1  25
TORSDOF 17
ENDMDL
