MODEL 1
REMARK VINA RESULT:     -11.3      0.000      0.000
REMARK SMILES CC[C@@H](C)c1ccccc1OCC(C)(C)C(=O)OCCOC(=O)c1ccc(-c2c3nc(c(-c4c(F)c(F)c(F)c(F)c4F)c4ccc([nH]4)c(-c4c(F)c(F)c(F)c(F)c4F)c4nc(c(-c5c(F)c(F)c(F)c(F)c5F)c5ccc2[nH]5)C=C4)C=C3)cc1
REMARK SMILES IDX 18 1 16 2 17 3 13 4 14 5 15 6 12 7 11 8 10 9 5 10 6 11 7 12
REMARK SMILES IDX 9 13 8 14 3 15 4 16 2 17 1 18 19 19 20 20 21 21 22 22 23 23
REMARK SMILES IDX 24 24 25 25 86 26 26 27 85 28 27 29 28 30 29 31 79 32 30 33
REMARK SMILES IDX 84 34 78 35 80 36 31 37 83 38 77 39 76 40 32 42 64 43 44 44
REMARK SMILES IDX 63 45 45 46 48 47 62 48 81 49 46 50 47 51 61 53 82 54 49 55
REMARK SMILES IDX 33 56 34 57 42 58 35 59 36 60 40 61 43 62 37 63 38 64 41 65
REMARK SMILES IDX 39 66 65 67 66 68 74 69 67 70 68 71 72 72 75 73 69 74 70 75
REMARK SMILES IDX 73 76 71 77 50 78 51 79 59 80 52 81 53 82 57 83 60 84 54 85
REMARK SMILES IDX 55 86 58 87 56 88
REMARK H PARENT 80 41 48 52
REMARK Flexibility Score: inf
ROOT
ATOM      1  O   UNL A   1      31.494  27.814  23.811  1.00  0.00    -0.462 OA
ENDROOT
BRANCH   1   2
ATOM      2  C   UNL A   1      31.137  26.631  24.382  1.00  0.00     0.315 C 
ATOM      3  O   UNL A   1      30.027  26.399  24.842  1.00  0.00    -0.251 OA
BRANCH   2   4
ATOM      4  C   UNL A   1      32.302  25.639  24.407  1.00  0.00     0.096 C 
ATOM      5  C   UNL A   1      32.790  25.543  25.849  1.00  0.00     0.027 C 
ATOM      6  C   UNL A   1      33.486  26.165  23.549  1.00  0.00     0.027 C 
BRANCH   4   7
ATOM      7  C   UNL A   1      31.860  24.325  23.712  1.00  0.00     0.247 C 
BRANCH   7   8
ATOM      8  O   UNL A   1      32.704  23.337  23.118  1.00  0.00    -0.492 OA
BRANCH   8   9
ATOM      9  C   UNL A   1      33.190  22.270  23.801  1.00  0.00     0.122 A 
ATOM     10  C   UNL A   1      34.482  22.185  24.360  1.00  0.00    -0.003 A 
ATOM     11  C   UNL A   1      34.878  20.911  24.848  1.00  0.00     0.008 A 
ATOM     12  C   UNL A   1      34.051  19.787  24.787  1.00  0.00     0.001 A 
ATOM     13  C   UNL A   1      32.381  21.122  23.705  1.00  0.00     0.047 A 
ATOM     14  C   UNL A   1      32.798  19.892  24.208  1.00  0.00     0.004 A 
BRANCH  10  15
ATOM     15  C   UNL A   1      35.549  23.291  24.456  1.00  0.00     0.019 C 
ATOM     16  C   UNL A   1      36.610  23.102  23.348  1.00  0.00     0.013 C 
BRANCH  15  17
ATOM     17  C   UNL A   1      36.239  23.498  25.814  1.00  0.00     0.005 C 
ATOM     18  C   UNL A   1      37.743  23.251  25.830  1.00  0.00     0.004 C 
ENDBRANCH  15  17
ENDBRANCH  10  15
ENDBRANCH   8   9
ENDBRANCH   7   8
ENDBRANCH   4   7
ENDBRANCH   2   4
ENDBRANCH   1   2
BRANCH   1  19
ATOM     19  C   UNL A   1      31.214  29.015  24.556  1.00  0.00     0.274 C 
BRANCH  19  20
ATOM     20  C   UNL A   1      32.518  29.616  25.070  1.00  0.00     0.275 C 
BRANCH  20  21
ATOM     21  O   UNL A   1      32.417  29.821  26.492  1.00  0.00    -0.458 OA
BRANCH  21  22
ATOM     22  C   UNL A   1      32.926  30.979  26.963  1.00  0.00     0.338 C 
ATOM     23  O   UNL A   1      32.375  32.072  26.991  1.00  0.00    -0.246 OA
BRANCH  22  24
ATOM     24  C   UNL A   1      34.291  30.766  27.479  1.00  0.00     0.060 A 
ATOM     25  C   UNL A   1      34.773  29.478  27.702  1.00  0.00     0.016 A 
ATOM     26  C   UNL A   1      35.053  31.863  27.876  1.00  0.00     0.016 A 
ATOM     27  C   UNL A   1      35.940  29.284  28.441  1.00  0.00     0.010 A 
ATOM     28  C   UNL A   1      36.296  31.664  28.491  1.00  0.00     0.010 A 
ATOM     29  C   UNL A   1      36.739  30.371  28.826  1.00  0.00    -0.014 A 
BRANCH  29  30
ATOM     30  C   UNL A   1      38.007  30.176  29.599  1.00  0.00     0.031 A 
ATOM     31  C   UNL A   1      39.139  29.368  29.012  1.00  0.00     0.074 A 
ATOM     32  C   UNL A   1      38.172  30.710  30.827  1.00  0.00     0.049 A 
ATOM     33  N   UNL A   1      40.175  28.831  29.610  1.00  0.00    -0.248 NA
ATOM     34  C   UNL A   1      39.089  29.110  27.563  1.00  0.00     0.031 C 
ATOM     35  C   UNL A   1      37.210  31.559  31.528  1.00  0.00     0.029 A 
ATOM     36  N   UNL A   1      39.227  30.618  31.707  1.00  0.00    -0.354 N 
ATOM     37  C   UNL A   1      40.847  28.107  28.633  1.00  0.00     0.074 A 
ATOM     38  C   UNL A   1      40.116  28.286  27.396  1.00  0.00     0.031 C 
ATOM     39  C   UNL A   1      37.737  31.957  32.695  1.00  0.00     0.029 A 
ATOM     40  C   UNL A   1      39.024  31.300  32.882  1.00  0.00     0.049 A 
ATOM     41  H   UNL A   1      40.049  30.112  31.513  1.00  0.00     0.167 HD
ATOM     42  C   UNL A   1      41.967  27.353  28.759  1.00  0.00     0.037 A 
ATOM     43  C   UNL A   1      39.756  31.353  34.012  1.00  0.00     0.037 A 
ATOM     44  C   UNL A   1      42.746  27.244  29.967  1.00  0.00     0.049 A 
ATOM     45  C   UNL A   1      41.008  30.532  34.123  1.00  0.00     0.074 A 
ATOM     46  C   UNL A   1      43.876  26.478  30.203  1.00  0.00     0.029 A 
ATOM     47  N   UNL A   1      42.500  27.958  31.129  1.00  0.00    -0.354 N 
ATOM     48  N   UNL A   1      41.550  29.729  33.242  1.00  0.00    -0.248 NA
ATOM     49  C   UNL A   1      41.731  30.598  35.401  1.00  0.00     0.031 C 
ATOM     50  C   UNL A   1      44.311  26.726  31.510  1.00  0.00     0.029 A 
ATOM     51  C   UNL A   1      43.467  27.666  32.077  1.00  0.00     0.049 A 
ATOM     52  H   UNL A   1      41.749  28.581  31.261  1.00  0.00     0.167 HD
ATOM     53  C   UNL A   1      42.668  29.186  33.860  1.00  0.00     0.074 A 
ATOM     54  C   UNL A   1      42.749  29.779  35.177  1.00  0.00     0.031 C 
ATOM     55  C   UNL A   1      43.536  28.262  33.384  1.00  0.00     0.037 A 
BRANCH  42  56
ATOM     56  C   UNL A   1      42.412  26.555  27.570  1.00  0.00     0.064 A 
ATOM     57  C   UNL A   1      43.409  27.014  26.700  1.00  0.00     0.173 A 
ATOM     58  C   UNL A   1      41.871  25.279  27.339  1.00  0.00     0.173 A 
ATOM     59  F   UNL A   1      43.946  28.230  26.871  1.00  0.00    -0.203 F 
ATOM     60  C   UNL A   1      43.841  26.229  25.632  1.00  0.00     0.198 A 
ATOM     61  C   UNL A   1      42.322  24.489  26.286  1.00  0.00     0.198 A 
ATOM     62  F   UNL A   1      40.918  24.792  28.147  1.00  0.00    -0.203 F 
ATOM     63  F   UNL A   1      44.775  26.699  24.793  1.00  0.00    -0.200 F 
ATOM     64  C   UNL A   1      43.305  24.966  25.431  1.00  0.00     0.200 A 
ATOM     65  F   UNL A   1      41.812  23.263  26.101  1.00  0.00    -0.200 F 
ATOM     66  F   UNL A   1      43.732  24.209  24.411  1.00  0.00    -0.200 F 
ENDBRANCH  42  56
BRANCH  43  67
ATOM     67  C   UNL A   1      39.281  32.166  35.161  1.00  0.00     0.064 A 
ATOM     68  C   UNL A   1      39.568  33.535  35.244  1.00  0.00     0.173 A 
ATOM     69  C   UNL A   1      38.528  31.592  36.195  1.00  0.00     0.173 A 
ATOM     70  F   UNL A   1      40.313  34.121  34.295  1.00  0.00    -0.203 F 
ATOM     71  C   UNL A   1      39.125  34.298  36.322  1.00  0.00     0.198 A 
ATOM     72  C   UNL A   1      38.058  32.362  37.257  1.00  0.00     0.198 A 
ATOM     73  F   UNL A   1      38.231  30.284  36.165  1.00  0.00    -0.203 F 
ATOM     74  F   UNL A   1      39.449  35.595  36.400  1.00  0.00    -0.200 F 
ATOM     75  C   UNL A   1      38.363  33.712  37.322  1.00  0.00     0.200 A 
ATOM     76  F   UNL A   1      37.311  31.795  38.214  1.00  0.00    -0.200 F 
ATOM     77  F   UNL A   1      37.929  34.448  38.355  1.00  0.00    -0.200 F 
ENDBRANCH  43  67
BRANCH  55  78
ATOM     78  C   UNL A   1      44.653  27.850  34.292  1.00  0.00     0.064 A 
ATOM     79  C   UNL A   1      44.500  26.791  35.198  1.00  0.00     0.173 A 
ATOM     80  C   UNL A   1      45.889  28.511  34.249  1.00  0.00     0.173 A 
ATOM     81  F   UNL A   1      43.330  26.140  35.285  1.00  0.00    -0.203 F 
ATOM     82  C   UNL A   1      45.540  26.424  36.047  1.00  0.00     0.198 A 
ATOM     83  C   UNL A   1      46.931  28.129  35.087  1.00  0.00     0.198 A 
ATOM     84  F   UNL A   1      46.082  29.529  33.397  1.00  0.00    -0.203 F 
ATOM     85  F   UNL A   1      45.360  25.436  36.936  1.00  0.00    -0.200 F 
ATOM     86  C   UNL A   1      46.754  27.090  35.989  1.00  0.00     0.200 A 
ATOM     87  F   UNL A   1      48.107  28.770  35.028  1.00  0.00    -0.200 F 
ATOM     88  F   UNL A   1      47.753  26.739  36.812  1.00  0.00    -0.200 F 
ENDBRANCH  55  78
ENDBRANCH  29  30
ENDBRANCH  22  24
ENDBRANCH  21  22
ENDBRANCH  20  21
ENDBRANCH  19  20
ENDBRANCH   1  19
TORSDOF 16
ENDMDL
MODEL 2
REMARK VINA RESULT:     -11.0      0.486      1.706
REMARK SMILES CC[C@@H](C)c1ccccc1OCC(C)(C)C(=O)OCCOC(=O)c1ccc(-c2c3nc(c(-c4c(F)c(F)c(F)c(F)c4F)c4ccc([nH]4)c(-c4c(F)c(F)c(F)c(F)c4F)c4nc(c(-c5c(F)c(F)c(F)c(F)c5F)c5ccc2[nH]5)C=C4)C=C3)cc1
REMARK SMILES IDX 18 1 16 2 17 3 13 4 14 5 15 6 12 7 11 8 10 9 5 10 6 11 7 12
REMARK SMILES IDX 9 13 8 14 3 15 4 16 2 17 1 18 19 19 20 20 21 21 22 22 23 23
REMARK SMILES IDX 24 24 25 25 86 26 26 27 85 28 27 29 28 30 29 31 79 32 30 33
REMARK SMILES IDX 84 34 78 35 80 36 31 37 83 38 77 39 76 40 32 42 64 43 44 44
REMARK SMILES IDX 63 45 45 46 48 47 62 48 81 49 46 50 47 51 61 53 82 54 49 55
REMARK SMILES IDX 33 56 34 57 42 58 35 59 36 60 40 61 43 62 37 63 38 64 41 65
REMARK SMILES IDX 39 66 65 67 66 68 74 69 67 70 68 71 72 72 75 73 69 74 70 75
REMARK SMILES IDX 73 76 71 77 50 78 51 79 59 80 52 81 53 82 57 83 60 84 54 85
REMARK SMILES IDX 55 86 58 87 56 88
REMARK H PARENT 80 41 48 52
REMARK Flexibility Score: inf
ROOT
ATOM      1  O   UNL A   1      32.286  27.980  25.378  1.00  0.00    -0.462 OA
ENDROOT
BRANCH   1   2
ATOM      2  C   UNL A   1      31.867  26.687  25.468  1.00  0.00     0.315 C 
ATOM      3  O   UNL A   1      31.068  26.282  26.301  1.00  0.00    -0.251 OA
BRANCH   2   4
ATOM      4  C   UNL A   1      32.541  25.799  24.419  1.00  0.00     0.096 C 
ATOM      5  C   UNL A   1      33.961  26.319  24.224  1.00  0.00     0.027 C 
ATOM      6  C   UNL A   1      31.809  25.917  23.053  1.00  0.00     0.027 C 
BRANCH   4   7
ATOM      7  C   UNL A   1      32.372  24.314  24.833  1.00  0.00     0.247 C 
BRANCH   7   8
ATOM      8  O   UNL A   1      32.494  23.165  23.994  1.00  0.00    -0.492 OA
BRANCH   8   9
ATOM      9  C   UNL A   1      33.103  22.019  24.391  1.00  0.00     0.122 A 
ATOM     10  C   UNL A   1      34.482  21.881  24.654  1.00  0.00    -0.003 A 
ATOM     11  C   UNL A   1      34.960  20.558  24.850  1.00  0.00     0.008 A 
ATOM     12  C   UNL A   1      34.130  19.437  24.789  1.00  0.00     0.001 A 
ATOM     13  C   UNL A   1      32.283  20.879  24.288  1.00  0.00     0.047 A 
ATOM     14  C   UNL A   1      32.786  19.598  24.501  1.00  0.00     0.004 A 
BRANCH  10  15
ATOM     15  C   UNL A   1      35.554  22.985  24.698  1.00  0.00     0.019 C 
ATOM     16  C   UNL A   1      36.381  22.974  23.392  1.00  0.00     0.013 C 
BRANCH  15  17
ATOM     17  C   UNL A   1      36.494  23.018  25.914  1.00  0.00     0.005 C 
ATOM     18  C   UNL A   1      37.785  23.806  25.724  1.00  0.00     0.004 C 
ENDBRANCH  15  17
ENDBRANCH  10  15
ENDBRANCH   8   9
ENDBRANCH   7   8
ENDBRANCH   4   7
ENDBRANCH   2   4
ENDBRANCH   1   2
BRANCH   1  19
ATOM     19  C   UNL A   1      31.366  28.931  24.809  1.00  0.00     0.274 C 
BRANCH  19  20
ATOM     20  C   UNL A   1      31.534  30.283  25.496  1.00  0.00     0.275 C 
BRANCH  20  21
ATOM     21  O   UNL A   1      32.437  30.138  26.609  1.00  0.00    -0.458 OA
BRANCH  21  22
ATOM     22  C   UNL A   1      33.008  31.274  27.061  1.00  0.00     0.338 C 
ATOM     23  O   UNL A   1      32.515  32.395  27.078  1.00  0.00    -0.246 OA
BRANCH  22  24
ATOM     24  C   UNL A   1      34.365  30.998  27.571  1.00  0.00     0.060 A 
ATOM     25  C   UNL A   1      34.775  29.691  27.824  1.00  0.00     0.016 A 
ATOM     26  C   UNL A   1      35.192  32.060  27.931  1.00  0.00     0.016 A 
ATOM     27  C   UNL A   1      35.937  29.450  28.558  1.00  0.00     0.010 A 
ATOM     28  C   UNL A   1      36.427  31.807  28.540  1.00  0.00     0.010 A 
ATOM     29  C   UNL A   1      36.801  30.500  28.906  1.00  0.00    -0.014 A 
BRANCH  29  30
ATOM     30  C   UNL A   1      38.063  30.253  29.672  1.00  0.00     0.031 A 
ATOM     31  C   UNL A   1      39.165  29.412  29.074  1.00  0.00     0.074 A 
ATOM     32  C   UNL A   1      38.251  30.770  30.906  1.00  0.00     0.049 A 
ATOM     33  N   UNL A   1      40.183  28.835  29.663  1.00  0.00    -0.248 NA
ATOM     34  C   UNL A   1      39.101  29.170  27.624  1.00  0.00     0.031 C 
ATOM     35  C   UNL A   1      37.320  31.645  31.617  1.00  0.00     0.029 A 
ATOM     36  N   UNL A   1      39.304  30.633  31.780  1.00  0.00    -0.354 N 
ATOM     37  C   UNL A   1      40.827  28.097  28.678  1.00  0.00     0.074 A 
ATOM     38  C   UNL A   1      40.098  28.313  27.445  1.00  0.00     0.031 C 
ATOM     39  C   UNL A   1      37.865  32.014  32.787  1.00  0.00     0.029 A 
ATOM     40  C   UNL A   1      39.129  31.311  32.963  1.00  0.00     0.049 A 
ATOM     41  H   UNL A   1      40.107  30.101  31.579  1.00  0.00     0.167 HD
ATOM     42  C   UNL A   1      41.920  27.303  28.793  1.00  0.00     0.037 A 
ATOM     43  C   UNL A   1      39.866  31.327  34.090  1.00  0.00     0.037 A 
ATOM     44  C   UNL A   1      42.698  27.155  29.996  1.00  0.00     0.049 A 
ATOM     45  C   UNL A   1      41.089  30.462  34.189  1.00  0.00     0.074 A 
ATOM     46  C   UNL A   1      43.802  26.349  30.222  1.00  0.00     0.029 A 
ATOM     47  N   UNL A   1      42.481  27.867  31.166  1.00  0.00    -0.354 N 
ATOM     48  N   UNL A   1      41.600  29.649  33.299  1.00  0.00    -0.248 NA
ATOM     49  C   UNL A   1      41.818  30.490  35.465  1.00  0.00     0.031 C 
ATOM     50  C   UNL A   1      44.249  26.569  31.529  1.00  0.00     0.029 A 
ATOM     51  C   UNL A   1      43.440  27.532  32.107  1.00  0.00     0.049 A 
ATOM     52  H   UNL A   1      41.752  28.514  31.306  1.00  0.00     0.167 HD
ATOM     53  C   UNL A   1      42.700  29.062  33.908  1.00  0.00     0.074 A 
ATOM     54  C   UNL A   1      42.807  29.639  35.231  1.00  0.00     0.031 C 
ATOM     55  C   UNL A   1      43.534  28.113  33.420  1.00  0.00     0.037 A 
BRANCH  42  56
ATOM     56  C   UNL A   1      42.333  26.501  27.594  1.00  0.00     0.064 A 
ATOM     57  C   UNL A   1      43.361  26.920  26.740  1.00  0.00     0.173 A 
ATOM     58  C   UNL A   1      41.728  25.260  27.338  1.00  0.00     0.173 A 
ATOM     59  F   UNL A   1      43.960  28.104  26.936  1.00  0.00    -0.203 F 
ATOM     60  C   UNL A   1      43.761  26.131  25.664  1.00  0.00     0.198 A 
ATOM     61  C   UNL A   1      42.146  24.464  26.276  1.00  0.00     0.198 A 
ATOM     62  F   UNL A   1      40.743  24.811  28.130  1.00  0.00    -0.203 F 
ATOM     63  F   UNL A   1      44.726  26.564  24.840  1.00  0.00    -0.200 F 
ATOM     64  C   UNL A   1      43.160  24.901  25.437  1.00  0.00     0.200 A 
ATOM     65  F   UNL A   1      41.573  23.270  26.067  1.00  0.00    -0.200 F 
ATOM     66  F   UNL A   1      43.557  24.139  24.409  1.00  0.00    -0.200 F 
ENDBRANCH  42  56
BRANCH  43  67
ATOM     67  C   UNL A   1      39.423  32.145  35.248  1.00  0.00     0.064 A 
ATOM     68  C   UNL A   1      38.602  31.601  36.245  1.00  0.00     0.173 A 
ATOM     69  C   UNL A   1      39.812  33.487  35.382  1.00  0.00     0.173 A 
ATOM     70  F   UNL A   1      38.177  30.333  36.142  1.00  0.00    -0.203 F 
ATOM     71  C   UNL A   1      38.184  32.369  37.330  1.00  0.00     0.198 A 
ATOM     72  C   UNL A   1      39.420  34.244  36.483  1.00  0.00     0.198 A 
ATOM     73  F   UNL A   1      40.593  34.055  34.452  1.00  0.00    -0.203 F 
ATOM     74  F   UNL A   1      37.365  31.838  38.247  1.00  0.00    -0.200 F 
ATOM     75  C   UNL A   1      38.600  33.686  37.452  1.00  0.00     0.200 A 
ATOM     76  F   UNL A   1      39.836  35.512  36.604  1.00  0.00    -0.200 F 
ATOM     77  F   UNL A   1      38.205  34.422  38.500  1.00  0.00    -0.200 F 
ENDBRANCH  43  67
BRANCH  55  78
ATOM     78  C   UNL A   1      44.639  27.654  34.320  1.00  0.00     0.064 A 
ATOM     79  C   UNL A   1      45.880  28.308  34.338  1.00  0.00     0.173 A 
ATOM     80  C   UNL A   1      44.455  26.560  35.177  1.00  0.00     0.173 A 
ATOM     81  F   UNL A   1      46.108  29.349  33.524  1.00  0.00    -0.203 F 
ATOM     82  C   UNL A   1      46.906  27.866  35.169  1.00  0.00     0.198 A 
ATOM     83  C   UNL A   1      45.477  26.134  36.019  1.00  0.00     0.198 A 
ATOM     84  F   UNL A   1      43.285  25.906  35.195  1.00  0.00    -0.203 F 
ATOM     85  F   UNL A   1      48.099  28.478  35.141  1.00  0.00    -0.200 F 
ATOM     86  C   UNL A   1      46.703  26.782  36.009  1.00  0.00     0.200 A 
ATOM     87  F   UNL A   1      45.279  25.089  36.834  1.00  0.00    -0.200 F 
ATOM     88  F   UNL A   1      47.695  26.354  36.805  1.00  0.00    -0.200 F 
ENDBRANCH  55  78
ENDBRANCH  29  30
ENDBRANCH  22  24
ENDBRANCH  21  22
ENDBRANCH  20  21
ENDBRANCH  19  20
ENDBRANCH   1  19
TORSDOF 16
ENDMDL
MODEL 3
REMARK VINA RESULT:     -10.9      4.174      9.671
REMARK SMILES CC[C@@H](C)c1ccccc1OCC(C)(C)C(=O)OCCOC(=O)c1ccc(-c2c3nc(c(-c4c(F)c(F)c(F)c(F)c4F)c4ccc([nH]4)c(-c4c(F)c(F)c(F)c(F)c4F)c4nc(c(-c5c(F)c(F)c(F)c(F)c5F)c5ccc2[nH]5)C=C4)C=C3)cc1
REMARK SMILES IDX 18 1 16 2 17 3 13 4 14 5 15 6 12 7 11 8 10 9 5 10 6 11 7 12
REMARK SMILES IDX 9 13 8 14 3 15 4 16 2 17 1 18 19 19 20 20 21 21 22 22 23 23
REMARK SMILES IDX 24 24 25 25 86 26 26 27 85 28 27 29 28 30 29 31 79 32 30 33
REMARK SMILES IDX 84 34 78 35 80 36 31 37 83 38 77 39 76 40 32 42 64 43 44 44
REMARK SMILES IDX 63 45 45 46 48 47 62 48 81 49 46 50 47 51 61 53 82 54 49 55
REMARK SMILES IDX 33 56 34 57 42 58 35 59 36 60 40 61 43 62 37 63 38 64 41 65
REMARK SMILES IDX 39 66 65 67 66 68 74 69 67 70 68 71 72 72 75 73 69 74 70 75
REMARK SMILES IDX 73 76 71 77 50 78 51 79 59 80 52 81 53 82 57 83 60 84 54 85
REMARK SMILES IDX 55 86 58 87 56 88
REMARK H PARENT 80 41 48 52
REMARK Flexibility Score: inf
ROOT
ATOM      1  O   UNL A   1      35.075  21.501  25.726  1.00  0.00    -0.462 OA
ENDROOT
BRANCH   1   2
ATOM      2  C   UNL A   1      33.964  22.118  25.237  1.00  0.00     0.315 C 
ATOM      3  O   UNL A   1      33.655  22.137  24.052  1.00  0.00    -0.251 OA
BRANCH   2   4
ATOM      4  C   UNL A   1      33.166  22.810  26.345  1.00  0.00     0.096 C 
ATOM      5  C   UNL A   1      33.418  22.042  27.637  1.00  0.00     0.027 C 
ATOM      6  C   UNL A   1      31.642  22.736  26.048  1.00  0.00     0.027 C 
BRANCH   4   7
ATOM      7  C   UNL A   1      33.499  24.325  26.334  1.00  0.00     0.247 C 
BRANCH   7   8
ATOM      8  O   UNL A   1      32.688  25.383  25.824  1.00  0.00    -0.492 OA
BRANCH   8   9
ATOM      9  C   UNL A   1      33.173  26.373  25.032  1.00  0.00     0.122 A 
ATOM     10  C   UNL A   1      33.413  27.700  25.446  1.00  0.00    -0.003 A 
ATOM     11  C   UNL A   1      33.717  28.637  24.424  1.00  0.00     0.008 A 
ATOM     12  C   UNL A   1      33.779  28.290  23.073  1.00  0.00     0.001 A 
ATOM     13  C   UNL A   1      33.195  26.043  23.664  1.00  0.00     0.047 A 
ATOM     14  C   UNL A   1      33.512  26.987  22.690  1.00  0.00     0.004 A 
BRANCH  10  15
ATOM     15  C   UNL A   1      33.329  28.279  26.871  1.00  0.00     0.019 C 
ATOM     16  C   UNL A   1      31.877  28.195  27.393  1.00  0.00     0.013 C 
BRANCH  15  17
ATOM     17  C   UNL A   1      33.889  29.693  27.099  1.00  0.00     0.005 C 
ATOM     18  C   UNL A   1      35.245  29.757  27.791  1.00  0.00     0.004 C 
ENDBRANCH  15  17
ENDBRANCH  10  15
ENDBRANCH   8   9
ENDBRANCH   7   8
ENDBRANCH   4   7
ENDBRANCH   2   4
ENDBRANCH   1   2
BRANCH   1  19
ATOM     19  C   UNL A   1      35.574  20.367  24.991  1.00  0.00     0.274 C 
BRANCH  19  20
ATOM     20  C   UNL A   1      37.068  20.539  24.733  1.00  0.00     0.275 C 
BRANCH  20  21
ATOM     21  O   UNL A   1      37.611  21.460  25.697  1.00  0.00    -0.458 OA
BRANCH  21  22
ATOM     22  C   UNL A   1      38.897  21.259  26.052  1.00  0.00     0.338 C 
ATOM     23  O   UNL A   1      39.546  20.227  25.930  1.00  0.00    -0.246 OA
BRANCH  22  24
ATOM     24  C   UNL A   1      39.470  22.491  26.626  1.00  0.00     0.060 A 
ATOM     25  C   UNL A   1      39.012  23.742  26.219  1.00  0.00     0.016 A 
ATOM     26  C   UNL A   1      40.570  22.404  27.478  1.00  0.00     0.016 A 
ATOM     27  C   UNL A   1      39.732  24.892  26.546  1.00  0.00     0.010 A 
ATOM     28  C   UNL A   1      41.202  23.573  27.920  1.00  0.00     0.010 A 
ATOM     29  C   UNL A   1      40.824  24.834  27.425  1.00  0.00    -0.014 A 
BRANCH  29  30
ATOM     30  C   UNL A   1      41.590  26.064  27.804  1.00  0.00     0.031 A 
ATOM     31  C   UNL A   1      40.958  27.113  28.687  1.00  0.00     0.074 A 
ATOM     32  C   UNL A   1      42.852  26.268  27.371  1.00  0.00     0.049 A 
ATOM     33  N   UNL A   1      41.315  28.358  28.885  1.00  0.00    -0.248 NA
ATOM     34  C   UNL A   1      39.753  26.714  29.431  1.00  0.00     0.031 C 
ATOM     35  C   UNL A   1      43.637  25.343  26.555  1.00  0.00     0.029 A 
ATOM     36  N   UNL A   1      43.703  27.332  27.568  1.00  0.00    -0.354 N 
ATOM     37  C   UNL A   1      40.336  28.911  29.701  1.00  0.00     0.074 A 
ATOM     38  C   UNL A   1      39.378  27.862  29.981  1.00  0.00     0.031 C 
ATOM     39  C   UNL A   1      44.867  25.847  26.371  1.00  0.00     0.029 A 
ATOM     40  C   UNL A   1      44.923  27.182  26.955  1.00  0.00     0.049 A 
ATOM     41  H   UNL A   1      43.461  28.125  28.098  1.00  0.00     0.167 HD
ATOM     42  C   UNL A   1      40.240  30.181  30.166  1.00  0.00     0.037 A 
ATOM     43  C   UNL A   1      45.957  28.035  26.820  1.00  0.00     0.037 A 
ATOM     44  C   UNL A   1      41.236  31.202  29.962  1.00  0.00     0.049 A 
ATOM     45  C   UNL A   1      45.843  29.429  27.366  1.00  0.00     0.074 A 
ATOM     46  C   UNL A   1      41.214  32.528  30.365  1.00  0.00     0.029 A 
ATOM     47  N   UNL A   1      42.456  30.998  29.337  1.00  0.00    -0.354 N 
ATOM     48  N   UNL A   1      44.844  29.987  28.004  1.00  0.00    -0.248 NA
ATOM     49  C   UNL A   1      46.987  30.324  27.141  1.00  0.00     0.031 C 
ATOM     50  C   UNL A   1      42.419  33.126  29.979  1.00  0.00     0.029 A 
ATOM     51  C   UNL A   1      43.201  32.166  29.361  1.00  0.00     0.049 A 
ATOM     52  H   UNL A   1      42.750  30.148  28.936  1.00  0.00     0.167 HD
ATOM     53  C   UNL A   1      45.234  31.297  28.246  1.00  0.00     0.074 A 
ATOM     54  C   UNL A   1      46.574  31.442  27.720  1.00  0.00     0.031 C 
ATOM     55  C   UNL A   1      44.532  32.296  28.833  1.00  0.00     0.037 A 
BRANCH  42  56
ATOM     56  C   UNL A   1      39.001  30.559  30.922  1.00  0.00     0.064 A 
ATOM     57  C   UNL A   1      38.931  30.479  32.318  1.00  0.00     0.173 A 
ATOM     58  C   UNL A   1      37.888  31.070  30.234  1.00  0.00     0.173 A 
ATOM     59  F   UNL A   1      39.961  29.986  33.019  1.00  0.00    -0.203 F 
ATOM     60  C   UNL A   1      37.785  30.886  32.999  1.00  0.00     0.198 A 
ATOM     61  C   UNL A   1      36.755  31.497  30.919  1.00  0.00     0.198 A 
ATOM     62  F   UNL A   1      37.908  31.172  28.896  1.00  0.00    -0.203 F 
ATOM     63  F   UNL A   1      37.726  30.774  34.334  1.00  0.00    -0.200 F 
ATOM     64  C   UNL A   1      36.703  31.403  32.302  1.00  0.00     0.200 A 
ATOM     65  F   UNL A   1      35.716  32.008  30.244  1.00  0.00    -0.200 F 
ATOM     66  F   UNL A   1      35.608  31.806  32.961  1.00  0.00    -0.200 F 
ENDBRANCH  42  56
BRANCH  43  67
ATOM     67  C   UNL A   1      47.169  27.612  26.073  1.00  0.00     0.064 A 
ATOM     68  C   UNL A   1      47.215  27.681  24.674  1.00  0.00     0.173 A 
ATOM     69  C   UNL A   1      48.305  27.134  26.742  1.00  0.00     0.173 A 
ATOM     70  F   UNL A   1      46.140  28.101  23.989  1.00  0.00    -0.203 F 
ATOM     71  C   UNL A   1      48.350  27.282  23.973  1.00  0.00     0.198 A 
ATOM     72  C   UNL A   1      49.451  26.765  26.041  1.00  0.00     0.198 A 
ATOM     73  F   UNL A   1      48.309  27.044  28.080  1.00  0.00    -0.203 F 
ATOM     74  F   UNL A   1      48.354  27.317  22.634  1.00  0.00    -0.200 F 
ATOM     75  C   UNL A   1      49.470  26.833  24.658  1.00  0.00     0.200 A 
ATOM     76  F   UNL A   1      50.535  26.345  26.708  1.00  0.00    -0.200 F 
ATOM     77  F   UNL A   1      50.565  26.458  23.982  1.00  0.00    -0.200 F 
ENDBRANCH  43  67
BRANCH  55  78
ATOM     78  C   UNL A   1      45.212  33.626  28.947  1.00  0.00     0.064 A 
ATOM     79  C   UNL A   1      45.002  34.632  27.993  1.00  0.00     0.173 A 
ATOM     80  C   UNL A   1      46.070  33.900  30.021  1.00  0.00     0.173 A 
ATOM     81  F   UNL A   1      44.203  34.409  26.939  1.00  0.00    -0.203 F 
ATOM     82  C   UNL A   1      45.648  35.861  28.099  1.00  0.00     0.198 A 
ATOM     83  C   UNL A   1      46.699  35.136  30.133  1.00  0.00     0.198 A 
ATOM     84  F   UNL A   1      46.299  32.969  30.958  1.00  0.00    -0.203 F 
ATOM     85  F   UNL A   1      45.468  36.795  27.154  1.00  0.00    -0.200 F 
ATOM     86  C   UNL A   1      46.493  36.112  29.169  1.00  0.00     0.200 A 
ATOM     87  F   UNL A   1      47.512  35.381  31.170  1.00  0.00    -0.200 F 
ATOM     88  F   UNL A   1      47.119  37.294  29.268  1.00  0.00    -0.200 F 
ENDBRANCH  55  78
ENDBRANCH  29  30
ENDBRANCH  22  24
ENDBRANCH  21  22
ENDBRANCH  20  21
ENDBRANCH  19  20
ENDBRANCH   1  19
TORSDOF 16
ENDMDL
