MODEL 1
REMARK VINA RESULT:     -12.2      0.000      0.000
REMARK SMILES C[C@H]1CCC[C@H](S[C@@H]2CCC[C@]([NH3+])(C(=O)OCCOC(=O)c3ccc(-c4c5nc(c(-c6c(F)c(F)c(F)c(F)c6F)c6ccc([nH]6)c(-c6c(F)c(F)c(F)c(F)c6F)c6nc(c(-c7c(F)c(F)c(F)c(F)c7F)c7ccc4[nH]7)C=C6)C=C5)cc3)C2)C1
REMARK SMILES IDX 17 1 16 2 14 3 15 4 12 5 8 6 9 7 85 8 10 9 11 10 7 11 6 12
REMARK SMILES IDX 1 13 2 14 3 15 86 16 4 17 5 18 13 19 18 23 19 24 20 25 21 26
REMARK SMILES IDX 22 27 23 28 84 29 24 30 83 31 25 32 26 33 27 34 77 35 28 36
REMARK SMILES IDX 82 37 76 38 78 39 29 40 81 41 75 42 74 43 30 45 62 46 42 47
REMARK SMILES IDX 61 48 43 49 46 50 60 51 79 52 44 53 45 54 59 56 80 57 47 58
REMARK SMILES IDX 31 59 32 60 40 61 33 62 34 63 38 64 41 65 35 66 36 67 39 68
REMARK SMILES IDX 37 69 63 70 64 71 72 72 65 73 66 74 70 75 73 76 67 77 68 78
REMARK SMILES IDX 71 79 69 80 48 81 49 82 57 83 50 84 51 85 55 86 58 87 52 88
REMARK SMILES IDX 53 89 56 90 54 91
REMARK H PARENT 13 20 13 21 13 22 78 44 46 55
REMARK Flexibility Score: inf
ROOT
ATOM      1  C   UNL A   1      31.145  28.851  24.882  1.00  0.00     0.274 C 
ENDROOT
BRANCH   1   2
ATOM      2  O   UNL A   1      31.984  27.724  25.220  1.00  0.00    -0.457 OA
BRANCH   2   3
ATOM      3  C   UNL A   1      31.475  26.835  26.122  1.00  0.00     0.368 C 
ATOM      4  O   UNL A   1      31.229  27.117  27.289  1.00  0.00    -0.245 OA
BRANCH   3   5
ATOM      5  C   UNL A   1      31.250  25.408  25.516  1.00  0.00     0.193 C 
ATOM      6  C   UNL A   1      32.754  23.716  24.155  1.00  0.00     0.053 C 
ATOM      7  C   UNL A   1      31.804  23.824  22.972  1.00  0.00     0.015 C 
ATOM      8  C   UNL A   1      32.626  24.763  25.254  1.00  0.00     0.095 C 
ATOM      9  C   UNL A   1      30.406  24.276  23.392  1.00  0.00     0.008 C 
ATOM     10  C   UNL A   1      30.455  25.564  24.211  1.00  0.00     0.081 C 
BRANCH   6  11
ATOM     11  S   UNL A   1      34.536  23.386  23.722  1.00  0.00    -0.155 SA
BRANCH  11  12
ATOM     12  C   UNL A   1      35.475  22.651  25.163  1.00  0.00     0.047 C 
ATOM     13  C   UNL A   1      38.655  24.344  26.739  1.00  0.00     0.007 C 
ATOM     14  C   UNL A   1      37.862  23.470  25.767  1.00  0.00    -0.013 C 
ATOM     15  C   UNL A   1      38.341  22.022  25.804  1.00  0.00     0.003 C 
ATOM     16  C   UNL A   1      36.358  23.567  26.028  1.00  0.00     0.017 C 
ATOM     17  C   UNL A   1      37.553  21.161  24.825  1.00  0.00     0.001 C 
ATOM     18  C   UNL A   1      36.042  21.236  25.028  1.00  0.00     0.014 C 
ENDBRANCH  11  12
ENDBRANCH   6  11
BRANCH   5  19
ATOM     19  N   UNL A   1      30.491  24.538  26.453  1.00  0.00    -0.343 N 
ATOM     20  H   UNL A   1      30.315  25.046  27.319  1.00  0.00     0.345 HD
ATOM     21  H   UNL A   1      31.036  23.700  26.656  1.00  0.00     0.345 HD
ATOM     22  H   UNL A   1      29.604  24.272  26.027  1.00  0.00     0.345 HD
ENDBRANCH   5  19
ENDBRANCH   3   5
ENDBRANCH   2   3
ENDBRANCH   1   2
BRANCH   1  23
ATOM     23  C   UNL A   1      31.780  30.179  25.315  1.00  0.00     0.275 C 
BRANCH  23  24
ATOM     24  O   UNL A   1      32.891  29.986  26.213  1.00  0.00    -0.458 OA
BRANCH  24  25
ATOM     25  C   UNL A   1      33.217  31.074  26.947  1.00  0.00     0.338 C 
ATOM     26  O   UNL A   1      32.488  32.009  27.236  1.00  0.00    -0.246 OA
BRANCH  25  27
ATOM     27  C   UNL A   1      34.556  30.917  27.540  1.00  0.00     0.060 A 
ATOM     28  C   UNL A   1      34.882  29.631  27.952  1.00  0.00     0.016 A 
ATOM     29  C   UNL A   1      35.421  31.971  27.826  1.00  0.00     0.016 A 
ATOM     30  C   UNL A   1      36.026  29.374  28.687  1.00  0.00     0.010 A 
ATOM     31  C   UNL A   1      36.607  31.711  28.537  1.00  0.00     0.010 A 
ATOM     32  C   UNL A   1      36.909  30.408  28.975  1.00  0.00    -0.014 A 
BRANCH  32  33
ATOM     33  C   UNL A   1      38.080  30.091  29.821  1.00  0.00     0.031 A 
ATOM     34  C   UNL A   1      39.192  29.271  29.244  1.00  0.00     0.074 A 
ATOM     35  C   UNL A   1      38.216  30.653  31.035  1.00  0.00     0.049 A 
ATOM     36  N   UNL A   1      40.260  28.797  29.828  1.00  0.00    -0.248 NA
ATOM     37  C   UNL A   1      39.095  28.959  27.810  1.00  0.00     0.031 C 
ATOM     38  C   UNL A   1      37.286  31.611  31.631  1.00  0.00     0.029 A 
ATOM     39  N   UNL A   1      39.206  30.516  31.977  1.00  0.00    -0.354 N 
ATOM     40  C   UNL A   1      40.941  28.093  28.846  1.00  0.00     0.074 A 
ATOM     41  C   UNL A   1      40.181  28.226  27.621  1.00  0.00     0.031 C 
ATOM     42  C   UNL A   1      37.751  31.980  32.838  1.00  0.00     0.029 A 
ATOM     43  C   UNL A   1      38.975  31.234  33.124  1.00  0.00     0.049 A 
ATOM     44  H   UNL A   1      40.004  29.957  31.841  1.00  0.00     0.167 HD
ATOM     45  C   UNL A   1      42.086  27.381  28.969  1.00  0.00     0.037 A 
ATOM     46  C   UNL A   1      39.657  31.250  34.288  1.00  0.00     0.037 A 
ATOM     47  C   UNL A   1      42.838  27.269  30.190  1.00  0.00     0.049 A 
ATOM     48  C   UNL A   1      40.866  30.363  34.434  1.00  0.00     0.074 A 
ATOM     49  C   UNL A   1      43.972  26.519  30.441  1.00  0.00     0.029 A 
ATOM     50  N   UNL A   1      42.531  27.940  31.365  1.00  0.00    -0.354 N 
ATOM     51  N   UNL A   1      41.452  29.605  33.538  1.00  0.00    -0.248 NA
ATOM     52  C   UNL A   1      41.493  30.309  35.763  1.00  0.00     0.031 C 
ATOM     53  C   UNL A   1      44.327  26.703  31.782  1.00  0.00     0.029 A 
ATOM     54  C   UNL A   1      43.443  27.606  32.351  1.00  0.00     0.049 A 
ATOM     55  H   UNL A   1      41.775  28.561  31.480  1.00  0.00     0.167 HD
ATOM     56  C   UNL A   1      42.523  29.004  34.185  1.00  0.00     0.074 A 
ATOM     57  C   UNL A   1      42.516  29.494  35.547  1.00  0.00     0.031 C 
ATOM     58  C   UNL A   1      43.428  28.120  33.697  1.00  0.00     0.037 A 
BRANCH  45  59
ATOM     59  C   UNL A   1      42.530  26.595  27.774  1.00  0.00     0.064 A 
ATOM     60  C   UNL A   1      42.109  25.278  27.547  1.00  0.00     0.173 A 
ATOM     61  C   UNL A   1      43.405  27.179  26.846  1.00  0.00     0.173 A 
ATOM     62  F   UNL A   1      41.293  24.670  28.419  1.00  0.00    -0.203 F 
ATOM     63  C   UNL A   1      42.570  24.564  26.444  1.00  0.00     0.198 A 
ATOM     64  C   UNL A   1      43.844  26.471  25.732  1.00  0.00     0.198 A 
ATOM     65  F   UNL A   1      43.839  28.436  27.022  1.00  0.00    -0.203 F 
ATOM     66  F   UNL A   1      42.196  23.288  26.269  1.00  0.00    -0.200 F 
ATOM     67  C   UNL A   1      43.433  25.162  25.535  1.00  0.00     0.200 A 
ATOM     68  F   UNL A   1      44.673  27.052  24.855  1.00  0.00    -0.200 F 
ATOM     69  F   UNL A   1      43.878  24.472  24.477  1.00  0.00    -0.200 F 
ENDBRANCH  45  59
BRANCH  46  70
ATOM     70  C   UNL A   1      39.185  32.083  35.426  1.00  0.00     0.064 A 
ATOM     71  C   UNL A   1      39.556  33.430  35.538  1.00  0.00     0.173 A 
ATOM     72  C   UNL A   1      38.387  31.542  36.445  1.00  0.00     0.173 A 
ATOM     73  F   UNL A   1      40.346  33.987  34.608  1.00  0.00    -0.203 F 
ATOM     74  C   UNL A   1      39.158  34.199  36.630  1.00  0.00     0.198 A 
ATOM     75  C   UNL A   1      37.965  32.318  37.521  1.00  0.00     0.198 A 
ATOM     76  F   UNL A   1      38.013  30.254  36.394  1.00  0.00    -0.203 F 
ATOM     77  F   UNL A   1      39.567  35.470  36.738  1.00  0.00    -0.200 F 
ATOM     78  C   UNL A   1      38.358  33.643  37.618  1.00  0.00     0.200 A 
ATOM     79  F   UNL A   1      37.186  31.779  38.468  1.00  0.00    -0.200 F 
ATOM     80  F   UNL A   1      37.976  34.383  38.668  1.00  0.00    -0.200 F 
ENDBRANCH  46  70
BRANCH  58  81
ATOM     81  C   UNL A   1      44.511  27.656  34.624  1.00  0.00     0.064 A 
ATOM     82  C   UNL A   1      45.708  28.371  34.772  1.00  0.00     0.173 A 
ATOM     83  C   UNL A   1      44.319  26.519  35.422  1.00  0.00     0.173 A 
ATOM     84  F   UNL A   1      45.943  29.457  34.020  1.00  0.00    -0.203 F 
ATOM     85  C   UNL A   1      46.680  27.955  35.677  1.00  0.00     0.198 A 
ATOM     86  C   UNL A   1      45.282  26.120  36.344  1.00  0.00     0.198 A 
ATOM     87  F   UNL A   1      43.187  25.805  35.320  1.00  0.00    -0.203 F 
ATOM     88  F   UNL A   1      47.832  28.633  35.780  1.00  0.00    -0.200 F 
ATOM     89  C   UNL A   1      46.463  26.836  36.468  1.00  0.00     0.200 A 
ATOM     90  F   UNL A   1      45.066  25.046  37.116  1.00  0.00    -0.200 F 
ATOM     91  F   UNL A   1      47.395  26.445  37.348  1.00  0.00    -0.200 F 
ENDBRANCH  58  81
ENDBRANCH  32  33
ENDBRANCH  25  27
ENDBRANCH  24  25
ENDBRANCH  23  24
ENDBRANCH   1  23
TORSDOF 14
ENDMDL
MODEL 2
REMARK VINA RESULT:     -12.1      0.415      1.202
REMARK SMILES C[C@H]1CCC[C@H](S[C@@H]2CCC[C@]([NH3+])(C(=O)OCCOC(=O)c3ccc(-c4c5nc(c(-c6c(F)c(F)c(F)c(F)c6F)c6ccc([nH]6)c(-c6c(F)c(F)c(F)c(F)c6F)c6nc(c(-c7c(F)c(F)c(F)c(F)c7F)c7ccc4[nH]7)C=C6)C=C5)cc3)C2)C1
REMARK SMILES IDX 17 1 16 2 14 3 15 4 12 5 8 6 9 7 85 8 10 9 11 10 7 11 6 12
REMARK SMILES IDX 1 13 2 14 3 15 86 16 4 17 5 18 13 19 18 23 19 24 20 25 21 26
REMARK SMILES IDX 22 27 23 28 84 29 24 30 83 31 25 32 26 33 27 34 77 35 28 36
REMARK SMILES IDX 82 37 76 38 78 39 29 40 81 41 75 42 74 43 30 45 62 46 42 47
REMARK SMILES IDX 61 48 43 49 46 50 60 51 79 52 44 53 45 54 59 56 80 57 47 58
REMARK SMILES IDX 31 59 32 60 40 61 33 62 34 63 38 64 41 65 35 66 36 67 39 68
REMARK SMILES IDX 37 69 63 70 64 71 72 72 65 73 66 74 70 75 73 76 67 77 68 78
REMARK SMILES IDX 71 79 69 80 48 81 49 82 57 83 50 84 51 85 55 86 58 87 52 88
REMARK SMILES IDX 53 89 56 90 54 91
REMARK H PARENT 13 20 13 21 13 22 78 44 46 55
REMARK Flexibility Score: inf
ROOT
ATOM      1  C   UNL A   1      31.431  29.178  25.060  1.00  0.00     0.274 C 
ENDROOT
BRANCH   1   2
ATOM      2  O   UNL A   1      32.122  27.957  25.408  1.00  0.00    -0.457 OA
BRANCH   2   3
ATOM      3  C   UNL A   1      31.470  27.107  26.254  1.00  0.00     0.368 C 
ATOM      4  O   UNL A   1      31.141  27.406  27.396  1.00  0.00    -0.245 OA
BRANCH   3   5
ATOM      5  C   UNL A   1      31.198  25.701  25.620  1.00  0.00     0.193 C 
ATOM      6  C   UNL A   1      32.633  24.002  24.195  1.00  0.00     0.053 C 
ATOM      7  C   UNL A   1      31.666  24.161  23.033  1.00  0.00     0.015 C 
ATOM      8  C   UNL A   1      32.552  25.027  25.320  1.00  0.00     0.095 C 
ATOM      9  C   UNL A   1      30.288  24.639  23.487  1.00  0.00     0.008 C 
ATOM     10  C   UNL A   1      30.385  25.907  24.334  1.00  0.00     0.081 C 
BRANCH   6  11
ATOM     11  S   UNL A   1      34.398  23.636  23.724  1.00  0.00    -0.155 SA
BRANCH  11  12
ATOM     12  C   UNL A   1      35.328  22.800  25.115  1.00  0.00     0.047 C 
ATOM     13  C   UNL A   1      38.574  24.314  26.738  1.00  0.00     0.007 C 
ATOM     14  C   UNL A   1      37.745  23.515  25.732  1.00  0.00    -0.013 C 
ATOM     15  C   UNL A   1      38.180  22.054  25.690  1.00  0.00     0.003 C 
ATOM     16  C   UNL A   1      36.247  23.643  26.015  1.00  0.00     0.017 C 
ATOM     17  C   UNL A   1      37.357  21.268  24.678  1.00  0.00     0.001 C 
ATOM     18  C   UNL A   1      35.851  21.378  24.901  1.00  0.00     0.014 C 
ENDBRANCH  11  12
ENDBRANCH   6  11
BRANCH   5  19
ATOM     19  N   UNL A   1      30.432  24.829  26.551  1.00  0.00    -0.343 N 
ATOM     20  H   UNL A   1      30.503  25.202  27.498  1.00  0.00     0.345 HD
ATOM     21  H   UNL A   1      30.818  23.885  26.528  1.00  0.00     0.345 HD
ATOM     22  H   UNL A   1      29.454  24.805  26.267  1.00  0.00     0.345 HD
ENDBRANCH   5  19
ENDBRANCH   3   5
ENDBRANCH   2   3
ENDBRANCH   1   2
BRANCH   1  23
ATOM     23  C   UNL A   1      31.792  30.324  26.014  1.00  0.00     0.275 C 
BRANCH  23  24
ATOM     24  O   UNL A   1      33.173  30.277  26.425  1.00  0.00    -0.458 OA
BRANCH  24  25
ATOM     25  C   UNL A   1      33.574  31.330  27.173  1.00  0.00     0.338 C 
ATOM     26  O   UNL A   1      32.905  32.300  27.492  1.00  0.00    -0.246 OA
BRANCH  25  27
ATOM     27  C   UNL A   1      34.912  31.086  27.738  1.00  0.00     0.060 A 
ATOM     28  C   UNL A   1      35.136  29.800  28.215  1.00  0.00     0.016 A 
ATOM     29  C   UNL A   1      35.876  32.071  27.941  1.00  0.00     0.016 A 
ATOM     30  C   UNL A   1      36.275  29.481  28.933  1.00  0.00     0.010 A 
ATOM     31  C   UNL A   1      37.056  31.744  28.633  1.00  0.00     0.010 A 
ATOM     32  C   UNL A   1      37.254  30.446  29.138  1.00  0.00    -0.014 A 
BRANCH  32  33
ATOM     33  C   UNL A   1      38.418  30.071  29.969  1.00  0.00     0.031 A 
ATOM     34  C   UNL A   1      39.493  29.217  29.371  1.00  0.00     0.074 A 
ATOM     35  C   UNL A   1      38.586  30.610  31.190  1.00  0.00     0.049 A 
ATOM     36  N   UNL A   1      40.547  28.693  29.939  1.00  0.00    -0.248 NA
ATOM     37  C   UNL A   1      39.373  28.930  27.933  1.00  0.00     0.031 C 
ATOM     38  C   UNL A   1      37.699  31.593  31.808  1.00  0.00     0.029 A 
ATOM     39  N   UNL A   1      39.577  30.421  32.121  1.00  0.00    -0.354 N 
ATOM     40  C   UNL A   1      41.192  27.978  28.942  1.00  0.00     0.074 A 
ATOM     41  C   UNL A   1      40.428  28.158  27.725  1.00  0.00     0.031 C 
ATOM     42  C   UNL A   1      38.187  31.927  33.015  1.00  0.00     0.029 A 
ATOM     43  C   UNL A   1      39.383  31.130  33.281  1.00  0.00     0.049 A 
ATOM     44  H   UNL A   1      40.352  29.832  31.971  1.00  0.00     0.167 HD
ATOM     45  C   UNL A   1      42.309  27.220  29.045  1.00  0.00     0.037 A 
ATOM     46  C   UNL A   1      40.074  31.102  34.438  1.00  0.00     0.037 A 
ATOM     47  C   UNL A   1      43.066  27.062  30.257  1.00  0.00     0.049 A 
ATOM     48  C   UNL A   1      41.249  30.167  34.562  1.00  0.00     0.074 A 
ATOM     49  C   UNL A   1      44.172  26.264  30.489  1.00  0.00     0.029 A 
ATOM     50  N   UNL A   1      42.794  27.726  31.445  1.00  0.00    -0.354 N 
ATOM     51  N   UNL A   1      41.798  29.400  33.650  1.00  0.00    -0.248 NA
ATOM     52  C   UNL A   1      41.883  30.069  35.885  1.00  0.00     0.031 C 
ATOM     53  C   UNL A   1      44.544  26.414  31.829  1.00  0.00     0.029 A 
ATOM     54  C   UNL A   1      43.700  27.342  32.418  1.00  0.00     0.049 A 
ATOM     55  H   UNL A   1      42.064  28.375  31.575  1.00  0.00     0.167 HD
ATOM     56  C   UNL A   1      42.850  28.748  34.279  1.00  0.00     0.074 A 
ATOM     57  C   UNL A   1      42.872  29.218  35.649  1.00  0.00     0.031 C 
ATOM     58  C   UNL A   1      43.715  27.837  33.771  1.00  0.00     0.037 A 
BRANCH  45  59
ATOM     59  C   UNL A   1      42.713  26.435  27.835  1.00  0.00     0.064 A 
ATOM     60  C   UNL A   1      42.226  25.146  27.584  1.00  0.00     0.173 A 
ATOM     61  C   UNL A   1      43.618  26.991  26.917  1.00  0.00     0.173 A 
ATOM     62  F   UNL A   1      41.379  24.564  28.444  1.00  0.00    -0.203 F 
ATOM     63  C   UNL A   1      42.650  24.430  26.466  1.00  0.00     0.198 A 
ATOM     64  C   UNL A   1      44.020  26.283  25.790  1.00  0.00     0.198 A 
ATOM     65  F   UNL A   1      44.114  28.221  27.117  1.00  0.00    -0.203 F 
ATOM     66  F   UNL A   1      42.211  23.179  26.268  1.00  0.00    -0.200 F 
ATOM     67  C   UNL A   1      43.542  25.000  25.569  1.00  0.00     0.200 A 
ATOM     68  F   UNL A   1      44.878  26.838  24.924  1.00  0.00    -0.200 F 
ATOM     69  F   UNL A   1      43.952  24.308  24.498  1.00  0.00    -0.200 F 
ENDBRANCH  45  59
BRANCH  46  70
ATOM     70  C   UNL A   1      39.644  31.936  35.592  1.00  0.00     0.064 A 
ATOM     71  C   UNL A   1      38.617  31.513  36.448  1.00  0.00     0.173 A 
ATOM     72  C   UNL A   1      40.224  33.190  35.842  1.00  0.00     0.173 A 
ATOM     73  F   UNL A   1      38.008  30.338  36.232  1.00  0.00    -0.203 F 
ATOM     74  C   UNL A   1      38.178  32.316  37.499  1.00  0.00     0.198 A 
ATOM     75  C   UNL A   1      39.804  33.979  36.910  1.00  0.00     0.198 A 
ATOM     76  F   UNL A   1      41.202  33.649  35.047  1.00  0.00    -0.203 F 
ATOM     77  F   UNL A   1      37.162  31.909  38.271  1.00  0.00    -0.200 F 
ATOM     78  C   UNL A   1      38.776  33.546  37.732  1.00  0.00     0.200 A 
ATOM     79  F   UNL A   1      40.390  35.162  37.137  1.00  0.00    -0.200 F 
ATOM     80  F   UNL A   1      38.353  34.317  38.743  1.00  0.00    -0.200 F 
ENDBRANCH  46  70
BRANCH  58  81
ATOM     81  C   UNL A   1      44.787  27.317  34.683  1.00  0.00     0.064 A 
ATOM     82  C   UNL A   1      46.011  27.985  34.833  1.00  0.00     0.173 A 
ATOM     83  C   UNL A   1      44.558  26.175  35.464  1.00  0.00     0.173 A 
ATOM     84  F   UNL A   1      46.282  29.073  34.096  1.00  0.00    -0.203 F 
ATOM     85  C   UNL A   1      46.973  27.518  35.724  1.00  0.00     0.198 A 
ATOM     86  C   UNL A   1      45.512  25.726  36.371  1.00  0.00     0.198 A 
ATOM     87  F   UNL A   1      43.400  25.506  35.359  1.00  0.00    -0.203 F 
ATOM     88  F   UNL A   1      48.150  28.151  35.829  1.00  0.00    -0.200 F 
ATOM     89  C   UNL A   1      46.719  26.395  36.498  1.00  0.00     0.200 A 
ATOM     90  F   UNL A   1      45.261  24.648  37.128  1.00  0.00    -0.200 F 
ATOM     91  F   UNL A   1      47.642  25.956  37.365  1.00  0.00    -0.200 F 
ENDBRANCH  58  81
ENDBRANCH  32  33
ENDBRANCH  25  27
ENDBRANCH  24  25
ENDBRANCH  23  24
ENDBRANCH   1  23
TORSDOF 14
ENDMDL
MODEL 3
REMARK VINA RESULT:     -12.1      1.155      2.068
REMARK SMILES C[C@H]1CCC[C@H](S[C@@H]2CCC[C@]([NH3+])(C(=O)OCCOC(=O)c3ccc(-c4c5nc(c(-c6c(F)c(F)c(F)c(F)c6F)c6ccc([nH]6)c(-c6c(F)c(F)c(F)c(F)c6F)c6nc(c(-c7c(F)c(F)c(F)c(F)c7F)c7ccc4[nH]7)C=C6)C=C5)cc3)C2)C1
REMARK SMILES IDX 17 1 16 2 14 3 15 4 12 5 8 6 9 7 85 8 10 9 11 10 7 11 6 12
REMARK SMILES IDX 1 13 2 14 3 15 86 16 4 17 5 18 13 19 18 23 19 24 20 25 21 26
REMARK SMILES IDX 22 27 23 28 84 29 24 30 83 31 25 32 26 33 27 34 77 35 28 36
REMARK SMILES IDX 82 37 76 38 78 39 29 40 81 41 75 42 74 43 30 45 62 46 42 47
REMARK SMILES IDX 61 48 43 49 46 50 60 51 79 52 44 53 45 54 59 56 80 57 47 58
REMARK SMILES IDX 31 59 32 60 40 61 33 62 34 63 38 64 41 65 35 66 36 67 39 68
REMARK SMILES IDX 37 69 63 70 64 71 72 72 65 73 66 74 70 75 73 76 67 77 68 78
REMARK SMILES IDX 71 79 69 80 48 81 49 82 57 83 50 84 51 85 55 86 58 87 52 88
REMARK SMILES IDX 53 89 56 90 54 91
REMARK H PARENT 13 20 13 21 13 22 78 44 46 55
REMARK Flexibility Score: inf
ROOT
ATOM      1  C   UNL A   1      31.901  29.196  24.218  1.00  0.00     0.274 C 
ENDROOT
BRANCH   1   2
ATOM      2  O   UNL A   1      31.266  27.906  24.356  1.00  0.00    -0.457 OA
BRANCH   2   3
ATOM      3  C   UNL A   1      32.094  26.834  24.525  1.00  0.00     0.368 C 
ATOM      4  O   UNL A   1      33.003  26.549  23.753  1.00  0.00    -0.245 OA
BRANCH   3   5
ATOM      5  C   UNL A   1      31.754  25.993  25.803  1.00  0.00     0.193 C 
ATOM      6  C   UNL A   1      32.725  23.785  26.879  1.00  0.00     0.053 C 
ATOM      7  C   UNL A   1      31.384  23.098  26.678  1.00  0.00     0.015 C 
ATOM      8  C   UNL A   1      32.962  25.092  26.133  1.00  0.00     0.095 C 
ATOM      9  C   UNL A   1      30.233  24.096  26.571  1.00  0.00     0.008 C 
ATOM     10  C   UNL A   1      30.504  25.153  25.502  1.00  0.00     0.081 C 
BRANCH   6  11
ATOM     11  S   UNL A   1      34.216  22.669  26.802  1.00  0.00    -0.155 SA
BRANCH  11  12
ATOM     12  C   UNL A   1      34.306  21.744  25.178  1.00  0.00     0.047 C 
ATOM     13  C   UNL A   1      33.103  23.281  21.764  1.00  0.00     0.007 C 
ATOM     14  C   UNL A   1      32.976  22.549  23.101  1.00  0.00    -0.013 C 
ATOM     15  C   UNL A   1      32.434  21.136  22.909  1.00  0.00     0.003 C 
ATOM     16  C   UNL A   1      34.303  22.539  23.861  1.00  0.00     0.017 C 
ATOM     17  C   UNL A   1      32.300  20.418  24.246  1.00  0.00     0.001 C 
ATOM     18  C   UNL A   1      33.592  20.396  25.058  1.00  0.00     0.014 C 
ENDBRANCH  11  12
ENDBRANCH   6  11
BRANCH   5  19
ATOM     19  N   UNL A   1      31.487  26.873  26.971  1.00  0.00    -0.343 N 
ATOM     20  H   UNL A   1      32.327  27.407  27.193  1.00  0.00     0.345 HD
ATOM     21  H   UNL A   1      31.226  26.301  27.775  1.00  0.00     0.345 HD
ATOM     22  H   UNL A   1      30.726  27.513  26.747  1.00  0.00     0.345 HD
ENDBRANCH   5  19
ENDBRANCH   3   5
ENDBRANCH   2   3
ENDBRANCH   1   2
BRANCH   1  23
ATOM     23  C   UNL A   1      31.670  30.076  25.453  1.00  0.00     0.275 C 
BRANCH  23  24
ATOM     24  O   UNL A   1      32.720  29.932  26.430  1.00  0.00    -0.458 OA
BRANCH  24  25
ATOM     25  C   UNL A   1      33.143  31.094  26.978  1.00  0.00     0.338 C 
ATOM     26  O   UNL A   1      32.489  32.113  27.132  1.00  0.00    -0.246 OA
BRANCH  25  27
ATOM     27  C   UNL A   1      34.487  30.934  27.560  1.00  0.00     0.060 A 
ATOM     28  C   UNL A   1      34.815  29.647  27.966  1.00  0.00     0.016 A 
ATOM     29  C   UNL A   1      35.355  31.987  27.842  1.00  0.00     0.016 A 
ATOM     30  C   UNL A   1      35.965  29.387  28.691  1.00  0.00     0.010 A 
ATOM     31  C   UNL A   1      36.546  31.724  28.542  1.00  0.00     0.010 A 
ATOM     32  C   UNL A   1      36.850  30.420  28.975  1.00  0.00    -0.014 A 
BRANCH  32  33
ATOM     33  C   UNL A   1      38.028  30.100  29.810  1.00  0.00     0.031 A 
ATOM     34  C   UNL A   1      39.131  29.273  29.225  1.00  0.00     0.074 A 
ATOM     35  C   UNL A   1      38.178  30.664  31.022  1.00  0.00     0.049 A 
ATOM     36  N   UNL A   1      40.202  28.796  29.800  1.00  0.00    -0.248 NA
ATOM     37  C   UNL A   1      39.019  28.959  27.792  1.00  0.00     0.031 C 
ATOM     38  C   UNL A   1      37.258  31.626  31.625  1.00  0.00     0.029 A 
ATOM     39  N   UNL A   1      39.175  30.525  31.954  1.00  0.00    -0.354 N 
ATOM     40  C   UNL A   1      40.871  28.087  28.813  1.00  0.00     0.074 A 
ATOM     41  C   UNL A   1      40.100  28.220  27.595  1.00  0.00     0.031 C 
ATOM     42  C   UNL A   1      37.735  31.997  32.826  1.00  0.00     0.029 A 
ATOM     43  C   UNL A   1      38.959  31.246  33.102  1.00  0.00     0.049 A 
ATOM     44  H   UNL A   1      39.970  29.961  31.813  1.00  0.00     0.167 HD
ATOM     45  C   UNL A   1      42.014  27.370  28.927  1.00  0.00     0.037 A 
ATOM     46  C   UNL A   1      39.651  31.262  34.259  1.00  0.00     0.037 A 
ATOM     47  C   UNL A   1      42.777  27.258  30.141  1.00  0.00     0.049 A 
ATOM     48  C   UNL A   1      40.858  30.370  34.396  1.00  0.00     0.074 A 
ATOM     49  C   UNL A   1      43.910  26.503  30.384  1.00  0.00     0.029 A 
ATOM     50  N   UNL A   1      42.484  27.932  31.318  1.00  0.00    -0.354 N 
ATOM     51  N   UNL A   1      41.432  29.608  33.496  1.00  0.00    -0.248 NA
ATOM     52  C   UNL A   1      41.497  30.316  35.720  1.00  0.00     0.031 C 
ATOM     53  C   UNL A   1      44.279  26.688  31.720  1.00  0.00     0.029 A 
ATOM     54  C   UNL A   1      43.403  27.596  32.296  1.00  0.00     0.049 A 
ATOM     55  H   UNL A   1      41.732  28.557  31.438  1.00  0.00     0.167 HD
ATOM     56  C   UNL A   1      42.507  29.003  34.135  1.00  0.00     0.074 A 
ATOM     57  C   UNL A   1      42.514  29.496  35.496  1.00  0.00     0.031 C 
ATOM     58  C   UNL A   1      43.403  28.114  33.640  1.00  0.00     0.037 A 
BRANCH  45  59
ATOM     59  C   UNL A   1      42.443  26.580  27.730  1.00  0.00     0.064 A 
ATOM     60  C   UNL A   1      41.959  25.290  27.473  1.00  0.00     0.173 A 
ATOM     61  C   UNL A   1      43.370  27.130  26.831  1.00  0.00     0.173 A 
ATOM     62  F   UNL A   1      41.092  24.713  28.316  1.00  0.00    -0.203 F 
ATOM     63  C   UNL A   1      42.407  24.569  26.368  1.00  0.00     0.198 A 
ATOM     64  C   UNL A   1      43.796  26.416  25.716  1.00  0.00     0.198 A 
ATOM     65  F   UNL A   1      43.864  28.359  27.037  1.00  0.00    -0.203 F 
ATOM     66  F   UNL A   1      41.970  23.318  26.164  1.00  0.00    -0.200 F 
ATOM     67  C   UNL A   1      43.321  25.134  25.489  1.00  0.00     0.200 A 
ATOM     68  F   UNL A   1      44.675  26.966  24.867  1.00  0.00    -0.200 F 
ATOM     69  F   UNL A   1      43.753  24.437  24.430  1.00  0.00    -0.200 F 
ENDBRANCH  45  59
BRANCH  46  70
ATOM     70  C   UNL A   1      39.194  32.099  35.400  1.00  0.00     0.064 A 
ATOM     71  C   UNL A   1      39.587  33.440  35.515  1.00  0.00     0.173 A 
ATOM     72  C   UNL A   1      38.387  31.569  36.418  1.00  0.00     0.173 A 
ATOM     73  F   UNL A   1      40.386  33.986  34.587  1.00  0.00    -0.203 F 
ATOM     74  C   UNL A   1      39.202  34.212  36.610  1.00  0.00     0.198 A 
ATOM     75  C   UNL A   1      37.979  32.349  37.496  1.00  0.00     0.198 A 
ATOM     76  F   UNL A   1      37.992  30.287  36.364  1.00  0.00    -0.203 F 
ATOM     77  F   UNL A   1      39.633  35.476  36.721  1.00  0.00    -0.200 F 
ATOM     78  C   UNL A   1      38.393  33.667  37.596  1.00  0.00     0.200 A 
ATOM     79  F   UNL A   1      37.191  31.821  38.442  1.00  0.00    -0.200 F 
ATOM     80  F   UNL A   1      38.024  34.410  38.649  1.00  0.00    -0.200 F 
ENDBRANCH  46  70
BRANCH  58  81
ATOM     81  C   UNL A   1      44.493  27.647  34.559  1.00  0.00     0.064 A 
ATOM     82  C   UNL A   1      44.378  26.453  35.286  1.00  0.00     0.173 A 
ATOM     83  C   UNL A   1      45.690  28.369  34.660  1.00  0.00     0.173 A 
ATOM     84  F   UNL A   1      43.246  25.736  35.232  1.00  0.00    -0.203 F 
ATOM     85  C   UNL A   1      45.421  26.007  36.091  1.00  0.00     0.198 A 
ATOM     86  C   UNL A   1      46.740  27.908  35.448  1.00  0.00     0.198 A 
ATOM     87  F   UNL A   1      45.849  29.515  33.980  1.00  0.00    -0.203 F 
ATOM     88  F   UNL A   1      45.281  24.880  36.804  1.00  0.00    -0.200 F 
ATOM     89  C   UNL A   1      46.604  26.729  36.165  1.00  0.00     0.200 A 
ATOM     90  F   UNL A   1      47.886  28.599  35.508  1.00  0.00    -0.200 F 
ATOM     91  F   UNL A   1      47.612  26.290  36.932  1.00  0.00    -0.200 F 
ENDBRANCH  58  81
ENDBRANCH  32  33
ENDBRANCH  25  27
ENDBRANCH  24  25
ENDBRANCH  23  24
ENDBRANCH   1  23
TORSDOF 14
ENDMDL
