MODEL 1
REMARK VINA RESULT:     -12.5      0.000      0.000
REMARK SMILES Cc1occc1C(=O)NN1C(=O)/C(=C\c2ccc(O[C@H](C)C(=O)OCCOC(=O)c3ccc(-c4c5nc(c(-c6c(F)c(F)c(F)c(F)c6F)c6ccc([nH]6)c(-c6c(F)c(F)c(F)c(F)c6F)c6nc(c(-c7c(F)c(F)c(F)c(F)c7F)c7ccc4[nH]7)C=C6)C=C5)cc3)cc2)SC1=S
REMARK SMILES IDX 24 1 22 2 23 3 20 4 21 5 19 6 18 7 15 8 16 9 94 10 17 11
REMARK SMILES IDX 93 12 14 13 10 14 11 15 96 16 12 17 13 18 95 19 97 20 9 21
REMARK SMILES IDX 7 22 8 23 6 25 1 26 2 27 3 28 4 29 5 30 25 31 26 32 27 33
REMARK SMILES IDX 28 34 29 35 30 36 31 37 92 38 32 39 91 40 33 41 34 42 35 43
REMARK SMILES IDX 85 44 36 45 90 46 84 47 86 48 37 49 89 50 83 51 82 52 38 54
REMARK SMILES IDX 70 55 50 56 69 57 51 58 54 59 68 60 87 61 52 62 53 63 67 65
REMARK SMILES IDX 88 66 55 67 39 68 40 69 48 70 41 71 42 72 46 73 49 74 43 75
REMARK SMILES IDX 44 76 47 77 45 78 71 79 72 80 80 81 73 82 74 83 78 84 81 85
REMARK SMILES IDX 75 86 76 87 79 88 77 89 56 90 57 91 65 92 58 93 59 94 63 95
REMARK SMILES IDX 66 96 60 97 61 98 64 99 62 100
REMARK H PARENT 9 24 86 53 54 64
REMARK Flexibility Score: inf
ROOT
ATOM      1  O   UNL A   1      34.810  34.402  30.467  1.00  0.00    -0.459 OA
ENDROOT
BRANCH   1   2
ATOM      2  C   UNL A   1      34.004  34.196  29.392  1.00  0.00     0.347 C 
ATOM      3  O   UNL A   1      32.920  34.745  29.222  1.00  0.00    -0.248 OA
BRANCH   2   4
ATOM      4  C   UNL A   1      34.571  33.178  28.406  1.00  0.00     0.279 C 
ATOM      5  C   UNL A   1      35.988  33.447  27.892  1.00  0.00     0.066 C 
BRANCH   4   6
ATOM      6  O   UNL A   1      34.253  31.852  28.816  1.00  0.00    -0.479 OA
BRANCH   6   7
ATOM      7  C   UNL A   1      34.029  30.835  27.946  1.00  0.00     0.120 A 
ATOM      8  C   UNL A   1      33.437  29.095  25.825  1.00  0.00    -0.024 A 
ATOM      9  C   UNL A   1      34.576  28.900  26.609  1.00  0.00     0.012 A 
ATOM     10  C   UNL A   1      32.515  30.070  26.214  1.00  0.00     0.012 A 
ATOM     11  C   UNL A   1      34.858  29.754  27.681  1.00  0.00     0.047 A 
ATOM     12  C   UNL A   1      32.828  30.952  27.248  1.00  0.00     0.047 A 
BRANCH   8  13
ATOM     13  C   UNL A   1      33.278  28.292  24.605  1.00  0.00     0.029 C 
ATOM     14  N   UNL A   1      31.355  25.245  25.086  1.00  0.00    -0.198 N 
ATOM     15  C   UNL A   1      31.742  26.492  25.548  1.00  0.00     0.285 C 
ATOM     16  C   UNL A   1      31.428  25.010  23.731  1.00  0.00     0.168 C 
ATOM     17  O   UNL A   1      31.436  26.949  26.639  1.00  0.00    -0.266 OA
ATOM     18  C   UNL A   1      32.521  27.191  24.484  1.00  0.00     0.082 C 
ATOM     19  S   UNL A   1      32.331  26.334  22.986  1.00  0.00    -0.052 SA
ATOM     20  S   UNL A   1      30.785  23.741  22.867  1.00  0.00    -0.050 S 
BRANCH  14  21
ATOM     21  N   UNL A   1      30.673  24.434  25.986  1.00  0.00    -0.254 N 
ATOM     22  C   UNL A   1      31.193  23.407  26.741  1.00  0.00     0.273 C 
ATOM     23  O   UNL A   1      30.474  22.945  27.629  1.00  0.00    -0.267 OA
ATOM     24  H   UNL A   1      29.711  24.613  26.095  1.00  0.00     0.192 HD
BRANCH  22  25
ATOM     25  C   UNL A   1      32.480  22.786  26.449  1.00  0.00     0.082 A 
ATOM     26  C   UNL A   1      32.169  20.751  24.757  1.00  0.00     0.088 C 
ATOM     27  C   UNL A   1      32.845  21.703  25.658  1.00  0.00     0.113 A 
ATOM     28  O   UNL A   1      34.199  21.525  25.701  1.00  0.00    -0.469 OA
ATOM     29  C   UNL A   1      34.724  22.518  26.452  1.00  0.00     0.196 A 
ATOM     30  C   UNL A   1      33.724  23.331  26.913  1.00  0.00     0.056 A 
ENDBRANCH  22  25
ENDBRANCH  14  21
ENDBRANCH   8  13
ENDBRANCH   6   7
ENDBRANCH   4   6
ENDBRANCH   2   4
ENDBRANCH   1   2
BRANCH   1  31
ATOM     31  C   UNL A   1      34.132  34.632  31.717  1.00  0.00     0.274 C 
BRANCH  31  32
ATOM     32  C   UNL A   1      34.173  33.404  32.634  1.00  0.00     0.275 C 
BRANCH  32  33
ATOM     33  O   UNL A   1      35.043  32.373  32.129  1.00  0.00    -0.458 OA
BRANCH  33  34
ATOM     34  C   UNL A   1      36.154  32.156  32.869  1.00  0.00     0.338 C 
ATOM     35  O   UNL A   1      36.286  32.319  34.070  1.00  0.00    -0.246 OA
BRANCH  34  36
ATOM     36  C   UNL A   1      37.197  31.529  32.043  1.00  0.00     0.060 A 
ATOM     37  C   UNL A   1      38.255  30.900  32.705  1.00  0.00     0.016 A 
ATOM     38  C   UNL A   1      37.201  31.642  30.654  1.00  0.00     0.016 A 
ATOM     39  C   UNL A   1      39.337  30.404  31.992  1.00  0.00     0.010 A 
ATOM     40  C   UNL A   1      38.286  31.131  29.932  1.00  0.00     0.010 A 
ATOM     41  C   UNL A   1      39.366  30.525  30.600  1.00  0.00    -0.014 A 
BRANCH  41  42
ATOM     42  C   UNL A   1      40.559  30.054  29.863  1.00  0.00     0.031 A 
ATOM     43  C   UNL A   1      41.717  30.981  29.653  1.00  0.00     0.074 A 
ATOM     44  C   UNL A   1      40.617  28.780  29.436  1.00  0.00     0.049 A 
ATOM     45  N   UNL A   1      42.818  30.789  28.973  1.00  0.00    -0.248 NA
ATOM     46  C   UNL A   1      41.628  32.300  30.298  1.00  0.00     0.031 C 
ATOM     47  C   UNL A   1      39.578  27.772  29.646  1.00  0.00     0.029 A 
ATOM     48  N   UNL A   1      41.593  28.117  28.738  1.00  0.00    -0.354 N 
ATOM     49  C   UNL A   1      43.541  31.968  29.087  1.00  0.00     0.074 A 
ATOM     50  C   UNL A   1      42.752  32.875  29.894  1.00  0.00     0.031 C 
ATOM     51  C   UNL A   1      39.972  26.616  29.088  1.00  0.00     0.029 A 
ATOM     52  C   UNL A   1      41.266  26.818  28.441  1.00  0.00     0.049 A 
ATOM     53  H   UNL A   1      42.445  28.533  28.474  1.00  0.00     0.167 HD
ATOM     54  C   UNL A   1      44.753  32.263  28.560  1.00  0.00     0.037 A 
ATOM     55  C   UNL A   1      41.923  25.905  27.702  1.00  0.00     0.037 A 
ATOM     56  C   UNL A   1      45.539  31.350  27.774  1.00  0.00     0.049 A 
ATOM     57  C   UNL A   1      43.239  26.280  27.077  1.00  0.00     0.074 A 
ATOM     58  C   UNL A   1      46.780  31.552  27.195  1.00  0.00     0.029 A 
ATOM     59  N   UNL A   1      45.157  30.053  27.458  1.00  0.00    -0.354 N 
ATOM     60  N   UNL A   1      43.904  27.406  27.163  1.00  0.00    -0.248 NA
ATOM     61  C   UNL A   1      43.891  25.260  26.245  1.00  0.00     0.031 C 
ATOM     62  C   UNL A   1      47.133  30.390  26.500  1.00  0.00     0.029 A 
ATOM     63  C   UNL A   1      46.130  29.450  26.678  1.00  0.00     0.049 A 
ATOM     64  H   UNL A   1      44.318  29.626  27.746  1.00  0.00     0.167 HD
ATOM     65  C   UNL A   1      45.056  27.229  26.411  1.00  0.00     0.074 A 
ATOM     66  C   UNL A   1      45.008  25.878  25.889  1.00  0.00     0.031 C 
ATOM     67  C   UNL A   1      46.061  28.105  26.171  1.00  0.00     0.037 A 
BRANCH  54  68
ATOM     68  C   UNL A   1      45.287  33.644  28.790  1.00  0.00     0.064 A 
ATOM     69  C   UNL A   1      46.110  33.945  29.884  1.00  0.00     0.173 A 
ATOM     70  C   UNL A   1      44.994  34.674  27.883  1.00  0.00     0.173 A 
ATOM     71  F   UNL A   1      46.405  32.998  30.788  1.00  0.00    -0.203 F 
ATOM     72  C   UNL A   1      46.606  35.234  30.073  1.00  0.00     0.198 A 
ATOM     73  C   UNL A   1      45.509  35.955  28.063  1.00  0.00     0.198 A 
ATOM     74  F   UNL A   1      44.211  34.437  26.820  1.00  0.00    -0.203 F 
ATOM     75  F   UNL A   1      47.360  35.509  31.146  1.00  0.00    -0.200 F 
ATOM     76  C   UNL A   1      46.310  36.234  29.160  1.00  0.00     0.200 A 
ATOM     77  F   UNL A   1      45.228  36.919  27.176  1.00  0.00    -0.200 F 
ATOM     78  F   UNL A   1      46.791  37.473  29.341  1.00  0.00    -0.200 F 
ENDBRANCH  54  68
BRANCH  55  79
ATOM     79  C   UNL A   1      41.328  24.562  27.487  1.00  0.00     0.064 A 
ATOM     80  C   UNL A   1      41.887  23.422  28.078  1.00  0.00     0.173 A 
ATOM     81  C   UNL A   1      40.192  24.393  26.682  1.00  0.00     0.173 A 
ATOM     82  F   UNL A   1      42.990  23.531  28.833  1.00  0.00    -0.203 F 
ATOM     83  C   UNL A   1      41.335  22.160  27.866  1.00  0.00     0.198 A 
ATOM     84  C   UNL A   1      39.626  23.135  26.492  1.00  0.00     0.198 A 
ATOM     85  F   UNL A   1      39.623  25.455  26.091  1.00  0.00    -0.203 F 
ATOM     86  F   UNL A   1      41.910  21.079  28.411  1.00  0.00    -0.200 F 
ATOM     87  C   UNL A   1      40.202  22.019  27.078  1.00  0.00     0.200 A 
ATOM     88  F   UNL A   1      38.526  23.005  25.738  1.00  0.00    -0.200 F 
ATOM     89  F   UNL A   1      39.670  20.806  26.877  1.00  0.00    -0.200 F 
ENDBRANCH  55  79
BRANCH  67  90
ATOM     90  C   UNL A   1      47.200  27.619  25.325  1.00  0.00     0.064 A 
ATOM     91  C   UNL A   1      47.222  27.833  23.939  1.00  0.00     0.173 A 
ATOM     92  C   UNL A   1      48.294  26.968  25.911  1.00  0.00     0.173 A 
ATOM     93  F   UNL A   1      46.189  28.437  23.332  1.00  0.00    -0.203 F 
ATOM     94  C   UNL A   1      48.293  27.392  23.167  1.00  0.00     0.198 A 
ATOM     95  C   UNL A   1      49.374  26.549  25.140  1.00  0.00     0.198 A 
ATOM     96  F   UNL A   1      48.320  26.747  27.234  1.00  0.00    -0.203 F 
ATOM     97  F   UNL A   1      48.277  27.569  21.839  1.00  0.00    -0.200 F 
ATOM     98  C   UNL A   1      49.370  26.756  23.769  1.00  0.00     0.200 A 
ATOM     99  F   UNL A   1      50.418  25.944  25.722  1.00  0.00    -0.200 F 
ATOM    100  F   UNL A   1      50.402  26.336  23.024  1.00  0.00    -0.200 F 
ENDBRANCH  67  90
ENDBRANCH  41  42
ENDBRANCH  34  36
ENDBRANCH  33  34
ENDBRANCH  32  33
ENDBRANCH  31  32
ENDBRANCH   1  31
TORSDOF 16
ENDMDL
MODEL 2
REMARK VINA RESULT:     -12.4      5.031      7.689
REMARK SMILES Cc1occc1C(=O)NN1C(=O)/C(=C\c2ccc(O[C@H](C)C(=O)OCCOC(=O)c3ccc(-c4c5nc(c(-c6c(F)c(F)c(F)c(F)c6F)c6ccc([nH]6)c(-c6c(F)c(F)c(F)c(F)c6F)c6nc(c(-c7c(F)c(F)c(F)c(F)c7F)c7ccc4[nH]7)C=C6)C=C5)cc3)cc2)SC1=S
REMARK SMILES IDX 24 1 22 2 23 3 20 4 21 5 19 6 18 7 15 8 16 9 94 10 17 11
REMARK SMILES IDX 93 12 14 13 10 14 11 15 96 16 12 17 13 18 95 19 97 20 9 21
REMARK SMILES IDX 7 22 8 23 6 25 1 26 2 27 3 28 4 29 5 30 25 31 26 32 27 33
REMARK SMILES IDX 28 34 29 35 30 36 31 37 92 38 32 39 91 40 33 41 34 42 35 43
REMARK SMILES IDX 85 44 36 45 90 46 84 47 86 48 37 49 89 50 83 51 82 52 38 54
REMARK SMILES IDX 70 55 50 56 69 57 51 58 54 59 68 60 87 61 52 62 53 63 67 65
REMARK SMILES IDX 88 66 55 67 39 68 40 69 48 70 41 71 42 72 46 73 49 74 43 75
REMARK SMILES IDX 44 76 47 77 45 78 71 79 72 80 80 81 73 82 74 83 78 84 81 85
REMARK SMILES IDX 75 86 76 87 79 88 77 89 56 90 57 91 65 92 58 93 59 94 63 95
REMARK SMILES IDX 66 96 60 97 61 98 64 99 62 100
REMARK H PARENT 9 24 86 53 54 64
REMARK Flexibility Score: inf
ROOT
ATOM      1  O   UNL A   1      33.464  33.879  28.144  1.00  0.00    -0.459 OA
ENDROOT
BRANCH   1   2
ATOM      2  C   UNL A   1      34.059  32.756  28.628  1.00  0.00     0.347 C 
ATOM      3  O   UNL A   1      34.535  32.653  29.756  1.00  0.00    -0.248 OA
BRANCH   2   4
ATOM      4  C   UNL A   1      34.105  31.618  27.613  1.00  0.00     0.279 C 
ATOM      5  C   UNL A   1      35.240  30.603  27.780  1.00  0.00     0.066 C 
BRANCH   4   6
ATOM      6  O   UNL A   1      32.796  31.116  27.362  1.00  0.00    -0.479 OA
BRANCH   6   7
ATOM      7  C   UNL A   1      32.552  29.993  26.642  1.00  0.00     0.120 A 
ATOM      8  C   UNL A   1      31.613  27.654  25.407  1.00  0.00    -0.024 A 
ATOM      9  C   UNL A   1      32.227  28.659  24.655  1.00  0.00     0.012 A 
ATOM     10  C   UNL A   1      31.621  27.759  26.799  1.00  0.00     0.012 A 
ATOM     11  C   UNL A   1      32.715  29.814  25.275  1.00  0.00     0.047 A 
ATOM     12  C   UNL A   1      32.059  28.936  27.407  1.00  0.00     0.047 A 
BRANCH   8  13
ATOM     13  C   UNL A   1      30.954  26.550  24.697  1.00  0.00     0.029 C 
ATOM     14  N   UNL A   1      33.241  23.978  23.526  1.00  0.00    -0.198 N 
ATOM     15  C   UNL A   1      32.998  25.072  24.339  1.00  0.00     0.285 C 
ATOM     16  C   UNL A   1      32.158  23.238  23.102  1.00  0.00     0.168 C 
ATOM     17  O   UNL A   1      33.842  25.612  25.038  1.00  0.00    -0.266 OA
ATOM     18  C   UNL A   1      31.550  25.426  24.269  1.00  0.00     0.082 C 
ATOM     19  S   UNL A   1      30.686  24.134  23.494  1.00  0.00    -0.052 SA
ATOM     20  S   UNL A   1      32.152  21.744  22.368  1.00  0.00    -0.050 S 
BRANCH  14  21
ATOM     21  N   UNL A   1      34.562  23.558  23.426  1.00  0.00    -0.254 N 
ATOM     22  C   UNL A   1      35.170  22.546  24.132  1.00  0.00     0.273 C 
ATOM     23  O   UNL A   1      36.289  22.191  23.752  1.00  0.00    -0.267 OA
ATOM     24  H   UNL A   1      35.126  24.039  22.777  1.00  0.00     0.192 HD
BRANCH  22  25
ATOM     25  C   UNL A   1      34.604  21.984  25.353  1.00  0.00     0.082 A 
ATOM     26  C   UNL A   1      33.705  19.515  24.911  1.00  0.00     0.088 C 
ATOM     27  C   UNL A   1      34.002  20.765  25.637  1.00  0.00     0.113 A 
ATOM     28  O   UNL A   1      33.648  20.711  26.956  1.00  0.00    -0.469 OA
ATOM     29  C   UNL A   1      34.073  21.849  27.545  1.00  0.00     0.196 A 
ATOM     30  C   UNL A   1      34.685  22.652  26.621  1.00  0.00     0.056 A 
ENDBRANCH  22  25
ENDBRANCH  14  21
ENDBRANCH   8  13
ENDBRANCH   6   7
ENDBRANCH   4   6
ENDBRANCH   2   4
ENDBRANCH   1   2
BRANCH   1  31
ATOM     31  C   UNL A   1      33.984  35.124  28.649  1.00  0.00     0.274 C 
BRANCH  31  32
ATOM     32  C   UNL A   1      32.923  35.931  29.406  1.00  0.00     0.275 C 
BRANCH  32  33
ATOM     33  O   UNL A   1      32.402  35.218  30.544  1.00  0.00    -0.458 OA
BRANCH  33  34
ATOM     34  C   UNL A   1      32.731  35.747  31.744  1.00  0.00     0.338 C 
ATOM     35  O   UNL A   1      32.133  36.613  32.360  1.00  0.00    -0.246 OA
BRANCH  34  36
ATOM     36  C   UNL A   1      33.870  35.019  32.322  1.00  0.00     0.060 A 
ATOM     37  C   UNL A   1      35.138  35.591  32.189  1.00  0.00     0.016 A 
ATOM     38  C   UNL A   1      33.723  33.754  32.890  1.00  0.00     0.016 A 
ATOM     39  C   UNL A   1      36.270  34.898  32.593  1.00  0.00     0.010 A 
ATOM     40  C   UNL A   1      34.863  33.059  33.310  1.00  0.00     0.010 A 
ATOM     41  C   UNL A   1      36.142  33.623  33.148  1.00  0.00    -0.014 A 
BRANCH  41  42
ATOM     42  C   UNL A   1      37.364  32.870  33.509  1.00  0.00     0.031 A 
ATOM     43  C   UNL A   1      38.033  33.124  34.826  1.00  0.00     0.074 A 
ATOM     44  C   UNL A   1      37.834  31.926  32.675  1.00  0.00     0.049 A 
ATOM     45  N   UNL A   1      39.148  32.629  35.297  1.00  0.00    -0.248 NA
ATOM     46  C   UNL A   1      37.353  34.057  35.739  1.00  0.00     0.031 C 
ATOM     47  C   UNL A   1      37.223  31.547  31.400  1.00  0.00     0.029 A 
ATOM     48  N   UNL A   1      38.932  31.111  32.778  1.00  0.00    -0.354 N 
ATOM     49  C   UNL A   1      39.317  33.207  36.547  1.00  0.00     0.074 A 
ATOM     50  C   UNL A   1      38.196  34.096  36.761  1.00  0.00     0.031 C 
ATOM     51  C   UNL A   1      37.957  30.572  30.838  1.00  0.00     0.029 A 
ATOM     52  C   UNL A   1      39.111  30.296  31.689  1.00  0.00     0.049 A 
ATOM     53  H   UNL A   1      39.534  31.112  33.557  1.00  0.00     0.167 HD
ATOM     54  C   UNL A   1      40.323  33.010  37.433  1.00  0.00     0.037 A 
ATOM     55  C   UNL A   1      40.113  29.445  31.398  1.00  0.00     0.037 A 
ATOM     56  C   UNL A   1      41.425  32.110  37.220  1.00  0.00     0.049 A 
ATOM     57  C   UNL A   1      41.249  29.293  32.372  1.00  0.00     0.074 A 
ATOM     58  C   UNL A   1      42.494  31.839  38.056  1.00  0.00     0.029 A 
ATOM     59  N   UNL A   1      41.596  31.329  36.085  1.00  0.00    -0.354 N 
ATOM     60  N   UNL A   1      41.419  29.863  33.539  1.00  0.00    -0.248 NA
ATOM     61  C   UNL A   1      42.336  28.384  31.983  1.00  0.00     0.031 C 
ATOM     62  C   UNL A   1      43.330  30.920  37.412  1.00  0.00     0.029 A 
ATOM     63  C   UNL A   1      42.762  30.590  36.192  1.00  0.00     0.049 A 
ATOM     64  H   UNL A   1      40.979  31.305  35.319  1.00  0.00     0.167 HD
ATOM     65  C   UNL A   1      42.621  29.376  34.031  1.00  0.00     0.074 A 
ATOM     66  C   UNL A   1      43.130  28.448  33.042  1.00  0.00     0.031 C 
ATOM     67  C   UNL A   1      43.249  29.671  35.196  1.00  0.00     0.037 A 
BRANCH  54  68
ATOM     68  C   UNL A   1      40.293  33.811  38.699  1.00  0.00     0.064 A 
ATOM     69  C   UNL A   1      40.984  35.025  38.821  1.00  0.00     0.173 A 
ATOM     70  C   UNL A   1      39.536  33.371  39.795  1.00  0.00     0.173 A 
ATOM     71  F   UNL A   1      41.735  35.479  37.806  1.00  0.00    -0.203 F 
ATOM     72  C   UNL A   1      40.934  35.760  40.003  1.00  0.00     0.198 A 
ATOM     73  C   UNL A   1      39.470  34.119  40.967  1.00  0.00     0.198 A 
ATOM     74  F   UNL A   1      38.856  32.216  39.727  1.00  0.00    -0.203 F 
ATOM     75  F   UNL A   1      41.633  36.899  40.113  1.00  0.00    -0.200 F 
ATOM     76  C   UNL A   1      40.173  35.310  41.072  1.00  0.00     0.200 A 
ATOM     77  F   UNL A   1      38.729  33.687  41.996  1.00  0.00    -0.200 F 
ATOM     78  F   UNL A   1      40.123  36.021  42.207  1.00  0.00    -0.200 F 
ENDBRANCH  54  68
BRANCH  55  79
ATOM     79  C   UNL A   1      40.100  28.701  30.114  1.00  0.00     0.064 A 
ATOM     80  C   UNL A   1      39.482  27.448  30.012  1.00  0.00     0.173 A 
ATOM     81  C   UNL A   1      40.708  29.227  28.965  1.00  0.00     0.173 A 
ATOM     82  F   UNL A   1      38.911  26.892  31.090  1.00  0.00    -0.203 F 
ATOM     83  C   UNL A   1      39.482  26.744  28.809  1.00  0.00     0.198 A 
ATOM     84  C   UNL A   1      40.685  28.535  27.757  1.00  0.00     0.198 A 
ATOM     85  F   UNL A   1      41.316  30.422  29.014  1.00  0.00    -0.203 F 
ATOM     86  F   UNL A   1      38.918  25.530  28.745  1.00  0.00    -0.200 F 
ATOM     87  C   UNL A   1      40.077  27.291  27.682  1.00  0.00     0.200 A 
ATOM     88  F   UNL A   1      41.253  29.071  26.668  1.00  0.00    -0.200 F 
ATOM     89  F   UNL A   1      40.073  26.615  26.525  1.00  0.00    -0.200 F 
ENDBRANCH  55  79
BRANCH  67  90
ATOM     90  C   UNL A   1      44.543  28.967  35.469  1.00  0.00     0.064 A 
ATOM     91  C   UNL A   1      45.773  29.529  35.097  1.00  0.00     0.173 A 
ATOM     92  C   UNL A   1      44.556  27.736  36.141  1.00  0.00     0.173 A 
ATOM     93  F   UNL A   1      45.810  30.696  34.437  1.00  0.00    -0.203 F 
ATOM     94  C   UNL A   1      46.970  28.872  35.371  1.00  0.00     0.198 A 
ATOM     95  C   UNL A   1      45.754  27.094  36.435  1.00  0.00     0.198 A 
ATOM     96  F   UNL A   1      43.404  27.163  36.521  1.00  0.00    -0.203 F 
ATOM     97  F   UNL A   1      48.131  29.406  34.972  1.00  0.00    -0.200 F 
ATOM     98  C   UNL A   1      46.959  27.659  36.045  1.00  0.00     0.200 A 
ATOM     99  F   UNL A   1      45.744  25.927  37.094  1.00  0.00    -0.200 F 
ATOM    100  F   UNL A   1      48.112  27.031  36.312  1.00  0.00    -0.200 F 
ENDBRANCH  67  90
ENDBRANCH  41  42
ENDBRANCH  34  36
ENDBRANCH  33  34
ENDBRANCH  32  33
ENDBRANCH  31  32
ENDBRANCH   1  31
TORSDOF 16
ENDMDL
MODEL 3
REMARK VINA RESULT:     -12.3      1.131      2.047
REMARK SMILES Cc1occc1C(=O)NN1C(=O)/C(=C\c2ccc(O[C@H](C)C(=O)OCCOC(=O)c3ccc(-c4c5nc(c(-c6c(F)c(F)c(F)c(F)c6F)c6ccc([nH]6)c(-c6c(F)c(F)c(F)c(F)c6F)c6nc(c(-c7c(F)c(F)c(F)c(F)c7F)c7ccc4[nH]7)C=C6)C=C5)cc3)cc2)SC1=S
REMARK SMILES IDX 24 1 22 2 23 3 20 4 21 5 19 6 18 7 15 8 16 9 94 10 17 11
REMARK SMILES IDX 93 12 14 13 10 14 11 15 96 16 12 17 13 18 95 19 97 20 9 21
REMARK SMILES IDX 7 22 8 23 6 25 1 26 2 27 3 28 4 29 5 30 25 31 26 32 27 33
REMARK SMILES IDX 28 34 29 35 30 36 31 37 92 38 32 39 91 40 33 41 34 42 35 43
REMARK SMILES IDX 85 44 36 45 90 46 84 47 86 48 37 49 89 50 83 51 82 52 38 54
REMARK SMILES IDX 70 55 50 56 69 57 51 58 54 59 68 60 87 61 52 62 53 63 67 65
REMARK SMILES IDX 88 66 55 67 39 68 40 69 48 70 41 71 42 72 46 73 49 74 43 75
REMARK SMILES IDX 44 76 47 77 45 78 71 79 72 80 80 81 73 82 74 83 78 84 81 85
REMARK SMILES IDX 75 86 76 87 79 88 77 89 56 90 57 91 65 92 58 93 59 94 63 95
REMARK SMILES IDX 66 96 60 97 61 98 64 99 62 100
REMARK H PARENT 9 24 86 53 54 64
REMARK Flexibility Score: inf
ROOT
ATOM      1  O   UNL A   1      34.005  32.840  28.916  1.00  0.00    -0.459 OA
ENDROOT
BRANCH   1   2
ATOM      2  C   UNL A   1      34.845  32.316  27.984  1.00  0.00     0.347 C 
ATOM      3  O   UNL A   1      35.873  32.860  27.591  1.00  0.00    -0.248 OA
BRANCH   2   4
ATOM      4  C   UNL A   1      34.370  30.971  27.440  1.00  0.00     0.279 C 
ATOM      5  C   UNL A   1      35.277  29.769  27.718  1.00  0.00     0.066 C 
BRANCH   4   6
ATOM      6  O   UNL A   1      32.971  30.811  27.649  1.00  0.00    -0.479 OA
BRANCH   6   7
ATOM      7  C   UNL A   1      32.233  29.843  27.051  1.00  0.00     0.120 A 
ATOM      8  C   UNL A   1      31.045  27.871  25.446  1.00  0.00    -0.024 A 
ATOM      9  C   UNL A   1      31.170  27.686  26.825  1.00  0.00     0.012 A 
ATOM     10  C   UNL A   1      31.372  29.116  24.904  1.00  0.00     0.012 A 
ATOM     11  C   UNL A   1      31.741  28.680  27.628  1.00  0.00     0.047 A 
ATOM     12  C   UNL A   1      31.990  30.081  25.699  1.00  0.00     0.047 A 
BRANCH   8  13
ATOM     13  C   UNL A   1      30.612  26.735  24.622  1.00  0.00     0.029 C 
ATOM     14  N   UNL A   1      33.308  24.487  23.678  1.00  0.00    -0.198 N 
ATOM     15  C   UNL A   1      32.841  25.509  24.487  1.00  0.00     0.285 C 
ATOM     16  C   UNL A   1      32.380  23.652  23.095  1.00  0.00     0.168 C 
ATOM     17  O   UNL A   1      33.523  26.106  25.306  1.00  0.00    -0.266 OA
ATOM     18  C   UNL A   1      31.382  25.704  24.240  1.00  0.00     0.082 C 
ATOM     19  S   UNL A   1      30.777  24.361  23.320  1.00  0.00    -0.052 SA
ATOM     20  S   UNL A   1      32.638  22.202  22.320  1.00  0.00    -0.050 S 
BRANCH  14  21
ATOM     21  N   UNL A   1      34.671  24.221  23.738  1.00  0.00    -0.254 N 
ATOM     22  C   UNL A   1      35.296  23.234  24.466  1.00  0.00     0.273 C 
ATOM     23  O   UNL A   1      36.488  23.029  24.224  1.00  0.00    -0.267 OA
ATOM     24  H   UNL A   1      35.255  24.803  23.199  1.00  0.00     0.192 HD
BRANCH  22  25
ATOM     25  C   UNL A   1      34.646  22.533  25.566  1.00  0.00     0.082 A 
ATOM     26  C   UNL A   1      34.195  19.989  24.912  1.00  0.00     0.088 C 
ATOM     27  C   UNL A   1      34.195  21.227  25.715  1.00  0.00     0.113 A 
ATOM     28  O   UNL A   1      33.663  21.052  26.962  1.00  0.00    -0.469 OA
ATOM     29  C   UNL A   1      33.824  22.205  27.646  1.00  0.00     0.196 A 
ATOM     30  C   UNL A   1      34.440  23.135  26.853  1.00  0.00     0.056 A 
ENDBRANCH  22  25
ENDBRANCH  14  21
ENDBRANCH   8  13
ENDBRANCH   6   7
ENDBRANCH   4   6
ENDBRANCH   2   4
ENDBRANCH   1   2
BRANCH   1  31
ATOM     31  C   UNL A   1      34.569  33.871  29.749  1.00  0.00     0.274 C 
BRANCH  31  32
ATOM     32  C   UNL A   1      34.580  33.478  31.231  1.00  0.00     0.275 C 
BRANCH  32  33
ATOM     33  O   UNL A   1      35.108  32.155  31.442  1.00  0.00    -0.458 OA
BRANCH  33  34
ATOM     34  C   UNL A   1      36.053  32.067  32.406  1.00  0.00     0.338 C 
ATOM     35  O   UNL A   1      35.883  32.113  33.613  1.00  0.00    -0.246 OA
BRANCH  34  36
ATOM     36  C   UNL A   1      37.357  31.746  31.808  1.00  0.00     0.060 A 
ATOM     37  C   UNL A   1      37.482  31.868  30.422  1.00  0.00     0.016 A 
ATOM     38  C   UNL A   1      38.407  31.234  32.569  1.00  0.00     0.016 A 
ATOM     39  C   UNL A   1      38.640  31.457  29.779  1.00  0.00     0.010 A 
ATOM     40  C   UNL A   1      39.583  30.831  31.924  1.00  0.00     0.010 A 
ATOM     41  C   UNL A   1      39.696  30.926  30.525  1.00  0.00    -0.014 A 
BRANCH  41  42
ATOM     42  C   UNL A   1      40.896  30.428  29.816  1.00  0.00     0.031 A 
ATOM     43  C   UNL A   1      42.057  31.347  29.582  1.00  0.00     0.074 A 
ATOM     44  C   UNL A   1      40.957  29.140  29.436  1.00  0.00     0.049 A 
ATOM     45  N   UNL A   1      43.163  31.130  28.919  1.00  0.00    -0.248 NA
ATOM     46  C   UNL A   1      41.962  32.689  30.178  1.00  0.00     0.031 C 
ATOM     47  C   UNL A   1      39.916  28.140  29.674  1.00  0.00     0.029 A 
ATOM     48  N   UNL A   1      41.939  28.451  28.771  1.00  0.00    -0.354 N 
ATOM     49  C   UNL A   1      43.886  32.313  28.996  1.00  0.00     0.074 A 
ATOM     50  C   UNL A   1      43.090  33.249  29.762  1.00  0.00     0.031 C 
ATOM     51  C   UNL A   1      40.315  26.964  29.162  1.00  0.00     0.029 A 
ATOM     52  C   UNL A   1      41.614  27.142  28.519  1.00  0.00     0.049 A 
ATOM     53  H   UNL A   1      42.794  28.857  28.500  1.00  0.00     0.167 HD
ATOM     54  C   UNL A   1      45.102  32.588  28.469  1.00  0.00     0.037 A 
ATOM     55  C   UNL A   1      42.277  26.203  27.820  1.00  0.00     0.037 A 
ATOM     56  C   UNL A   1      45.895  31.646  27.724  1.00  0.00     0.049 A 
ATOM     57  C   UNL A   1      43.598  26.555  27.193  1.00  0.00     0.074 A 
ATOM     58  C   UNL A   1      47.141  31.828  27.150  1.00  0.00     0.029 A 
ATOM     59  N   UNL A   1      45.515  30.339  27.453  1.00  0.00    -0.354 N 
ATOM     60  N   UNL A   1      44.263  27.683  27.244  1.00  0.00    -0.248 NA
ATOM     61  C   UNL A   1      44.257  25.504  26.405  1.00  0.00     0.031 C 
ATOM     62  C   UNL A   1      47.499  30.640  26.501  1.00  0.00     0.029 A 
ATOM     63  C   UNL A   1      46.494  29.708  26.704  1.00  0.00     0.049 A 
ATOM     64  H   UNL A   1      44.673  29.923  27.749  1.00  0.00     0.167 HD
ATOM     65  C   UNL A   1      45.422  27.478  26.509  1.00  0.00     0.074 A 
ATOM     66  C   UNL A   1      45.378  26.109  26.037  1.00  0.00     0.031 C 
ATOM     67  C   UNL A   1      46.430  28.345  26.246  1.00  0.00     0.037 A 
BRANCH  54  68
ATOM     68  C   UNL A   1      45.635  33.977  28.653  1.00  0.00     0.064 A 
ATOM     69  C   UNL A   1      46.386  34.336  29.781  1.00  0.00     0.173 A 
ATOM     70  C   UNL A   1      45.415  34.953  27.670  1.00  0.00     0.173 A 
ATOM     71  F   UNL A   1      46.609  33.443  30.757  1.00  0.00    -0.203 F 
ATOM     72  C   UNL A   1      46.882  35.630  29.927  1.00  0.00     0.198 A 
ATOM     73  C   UNL A   1      45.931  36.238  27.808  1.00  0.00     0.198 A 
ATOM     74  F   UNL A   1      44.703  34.658  26.571  1.00  0.00    -0.203 F 
ATOM     75  F   UNL A   1      47.566  35.964  31.030  1.00  0.00    -0.200 F 
ATOM     76  C   UNL A   1      46.659  36.577  28.938  1.00  0.00     0.200 A 
ATOM     77  F   UNL A   1      45.721  37.150  26.849  1.00  0.00    -0.200 F 
ATOM     78  F   UNL A   1      47.140  37.820  29.079  1.00  0.00    -0.200 F 
ENDBRANCH  54  68
BRANCH  55  79
ATOM     79  C   UNL A   1      41.684  24.853  27.649  1.00  0.00     0.064 A 
ATOM     80  C   UNL A   1      42.219  23.741  28.311  1.00  0.00     0.173 A 
ATOM     81  C   UNL A   1      40.573  24.650  26.818  1.00  0.00     0.173 A 
ATOM     82  F   UNL A   1      43.297  23.882  29.094  1.00  0.00    -0.203 F 
ATOM     83  C   UNL A   1      41.668  22.472  28.140  1.00  0.00     0.198 A 
ATOM     84  C   UNL A   1      40.007  23.386  26.668  1.00  0.00     0.198 A 
ATOM     85  F   UNL A   1      40.028  25.684  26.160  1.00  0.00    -0.203 F 
ATOM     86  F   UNL A   1      42.221  21.416  28.753  1.00  0.00    -0.200 F 
ATOM     87  C   UNL A   1      40.560  22.297  27.324  1.00  0.00     0.200 A 
ATOM     88  F   UNL A   1      38.931  23.224  25.886  1.00  0.00    -0.200 F 
ATOM     89  F   UNL A   1      40.030  21.077  27.163  1.00  0.00    -0.200 F 
ENDBRANCH  55  79
BRANCH  67  90
ATOM     90  C   UNL A   1      47.575  27.829  25.428  1.00  0.00     0.064 A 
ATOM     91  C   UNL A   1      48.730  27.313  26.033  1.00  0.00     0.173 A 
ATOM     92  C   UNL A   1      47.501  27.817  24.028  1.00  0.00     0.173 A 
ATOM     93  F   UNL A   1      48.854  27.319  27.369  1.00  0.00    -0.203 F 
ATOM     94  C   UNL A   1      49.780  26.821  25.262  1.00  0.00     0.198 A 
ATOM     95  C   UNL A   1      48.541  27.303  23.261  1.00  0.00     0.198 A 
ATOM     96  F   UNL A   1      46.413  28.295  23.406  1.00  0.00    -0.203 F 
ATOM     97  F   UNL A   1      50.892  26.369  25.858  1.00  0.00    -0.200 F 
ATOM     98  C   UNL A   1      49.682  26.811  23.878  1.00  0.00     0.200 A 
ATOM     99  F   UNL A   1      48.443  27.285  21.925  1.00  0.00    -0.200 F 
ATOM    100  F   UNL A   1      50.692  26.334  23.138  1.00  0.00    -0.200 F 
ENDBRANCH  67  90
ENDBRANCH  41  42
ENDBRANCH  34  36
ENDBRANCH  33  34
ENDBRANCH  32  33
ENDBRANCH  31  32
ENDBRANCH   1  31
TORSDOF 16
ENDMDL
