MODEL 1
REMARK VINA RESULT:     -10.9      0.000      0.000
REMARK SMILES C[C@H](O)C[C@H](Cc1cccc(Br)c1)C(=O)OCCOC(=O)c1ccc(-c2c3nc(c(-c4c(F)c(F)c(F)c(F)c4F)c4ccc([nH]4)c(-c4c(F)c(F)c(F)c(F)c4F)c4nc(c(-c5c(F)c(F)c(F)c(F)c5F)c5ccc2[nH]5)C=C4)C=C3)cc1
REMARK SMILES IDX 17 1 16 2 14 3 15 4 5 5 4 6 2 7 1 8 3 9 6 11 7 12 8 13 13 14
REMARK SMILES IDX 9 15 11 16 10 17 12 18 18 19 19 20 20 21 21 22 22 23 23 24
REMARK SMILES IDX 84 25 24 26 83 27 25 28 26 29 27 30 77 31 28 32 82 33 76 34
REMARK SMILES IDX 78 35 29 36 81 37 75 38 74 39 30 41 62 42 42 43 61 44 43 45
REMARK SMILES IDX 46 46 60 47 79 48 44 49 45 50 59 52 80 53 47 54 31 55 32 56
REMARK SMILES IDX 40 57 33 58 34 59 38 60 41 61 35 62 36 63 39 64 37 65 63 66
REMARK SMILES IDX 64 67 72 68 65 69 66 70 70 71 73 72 67 73 68 74 71 75 69 76
REMARK SMILES IDX 48 77 49 78 57 79 50 80 51 81 55 82 58 83 52 84 53 85 56 86
REMARK SMILES IDX 54 87
REMARK H PARENT 3 10 78 40 46 51
REMARK Flexibility Score: inf
ROOT
ATOM      1  C   UNL A   1      31.744  28.575  27.074  1.00  0.00     0.274 C 
ENDROOT
BRANCH   1   2
ATOM      2  O   UNL A   1      32.468  27.420  26.602  1.00  0.00    -0.462 OA
BRANCH   2   3
ATOM      3  C   UNL A   1      31.776  26.259  26.482  1.00  0.00     0.309 C 
ATOM      4  O   UNL A   1      30.572  26.161  26.689  1.00  0.00    -0.252 OA
BRANCH   3   5
ATOM      5  C   UNL A   1      32.643  25.094  25.995  1.00  0.00     0.106 C 
BRANCH   5   6
ATOM      6  C   UNL A   1      32.670  23.793  26.829  1.00  0.00     0.047 C 
BRANCH   6   7
ATOM      7  C   UNL A   1      31.688  22.688  26.444  1.00  0.00     0.112 C 
ATOM      8  C   UNL A   1      31.041  22.964  25.088  1.00  0.00     0.038 C 
BRANCH   7   9
ATOM      9  O   UNL A   1      30.662  22.627  27.423  1.00  0.00    -0.393 OA
ATOM     10  H   UNL A   1      30.130  21.829  27.284  1.00  0.00     0.210 HD
ENDBRANCH   7   9
ENDBRANCH   6   7
ENDBRANCH   5   6
BRANCH   5  11
ATOM     11  C   UNL A   1      34.039  25.508  25.472  1.00  0.00     0.051 C 
BRANCH  11  12
ATOM     12  C   UNL A   1      35.028  24.482  24.951  1.00  0.00    -0.046 A 
ATOM     13  C   UNL A   1      34.817  23.678  23.825  1.00  0.00     0.004 A 
ATOM     14  C   UNL A   1      36.213  24.291  25.685  1.00  0.00     0.019 A 
ATOM     15  C   UNL A   1      35.759  22.723  23.432  1.00  0.00     0.001 A 
ATOM     16  C   UNL A   1      37.152  23.335  25.290  1.00  0.00     0.018 A 
ATOM     17  C   UNL A   1      36.929  22.550  24.165  1.00  0.00     0.016 A 
ATOM     18  Br  UNL A   1      38.732  23.099  26.302  1.00  0.00    -0.051 Br
ENDBRANCH  11  12
ENDBRANCH   5  11
ENDBRANCH   3   5
ENDBRANCH   2   3
ENDBRANCH   1   2
BRANCH   1  19
ATOM     19  C   UNL A   1      31.791  29.735  26.074  1.00  0.00     0.275 C 
BRANCH  19  20
ATOM     20  O   UNL A   1      33.103  30.321  26.011  1.00  0.00    -0.458 OA
BRANCH  20  21
ATOM     21  C   UNL A   1      33.348  31.276  26.936  1.00  0.00     0.338 C 
ATOM     22  O   UNL A   1      32.598  32.167  27.300  1.00  0.00    -0.246 OA
BRANCH  21  23
ATOM     23  C   UNL A   1      34.634  31.012  27.597  1.00  0.00     0.060 A 
ATOM     24  C   UNL A   1      34.904  29.691  27.964  1.00  0.00     0.016 A 
ATOM     25  C   UNL A   1      35.524  32.035  27.920  1.00  0.00     0.016 A 
ATOM     26  C   UNL A   1      36.066  29.381  28.658  1.00  0.00     0.010 A 
ATOM     27  C   UNL A   1      36.693  31.726  28.628  1.00  0.00     0.010 A 
ATOM     28  C   UNL A   1      36.961  30.399  29.009  1.00  0.00    -0.014 A 
BRANCH  28  29
ATOM     29  C   UNL A   1      38.134  30.060  29.847  1.00  0.00     0.031 A 
ATOM     30  C   UNL A   1      39.203  29.164  29.296  1.00  0.00     0.074 A 
ATOM     31  C   UNL A   1      38.267  30.612  31.066  1.00  0.00     0.049 A 
ATOM     32  N   UNL A   1      40.291  28.720  29.870  1.00  0.00    -0.248 NA
ATOM     33  C   UNL A   1      39.027  28.712  27.907  1.00  0.00     0.031 C 
ATOM     34  C   UNL A   1      37.320  31.543  31.677  1.00  0.00     0.029 A 
ATOM     35  N   UNL A   1      39.259  30.476  32.004  1.00  0.00    -0.354 N 
ATOM     36  C   UNL A   1      40.925  27.931  28.920  1.00  0.00     0.074 A 
ATOM     37  C   UNL A   1      40.089  27.938  27.738  1.00  0.00     0.031 C 
ATOM     38  C   UNL A   1      37.775  31.895  32.891  1.00  0.00     0.029 A 
ATOM     39  C   UNL A   1      39.025  31.187  33.155  1.00  0.00     0.049 A 
ATOM     40  H   UNL A   1      40.061  29.922  31.865  1.00  0.00     0.167 HD
ATOM     41  C   UNL A   1      42.101  27.269  29.025  1.00  0.00     0.037 A 
ATOM     42  C   UNL A   1      39.731  31.239  34.299  1.00  0.00     0.037 A 
ATOM     43  C   UNL A   1      42.928  27.268  30.203  1.00  0.00     0.049 A 
ATOM     44  C   UNL A   1      41.007  30.448  34.409  1.00  0.00     0.074 A 
ATOM     45  C   UNL A   1      44.121  26.603  30.423  1.00  0.00     0.029 A 
ATOM     46  N   UNL A   1      42.645  27.977  31.362  1.00  0.00    -0.354 N 
ATOM     47  N   UNL A   1      41.585  29.681  33.517  1.00  0.00    -0.248 NA
ATOM     48  C   UNL A   1      41.729  30.530  35.685  1.00  0.00     0.031 C 
ATOM     49  C   UNL A   1      44.546  26.887  31.727  1.00  0.00     0.029 A 
ATOM     50  C   UNL A   1      43.638  27.760  32.303  1.00  0.00     0.049 A 
ATOM     51  H   UNL A   1      41.856  28.551  31.495  1.00  0.00     0.167 HD
ATOM     52  C   UNL A   1      42.742  29.203  34.114  1.00  0.00     0.074 A 
ATOM     53  C   UNL A   1      42.797  29.785  35.439  1.00  0.00     0.031 C 
ATOM     54  C   UNL A   1      43.674  28.355  33.615  1.00  0.00     0.037 A 
BRANCH  41  55
ATOM     55  C   UNL A   1      42.548  26.469  27.838  1.00  0.00     0.064 A 
ATOM     56  C   UNL A   1      43.399  27.012  26.864  1.00  0.00     0.173 A 
ATOM     57  C   UNL A   1      42.142  25.135  27.686  1.00  0.00     0.173 A 
ATOM     58  F   UNL A   1      43.801  28.289  26.956  1.00  0.00    -0.203 F 
ATOM     59  C   UNL A   1      43.809  26.256  25.769  1.00  0.00     0.198 A 
ATOM     60  C   UNL A   1      42.573  24.374  26.602  1.00  0.00     0.198 A 
ATOM     61  F   UNL A   1      41.330  24.568  28.591  1.00  0.00    -0.203 F 
ATOM     62  F   UNL A   1      44.588  26.808  24.829  1.00  0.00    -0.200 F 
ATOM     63  C   UNL A   1      43.402  24.936  25.643  1.00  0.00     0.200 A 
ATOM     64  F   UNL A   1      42.185  23.096  26.486  1.00  0.00    -0.200 F 
ATOM     65  F   UNL A   1      43.800  24.208  24.591  1.00  0.00    -0.200 F 
ENDBRANCH  41  55
BRANCH  42  66
ATOM     66  C   UNL A   1      39.235  32.049  35.442  1.00  0.00     0.064 A 
ATOM     67  C   UNL A   1      39.566  33.405  35.569  1.00  0.00     0.173 A 
ATOM     68  C   UNL A   1      38.432  31.477  36.439  1.00  0.00     0.173 A 
ATOM     69  F   UNL A   1      40.353  33.991  34.655  1.00  0.00    -0.203 F 
ATOM     70  C   UNL A   1      39.127  34.153  36.661  1.00  0.00     0.198 A 
ATOM     71  C   UNL A   1      37.971  32.232  37.515  1.00  0.00     0.198 A 
ATOM     72  F   UNL A   1      38.091  30.182  36.366  1.00  0.00    -0.203 F 
ATOM     73  F   UNL A   1      39.498  35.435  36.784  1.00  0.00    -0.200 F 
ATOM     74  C   UNL A   1      38.325  33.567  37.630  1.00  0.00     0.200 A 
ATOM     75  F   UNL A   1      37.188  31.665  38.444  1.00  0.00    -0.200 F 
ATOM     76  F   UNL A   1      37.904  34.287  38.678  1.00  0.00    -0.200 F 
ENDBRANCH  42  66
BRANCH  54  77
ATOM     77  C   UNL A   1      44.841  28.030  34.498  1.00  0.00     0.064 A 
ATOM     78  C   UNL A   1      45.997  28.825  34.507  1.00  0.00     0.173 A 
ATOM     79  C   UNL A   1      44.794  26.925  35.360  1.00  0.00     0.173 A 
ATOM     80  F   UNL A   1      46.093  29.883  33.688  1.00  0.00    -0.203 F 
ATOM     81  C   UNL A   1      47.074  28.510  35.329  1.00  0.00     0.198 A 
ATOM     82  C   UNL A   1      45.864  26.626  36.199  1.00  0.00     0.198 A 
ATOM     83  F   UNL A   1      43.710  26.137  35.393  1.00  0.00    -0.203 F 
ATOM     84  F   UNL A   1      48.188  29.255  35.286  1.00  0.00    -0.200 F 
ATOM     85  C   UNL A   1      47.006  27.414  36.178  1.00  0.00     0.200 A 
ATOM     86  F   UNL A   1      45.793  25.574  37.026  1.00  0.00    -0.200 F 
ATOM     87  F   UNL A   1      48.045  27.112  36.967  1.00  0.00    -0.200 F 
ENDBRANCH  54  77
ENDBRANCH  28  29
ENDBRANCH  21  23
ENDBRANCH  20  21
ENDBRANCH  19  20
ENDBRANCH   1  19
TORSDOF 16
ENDMDL
MODEL 2
REMARK VINA RESULT:     -10.8      3.864      9.474
REMARK SMILES C[C@H](O)C[C@H](Cc1cccc(Br)c1)C(=O)OCCOC(=O)c1ccc(-c2c3nc(c(-c4c(F)c(F)c(F)c(F)c4F)c4ccc([nH]4)c(-c4c(F)c(F)c(F)c(F)c4F)c4nc(c(-c5c(F)c(F)c(F)c(F)c5F)c5ccc2[nH]5)C=C4)C=C3)cc1
REMARK SMILES IDX 17 1 16 2 14 3 15 4 5 5 4 6 2 7 1 8 3 9 6 11 7 12 8 13 13 14
REMARK SMILES IDX 9 15 11 16 10 17 12 18 18 19 19 20 20 21 21 22 22 23 23 24
REMARK SMILES IDX 84 25 24 26 83 27 25 28 26 29 27 30 77 31 28 32 82 33 76 34
REMARK SMILES IDX 78 35 29 36 81 37 75 38 74 39 30 41 62 42 42 43 61 44 43 45
REMARK SMILES IDX 46 46 60 47 79 48 44 49 45 50 59 52 80 53 47 54 31 55 32 56
REMARK SMILES IDX 40 57 33 58 34 59 38 60 41 61 35 62 36 63 39 64 37 65 63 66
REMARK SMILES IDX 64 67 72 68 65 69 66 70 70 71 73 72 67 73 68 74 71 75 69 76
REMARK SMILES IDX 48 77 49 78 57 79 50 80 51 81 55 82 58 83 52 84 53 85 56 86
REMARK SMILES IDX 54 87
REMARK H PARENT 3 10 78 40 46 51
REMARK Flexibility Score: inf
ROOT
ATOM      1  C   UNL A   1      33.559  34.107  28.407  1.00  0.00     0.274 C 
ENDROOT
BRANCH   1   2
ATOM      2  O   UNL A   1      34.734  34.289  29.223  1.00  0.00    -0.462 OA
BRANCH   2   3
ATOM      3  C   UNL A   1      34.611  34.045  30.552  1.00  0.00     0.309 C 
ATOM      4  O   UNL A   1      33.596  34.283  31.196  1.00  0.00    -0.252 OA
BRANCH   3   5
ATOM      5  C   UNL A   1      35.851  33.379  31.155  1.00  0.00     0.106 C 
BRANCH   5   6
ATOM      6  C   UNL A   1      37.003  32.965  30.212  1.00  0.00     0.047 C 
BRANCH   6   7
ATOM      7  C   UNL A   1      38.171  33.938  30.057  1.00  0.00     0.112 C 
ATOM      8  C   UNL A   1      38.588  34.527  31.403  1.00  0.00     0.038 C 
BRANCH   7   9
ATOM      9  O   UNL A   1      37.770  35.003  29.208  1.00  0.00    -0.393 OA
ATOM     10  H   UNL A   1      38.555  35.469  28.883  1.00  0.00     0.210 HD
ENDBRANCH   7   9
ENDBRANCH   6   7
ENDBRANCH   5   6
BRANCH   5  11
ATOM     11  C   UNL A   1      35.545  32.317  32.239  1.00  0.00     0.051 C 
BRANCH  11  12
ATOM     12  C   UNL A   1      36.611  31.843  33.209  1.00  0.00    -0.046 A 
ATOM     13  C   UNL A   1      37.306  30.634  33.096  1.00  0.00     0.004 A 
ATOM     14  C   UNL A   1      36.877  32.653  34.329  1.00  0.00     0.019 A 
ATOM     15  C   UNL A   1      38.244  30.246  34.056  1.00  0.00     0.001 A 
ATOM     16  C   UNL A   1      37.814  32.263  35.287  1.00  0.00     0.018 A 
ATOM     17  C   UNL A   1      38.501  31.062  35.154  1.00  0.00     0.016 A 
ATOM     18  Br  UNL A   1      38.145  33.372  36.782  1.00  0.00    -0.051 Br
ENDBRANCH  11  12
ENDBRANCH   5  11
ENDBRANCH   3   5
ENDBRANCH   2   3
ENDBRANCH   1   2
BRANCH   1  19
ATOM     19  C   UNL A   1      33.387  32.652  27.959  1.00  0.00     0.275 C 
BRANCH  19  20
ATOM     20  O   UNL A   1      34.657  31.991  27.819  1.00  0.00    -0.458 OA
BRANCH  20  21
ATOM     21  C   UNL A   1      34.604  30.640  27.848  1.00  0.00     0.338 C 
ATOM     22  O   UNL A   1      33.653  29.928  27.573  1.00  0.00    -0.246 OA
BRANCH  21  23
ATOM     23  C   UNL A   1      35.942  30.095  28.117  1.00  0.00     0.060 A 
ATOM     24  C   UNL A   1      36.161  29.530  29.376  1.00  0.00     0.016 A 
ATOM     25  C   UNL A   1      36.983  30.200  27.195  1.00  0.00     0.016 A 
ATOM     26  C   UNL A   1      37.422  29.064  29.725  1.00  0.00     0.010 A 
ATOM     27  C   UNL A   1      38.258  29.739  27.549  1.00  0.00     0.010 A 
ATOM     28  C   UNL A   1      38.483  29.180  28.819  1.00  0.00    -0.014 A 
BRANCH  28  29
ATOM     29  C   UNL A   1      39.840  28.781  29.257  1.00  0.00     0.031 A 
ATOM     30  C   UNL A   1      40.581  29.638  30.239  1.00  0.00     0.074 A 
ATOM     31  C   UNL A   1      40.368  27.622  28.826  1.00  0.00     0.049 A 
ATOM     32  N   UNL A   1      41.786  29.488  30.727  1.00  0.00    -0.248 NA
ATOM     33  C   UNL A   1      39.868  30.820  30.746  1.00  0.00     0.031 C 
ATOM     34  C   UNL A   1      39.712  26.682  27.919  1.00  0.00     0.029 A 
ATOM     35  N   UNL A   1      41.576  27.033  29.106  1.00  0.00    -0.354 N 
ATOM     36  C   UNL A   1      41.979  30.558  31.590  1.00  0.00     0.074 A 
ATOM     37  C   UNL A   1      40.777  31.363  31.544  1.00  0.00     0.031 C 
ATOM     38  C   UNL A   1      40.526  25.634  27.713  1.00  0.00     0.029 A 
ATOM     39  C   UNL A   1      41.772  25.846  28.444  1.00  0.00     0.049 A 
ATOM     40  H   UNL A   1      42.239  27.425  29.719  1.00  0.00     0.167 HD
ATOM     41  C   UNL A   1      43.060  30.837  32.357  1.00  0.00     0.037 A 
ATOM     42  C   UNL A   1      42.847  25.037  28.418  1.00  0.00     0.037 A 
ATOM     43  C   UNL A   1      44.251  30.030  32.400  1.00  0.00     0.049 A 
ATOM     44  C   UNL A   1      44.057  25.399  29.237  1.00  0.00     0.074 A 
ATOM     45  C   UNL A   1      45.415  30.242  33.118  1.00  0.00     0.029 A 
ATOM     46  N   UNL A   1      44.426  28.847  31.695  1.00  0.00    -0.354 N 
ATOM     47  N   UNL A   1      44.243  26.428  30.028  1.00  0.00    -0.248 NA
ATOM     48  C   UNL A   1      45.206  24.488  29.159  1.00  0.00     0.031 C 
ATOM     49  C   UNL A   1      46.306  29.203  32.824  1.00  0.00     0.029 A 
ATOM     50  C   UNL A   1      45.682  28.323  31.956  1.00  0.00     0.049 A 
ATOM     51  H   UNL A   1      43.757  28.442  31.099  1.00  0.00     0.167 HD
ATOM     52  C   UNL A   1      45.518  26.281  30.553  1.00  0.00     0.074 A 
ATOM     53  C   UNL A   1      46.054  25.050  30.008  1.00  0.00     0.031 C 
ATOM     54  C   UNL A   1      46.191  27.093  31.405  1.00  0.00     0.037 A 
BRANCH  41  55
ATOM     55  C   UNL A   1      43.009  32.080  33.193  1.00  0.00     0.064 A 
ATOM     56  C   UNL A   1      43.548  33.293  32.739  1.00  0.00     0.173 A 
ATOM     57  C   UNL A   1      42.393  32.066  34.452  1.00  0.00     0.173 A 
ATOM     58  F   UNL A   1      44.164  33.354  31.548  1.00  0.00    -0.203 F 
ATOM     59  C   UNL A   1      43.491  34.441  33.524  1.00  0.00     0.198 A 
ATOM     60  C   UNL A   1      42.316  33.221  35.226  1.00  0.00     0.198 A 
ATOM     61  F   UNL A   1      41.861  30.932  34.932  1.00  0.00    -0.203 F 
ATOM     62  F   UNL A   1      44.049  35.579  33.089  1.00  0.00    -0.200 F 
ATOM     63  C   UNL A   1      42.869  34.406  34.764  1.00  0.00     0.200 A 
ATOM     64  F   UNL A   1      41.707  33.187  36.420  1.00  0.00    -0.200 F 
ATOM     65  F   UNL A   1      42.811  35.513  35.518  1.00  0.00    -0.200 F 
ENDBRANCH  41  55
BRANCH  42  66
ATOM     66  C   UNL A   1      42.837  23.818  27.568  1.00  0.00     0.064 A 
ATOM     67  C   UNL A   1      42.426  22.579  28.080  1.00  0.00     0.173 A 
ATOM     68  C   UNL A   1      43.256  23.866  26.230  1.00  0.00     0.173 A 
ATOM     69  F   UNL A   1      42.043  22.477  29.360  1.00  0.00    -0.203 F 
ATOM     70  C   UNL A   1      42.452  21.431  27.289  1.00  0.00     0.198 A 
ATOM     71  C   UNL A   1      43.255  22.724  25.434  1.00  0.00     0.198 A 
ATOM     72  F   UNL A   1      43.663  25.026  25.695  1.00  0.00    -0.203 F 
ATOM     73  F   UNL A   1      42.101  20.250  27.816  1.00  0.00    -0.200 F 
ATOM     74  C   UNL A   1      42.861  21.505  25.965  1.00  0.00     0.200 A 
ATOM     75  F   UNL A   1      43.641  22.802  24.153  1.00  0.00    -0.200 F 
ATOM     76  F   UNL A   1      42.886  20.401  25.206  1.00  0.00    -0.200 F 
ENDBRANCH  42  66
BRANCH  54  77
ATOM     77  C   UNL A   1      47.565  26.659  31.817  1.00  0.00     0.064 A 
ATOM     78  C   UNL A   1      48.709  27.109  31.141  1.00  0.00     0.173 A 
ATOM     79  C   UNL A   1      47.741  25.802  32.913  1.00  0.00     0.173 A 
ATOM     80  F   UNL A   1      48.590  27.917  30.077  1.00  0.00    -0.203 F 
ATOM     81  C   UNL A   1      49.979  26.694  31.533  1.00  0.00     0.198 A 
ATOM     82  C   UNL A   1      49.014  25.409  33.318  1.00  0.00     0.198 A 
ATOM     83  F   UNL A   1      46.679  25.349  33.596  1.00  0.00    -0.203 F 
ATOM     84  F   UNL A   1      51.056  27.098  30.843  1.00  0.00    -0.200 F 
ATOM     85  C   UNL A   1      50.131  25.849  32.623  1.00  0.00     0.200 A 
ATOM     86  F   UNL A   1      49.160  24.602  34.377  1.00  0.00    -0.200 F 
ATOM     87  F   UNL A   1      51.354  25.452  32.997  1.00  0.00    -0.200 F 
ENDBRANCH  54  77
ENDBRANCH  28  29
ENDBRANCH  21  23
ENDBRANCH  20  21
ENDBRANCH  19  20
ENDBRANCH   1  19
TORSDOF 16
ENDMDL
MODEL 3
REMARK VINA RESULT:     -10.7      0.911      1.832
REMARK SMILES C[C@H](O)C[C@H](Cc1cccc(Br)c1)C(=O)OCCOC(=O)c1ccc(-c2c3nc(c(-c4c(F)c(F)c(F)c(F)c4F)c4ccc([nH]4)c(-c4c(F)c(F)c(F)c(F)c4F)c4nc(c(-c5c(F)c(F)c(F)c(F)c5F)c5ccc2[nH]5)C=C4)C=C3)cc1
REMARK SMILES IDX 17 1 16 2 14 3 15 4 5 5 4 6 2 7 1 8 3 9 6 11 7 12 8 13 13 14
REMARK SMILES IDX 9 15 11 16 10 17 12 18 18 19 19 20 20 21 21 22 22 23 23 24
REMARK SMILES IDX 84 25 24 26 83 27 25 28 26 29 27 30 77 31 28 32 82 33 76 34
REMARK SMILES IDX 78 35 29 36 81 37 75 38 74 39 30 41 62 42 42 43 61 44 43 45
REMARK SMILES IDX 46 46 60 47 79 48 44 49 45 50 59 52 80 53 47 54 31 55 32 56
REMARK SMILES IDX 40 57 33 58 34 59 38 60 41 61 35 62 36 63 39 64 37 65 63 66
REMARK SMILES IDX 64 67 72 68 65 69 66 70 70 71 73 72 67 73 68 74 71 75 69 76
REMARK SMILES IDX 48 77 49 78 57 79 50 80 51 81 55 82 58 83 52 84 53 85 56 86
REMARK SMILES IDX 54 87
REMARK H PARENT 3 10 78 40 46 51
REMARK Flexibility Score: inf
ROOT
ATOM      1  C   UNL A   1      31.751  28.428  26.824  1.00  0.00     0.274 C 
ENDROOT
BRANCH   1   2
ATOM      2  O   UNL A   1      31.233  27.649  25.727  1.00  0.00    -0.462 OA
BRANCH   2   3
ATOM      3  C   UNL A   1      31.421  26.306  25.776  1.00  0.00     0.309 C 
ATOM      4  O   UNL A   1      30.691  25.539  26.394  1.00  0.00    -0.252 OA
BRANCH   3   5
ATOM      5  C   UNL A   1      32.604  25.836  24.925  1.00  0.00     0.106 C 
BRANCH   5   6
ATOM      6  C   UNL A   1      32.555  26.065  23.398  1.00  0.00     0.047 C 
BRANCH   6   7
ATOM      7  C   UNL A   1      33.670  26.905  22.775  1.00  0.00     0.112 C 
ATOM      8  C   UNL A   1      33.919  28.182  23.574  1.00  0.00     0.038 C 
BRANCH   7   9
ATOM      9  O   UNL A   1      33.285  27.270  21.458  1.00  0.00    -0.393 OA
ATOM     10  H   UNL A   1      32.796  26.539  21.050  1.00  0.00     0.210 HD
ENDBRANCH   7   9
ENDBRANCH   6   7
ENDBRANCH   5   6
BRANCH   5  11
ATOM     11  C   UNL A   1      33.159  24.444  25.311  1.00  0.00     0.051 C 
BRANCH  11  12
ATOM     12  C   UNL A   1      34.511  23.964  24.818  1.00  0.00    -0.046 A 
ATOM     13  C   UNL A   1      34.721  23.290  23.610  1.00  0.00     0.004 A 
ATOM     14  C   UNL A   1      35.618  24.163  25.663  1.00  0.00     0.019 A 
ATOM     15  C   UNL A   1      35.993  22.839  23.245  1.00  0.00     0.001 A 
ATOM     16  C   UNL A   1      36.888  23.711  25.296  1.00  0.00     0.018 A 
ATOM     17  C   UNL A   1      37.080  23.050  24.089  1.00  0.00     0.016 A 
ATOM     18  Br  UNL A   1      38.354  23.990  26.457  1.00  0.00    -0.051 Br
ENDBRANCH  11  12
ENDBRANCH   5  11
ENDBRANCH   3   5
ENDBRANCH   2   3
ENDBRANCH   1   2
BRANCH   1  19
ATOM     19  C   UNL A   1      31.776  29.927  26.507  1.00  0.00     0.275 C 
BRANCH  19  20
ATOM     20  O   UNL A   1      33.117  30.393  26.276  1.00  0.00    -0.458 OA
BRANCH  20  21
ATOM     21  C   UNL A   1      33.509  31.420  27.064  1.00  0.00     0.338 C 
ATOM     22  O   UNL A   1      32.877  32.425  27.343  1.00  0.00    -0.246 OA
BRANCH  21  23
ATOM     23  C   UNL A   1      34.794  31.097  27.700  1.00  0.00     0.060 A 
ATOM     24  C   UNL A   1      34.982  29.781  28.130  1.00  0.00     0.016 A 
ATOM     25  C   UNL A   1      35.765  32.069  27.944  1.00  0.00     0.016 A 
ATOM     26  C   UNL A   1      36.141  29.423  28.806  1.00  0.00     0.010 A 
ATOM     27  C   UNL A   1      36.930  31.712  28.634  1.00  0.00     0.010 A 
ATOM     28  C   UNL A   1      37.116  30.390  29.076  1.00  0.00    -0.014 A 
BRANCH  28  29
ATOM     29  C   UNL A   1      38.288  30.009  29.898  1.00  0.00     0.031 A 
ATOM     30  C   UNL A   1      39.313  29.071  29.334  1.00  0.00     0.074 A 
ATOM     31  C   UNL A   1      38.462  30.562  31.112  1.00  0.00     0.049 A 
ATOM     32  N   UNL A   1      40.393  28.588  29.894  1.00  0.00    -0.248 NA
ATOM     33  C   UNL A   1      39.098  28.620  27.951  1.00  0.00     0.031 C 
ATOM     34  C   UNL A   1      37.561  31.531  31.733  1.00  0.00     0.029 A 
ATOM     35  N   UNL A   1      39.463  30.392  32.035  1.00  0.00    -0.354 N 
ATOM     36  C   UNL A   1      40.980  27.771  28.938  1.00  0.00     0.074 A 
ATOM     37  C   UNL A   1      40.127  27.805  27.768  1.00  0.00     0.031 C 
ATOM     38  C   UNL A   1      38.048  31.871  32.938  1.00  0.00     0.029 A 
ATOM     39  C   UNL A   1      39.274  31.116  33.186  1.00  0.00     0.049 A 
ATOM     40  H   UNL A   1      40.240  29.807  31.886  1.00  0.00     0.167 HD
ATOM     41  C   UNL A   1      42.131  27.064  29.027  1.00  0.00     0.037 A 
ATOM     42  C   UNL A   1      40.001  31.146  34.318  1.00  0.00     0.037 A 
ATOM     43  C   UNL A   1      42.977  27.037  30.192  1.00  0.00     0.049 A 
ATOM     44  C   UNL A   1      41.247  30.307  34.412  1.00  0.00     0.074 A 
ATOM     45  C   UNL A   1      44.147  26.328  30.397  1.00  0.00     0.029 A 
ATOM     46  N   UNL A   1      42.740  27.762  31.352  1.00  0.00    -0.354 N 
ATOM     47  N   UNL A   1      41.780  29.515  33.514  1.00  0.00    -0.248 NA
ATOM     48  C   UNL A   1      41.992  30.367  35.676  1.00  0.00     0.031 C 
ATOM     49  C   UNL A   1      44.603  26.601  31.693  1.00  0.00     0.029 A 
ATOM     50  C   UNL A   1      43.739  27.511  32.278  1.00  0.00     0.049 A 
ATOM     51  H   UNL A   1      41.976  28.366  31.494  1.00  0.00     0.167 HD
ATOM     52  C   UNL A   1      42.927  28.995  34.096  1.00  0.00     0.074 A 
ATOM     53  C   UNL A   1      43.026  29.581  35.417  1.00  0.00     0.031 C 
ATOM     54  C   UNL A   1      43.818  28.109  33.587  1.00  0.00     0.037 A 
BRANCH  41  55
ATOM     55  C   UNL A   1      42.529  26.242  27.838  1.00  0.00     0.064 A 
ATOM     56  C   UNL A   1      43.437  26.723  26.883  1.00  0.00     0.173 A 
ATOM     57  C   UNL A   1      42.015  24.949  27.664  1.00  0.00     0.173 A 
ATOM     58  F   UNL A   1      43.943  27.961  26.996  1.00  0.00    -0.203 F 
ATOM     59  C   UNL A   1      43.800  25.948  25.785  1.00  0.00     0.198 A 
ATOM     60  C   UNL A   1      42.398  24.166  26.577  1.00  0.00     0.198 A 
ATOM     61  F   UNL A   1      41.144  24.443  28.549  1.00  0.00    -0.203 F 
ATOM     62  F   UNL A   1      44.637  26.442  24.863  1.00  0.00    -0.200 F 
ATOM     63  C   UNL A   1      43.285  24.667  25.637  1.00  0.00     0.200 A 
ATOM     64  F   UNL A   1      41.906  22.927  26.440  1.00  0.00    -0.200 F 
ATOM     65  F   UNL A   1      43.638  23.920  24.582  1.00  0.00    -0.200 F 
ENDBRANCH  41  55
BRANCH  42  66
ATOM     66  C   UNL A   1      39.554  31.980  35.464  1.00  0.00     0.064 A 
ATOM     67  C   UNL A   1      38.620  31.500  36.392  1.00  0.00     0.173 A 
ATOM     68  C   UNL A   1      40.041  33.284  35.643  1.00  0.00     0.173 A 
ATOM     69  F   UNL A   1      38.106  30.270  36.249  1.00  0.00    -0.203 F 
ATOM     70  C   UNL A   1      38.177  32.298  37.446  1.00  0.00     0.198 A 
ATOM     71  C   UNL A   1      39.618  34.070  36.711  1.00  0.00     0.198 A 
ATOM     72  F   UNL A   1      40.932  33.792  34.779  1.00  0.00    -0.203 F 
ATOM     73  F   UNL A   1      37.247  31.832  38.290  1.00  0.00    -0.200 F 
ATOM     74  C   UNL A   1      38.680  33.581  37.608  1.00  0.00     0.200 A 
ATOM     75  F   UNL A   1      40.114  35.306  36.870  1.00  0.00    -0.200 F 
ATOM     76  F   UNL A   1      38.254  34.347  38.620  1.00  0.00    -0.200 F 
ENDBRANCH  42  66
BRANCH  54  77
ATOM     77  C   UNL A   1      44.986  27.744  34.453  1.00  0.00     0.064 A 
ATOM     78  C   UNL A   1      46.175  28.488  34.431  1.00  0.00     0.173 A 
ATOM     79  C   UNL A   1      44.907  26.652  35.329  1.00  0.00     0.173 A 
ATOM     80  F   UNL A   1      46.303  29.531  33.598  1.00  0.00    -0.203 F 
ATOM     81  C   UNL A   1      47.253  28.135  35.237  1.00  0.00     0.198 A 
ATOM     82  C   UNL A   1      45.978  26.317  36.153  1.00  0.00     0.198 A 
ATOM     83  F   UNL A   1      43.790  25.913  35.391  1.00  0.00    -0.203 F 
ATOM     84  F   UNL A   1      48.397  28.830  35.166  1.00  0.00    -0.200 F 
ATOM     85  C   UNL A   1      47.153  27.053  36.101  1.00  0.00     0.200 A 
ATOM     86  F   UNL A   1      45.876  25.278  36.993  1.00  0.00    -0.200 F 
ATOM     87  F   UNL A   1      48.191  26.715  36.876  1.00  0.00    -0.200 F 
ENDBRANCH  54  77
ENDBRANCH  28  29
ENDBRANCH  21  23
ENDBRANCH  20  21
ENDBRANCH  19  20
ENDBRANCH   1  19
TORSDOF 16
ENDMDL
