MODEL 1
REMARK VINA RESULT:     -12.8      0.000      0.000
REMARK SMILES CC[C@](NC(=O)c1cccc(CS(C)(=O)=O)c1)(C(=O)OCCOC(=O)c1ccc(-c2c3nc(c(-c4c(F)c(F)c(F)c(F)c4F)c4ccc([nH]4)c(-c4c(F)c(F)c(F)c(F)c4F)c4nc(c(-c5c(F)c(F)c(F)c(F)c5F)c5ccc2[nH]5)C=C4)C=C3)cc1)c1ccccc1
REMARK SMILES IDX 21 1 20 2 18 3 19 4 3 5 2 6 1 7 89 8 90 9 94 10 91 11 93 12
REMARK SMILES IDX 92 13 4 14 5 15 6 17 7 18 8 19 17 20 9 21 11 22 10 23 12 24
REMARK SMILES IDX 13 25 14 26 15 27 16 28 22 29 23 30 24 31 25 32 26 33 27 34
REMARK SMILES IDX 88 35 28 36 87 37 29 38 30 39 31 40 81 41 32 42 86 43 80 44
REMARK SMILES IDX 82 45 33 46 85 47 79 48 78 49 34 51 66 52 46 53 65 54 47 55
REMARK SMILES IDX 50 56 64 57 83 58 48 59 49 60 63 62 84 63 51 64 35 65 36 66
REMARK SMILES IDX 44 67 37 68 38 69 42 70 45 71 39 72 40 73 43 74 41 75 67 76
REMARK SMILES IDX 68 77 76 78 69 79 70 80 74 81 77 82 71 83 72 84 75 85 73 86
REMARK SMILES IDX 52 87 53 88 61 89 54 90 55 91 59 92 62 93 56 94 57 95 60 96
REMARK SMILES IDX 58 97
REMARK H PARENT 4 16 82 50 50 61
REMARK Flexibility Score: inf
ROOT
ATOM      1  C   UNL A   1      31.454  29.174  24.959  1.00  0.00     0.274 C 
ENDROOT
BRANCH   1   2
ATOM      2  O   UNL A   1      32.222  28.049  25.460  1.00  0.00    -0.460 OA
BRANCH   2   3
ATOM      3  C   UNL A   1      31.514  27.162  26.222  1.00  0.00     0.336 C 
ATOM      4  O   UNL A   1      31.102  27.457  27.344  1.00  0.00    -0.249 OA
BRANCH   3   5
ATOM      5  C   UNL A   1      31.411  25.707  25.616  1.00  0.00     0.163 C 
BRANCH   5   6
ATOM      6  C   UNL A   1      30.496  25.967  24.339  1.00  0.00     0.042 C 
ATOM      7  C   UNL A   1      28.992  26.068  24.615  1.00  0.00     0.007 C 
ENDBRANCH   5   6
BRANCH   5   8
ATOM      8  C   UNL A   1      32.788  25.226  25.070  1.00  0.00    -0.011 A 
ATOM      9  C   UNL A   1      32.901  24.739  23.741  1.00  0.00     0.007 A 
ATOM     10  C   UNL A   1      33.948  25.164  25.848  1.00  0.00     0.007 A 
ATOM     11  C   UNL A   1      34.103  24.248  23.220  1.00  0.00     0.000 A 
ATOM     12  C   UNL A   1      35.161  24.687  25.326  1.00  0.00     0.000 A 
ATOM     13  C   UNL A   1      35.238  24.228  24.014  1.00  0.00     0.000 A 
ENDBRANCH   5   8
BRANCH   5  14
ATOM     14  N   UNL A   1      30.619  24.699  26.414  1.00  0.00    -0.332 N 
ATOM     15  C   UNL A   1      30.607  23.401  26.829  1.00  0.00     0.252 C 
ATOM     16  H   UNL A   1      29.815  25.144  26.764  1.00  0.00     0.165 HD
ATOM     17  O   UNL A   1      29.601  23.028  27.440  1.00  0.00    -0.269 OA
BRANCH  15  18
ATOM     18  C   UNL A   1      31.642  22.379  26.617  1.00  0.00     0.040 A 
ATOM     19  C   UNL A   1      32.685  22.268  27.538  1.00  0.00     0.014 A 
ATOM     20  C   UNL A   1      31.778  21.758  25.375  1.00  0.00     0.018 A 
ATOM     21  C   UNL A   1      33.789  21.464  27.251  1.00  0.00     0.001 A 
ATOM     22  C   UNL A   1      32.851  20.873  25.088  1.00  0.00    -0.032 A 
ATOM     23  C   UNL A   1      33.865  20.765  26.042  1.00  0.00     0.005 A 
BRANCH  22  24
ATOM     24  C   UNL A   1      32.715  20.049  23.828  1.00  0.00     0.172 C 
BRANCH  24  25
ATOM     25  S   UNL A   1      32.729  18.275  23.942  1.00  0.00     0.151 S 
ATOM     26  C   UNL A   1      34.400  17.798  24.338  1.00  0.00     0.158 C 
ATOM     27  O   UNL A   1      31.940  17.950  25.119  1.00  0.00    -0.229 OA
ATOM     28  O   UNL A   1      32.385  17.698  22.656  1.00  0.00    -0.229 OA
ENDBRANCH  24  25
ENDBRANCH  22  24
ENDBRANCH  15  18
ENDBRANCH   5  14
ENDBRANCH   3   5
ENDBRANCH   2   3
ENDBRANCH   1   2
BRANCH   1  29
ATOM     29  C   UNL A   1      31.709  30.503  25.697  1.00  0.00     0.275 C 
BRANCH  29  30
ATOM     30  O   UNL A   1      32.374  30.377  26.977  1.00  0.00    -0.458 OA
BRANCH  30  31
ATOM     31  C   UNL A   1      33.181  31.414  27.240  1.00  0.00     0.338 C 
ATOM     32  O   UNL A   1      32.845  32.589  27.271  1.00  0.00    -0.246 OA
BRANCH  31  33
ATOM     33  C   UNL A   1      34.575  31.148  27.538  1.00  0.00     0.060 A 
ATOM     34  C   UNL A   1      34.852  29.840  27.922  1.00  0.00     0.016 A 
ATOM     35  C   UNL A   1      35.410  32.202  27.919  1.00  0.00     0.016 A 
ATOM     36  C   UNL A   1      35.933  29.582  28.746  1.00  0.00     0.010 A 
ATOM     37  C   UNL A   1      36.541  31.930  28.693  1.00  0.00     0.010 A 
ATOM     38  C   UNL A   1      36.796  30.619  29.123  1.00  0.00    -0.014 A 
BRANCH  38  39
ATOM     39  C   UNL A   1      38.038  30.267  29.840  1.00  0.00     0.031 A 
ATOM     40  C   UNL A   1      39.128  29.464  29.205  1.00  0.00     0.074 A 
ATOM     41  C   UNL A   1      38.165  30.742  31.092  1.00  0.00     0.049 A 
ATOM     42  N   UNL A   1      40.213  28.983  29.757  1.00  0.00    -0.248 NA
ATOM     43  C   UNL A   1      38.991  29.154  27.775  1.00  0.00     0.031 C 
ATOM     44  C   UNL A   1      37.167  31.573  31.772  1.00  0.00     0.029 A 
ATOM     45  N   UNL A   1      39.176  30.619  32.003  1.00  0.00    -0.354 N 
ATOM     46  C   UNL A   1      40.863  28.269  28.762  1.00  0.00     0.074 A 
ATOM     47  C   UNL A   1      40.067  28.403  27.558  1.00  0.00     0.031 C 
ATOM     48  C   UNL A   1      37.633  31.922  32.976  1.00  0.00     0.029 A 
ATOM     49  C   UNL A   1      38.919  31.269  33.183  1.00  0.00     0.049 A 
ATOM     50  H   UNL A   1      40.003  30.115  31.831  1.00  0.00     0.167 HD
ATOM     51  C   UNL A   1      42.010  27.553  28.869  1.00  0.00     0.037 A 
ATOM     52  C   UNL A   1      39.622  31.304  34.327  1.00  0.00     0.037 A 
ATOM     53  C   UNL A   1      42.801  27.470  30.074  1.00  0.00     0.049 A 
ATOM     54  C   UNL A   1      40.896  30.529  34.406  1.00  0.00     0.074 A 
ATOM     55  C   UNL A   1      43.972  26.765  30.295  1.00  0.00     0.029 A 
ATOM     56  N   UNL A   1      42.506  28.131  31.258  1.00  0.00    -0.354 N 
ATOM     57  N   UNL A   1      41.459  29.783  33.486  1.00  0.00    -0.248 NA
ATOM     58  C   UNL A   1      41.621  30.579  35.678  1.00  0.00     0.031 C 
ATOM     59  C   UNL A   1      44.372  26.982  31.619  1.00  0.00     0.029 A 
ATOM     60  C   UNL A   1      43.469  27.847  32.215  1.00  0.00     0.049 A 
ATOM     61  H   UNL A   1      41.727  28.717  31.400  1.00  0.00     0.167 HD
ATOM     62  C   UNL A   1      42.593  29.251  34.073  1.00  0.00     0.074 A 
ATOM     63  C   UNL A   1      42.659  29.793  35.418  1.00  0.00     0.031 C 
ATOM     64  C   UNL A   1      43.489  28.379  33.553  1.00  0.00     0.037 A 
BRANCH  51  65
ATOM     65  C   UNL A   1      42.459  26.756  27.680  1.00  0.00     0.064 A 
ATOM     66  C   UNL A   1      43.414  27.240  26.776  1.00  0.00     0.173 A 
ATOM     67  C   UNL A   1      41.978  25.450  27.491  1.00  0.00     0.173 A 
ATOM     68  F   UNL A   1      43.896  28.485  26.905  1.00  0.00    -0.203 F 
ATOM     69  C   UNL A   1      43.868  26.447  25.723  1.00  0.00     0.198 A 
ATOM     70  C   UNL A   1      42.448  24.654  26.449  1.00  0.00     0.198 A 
ATOM     71  F   UNL A   1      41.064  24.940  28.330  1.00  0.00    -0.203 F 
ATOM     72  F   UNL A   1      44.768  26.935  24.858  1.00  0.00    -0.200 F 
ATOM     73  C   UNL A   1      43.392  25.153  25.566  1.00  0.00     0.200 A 
ATOM     74  F   UNL A   1      41.990  23.402  26.304  1.00  0.00    -0.200 F 
ATOM     75  F   UNL A   1      43.840  24.388  24.560  1.00  0.00    -0.200 F 
ENDBRANCH  51  65
BRANCH  52  76
ATOM     76  C   UNL A   1      39.083  32.077  35.469  1.00  0.00     0.064 A 
ATOM     77  C   UNL A   1      38.336  31.449  36.471  1.00  0.00     0.173 A 
ATOM     78  C   UNL A   1      39.413  33.431  35.642  1.00  0.00     0.173 A 
ATOM     79  F   UNL A   1      37.993  30.159  36.341  1.00  0.00    -0.203 F 
ATOM     80  C   UNL A   1      37.951  32.142  37.615  1.00  0.00     0.198 A 
ATOM     81  C   UNL A   1      39.049  34.115  36.797  1.00  0.00     0.198 A 
ATOM     82  F   UNL A   1      40.144  34.067  34.714  1.00  0.00    -0.203 F 
ATOM     83  F   UNL A   1      37.237  31.521  38.563  1.00  0.00    -0.200 F 
ATOM     84  C   UNL A   1      38.320  33.469  37.784  1.00  0.00     0.200 A 
ATOM     85  F   UNL A   1      39.432  35.387  36.968  1.00  0.00    -0.200 F 
ATOM     86  F   UNL A   1      37.981  34.124  38.903  1.00  0.00    -0.200 F 
ENDBRANCH  52  76
BRANCH  64  87
ATOM     87  C   UNL A   1      44.594  27.950  34.464  1.00  0.00     0.064 A 
ATOM     88  C   UNL A   1      45.791  28.678  34.538  1.00  0.00     0.173 A 
ATOM     89  C   UNL A   1      44.463  26.804  35.260  1.00  0.00     0.173 A 
ATOM     90  F   UNL A   1      45.964  29.770  33.778  1.00  0.00    -0.203 F 
ATOM     91  C   UNL A   1      46.830  28.257  35.360  1.00  0.00     0.198 A 
ATOM     92  C   UNL A   1      45.498  26.395  36.094  1.00  0.00     0.198 A 
ATOM     93  F   UNL A   1      43.336  26.078  35.217  1.00  0.00    -0.203 F 
ATOM     94  F   UNL A   1      47.983  28.941  35.385  1.00  0.00    -0.200 F 
ATOM     95  C   UNL A   1      46.683  27.117  36.139  1.00  0.00     0.200 A 
ATOM     96  F   UNL A   1      45.357  25.294  36.844  1.00  0.00    -0.200 F 
ATOM     97  F   UNL A   1      47.690  26.706  36.922  1.00  0.00    -0.200 F 
ENDBRANCH  64  87
ENDBRANCH  38  39
ENDBRANCH  31  33
ENDBRANCH  30  31
ENDBRANCH  29  30
ENDBRANCH   1  29
TORSDOF 17
ENDMDL
MODEL 2
REMARK VINA RESULT:     -12.4      4.332      9.810
REMARK SMILES CC[C@](NC(=O)c1cccc(CS(C)(=O)=O)c1)(C(=O)OCCOC(=O)c1ccc(-c2c3nc(c(-c4c(F)c(F)c(F)c(F)c4F)c4ccc([nH]4)c(-c4c(F)c(F)c(F)c(F)c4F)c4nc(c(-c5c(F)c(F)c(F)c(F)c5F)c5ccc2[nH]5)C=C4)C=C3)cc1)c1ccccc1
REMARK SMILES IDX 21 1 20 2 18 3 19 4 3 5 2 6 1 7 89 8 90 9 94 10 91 11 93 12
REMARK SMILES IDX 92 13 4 14 5 15 6 17 7 18 8 19 17 20 9 21 11 22 10 23 12 24
REMARK SMILES IDX 13 25 14 26 15 27 16 28 22 29 23 30 24 31 25 32 26 33 27 34
REMARK SMILES IDX 88 35 28 36 87 37 29 38 30 39 31 40 81 41 32 42 86 43 80 44
REMARK SMILES IDX 82 45 33 46 85 47 79 48 78 49 34 51 66 52 46 53 65 54 47 55
REMARK SMILES IDX 50 56 64 57 83 58 48 59 49 60 63 62 84 63 51 64 35 65 36 66
REMARK SMILES IDX 44 67 37 68 38 69 42 70 45 71 39 72 40 73 43 74 41 75 67 76
REMARK SMILES IDX 68 77 76 78 69 79 70 80 74 81 77 82 71 83 72 84 75 85 73 86
REMARK SMILES IDX 52 87 53 88 61 89 54 90 55 91 59 92 62 93 56 94 57 95 60 96
REMARK SMILES IDX 58 97
REMARK H PARENT 4 16 82 50 50 61
REMARK Flexibility Score: inf
ROOT
ATOM      1  C   UNL A   1      35.370  21.068  24.989  1.00  0.00     0.274 C 
ENDROOT
BRANCH   1   2
ATOM      2  O   UNL A   1      35.349  22.506  24.789  1.00  0.00    -0.460 OA
BRANCH   2   3
ATOM      3  C   UNL A   1      34.532  23.193  25.643  1.00  0.00     0.336 C 
ATOM      4  O   UNL A   1      34.640  23.090  26.866  1.00  0.00    -0.249 OA
BRANCH   3   5
ATOM      5  C   UNL A   1      33.361  23.987  24.940  1.00  0.00     0.163 C 
BRANCH   5   6
ATOM      6  C   UNL A   1      32.113  23.054  25.268  1.00  0.00     0.042 C 
ATOM      7  C   UNL A   1      31.462  22.375  24.058  1.00  0.00     0.007 C 
ENDBRANCH   5   6
BRANCH   5   8
ATOM      8  C   UNL A   1      33.088  25.342  25.658  1.00  0.00    -0.011 A 
ATOM      9  C   UNL A   1      31.802  25.624  26.189  1.00  0.00     0.007 A 
ATOM     10  C   UNL A   1      34.032  26.369  25.754  1.00  0.00     0.007 A 
ATOM     11  C   UNL A   1      31.492  26.845  26.798  1.00  0.00     0.000 A 
ATOM     12  C   UNL A   1      33.731  27.590  26.377  1.00  0.00     0.000 A 
ATOM     13  C   UNL A   1      32.463  27.829  26.898  1.00  0.00     0.000 A 
ENDBRANCH   5   8
BRANCH   5  14
ATOM     14  N   UNL A   1      33.384  24.024  23.431  1.00  0.00    -0.332 N 
ATOM     15  C   UNL A   1      33.152  24.826  22.354  1.00  0.00     0.252 C 
ATOM     16  H   UNL A   1      33.675  23.143  23.103  1.00  0.00     0.165 HD
ATOM     17  O   UNL A   1      33.244  24.297  21.243  1.00  0.00    -0.269 OA
BRANCH  15  18
ATOM     18  C   UNL A   1      32.779  26.248  22.356  1.00  0.00     0.040 A 
ATOM     19  C   UNL A   1      33.777  27.211  22.190  1.00  0.00     0.014 A 
ATOM     20  C   UNL A   1      31.534  26.653  22.837  1.00  0.00     0.018 A 
ATOM     21  C   UNL A   1      33.490  28.560  22.404  1.00  0.00     0.001 A 
ATOM     22  C   UNL A   1      31.192  28.023  22.987  1.00  0.00    -0.032 A 
ATOM     23  C   UNL A   1      32.207  28.962  22.789  1.00  0.00     0.005 A 
BRANCH  22  24
ATOM     24  C   UNL A   1      29.730  28.321  23.229  1.00  0.00     0.172 C 
BRANCH  24  25
ATOM     25  S   UNL A   1      29.052  29.864  22.661  1.00  0.00     0.151 S 
ATOM     26  C   UNL A   1      27.279  29.722  22.783  1.00  0.00     0.158 C 
ATOM     27  O   UNL A   1      29.434  30.852  23.656  1.00  0.00    -0.229 OA
ATOM     28  O   UNL A   1      29.397  30.067  21.267  1.00  0.00    -0.229 OA
ENDBRANCH  24  25
ENDBRANCH  22  24
ENDBRANCH  15  18
ENDBRANCH   5  14
ENDBRANCH   3   5
ENDBRANCH   2   3
ENDBRANCH   1   2
BRANCH   1  29
ATOM     29  C   UNL A   1      36.780  20.461  25.124  1.00  0.00     0.275 C 
BRANCH  29  30
ATOM     30  O   UNL A   1      37.872  21.393  24.929  1.00  0.00    -0.458 OA
BRANCH  30  31
ATOM     31  C   UNL A   1      38.869  21.205  25.803  1.00  0.00     0.338 C 
ATOM     32  O   UNL A   1      39.452  20.149  26.004  1.00  0.00    -0.246 OA
BRANCH  31  33
ATOM     33  C   UNL A   1      39.332  22.339  26.579  1.00  0.00     0.060 A 
ATOM     34  C   UNL A   1      38.870  23.576  26.140  1.00  0.00     0.016 A 
ATOM     35  C   UNL A   1      40.516  22.233  27.313  1.00  0.00     0.016 A 
ATOM     36  C   UNL A   1      39.622  24.713  26.377  1.00  0.00     0.010 A 
ATOM     37  C   UNL A   1      41.240  23.391  27.611  1.00  0.00     0.010 A 
ATOM     38  C   UNL A   1      40.802  24.633  27.128  1.00  0.00    -0.014 A 
BRANCH  38  39
ATOM     39  C   UNL A   1      41.467  25.893  27.516  1.00  0.00     0.031 A 
ATOM     40  C   UNL A   1      40.811  26.905  28.401  1.00  0.00     0.074 A 
ATOM     41  C   UNL A   1      42.722  26.074  27.067  1.00  0.00     0.049 A 
ATOM     42  N   UNL A   1      41.231  28.102  28.721  1.00  0.00    -0.248 NA
ATOM     43  C   UNL A   1      39.520  26.538  29.001  1.00  0.00     0.031 C 
ATOM     44  C   UNL A   1      43.455  25.115  26.236  1.00  0.00     0.029 A 
ATOM     45  N   UNL A   1      43.607  27.099  27.255  1.00  0.00    -0.354 N 
ATOM     46  C   UNL A   1      40.238  28.656  29.515  1.00  0.00     0.074 A 
ATOM     47  C   UNL A   1      39.203  27.651  29.656  1.00  0.00     0.031 C 
ATOM     48  C   UNL A   1      44.692  25.575  26.022  1.00  0.00     0.029 A 
ATOM     49  C   UNL A   1      44.807  26.896  26.626  1.00  0.00     0.049 A 
ATOM     50  H   UNL A   1      43.403  27.901  27.788  1.00  0.00     0.167 HD
ATOM     51  C   UNL A   1      40.201  29.901  30.050  1.00  0.00     0.037 A 
ATOM     52  C   UNL A   1      45.875  27.703  26.509  1.00  0.00     0.037 A 
ATOM     53  C   UNL A   1      41.267  30.866  29.922  1.00  0.00     0.049 A 
ATOM     54  C   UNL A   1      45.817  29.058  27.134  1.00  0.00     0.074 A 
ATOM     55  C   UNL A   1      41.330  32.159  30.415  1.00  0.00     0.029 A 
ATOM     56  N   UNL A   1      42.468  30.634  29.265  1.00  0.00    -0.354 N 
ATOM     57  N   UNL A   1      44.837  29.607  27.809  1.00  0.00    -0.248 NA
ATOM     58  C   UNL A   1      46.996  29.912  26.966  1.00  0.00     0.031 C 
ATOM     59  C   UNL A   1      42.557  32.715  30.035  1.00  0.00     0.029 A 
ATOM     60  C   UNL A   1      43.274  31.760  29.335  1.00  0.00     0.049 A 
ATOM     61  H   UNL A   1      42.712  29.793  28.815  1.00  0.00     0.167 HD
ATOM     62  C   UNL A   1      45.265  30.883  28.128  1.00  0.00     0.074 A 
ATOM     63  C   UNL A   1      46.614  31.011  27.604  1.00  0.00     0.031 C 
ATOM     64  C   UNL A   1      44.599  31.866  28.778  1.00  0.00     0.037 A 
BRANCH  51  65
ATOM     65  C   UNL A   1      38.958  30.322  30.776  1.00  0.00     0.064 A 
ATOM     66  C   UNL A   1      38.832  30.207  32.167  1.00  0.00     0.173 A 
ATOM     67  C   UNL A   1      37.905  30.926  30.069  1.00  0.00     0.173 A 
ATOM     68  F   UNL A   1      39.803  29.627  32.887  1.00  0.00    -0.203 F 
ATOM     69  C   UNL A   1      37.695  30.677  32.823  1.00  0.00     0.198 A 
ATOM     70  C   UNL A   1      36.779  31.411  30.730  1.00  0.00     0.198 A 
ATOM     71  F   UNL A   1      37.979  31.061  28.736  1.00  0.00    -0.203 F 
ATOM     72  F   UNL A   1      37.585  30.540  34.152  1.00  0.00    -0.200 F 
ATOM     73  C   UNL A   1      36.674  31.286  32.105  1.00  0.00     0.200 A 
ATOM     74  F   UNL A   1      35.799  32.004  30.034  1.00  0.00    -0.200 F 
ATOM     75  F   UNL A   1      35.588  31.748  32.741  1.00  0.00    -0.200 F 
ENDBRANCH  51  65
BRANCH  52  76
ATOM     76  C   UNL A   1      47.044  27.227  25.735  1.00  0.00     0.064 A 
ATOM     77  C   UNL A   1      47.213  27.593  24.395  1.00  0.00     0.173 A 
ATOM     78  C   UNL A   1      48.074  26.503  26.357  1.00  0.00     0.173 A 
ATOM     79  F   UNL A   1      46.251  28.277  23.761  1.00  0.00    -0.203 F 
ATOM     80  C   UNL A   1      48.380  27.267  23.708  1.00  0.00     0.198 A 
ATOM     81  C   UNL A   1      49.248  26.200  25.676  1.00  0.00     0.198 A 
ATOM     82  F   UNL A   1      47.959  26.147  27.645  1.00  0.00    -0.203 F 
ATOM     83  F   UNL A   1      48.522  27.629  22.426  1.00  0.00    -0.200 F 
ATOM     84  C   UNL A   1      49.401  26.584  24.353  1.00  0.00     0.200 A 
ATOM     85  F   UNL A   1      50.243  25.566  26.311  1.00  0.00    -0.200 F 
ATOM     86  F   UNL A   1      50.538  26.305  23.701  1.00  0.00    -0.200 F 
ENDBRANCH  52  76
BRANCH  64  87
ATOM     87  C   UNL A   1      45.323  33.165  28.927  1.00  0.00     0.064 A 
ATOM     88  C   UNL A   1      46.151  33.405  30.033  1.00  0.00     0.173 A 
ATOM     89  C   UNL A   1      45.184  34.178  27.968  1.00  0.00     0.173 A 
ATOM     90  F   UNL A   1      46.297  32.469  30.983  1.00  0.00    -0.203 F 
ATOM     91  C   UNL A   1      46.796  34.628  30.186  1.00  0.00     0.198 A 
ATOM     92  C   UNL A   1      45.844  35.393  28.117  1.00  0.00     0.198 A 
ATOM     93  F   UNL A   1      44.399  33.989  26.897  1.00  0.00    -0.203 F 
ATOM     94  F   UNL A   1      47.549  34.855  31.272  1.00  0.00    -0.200 F 
ATOM     95  C   UNL A   1      46.644  35.620  29.228  1.00  0.00     0.200 A 
ATOM     96  F   UNL A   1      45.695  36.351  27.193  1.00  0.00    -0.200 F 
ATOM     97  F   UNL A   1      47.257  36.801  29.383  1.00  0.00    -0.200 F 
ENDBRANCH  64  87
ENDBRANCH  38  39
ENDBRANCH  31  33
ENDBRANCH  30  31
ENDBRANCH  29  30
ENDBRANCH   1  29
TORSDOF 17
ENDMDL
MODEL 3
REMARK VINA RESULT:     -12.2      1.671      2.442
REMARK SMILES CC[C@](NC(=O)c1cccc(CS(C)(=O)=O)c1)(C(=O)OCCOC(=O)c1ccc(-c2c3nc(c(-c4c(F)c(F)c(F)c(F)c4F)c4ccc([nH]4)c(-c4c(F)c(F)c(F)c(F)c4F)c4nc(c(-c5c(F)c(F)c(F)c(F)c5F)c5ccc2[nH]5)C=C4)C=C3)cc1)c1ccccc1
REMARK SMILES IDX 21 1 20 2 18 3 19 4 3 5 2 6 1 7 89 8 90 9 94 10 91 11 93 12
REMARK SMILES IDX 92 13 4 14 5 15 6 17 7 18 8 19 17 20 9 21 11 22 10 23 12 24
REMARK SMILES IDX 13 25 14 26 15 27 16 28 22 29 23 30 24 31 25 32 26 33 27 34
REMARK SMILES IDX 88 35 28 36 87 37 29 38 30 39 31 40 81 41 32 42 86 43 80 44
REMARK SMILES IDX 82 45 33 46 85 47 79 48 78 49 34 51 66 52 46 53 65 54 47 55
REMARK SMILES IDX 50 56 64 57 83 58 48 59 49 60 63 62 84 63 51 64 35 65 36 66
REMARK SMILES IDX 44 67 37 68 38 69 42 70 45 71 39 72 40 73 43 74 41 75 67 76
REMARK SMILES IDX 68 77 76 78 69 79 70 80 74 81 77 82 71 83 72 84 75 85 73 86
REMARK SMILES IDX 52 87 53 88 61 89 54 90 55 91 59 92 62 93 56 94 57 95 60 96
REMARK SMILES IDX 58 97
REMARK H PARENT 4 16 82 50 50 61
REMARK Flexibility Score: inf
ROOT
ATOM      1  C   UNL A   1      30.841  30.406  24.908  1.00  0.00     0.274 C 
ENDROOT
BRANCH   1   2
ATOM      2  O   UNL A   1      31.055  28.975  25.015  1.00  0.00    -0.460 OA
BRANCH   2   3
ATOM      3  C   UNL A   1      31.086  28.307  23.823  1.00  0.00     0.336 C 
ATOM      4  O   UNL A   1      30.269  28.538  22.931  1.00  0.00    -0.249 OA
BRANCH   3   5
ATOM      5  C   UNL A   1      32.137  27.130  23.754  1.00  0.00     0.163 C 
BRANCH   5   6
ATOM      6  C   UNL A   1      33.475  27.884  24.176  1.00  0.00     0.042 C 
ATOM      7  C   UNL A   1      34.055  28.835  23.124  1.00  0.00     0.007 C 
ENDBRANCH   5   6
BRANCH   5   8
ATOM      8  C   UNL A   1      31.870  26.071  24.864  1.00  0.00    -0.011 A 
ATOM      9  C   UNL A   1      32.945  25.546  25.627  1.00  0.00     0.007 A 
ATOM     10  C   UNL A   1      30.609  25.522  25.121  1.00  0.00     0.007 A 
ATOM     11  C   UNL A   1      32.766  24.556  26.600  1.00  0.00     0.000 A 
ATOM     12  C   UNL A   1      30.420  24.540  26.106  1.00  0.00     0.000 A 
ATOM     13  C   UNL A   1      31.496  24.057  26.844  1.00  0.00     0.000 A 
ENDBRANCH   5   8
BRANCH   5  14
ATOM     14  N   UNL A   1      32.456  26.592  22.380  1.00  0.00    -0.332 N 
ATOM     15  C   UNL A   1      32.924  25.497  21.717  1.00  0.00     0.252 C 
ATOM     16  H   UNL A   1      32.251  27.290  21.718  1.00  0.00     0.165 HD
ATOM     17  O   UNL A   1      33.088  25.618  20.500  1.00  0.00    -0.269 OA
BRANCH  15  18
ATOM     18  C   UNL A   1      33.282  24.188  22.283  1.00  0.00     0.040 A 
ATOM     19  C   UNL A   1      32.266  23.279  22.585  1.00  0.00     0.014 A 
ATOM     20  C   UNL A   1      34.553  23.971  22.815  1.00  0.00     0.018 A 
ATOM     21  C   UNL A   1      32.553  22.127  23.319  1.00  0.00     0.001 A 
ATOM     22  C   UNL A   1      34.890  22.772  23.497  1.00  0.00    -0.032 A 
ATOM     23  C   UNL A   1      33.856  21.871  23.761  1.00  0.00     0.005 A 
BRANCH  22  24
ATOM     24  C   UNL A   1      36.362  22.545  23.756  1.00  0.00     0.172 C 
BRANCH  24  25
ATOM     25  S   UNL A   1      36.871  21.790  25.283  1.00  0.00     0.151 S 
ATOM     26  C   UNL A   1      37.350  20.118  24.896  1.00  0.00     0.158 C 
ATOM     27  O   UNL A   1      38.097  22.469  25.669  1.00  0.00    -0.229 OA
ATOM     28  O   UNL A   1      35.749  21.740  26.203  1.00  0.00    -0.229 OA
ENDBRANCH  24  25
ENDBRANCH  22  24
ENDBRANCH  15  18
ENDBRANCH   5  14
ENDBRANCH   3   5
ENDBRANCH   2   3
ENDBRANCH   1   2
BRANCH   1  29
ATOM     29  C   UNL A   1      31.371  31.225  26.102  1.00  0.00     0.275 C 
BRANCH  29  30
ATOM     30  O   UNL A   1      32.551  30.683  26.743  1.00  0.00    -0.458 OA
BRANCH  30  31
ATOM     31  C   UNL A   1      33.339  31.636  27.258  1.00  0.00     0.338 C 
ATOM     32  O   UNL A   1      32.996  32.780  27.520  1.00  0.00    -0.246 OA
BRANCH  31  33
ATOM     33  C   UNL A   1      34.718  31.306  27.561  1.00  0.00     0.060 A 
ATOM     34  C   UNL A   1      34.927  29.997  27.984  1.00  0.00     0.016 A 
ATOM     35  C   UNL A   1      35.609  32.325  27.907  1.00  0.00     0.016 A 
ATOM     36  C   UNL A   1      35.997  29.707  28.812  1.00  0.00     0.010 A 
ATOM     37  C   UNL A   1      36.727  32.017  28.687  1.00  0.00     0.010 A 
ATOM     38  C   UNL A   1      36.914  30.708  29.156  1.00  0.00    -0.014 A 
BRANCH  38  39
ATOM     39  C   UNL A   1      38.138  30.313  29.880  1.00  0.00     0.031 A 
ATOM     40  C   UNL A   1      39.201  29.467  29.254  1.00  0.00     0.074 A 
ATOM     41  C   UNL A   1      38.278  30.788  31.131  1.00  0.00     0.049 A 
ATOM     42  N   UNL A   1      40.265  28.948  29.813  1.00  0.00    -0.248 NA
ATOM     43  C   UNL A   1      39.059  29.155  27.825  1.00  0.00     0.031 C 
ATOM     44  C   UNL A   1      37.309  31.659  31.803  1.00  0.00     0.029 A 
ATOM     45  N   UNL A   1      39.279  30.631  32.048  1.00  0.00    -0.354 N 
ATOM     46  C   UNL A   1      40.892  28.205  28.824  1.00  0.00     0.074 A 
ATOM     47  C   UNL A   1      40.107  28.364  27.616  1.00  0.00     0.031 C 
ATOM     48  C   UNL A   1      37.782  31.995  33.007  1.00  0.00     0.029 A 
ATOM     49  C   UNL A   1      39.041  31.296  33.223  1.00  0.00     0.049 A 
ATOM     50  H   UNL A   1      40.088  30.095  31.882  1.00  0.00     0.167 HD
ATOM     51  C   UNL A   1      42.010  27.447  28.939  1.00  0.00     0.037 A 
ATOM     52  C   UNL A   1      39.740  31.309  34.370  1.00  0.00     0.037 A 
ATOM     53  C   UNL A   1      42.791  27.340  30.148  1.00  0.00     0.049 A 
ATOM     54  C   UNL A   1      40.983  30.486  34.458  1.00  0.00     0.074 A 
ATOM     55  C   UNL A   1      43.934  26.592  30.378  1.00  0.00     0.029 A 
ATOM     56  N   UNL A   1      42.517  28.016  31.329  1.00  0.00    -0.354 N 
ATOM     57  N   UNL A   1      41.522  29.716  33.545  1.00  0.00    -0.248 NA
ATOM     58  C   UNL A   1      41.704  30.515  35.734  1.00  0.00     0.031 C 
ATOM     59  C   UNL A   1      44.336  26.799  31.704  1.00  0.00     0.029 A 
ATOM     60  C   UNL A   1      43.464  27.700  32.291  1.00  0.00     0.049 A 
ATOM     61  H   UNL A   1      41.759  28.632  31.464  1.00  0.00     0.167 HD
ATOM     62  C   UNL A   1      42.632  29.144  34.139  1.00  0.00     0.074 A 
ATOM     63  C   UNL A   1      42.712  29.689  35.483  1.00  0.00     0.031 C 
ATOM     64  C   UNL A   1      43.497  28.237  33.628  1.00  0.00     0.037 A 
BRANCH  51  65
ATOM     65  C   UNL A   1      42.434  26.629  27.756  1.00  0.00     0.064 A 
ATOM     66  C   UNL A   1      43.370  27.096  26.824  1.00  0.00     0.173 A 
ATOM     67  C   UNL A   1      41.950  25.319  27.601  1.00  0.00     0.173 A 
ATOM     68  F   UNL A   1      43.853  28.343  26.919  1.00  0.00    -0.203 F 
ATOM     69  C   UNL A   1      43.802  26.284  25.776  1.00  0.00     0.198 A 
ATOM     70  C   UNL A   1      42.398  24.505  26.564  1.00  0.00     0.198 A 
ATOM     71  F   UNL A   1      41.054  24.824  28.468  1.00  0.00    -0.203 F 
ATOM     72  F   UNL A   1      44.683  26.757  24.883  1.00  0.00    -0.200 F 
ATOM     73  C   UNL A   1      43.323  24.987  25.652  1.00  0.00     0.200 A 
ATOM     74  F   UNL A   1      41.939  23.250  26.452  1.00  0.00    -0.200 F 
ATOM     75  F   UNL A   1      43.751  24.205  24.651  1.00  0.00    -0.200 F 
ENDBRANCH  51  65
BRANCH  52  76
ATOM     76  C   UNL A   1      39.225  32.106  35.506  1.00  0.00     0.064 A 
ATOM     77  C   UNL A   1      38.399  31.525  36.474  1.00  0.00     0.173 A 
ATOM     78  C   UNL A   1      39.653  33.428  35.711  1.00  0.00     0.173 A 
ATOM     79  F   UNL A   1      37.961  30.268  36.313  1.00  0.00    -0.203 F 
ATOM     80  C   UNL A   1      38.031  32.232  37.617  1.00  0.00     0.198 A 
ATOM     81  C   UNL A   1      39.305  34.123  36.865  1.00  0.00     0.198 A 
ATOM     82  F   UNL A   1      40.460  34.017  34.816  1.00  0.00    -0.203 F 
ATOM     83  F   UNL A   1      37.240  31.655  38.532  1.00  0.00    -0.200 F 
ATOM     84  C   UNL A   1      38.496  33.523  37.817  1.00  0.00     0.200 A 
ATOM     85  F   UNL A   1      39.779  35.360  37.067  1.00  0.00    -0.200 F 
ATOM     86  F   UNL A   1      38.172  34.188  38.935  1.00  0.00    -0.200 F 
ENDBRANCH  52  76
BRANCH  64  87
ATOM     87  C   UNL A   1      44.581  27.771  34.546  1.00  0.00     0.064 A 
ATOM     88  C   UNL A   1      45.815  28.436  34.600  1.00  0.00     0.173 A 
ATOM     89  C   UNL A   1      44.392  26.651  35.367  1.00  0.00     0.173 A 
ATOM     90  F   UNL A   1      46.043  29.500  33.816  1.00  0.00    -0.203 F 
ATOM     91  C   UNL A   1      46.833  27.978  35.430  1.00  0.00     0.198 A 
ATOM     92  C   UNL A   1      45.407  26.206  36.208  1.00  0.00     0.198 A 
ATOM     93  F   UNL A   1      43.228  25.985  35.343  1.00  0.00    -0.203 F 
ATOM     94  F   UNL A   1      48.021  28.601  35.437  1.00  0.00    -0.200 F 
ATOM     95  C   UNL A   1      46.628  26.866  36.235  1.00  0.00     0.200 A 
ATOM     96  F   UNL A   1      45.211  25.132  36.983  1.00  0.00    -0.200 F 
ATOM     97  F   UNL A   1      47.614  26.420  37.025  1.00  0.00    -0.200 F 
ENDBRANCH  64  87
ENDBRANCH  38  39
ENDBRANCH  31  33
ENDBRANCH  30  31
ENDBRANCH  29  30
ENDBRANCH   1  29
TORSDOF 17
ENDMDL
