MODEL 1
REMARK VINA RESULT:     -12.1      0.000      0.000
REMARK SMILES COc1ccc([C@@H](CC(=O)OCCOC(=O)c2ccc(-c3c4nc(c(-c5c(F)c(F)c(F)c(F)c5F)c5ccc([nH]5)c(-c5c(F)c(F)c(F)c(F)c5F)c5nc(c(-c6c(F)c(F)c(F)c(F)c6F)c6ccc3[nH]6)C=C5)C=C4)cc2)NC(=O)c2ccc(Cl)c([N+](=O)[O-])c2)cc1
REMARK SMILES IDX 12 1 11 2 9 3 10 4 8 5 7 6 6 7 3 8 4 9 94 10 5 11 93 12 2 13
REMARK SMILES IDX 1 14 80 15 81 16 82 18 83 19 84 20 92 21 85 22 88 23 86 24
REMARK SMILES IDX 87 25 89 26 90 27 91 28 13 29 14 30 15 31 16 32 17 33 18 34
REMARK SMILES IDX 79 35 19 36 78 37 20 38 21 39 22 40 72 41 23 42 77 43 71 44
REMARK SMILES IDX 73 45 24 46 76 47 70 48 69 49 25 51 57 52 37 53 56 54 38 55
REMARK SMILES IDX 41 56 55 57 74 58 39 59 40 60 54 62 75 63 42 64 26 65 27 66
REMARK SMILES IDX 35 67 28 68 29 69 33 70 36 71 30 72 31 73 34 74 32 75 58 76
REMARK SMILES IDX 59 77 67 78 60 79 61 80 65 81 68 82 62 83 63 84 66 85 64 86
REMARK SMILES IDX 43 87 44 88 52 89 45 90 46 91 50 92 53 93 47 94 48 95 51 96
REMARK SMILES IDX 49 97
REMARK H PARENT 80 17 73 50 41 61
REMARK Flexibility Score: inf
ROOT
ATOM      1  C   UNL A   1      31.801  31.342  26.869  1.00  0.00     0.274 C 
ENDROOT
BRANCH   1   2
ATOM      2  O   UNL A   1      33.124  30.815  27.107  1.00  0.00    -0.462 OA
BRANCH   2   3
ATOM      3  C   UNL A   1      33.257  29.471  27.143  1.00  0.00     0.308 C 
ATOM      4  O   UNL A   1      34.335  28.886  27.163  1.00  0.00    -0.252 OA
BRANCH   3   5
ATOM      5  C   UNL A   1      31.950  28.716  27.056  1.00  0.00     0.152 C 
BRANCH   5   6
ATOM      6  C   UNL A   1      31.809  27.538  26.077  1.00  0.00     0.123 C 
BRANCH   6   7
ATOM      7  C   UNL A   1      31.194  27.942  24.748  1.00  0.00    -0.025 A 
ATOM      8  C   UNL A   1      30.026  28.968  22.408  1.00  0.00     0.118 A 
ATOM      9  C   UNL A   1      29.322  28.070  23.203  1.00  0.00     0.047 A 
ATOM     10  C   UNL A   1      31.318  29.352  22.760  1.00  0.00     0.047 A 
ATOM     11  C   UNL A   1      29.913  27.536  24.350  1.00  0.00     0.010 A 
ATOM     12  C   UNL A   1      31.897  28.840  23.923  1.00  0.00     0.010 A 
BRANCH   8  13
ATOM     13  O   UNL A   1      29.361  29.521  21.349  1.00  0.00    -0.497 OA
ATOM     14  C   UNL A   1      28.089  30.043  21.727  1.00  0.00     0.278 C 
ENDBRANCH   8  13
ENDBRANCH   6   7
BRANCH   6  15
ATOM     15  N   UNL A   1      31.208  26.342  26.662  1.00  0.00    -0.345 N 
ATOM     16  C   UNL A   1      31.446  25.012  26.421  1.00  0.00     0.252 C 
ATOM     17  H   UNL A   1      30.519  26.519  27.342  1.00  0.00     0.164 HD
ATOM     18  O   UNL A   1      30.720  24.137  26.882  1.00  0.00    -0.269 OA
BRANCH  16  19
ATOM     19  C   UNL A   1      32.598  24.594  25.600  1.00  0.00     0.046 A 
ATOM     20  C   UNL A   1      33.752  24.129  26.237  1.00  0.00     0.016 A 
ATOM     21  C   UNL A   1      32.567  24.724  24.212  1.00  0.00     0.101 A 
ATOM     22  C   UNL A   1      34.855  23.725  25.478  1.00  0.00     0.028 A 
ATOM     23  C   UNL A   1      33.676  24.304  23.460  1.00  0.00     0.288 A 
ATOM     24  C   UNL A   1      34.819  23.789  24.079  1.00  0.00     0.118 A 
ATOM     25  Cl  UNL A   1      36.184  23.162  23.231  1.00  0.00    -0.077 Cl
BRANCH  23  26
ATOM     26  N   UNL A   1      33.564  24.393  22.015  1.00  0.00     0.064 N 
ATOM     27  O   UNL A   1      33.458  23.344  21.371  1.00  0.00    -0.258 OA
ATOM     28  O   UNL A   1      33.646  25.529  21.526  1.00  0.00    -0.258 OA
ENDBRANCH  23  26
ENDBRANCH  16  19
ENDBRANCH   6  15
ENDBRANCH   5   6
ENDBRANCH   3   5
ENDBRANCH   2   3
ENDBRANCH   1   2
BRANCH   1  29
ATOM     29  C   UNL A   1      31.766  32.870  26.958  1.00  0.00     0.275 C 
BRANCH  29  30
ATOM     30  O   UNL A   1      33.083  33.417  27.154  1.00  0.00    -0.458 OA
BRANCH  30  31
ATOM     31  C   UNL A   1      33.227  34.154  28.279  1.00  0.00     0.338 C 
ATOM     32  O   UNL A   1      32.466  35.011  28.695  1.00  0.00    -0.246 OA
BRANCH  31  33
ATOM     33  C   UNL A   1      34.384  33.667  29.043  1.00  0.00     0.060 A 
ATOM     34  C   UNL A   1      35.626  34.275  28.837  1.00  0.00     0.016 A 
ATOM     35  C   UNL A   1      34.259  32.576  29.899  1.00  0.00     0.016 A 
ATOM     36  C   UNL A   1      36.755  33.799  29.494  1.00  0.00     0.010 A 
ATOM     37  C   UNL A   1      35.393  32.100  30.564  1.00  0.00     0.010 A 
ATOM     38  C   UNL A   1      36.646  32.705  30.361  1.00  0.00    -0.014 A 
BRANCH  38  39
ATOM     39  C   UNL A   1      37.849  32.165  31.031  1.00  0.00     0.031 A 
ATOM     40  C   UNL A   1      38.663  31.104  30.355  1.00  0.00     0.074 A 
ATOM     41  C   UNL A   1      38.198  32.620  32.247  1.00  0.00     0.049 A 
ATOM     42  N   UNL A   1      39.659  30.399  30.825  1.00  0.00    -0.248 NA
ATOM     43  C   UNL A   1      38.303  30.792  28.963  1.00  0.00     0.031 C 
ATOM     44  C   UNL A   1      37.512  33.687  32.977  1.00  0.00     0.029 A 
ATOM     45  N   UNL A   1      39.208  32.231  33.090  1.00  0.00    -0.354 N 
ATOM     46  C   UNL A   1      40.028  29.540  29.800  1.00  0.00     0.074 A 
ATOM     47  C   UNL A   1      39.145  29.807  28.684  1.00  0.00     0.031 C 
ATOM     48  C   UNL A   1      38.116  33.860  34.164  1.00  0.00     0.029 A 
ATOM     49  C   UNL A   1      39.195  32.885  34.296  1.00  0.00     0.049 A 
ATOM     50  H   UNL A   1      39.876  31.548  32.852  1.00  0.00     0.167 HD
ATOM     51  C   UNL A   1      41.013  28.611  29.798  1.00  0.00     0.037 A 
ATOM     52  C   UNL A   1      39.946  32.691  35.396  1.00  0.00     0.037 A 
ATOM     53  C   UNL A   1      41.898  28.365  30.907  1.00  0.00     0.049 A 
ATOM     54  C   UNL A   1      40.996  31.614  35.388  1.00  0.00     0.074 A 
ATOM     55  C   UNL A   1      42.939  27.457  30.999  1.00  0.00     0.029 A 
ATOM     56  N   UNL A   1      41.843  29.033  32.122  1.00  0.00    -0.354 N 
ATOM     57  N   UNL A   1      41.332  30.794  34.422  1.00  0.00    -0.248 NA
ATOM     58  C   UNL A   1      41.766  31.430  36.626  1.00  0.00     0.031 C 
ATOM     59  C   UNL A   1      43.489  27.550  32.282  1.00  0.00     0.029 A 
ATOM     60  C   UNL A   1      42.820  28.546  32.976  1.00  0.00     0.049 A 
ATOM     61  H   UNL A   1      41.205  29.750  32.344  1.00  0.00     0.167 HD
ATOM     62  C   UNL A   1      42.365  30.013  34.925  1.00  0.00     0.074 A 
ATOM     63  C   UNL A   1      42.606  30.465  36.280  1.00  0.00     0.031 C 
ATOM     64  C   UNL A   1      43.050  29.013  34.318  1.00  0.00     0.037 A 
BRANCH  51  65
ATOM     65  C   UNL A   1      41.162  27.767  28.569  1.00  0.00     0.064 A 
ATOM     66  C   UNL A   1      40.393  26.612  28.366  1.00  0.00     0.173 A 
ATOM     67  C   UNL A   1      42.072  28.135  27.565  1.00  0.00     0.173 A 
ATOM     68  F   UNL A   1      39.519  26.211  29.302  1.00  0.00    -0.203 F 
ATOM     69  C   UNL A   1      40.546  25.843  27.215  1.00  0.00     0.198 A 
ATOM     70  C   UNL A   1      42.204  27.377  26.405  1.00  0.00     0.198 A 
ATOM     71  F   UNL A   1      42.828  29.234  27.710  1.00  0.00    -0.203 F 
ATOM     72  F   UNL A   1      39.831  24.720  27.061  1.00  0.00    -0.200 F 
ATOM     73  C   UNL A   1      41.447  26.229  26.233  1.00  0.00     0.200 A 
ATOM     74  F   UNL A   1      43.068  27.759  25.454  1.00  0.00    -0.200 F 
ATOM     75  F   UNL A   1      41.590  25.490  25.125  1.00  0.00    -0.200 F 
ENDBRANCH  51  65
BRANCH  52  76
ATOM     76  C   UNL A   1      39.715  33.523  36.604  1.00  0.00     0.064 A 
ATOM     77  C   UNL A   1      38.781  33.137  37.574  1.00  0.00     0.173 A 
ATOM     78  C   UNL A   1      40.422  34.715  36.814  1.00  0.00     0.173 A 
ATOM     79  F   UNL A   1      38.061  32.019  37.404  1.00  0.00    -0.203 F 
ATOM     80  C   UNL A   1      38.556  33.918  38.706  1.00  0.00     0.198 A 
ATOM     81  C   UNL A   1      40.216  35.483  37.957  1.00  0.00     0.198 A 
ATOM     82  F   UNL A   1      41.325  35.128  35.912  1.00  0.00    -0.203 F 
ATOM     83  F   UNL A   1      37.631  33.548  39.601  1.00  0.00    -0.200 F 
ATOM     84  C   UNL A   1      39.279  35.087  38.900  1.00  0.00     0.200 A 
ATOM     85  F   UNL A   1      40.923  36.605  38.146  1.00  0.00    -0.200 F 
ATOM     86  F   UNL A   1      39.067  35.835  39.991  1.00  0.00    -0.200 F 
ENDBRANCH  52  76
BRANCH  64  87
ATOM     87  C   UNL A   1      44.152  28.367  35.102  1.00  0.00     0.064 A 
ATOM     88  C   UNL A   1      43.930  27.214  35.868  1.00  0.00     0.173 A 
ATOM     89  C   UNL A   1      45.455  28.885  35.053  1.00  0.00     0.173 A 
ATOM     90  F   UNL A   1      42.698  26.691  35.960  1.00  0.00    -0.203 F 
ATOM     91  C   UNL A   1      44.969  26.614  36.575  1.00  0.00     0.198 A 
ATOM     92  C   UNL A   1      46.497  28.268  35.740  1.00  0.00     0.198 A 
ATOM     93  F   UNL A   1      45.719  29.983  34.329  1.00  0.00    -0.203 F 
ATOM     94  F   UNL A   1      44.727  25.537  37.334  1.00  0.00    -0.200 F 
ATOM     95  C   UNL A   1      46.252  27.137  36.504  1.00  0.00     0.200 A 
ATOM     96  F   UNL A   1      47.737  28.770  35.662  1.00  0.00    -0.200 F 
ATOM     97  F   UNL A   1      47.253  26.555  37.179  1.00  0.00    -0.200 F 
ENDBRANCH  64  87
ENDBRANCH  38  39
ENDBRANCH  31  33
ENDBRANCH  30  31
ENDBRANCH  29  30
ENDBRANCH   1  29
TORSDOF 17
ENDMDL
MODEL 2
REMARK VINA RESULT:     -12.1      2.121      4.092
REMARK SMILES COc1ccc([C@@H](CC(=O)OCCOC(=O)c2ccc(-c3c4nc(c(-c5c(F)c(F)c(F)c(F)c5F)c5ccc([nH]5)c(-c5c(F)c(F)c(F)c(F)c5F)c5nc(c(-c6c(F)c(F)c(F)c(F)c6F)c6ccc3[nH]6)C=C5)C=C4)cc2)NC(=O)c2ccc(Cl)c([N+](=O)[O-])c2)cc1
REMARK SMILES IDX 12 1 11 2 9 3 10 4 8 5 7 6 6 7 3 8 4 9 94 10 5 11 93 12 2 13
REMARK SMILES IDX 1 14 80 15 81 16 82 18 83 19 84 20 92 21 85 22 88 23 86 24
REMARK SMILES IDX 87 25 89 26 90 27 91 28 13 29 14 30 15 31 16 32 17 33 18 34
REMARK SMILES IDX 79 35 19 36 78 37 20 38 21 39 22 40 72 41 23 42 77 43 71 44
REMARK SMILES IDX 73 45 24 46 76 47 70 48 69 49 25 51 57 52 37 53 56 54 38 55
REMARK SMILES IDX 41 56 55 57 74 58 39 59 40 60 54 62 75 63 42 64 26 65 27 66
REMARK SMILES IDX 35 67 28 68 29 69 33 70 36 71 30 72 31 73 34 74 32 75 58 76
REMARK SMILES IDX 59 77 67 78 60 79 61 80 65 81 68 82 62 83 63 84 66 85 64 86
REMARK SMILES IDX 43 87 44 88 52 89 45 90 46 91 50 92 53 93 47 94 48 95 51 96
REMARK SMILES IDX 49 97
REMARK H PARENT 80 17 73 50 41 61
REMARK Flexibility Score: inf
ROOT
ATOM      1  C   UNL A   1      31.604  28.543  25.448  1.00  0.00     0.274 C 
ENDROOT
BRANCH   1   2
ATOM      2  O   UNL A   1      32.604  28.171  24.476  1.00  0.00    -0.462 OA
BRANCH   2   3
ATOM      3  C   UNL A   1      32.386  27.043  23.765  1.00  0.00     0.308 C 
ATOM      4  O   UNL A   1      31.320  26.765  23.225  1.00  0.00    -0.252 OA
BRANCH   3   5
ATOM      5  C   UNL A   1      33.548  26.077  23.762  1.00  0.00     0.152 C 
BRANCH   5   6
ATOM      6  C   UNL A   1      34.148  25.596  25.095  1.00  0.00     0.123 C 
BRANCH   6   7
ATOM      7  C   UNL A   1      35.160  24.476  24.919  1.00  0.00    -0.025 A 
ATOM      8  C   UNL A   1      36.792  22.216  24.573  1.00  0.00     0.118 A 
ATOM      9  C   UNL A   1      36.743  22.859  25.805  1.00  0.00     0.047 A 
ATOM     10  C   UNL A   1      36.045  22.697  23.502  1.00  0.00     0.047 A 
ATOM     11  C   UNL A   1      35.955  24.000  25.970  1.00  0.00     0.010 A 
ATOM     12  C   UNL A   1      35.235  23.822  23.675  1.00  0.00     0.010 A 
BRANCH   8  13
ATOM     13  O   UNL A   1      37.512  21.055  24.502  1.00  0.00    -0.497 OA
ATOM     14  C   UNL A   1      38.587  21.032  25.436  1.00  0.00     0.278 C 
ENDBRANCH   8  13
ENDBRANCH   6   7
BRANCH   6  15
ATOM     15  N   UNL A   1      33.159  25.334  26.137  1.00  0.00    -0.345 N 
ATOM     16  C   UNL A   1      32.197  24.360  26.233  1.00  0.00     0.252 C 
ATOM     17  H   UNL A   1      33.187  25.959  26.896  1.00  0.00     0.164 HD
ATOM     18  O   UNL A   1      31.333  24.395  27.102  1.00  0.00    -0.269 OA
BRANCH  16  19
ATOM     19  C   UNL A   1      32.181  23.227  25.288  1.00  0.00     0.046 A 
ATOM     20  C   UNL A   1      31.588  23.399  24.034  1.00  0.00     0.016 A 
ATOM     21  C   UNL A   1      32.685  21.981  25.661  1.00  0.00     0.101 A 
ATOM     22  C   UNL A   1      31.564  22.339  23.121  1.00  0.00     0.028 A 
ATOM     23  C   UNL A   1      32.664  20.929  24.732  1.00  0.00     0.288 A 
ATOM     24  C   UNL A   1      32.121  21.098  23.456  1.00  0.00     0.118 A 
ATOM     25  Cl  UNL A   1      32.142  19.891  22.222  1.00  0.00    -0.077 Cl
BRANCH  23  26
ATOM     26  N   UNL A   1      33.266  19.674  25.146  1.00  0.00     0.064 N 
ATOM     27  O   UNL A   1      32.533  18.804  25.630  1.00  0.00    -0.258 OA
ATOM     28  O   UNL A   1      34.499  19.593  25.037  1.00  0.00    -0.258 OA
ENDBRANCH  23  26
ENDBRANCH  16  19
ENDBRANCH   6  15
ENDBRANCH   5   6
ENDBRANCH   3   5
ENDBRANCH   2   3
ENDBRANCH   1   2
BRANCH   1  29
ATOM     29  C   UNL A   1      31.775  29.988  25.926  1.00  0.00     0.275 C 
BRANCH  29  30
ATOM     30  O   UNL A   1      33.165  30.335  26.067  1.00  0.00    -0.458 OA
BRANCH  30  31
ATOM     31  C   UNL A   1      33.415  31.303  26.977  1.00  0.00     0.338 C 
ATOM     32  O   UNL A   1      32.668  32.209  27.307  1.00  0.00    -0.246 OA
BRANCH  31  33
ATOM     33  C   UNL A   1      34.691  31.028  27.653  1.00  0.00     0.060 A 
ATOM     34  C   UNL A   1      34.936  29.733  28.119  1.00  0.00     0.016 A 
ATOM     35  C   UNL A   1      35.604  32.053  27.887  1.00  0.00     0.016 A 
ATOM     36  C   UNL A   1      36.104  29.451  28.819  1.00  0.00     0.010 A 
ATOM     37  C   UNL A   1      36.780  31.769  28.586  1.00  0.00     0.010 A 
ATOM     38  C   UNL A   1      37.033  30.470  29.060  1.00  0.00    -0.014 A 
BRANCH  38  39
ATOM     39  C   UNL A   1      38.258  30.189  29.841  1.00  0.00     0.031 A 
ATOM     40  C   UNL A   1      39.306  29.279  29.277  1.00  0.00     0.074 A 
ATOM     41  C   UNL A   1      38.417  30.742  31.056  1.00  0.00     0.049 A 
ATOM     42  N   UNL A   1      40.375  28.791  29.852  1.00  0.00    -0.248 NA
ATOM     43  C   UNL A   1      39.123  28.858  27.879  1.00  0.00     0.031 C 
ATOM     44  C   UNL A   1      37.490  31.684  31.682  1.00  0.00     0.029 A 
ATOM     45  N   UNL A   1      39.411  30.578  31.988  1.00  0.00    -0.354 N 
ATOM     46  C   UNL A   1      40.978  27.983  28.899  1.00  0.00     0.074 A 
ATOM     47  C   UNL A   1      40.153  28.041  27.710  1.00  0.00     0.031 C 
ATOM     48  C   UNL A   1      37.953  32.007  32.900  1.00  0.00     0.029 A 
ATOM     49  C   UNL A   1      39.180  31.258  33.157  1.00  0.00     0.049 A 
ATOM     50  H   UNL A   1      40.212  30.026  31.832  1.00  0.00     0.167 HD
ATOM     51  C   UNL A   1      42.115  27.256  29.012  1.00  0.00     0.037 A 
ATOM     52  C   UNL A   1      39.863  31.246  34.317  1.00  0.00     0.037 A 
ATOM     53  C   UNL A   1      42.938  27.219  30.193  1.00  0.00     0.049 A 
ATOM     54  C   UNL A   1      41.092  30.386  34.436  1.00  0.00     0.074 A 
ATOM     55  C   UNL A   1      44.118  26.527  30.403  1.00  0.00     0.029 A 
ATOM     56  N   UNL A   1      42.663  27.905  31.367  1.00  0.00    -0.354 N 
ATOM     57  N   UNL A   1      41.651  29.613  33.538  1.00  0.00    -0.248 NA
ATOM     58  C   UNL A   1      41.781  30.392  35.735  1.00  0.00     0.031 C 
ATOM     59  C   UNL A   1      44.537  26.765  31.717  1.00  0.00     0.029 A 
ATOM     60  C   UNL A   1      43.641  27.639  32.312  1.00  0.00     0.049 A 
ATOM     61  H   UNL A   1      41.887  28.495  31.508  1.00  0.00     0.167 HD
ATOM     62  C   UNL A   1      42.767  29.058  34.151  1.00  0.00     0.074 A 
ATOM     63  C   UNL A   1      42.811  29.592  35.497  1.00  0.00     0.031 C 
ATOM     64  C   UNL A   1      43.672  28.186  33.644  1.00  0.00     0.037 A 
BRANCH  51  65
ATOM     65  C   UNL A   1      42.516  26.415  27.839  1.00  0.00     0.064 A 
ATOM     66  C   UNL A   1      43.441  26.867  26.886  1.00  0.00     0.173 A 
ATOM     67  C   UNL A   1      41.986  25.125  27.681  1.00  0.00     0.173 A 
ATOM     68  F   UNL A   1      43.966  28.097  26.986  1.00  0.00    -0.203 F 
ATOM     69  C   UNL A   1      43.801  26.067  25.804  1.00  0.00     0.198 A 
ATOM     70  C   UNL A   1      42.367  24.320  26.611  1.00  0.00     0.198 A 
ATOM     71  F   UNL A   1      41.100  24.646  28.567  1.00  0.00    -0.203 F 
ATOM     72  F   UNL A   1      44.655  26.535  24.882  1.00  0.00    -0.200 F 
ATOM     73  C   UNL A   1      43.269  24.793  25.670  1.00  0.00     0.200 A 
ATOM     74  F   UNL A   1      41.859  23.086  26.490  1.00  0.00    -0.200 F 
ATOM     75  F   UNL A   1      43.620  24.024  24.631  1.00  0.00    -0.200 F 
ENDBRANCH  51  65
BRANCH  52  76
ATOM     76  C   UNL A   1      39.386  32.059  35.463  1.00  0.00     0.064 A 
ATOM     77  C   UNL A   1      38.562  31.498  36.449  1.00  0.00     0.173 A 
ATOM     78  C   UNL A   1      39.743  33.408  35.599  1.00  0.00     0.173 A 
ATOM     79  F   UNL A   1      38.172  30.220  36.346  1.00  0.00    -0.203 F 
ATOM     80  C   UNL A   1      38.106  32.260  37.523  1.00  0.00     0.198 A 
ATOM     81  C   UNL A   1      39.308  34.162  36.687  1.00  0.00     0.198 A 
ATOM     82  F   UNL A   1      40.528  33.991  34.680  1.00  0.00    -0.203 F 
ATOM     83  F   UNL A   1      37.289  31.711  38.431  1.00  0.00    -0.200 F 
ATOM     84  C   UNL A   1      38.486  33.588  37.645  1.00  0.00     0.200 A 
ATOM     85  F   UNL A   1      39.685  35.442  36.806  1.00  0.00    -0.200 F 
ATOM     86  F   UNL A   1      38.051  34.319  38.681  1.00  0.00    -0.200 F 
ENDBRANCH  52  76
BRANCH  64  87
ATOM     87  C   UNL A   1      44.808  27.785  34.536  1.00  0.00     0.064 A 
ATOM     88  C   UNL A   1      45.982  28.548  34.619  1.00  0.00     0.173 A 
ATOM     89  C   UNL A   1      44.705  26.645  35.347  1.00  0.00     0.173 A 
ATOM     90  F   UNL A   1      46.135  29.637  33.851  1.00  0.00    -0.203 F 
ATOM     91  C   UNL A   1      47.020  28.173  35.467  1.00  0.00     0.198 A 
ATOM     92  C   UNL A   1      45.734  26.286  36.213  1.00  0.00     0.198 A 
ATOM     93  F   UNL A   1      43.599  25.886  35.308  1.00  0.00    -0.203 F 
ATOM     94  F   UNL A   1      48.149  28.893  35.501  1.00  0.00    -0.200 F 
ATOM     95  C   UNL A   1      46.892  27.047  36.269  1.00  0.00     0.200 A 
ATOM     96  F   UNL A   1      45.604  25.204  36.993  1.00  0.00    -0.200 F 
ATOM     97  F   UNL A   1      47.890  26.691  37.089  1.00  0.00    -0.200 F 
ENDBRANCH  64  87
ENDBRANCH  38  39
ENDBRANCH  31  33
ENDBRANCH  30  31
ENDBRANCH  29  30
ENDBRANCH   1  29
TORSDOF 17
ENDMDL
MODEL 3
REMARK VINA RESULT:     -12.1      0.531      2.012
REMARK SMILES COc1ccc([C@@H](CC(=O)OCCOC(=O)c2ccc(-c3c4nc(c(-c5c(F)c(F)c(F)c(F)c5F)c5ccc([nH]5)c(-c5c(F)c(F)c(F)c(F)c5F)c5nc(c(-c6c(F)c(F)c(F)c(F)c6F)c6ccc3[nH]6)C=C5)C=C4)cc2)NC(=O)c2ccc(Cl)c([N+](=O)[O-])c2)cc1
REMARK SMILES IDX 12 1 11 2 9 3 10 4 8 5 7 6 6 7 3 8 4 9 94 10 5 11 93 12 2 13
REMARK SMILES IDX 1 14 80 15 81 16 82 18 83 19 84 20 92 21 85 22 88 23 86 24
REMARK SMILES IDX 87 25 89 26 90 27 91 28 13 29 14 30 15 31 16 32 17 33 18 34
REMARK SMILES IDX 79 35 19 36 78 37 20 38 21 39 22 40 72 41 23 42 77 43 71 44
REMARK SMILES IDX 73 45 24 46 76 47 70 48 69 49 25 51 57 52 37 53 56 54 38 55
REMARK SMILES IDX 41 56 55 57 74 58 39 59 40 60 54 62 75 63 42 64 26 65 27 66
REMARK SMILES IDX 35 67 28 68 29 69 33 70 36 71 30 72 31 73 34 74 32 75 58 76
REMARK SMILES IDX 59 77 67 78 60 79 61 80 65 81 68 82 62 83 63 84 66 85 64 86
REMARK SMILES IDX 43 87 44 88 52 89 45 90 46 91 50 92 53 93 47 94 48 95 51 96
REMARK SMILES IDX 49 97
REMARK H PARENT 80 17 73 50 41 61
REMARK Flexibility Score: inf
ROOT
ATOM      1  C   UNL A   1      32.697  31.308  27.344  1.00  0.00     0.274 C 
ENDROOT
BRANCH   1   2
ATOM      2  O   UNL A   1      33.864  30.470  27.485  1.00  0.00    -0.462 OA
BRANCH   2   3
ATOM      3  C   UNL A   1      33.746  29.178  27.106  1.00  0.00     0.308 C 
ATOM      4  O   UNL A   1      34.674  28.498  26.680  1.00  0.00    -0.252 OA
BRANCH   3   5
ATOM      5  C   UNL A   1      32.332  28.644  27.154  1.00  0.00     0.152 C 
BRANCH   5   6
ATOM      6  C   UNL A   1      31.896  27.541  26.175  1.00  0.00     0.123 C 
BRANCH   6   7
ATOM      7  C   UNL A   1      31.017  28.060  25.050  1.00  0.00    -0.025 A 
ATOM      8  C   UNL A   1      29.579  28.875  22.779  1.00  0.00     0.118 A 
ATOM      9  C   UNL A   1      30.321  29.801  23.503  1.00  0.00     0.047 A 
ATOM     10  C   UNL A   1      29.533  27.544  23.183  1.00  0.00     0.047 A 
ATOM     11  C   UNL A   1      31.013  29.403  24.650  1.00  0.00     0.010 A 
ATOM     12  C   UNL A   1      30.248  27.141  24.313  1.00  0.00     0.010 A 
BRANCH   8  13
ATOM     13  O   UNL A   1      28.998  29.309  21.619  1.00  0.00    -0.497 OA
ATOM     14  C   UNL A   1      28.167  30.447  21.827  1.00  0.00     0.278 C 
ENDBRANCH   8  13
ENDBRANCH   6   7
BRANCH   6  15
ATOM     15  N   UNL A   1      31.373  26.339  26.821  1.00  0.00    -0.345 N 
ATOM     16  C   UNL A   1      31.654  25.013  26.605  1.00  0.00     0.252 C 
ATOM     17  H   UNL A   1      30.710  26.508  27.527  1.00  0.00     0.164 HD
ATOM     18  O   UNL A   1      30.988  24.124  27.124  1.00  0.00    -0.269 OA
BRANCH  16  19
ATOM     19  C   UNL A   1      32.782  24.617  25.741  1.00  0.00     0.046 A 
ATOM     20  C   UNL A   1      33.968  24.175  26.335  1.00  0.00     0.016 A 
ATOM     21  C   UNL A   1      32.697  24.747  24.356  1.00  0.00     0.101 A 
ATOM     22  C   UNL A   1      35.050  23.793  25.535  1.00  0.00     0.028 A 
ATOM     23  C   UNL A   1      33.786  24.349  23.563  1.00  0.00     0.288 A 
ATOM     24  C   UNL A   1      34.960  23.856  24.139  1.00  0.00     0.118 A 
ATOM     25  Cl  UNL A   1      36.305  23.256  23.239  1.00  0.00    -0.077 Cl
BRANCH  23  26
ATOM     26  N   UNL A   1      33.618  24.436  22.123  1.00  0.00     0.064 N 
ATOM     27  O   UNL A   1      33.440  23.389  21.490  1.00  0.00    -0.258 OA
ATOM     28  O   UNL A   1      33.729  25.565  21.624  1.00  0.00    -0.258 OA
ENDBRANCH  23  26
ENDBRANCH  16  19
ENDBRANCH   6  15
ENDBRANCH   5   6
ENDBRANCH   3   5
ENDBRANCH   2   3
ENDBRANCH   1   2
BRANCH   1  29
ATOM     29  C   UNL A   1      33.067  32.784  27.168  1.00  0.00     0.275 C 
BRANCH  29  30
ATOM     30  O   UNL A   1      32.295  33.629  28.041  1.00  0.00    -0.458 OA
BRANCH  30  31
ATOM     31  C   UNL A   1      32.981  34.665  28.573  1.00  0.00     0.338 C 
ATOM     32  O   UNL A   1      32.641  35.836  28.590  1.00  0.00    -0.246 OA
BRANCH  31  33
ATOM     33  C   UNL A   1      34.162  34.160  29.287  1.00  0.00     0.060 A 
ATOM     34  C   UNL A   1      35.430  34.533  28.832  1.00  0.00     0.016 A 
ATOM     35  C   UNL A   1      34.021  33.271  30.350  1.00  0.00     0.016 A 
ATOM     36  C   UNL A   1      36.571  34.024  29.443  1.00  0.00     0.010 A 
ATOM     37  C   UNL A   1      35.167  32.762  30.967  1.00  0.00     0.010 A 
ATOM     38  C   UNL A   1      36.445  33.132  30.514  1.00  0.00    -0.014 A 
BRANCH  38  39
ATOM     39  C   UNL A   1      37.653  32.551  31.142  1.00  0.00     0.031 A 
ATOM     40  C   UNL A   1      38.397  31.453  30.446  1.00  0.00     0.074 A 
ATOM     41  C   UNL A   1      38.067  33.005  32.338  1.00  0.00     0.049 A 
ATOM     42  N   UNL A   1      39.383  30.714  30.885  1.00  0.00    -0.248 NA
ATOM     43  C   UNL A   1      37.969  31.141  29.074  1.00  0.00     0.031 C 
ATOM     44  C   UNL A   1      37.454  34.105  33.082  1.00  0.00     0.029 A 
ATOM     45  N   UNL A   1      39.095  32.584  33.145  1.00  0.00    -0.354 N 
ATOM     46  C   UNL A   1      39.677  29.830  29.857  1.00  0.00     0.074 A 
ATOM     47  C   UNL A   1      38.760  30.120  28.773  1.00  0.00     0.031 C 
ATOM     48  C   UNL A   1      38.111  34.266  34.242  1.00  0.00     0.029 A 
ATOM     49  C   UNL A   1      39.156  33.250  34.342  1.00  0.00     0.049 A 
ATOM     50  H   UNL A   1      39.726  31.873  32.888  1.00  0.00     0.167 HD
ATOM     51  C   UNL A   1      40.624  28.863  29.826  1.00  0.00     0.037 A 
ATOM     52  C   UNL A   1      39.942  33.038  35.414  1.00  0.00     0.037 A 
ATOM     53  C   UNL A   1      41.542  28.594  30.902  1.00  0.00     0.049 A 
ATOM     54  C   UNL A   1      40.949  31.920  35.377  1.00  0.00     0.074 A 
ATOM     55  C   UNL A   1      42.550  27.646  30.962  1.00  0.00     0.029 A 
ATOM     56  N   UNL A   1      41.563  29.276  32.110  1.00  0.00    -0.354 N 
ATOM     57  N   UNL A   1      41.213  31.078  34.408  1.00  0.00    -0.248 NA
ATOM     58  C   UNL A   1      41.760  31.718  36.586  1.00  0.00     0.031 C 
ATOM     59  C   UNL A   1      43.154  27.731  32.221  1.00  0.00     0.029 A 
ATOM     60  C   UNL A   1      42.553  28.759  32.930  1.00  0.00     0.049 A 
ATOM     61  H   UNL A   1      40.962  30.019  32.349  1.00  0.00     0.167 HD
ATOM     62  C   UNL A   1      42.234  30.263  34.878  1.00  0.00     0.074 A 
ATOM     63  C   UNL A   1      42.547  30.718  36.217  1.00  0.00     0.031 C 
ATOM     64  C   UNL A   1      42.855  29.230  34.257  1.00  0.00     0.037 A 
BRANCH  51  65
ATOM     65  C   UNL A   1      40.690  28.001  28.602  1.00  0.00     0.064 A 
ATOM     66  C   UNL A   1      41.467  28.355  27.489  1.00  0.00     0.173 A 
ATOM     67  C   UNL A   1      39.985  26.789  28.553  1.00  0.00     0.173 A 
ATOM     68  F   UNL A   1      42.149  29.510  27.482  1.00  0.00    -0.203 F 
ATOM     69  C   UNL A   1      41.516  27.538  26.362  1.00  0.00     0.198 A 
ATOM     70  C   UNL A   1      40.056  25.964  27.434  1.00  0.00     0.198 A 
ATOM     71  F   UNL A   1      39.230  26.404  29.593  1.00  0.00    -0.203 F 
ATOM     72  F   UNL A   1      42.231  27.915  25.293  1.00  0.00    -0.200 F 
ATOM     73  C   UNL A   1      40.815  26.340  26.338  1.00  0.00     0.200 A 
ATOM     74  F   UNL A   1      39.386  24.802  27.417  1.00  0.00    -0.200 F 
ATOM     75  F   UNL A   1      40.867  25.554  25.254  1.00  0.00    -0.200 F 
ENDBRANCH  51  65
BRANCH  52  76
ATOM     76  C   UNL A   1      39.793  33.891  36.620  1.00  0.00     0.064 A 
ATOM     77  C   UNL A   1      40.494  35.098  36.739  1.00  0.00     0.173 A 
ATOM     78  C   UNL A   1      38.947  33.519  37.675  1.00  0.00     0.173 A 
ATOM     79  F   UNL A   1      41.336  35.481  35.768  1.00  0.00    -0.203 F 
ATOM     80  C   UNL A   1      40.361  35.898  37.872  1.00  0.00     0.198 A 
ATOM     81  C   UNL A   1      38.795  34.331  38.796  1.00  0.00     0.198 A 
ATOM     82  F   UNL A   1      38.256  32.371  37.609  1.00  0.00    -0.203 F 
ATOM     83  F   UNL A   1      41.071  37.029  37.978  1.00  0.00    -0.200 F 
ATOM     84  C   UNL A   1      39.506  35.518  38.896  1.00  0.00     0.200 A 
ATOM     85  F   UNL A   1      37.960  33.965  39.779  1.00  0.00    -0.200 F 
ATOM     86  F   UNL A   1      39.375  36.290  39.984  1.00  0.00    -0.200 F 
ENDBRANCH  52  76
BRANCH  64  87
ATOM     87  C   UNL A   1      43.961  28.549  35.004  1.00  0.00     0.064 A 
ATOM     88  C   UNL A   1      45.287  28.999  34.926  1.00  0.00     0.173 A 
ATOM     89  C   UNL A   1      43.685  27.456  35.839  1.00  0.00     0.173 A 
ATOM     90  F   UNL A   1      45.604  30.030  34.128  1.00  0.00    -0.203 F 
ATOM     91  C   UNL A   1      46.299  28.367  35.642  1.00  0.00     0.198 A 
ATOM     92  C   UNL A   1      44.695  26.841  36.572  1.00  0.00     0.198 A 
ATOM     93  F   UNL A   1      42.431  26.991  35.951  1.00  0.00    -0.203 F 
ATOM     94  F   UNL A   1      47.566  28.788  35.521  1.00  0.00    -0.200 F 
ATOM     95  C   UNL A   1      46.002  27.294  36.470  1.00  0.00     0.200 A 
ATOM     96  F   UNL A   1      44.404  25.812  37.379  1.00  0.00    -0.200 F 
ATOM     97  F   UNL A   1      46.977  26.690  37.163  1.00  0.00    -0.200 F 
ENDBRANCH  64  87
ENDBRANCH  38  39
ENDBRANCH  31  33
ENDBRANCH  30  31
ENDBRANCH  29  30
ENDBRANCH   1  29
TORSDOF 17
ENDMDL
