MODEL 1
REMARK VINA RESULT:     -14.4      0.000      0.000
REMARK SMILES Cc1ccccc1[C@@H]1[NH2+][C@H](C(=O)OCCOC(=O)c2ccc(-c3c4nc(c(-c5c(F)c(F)c(F)c(F)c5F)c5ccc([nH]5)c(-c5c(F)c(F)c(F)c(F)c5F)c5nc(c(-c6c(F)c(F)c(F)c(F)c6F)c6ccc3[nH]6)C=C5)C=C4)cc2)CC2=c3ccccc3=N[C@H]21
REMARK SMILES IDX 15 1 14 2 13 3 11 4 12 5 10 6 8 7 9 8 91 9 83 12 90 13 82 14
REMARK SMILES IDX 84 15 89 16 85 17 88 18 86 19 87 20 7 21 1 22 2 23 3 24 4 25
REMARK SMILES IDX 6 26 5 27 16 28 17 29 18 30 19 31 20 32 81 33 21 34 80 35
REMARK SMILES IDX 22 36 23 37 24 38 74 39 25 40 79 41 73 42 75 43 26 44 78 45
REMARK SMILES IDX 72 46 71 47 27 49 59 50 39 51 58 52 40 53 43 54 57 55 76 56
REMARK SMILES IDX 41 57 42 58 56 60 77 61 44 62 28 63 29 64 37 65 30 66 31 67
REMARK SMILES IDX 35 68 38 69 32 70 33 71 36 72 34 73 60 74 61 75 69 76 62 77
REMARK SMILES IDX 63 78 67 79 70 80 64 81 65 82 68 83 66 84 45 85 46 86 54 87
REMARK SMILES IDX 47 88 48 89 52 90 55 91 49 92 50 93 53 94 51 95
REMARK H PARENT 9 10 9 11 75 48 43 59
REMARK Flexibility Score: inf
ROOT
ATOM      1  C   UNL A   1      33.657  31.621  27.675  1.00  0.00     0.275 C 
ENDROOT
BRANCH   1   2
ATOM      2  C   UNL A   1      32.846  30.714  26.752  1.00  0.00     0.274 C 
BRANCH   2   3
ATOM      3  O   UNL A   1      32.664  29.413  27.314  1.00  0.00    -0.458 OA
BRANCH   3   4
ATOM      4  C   UNL A   1      33.424  28.466  26.716  1.00  0.00     0.365 C 
ATOM      5  O   UNL A   1      34.586  28.214  27.034  1.00  0.00    -0.245 OA
BRANCH   4   6
ATOM      6  C   UNL A   1      32.810  27.839  25.491  1.00  0.00     0.298 C 
ATOM      7  C   UNL A   1      31.097  27.640  23.745  1.00  0.00     0.243 C 
ATOM      8  N   UNL A   1      31.553  28.418  24.952  1.00  0.00    -0.326 N 
ATOM      9  C   UNL A   1      32.217  27.244  22.689  1.00  0.00     0.196 C 
ATOM     10  H   UNL A   1      30.829  28.381  25.670  1.00  0.00     0.347 HD
ATOM     11  H   UNL A   1      31.723  29.387  24.678  1.00  0.00     0.347 HD
ATOM     12  C   UNL A   1      33.486  26.939  23.424  1.00  0.00    -0.024 C 
ATOM     13  N   UNL A   1      31.877  25.952  22.009  1.00  0.00    -0.270 NA
ATOM     14  C   UNL A   1      33.915  27.915  24.439  1.00  0.00     0.111 C 
ATOM     15  C   UNL A   1      33.801  25.654  23.361  1.00  0.00     0.002 A 
ATOM     16  C   UNL A   1      32.777  25.127  22.454  1.00  0.00     0.066 A 
ATOM     17  C   UNL A   1      34.634  24.812  24.156  1.00  0.00     0.010 A 
ATOM     18  C   UNL A   1      32.848  23.676  22.192  1.00  0.00     0.028 A 
ATOM     19  C   UNL A   1      34.542  23.486  23.972  1.00  0.00     0.001 A 
ATOM     20  C   UNL A   1      33.685  22.928  22.935  1.00  0.00     0.002 A 
BRANCH   7  21
ATOM     21  C   UNL A   1      29.941  28.319  23.010  1.00  0.00     0.015 A 
ATOM     22  C   UNL A   1      28.133  26.735  23.931  1.00  0.00     0.045 C 
ATOM     23  C   UNL A   1      28.586  27.954  23.174  1.00  0.00    -0.042 A 
ATOM     24  C   UNL A   1      27.584  28.811  22.683  1.00  0.00     0.004 A 
ATOM     25  C   UNL A   1      27.901  29.972  21.980  1.00  0.00     0.000 A 
ATOM     26  C   UNL A   1      30.241  29.469  22.247  1.00  0.00     0.010 A 
ATOM     27  C   UNL A   1      29.231  30.285  21.735  1.00  0.00     0.001 A 
ENDBRANCH   7  21
ENDBRANCH   4   6
ENDBRANCH   3   4
ENDBRANCH   2   3
ENDBRANCH   1   2
BRANCH   1  28
ATOM     28  O   UNL A   1      35.054  31.303  27.957  1.00  0.00    -0.458 OA
BRANCH  28  29
ATOM     29  C   UNL A   1      35.781  31.564  29.070  1.00  0.00     0.338 C 
ATOM     30  O   UNL A   1      35.532  32.507  29.811  1.00  0.00    -0.246 OA
BRANCH  29  31
ATOM     31  C   UNL A   1      36.931  30.687  29.350  1.00  0.00     0.060 A 
ATOM     32  C   UNL A   1      36.763  29.520  30.125  1.00  0.00     0.016 A 
ATOM     33  C   UNL A   1      38.152  30.980  28.761  1.00  0.00     0.016 A 
ATOM     34  C   UNL A   1      37.786  28.575  30.196  1.00  0.00     0.010 A 
ATOM     35  C   UNL A   1      39.107  29.997  28.721  1.00  0.00     0.010 A 
ATOM     36  C   UNL A   1      38.945  28.810  29.462  1.00  0.00    -0.014 A 
BRANCH  36  37
ATOM     37  C   UNL A   1      40.190  28.074  29.604  1.00  0.00     0.031 A 
ATOM     38  C   UNL A   1      40.466  26.759  28.998  1.00  0.00     0.074 A 
ATOM     39  C   UNL A   1      41.174  28.881  30.059  1.00  0.00     0.049 A 
ATOM     40  N   UNL A   1      41.558  26.112  29.218  1.00  0.00    -0.248 NA
ATOM     41  C   UNL A   1      39.570  26.033  28.110  1.00  0.00     0.031 C 
ATOM     42  C   UNL A   1      42.610  28.798  29.880  1.00  0.00     0.029 A 
ATOM     43  N   UNL A   1      40.996  30.024  30.854  1.00  0.00    -0.354 N 
ATOM     44  C   UNL A   1      41.656  25.084  28.304  1.00  0.00     0.074 A 
ATOM     45  C   UNL A   1      40.347  25.016  27.702  1.00  0.00     0.031 C 
ATOM     46  C   UNL A   1      43.201  29.635  30.754  1.00  0.00     0.029 A 
ATOM     47  C   UNL A   1      42.155  30.145  31.628  1.00  0.00     0.049 A 
ATOM     48  H   UNL A   1      40.213  30.621  30.867  1.00  0.00     0.167 HD
ATOM     49  C   UNL A   1      42.887  24.523  28.107  1.00  0.00     0.037 A 
ATOM     50  C   UNL A   1      42.059  29.914  32.971  1.00  0.00     0.037 A 
ATOM     51  C   UNL A   1      43.850  25.128  29.028  1.00  0.00     0.049 A 
ATOM     52  C   UNL A   1      42.871  28.711  33.370  1.00  0.00     0.074 A 
ATOM     53  C   UNL A   1      44.782  26.139  28.872  1.00  0.00     0.029 A 
ATOM     54  N   UNL A   1      43.691  24.935  30.395  1.00  0.00    -0.354 N 
ATOM     55  N   UNL A   1      43.095  27.682  32.595  1.00  0.00    -0.248 NA
ATOM     56  C   UNL A   1      43.579  28.628  34.638  1.00  0.00     0.031 C 
ATOM     57  C   UNL A   1      45.165  26.578  30.166  1.00  0.00     0.029 A 
ATOM     58  C   UNL A   1      44.476  25.821  31.101  1.00  0.00     0.049 A 
ATOM     59  H   UNL A   1      43.101  24.261  30.802  1.00  0.00     0.167 HD
ATOM     60  C   UNL A   1      44.022  26.864  33.188  1.00  0.00     0.074 A 
ATOM     61  C   UNL A   1      44.276  27.490  34.473  1.00  0.00     0.031 C 
ATOM     62  C   UNL A   1      44.542  25.768  32.554  1.00  0.00     0.037 A 
BRANCH  49  63
ATOM     63  C   UNL A   1      43.341  23.620  26.971  1.00  0.00     0.064 A 
ATOM     64  C   UNL A   1      42.953  22.255  26.947  1.00  0.00     0.173 A 
ATOM     65  C   UNL A   1      44.167  24.003  25.899  1.00  0.00     0.173 A 
ATOM     66  F   UNL A   1      42.109  21.745  27.853  1.00  0.00    -0.203 F 
ATOM     67  C   UNL A   1      43.413  21.346  25.989  1.00  0.00     0.198 A 
ATOM     68  C   UNL A   1      44.640  23.087  24.946  1.00  0.00     0.198 A 
ATOM     69  F   UNL A   1      44.514  25.277  25.701  1.00  0.00    -0.203 F 
ATOM     70  F   UNL A   1      43.021  20.065  26.046  1.00  0.00    -0.200 F 
ATOM     71  C   UNL A   1      44.272  21.757  24.997  1.00  0.00     0.200 A 
ATOM     72  F   UNL A   1      45.456  23.509  23.969  1.00  0.00    -0.200 F 
ATOM     73  F   UNL A   1      44.728  20.887  24.086  1.00  0.00    -0.200 F 
ENDBRANCH  49  63
BRANCH  50  74
ATOM     74  C   UNL A   1      40.725  30.322  33.519  1.00  0.00     0.064 A 
ATOM     75  C   UNL A   1      40.483  31.706  33.672  1.00  0.00     0.173 A 
ATOM     76  C   UNL A   1      39.604  29.482  33.460  1.00  0.00     0.173 A 
ATOM     77  F   UNL A   1      41.517  32.562  33.726  1.00  0.00    -0.203 F 
ATOM     78  C   UNL A   1      39.193  32.234  33.616  1.00  0.00     0.198 A 
ATOM     79  C   UNL A   1      38.309  30.017  33.428  1.00  0.00     0.198 A 
ATOM     80  F   UNL A   1      39.752  28.158  33.316  1.00  0.00    -0.203 F 
ATOM     81  F   UNL A   1      39.016  33.564  33.614  1.00  0.00    -0.200 F 
ATOM     82  C   UNL A   1      38.108  31.390  33.466  1.00  0.00     0.200 A 
ATOM     83  F   UNL A   1      37.254  29.204  33.266  1.00  0.00    -0.200 F 
ATOM     84  F   UNL A   1      36.877  31.899  33.314  1.00  0.00    -0.200 F 
ENDBRANCH  50  74
BRANCH  62  85
ATOM     85  C   UNL A   1      45.282  24.600  33.186  1.00  0.00     0.064 A 
ATOM     86  C   UNL A   1      46.610  24.651  33.634  1.00  0.00     0.173 A 
ATOM     87  C   UNL A   1      44.596  23.394  33.504  1.00  0.00     0.173 A 
ATOM     88  F   UNL A   1      47.344  25.764  33.544  1.00  0.00    -0.203 F 
ATOM     89  C   UNL A   1      47.226  23.568  34.268  1.00  0.00     0.198 A 
ATOM     90  C   UNL A   1      45.189  22.347  34.206  1.00  0.00     0.198 A 
ATOM     91  F   UNL A   1      43.310  23.194  33.183  1.00  0.00    -0.203 F 
ATOM     92  F   UNL A   1      48.516  23.658  34.621  1.00  0.00    -0.200 F 
ATOM     93  C   UNL A   1      46.514  22.423  34.567  1.00  0.00     0.200 A 
ATOM     94  F   UNL A   1      44.457  21.278  34.547  1.00  0.00    -0.200 F 
ATOM     95  F   UNL A   1      47.093  21.412  35.226  1.00  0.00    -0.200 F 
ENDBRANCH  62  85
ENDBRANCH  36  37
ENDBRANCH  29  31
ENDBRANCH  28  29
ENDBRANCH   1  28
TORSDOF 12
ENDMDL
MODEL 2
REMARK VINA RESULT:     -14.2      5.664     11.324
REMARK SMILES Cc1ccccc1[C@@H]1[NH2+][C@H](C(=O)OCCOC(=O)c2ccc(-c3c4nc(c(-c5c(F)c(F)c(F)c(F)c5F)c5ccc([nH]5)c(-c5c(F)c(F)c(F)c(F)c5F)c5nc(c(-c6c(F)c(F)c(F)c(F)c6F)c6ccc3[nH]6)C=C5)C=C4)cc2)CC2=c3ccccc3=N[C@H]21
REMARK SMILES IDX 15 1 14 2 13 3 11 4 12 5 10 6 8 7 9 8 91 9 83 12 90 13 82 14
REMARK SMILES IDX 84 15 89 16 85 17 88 18 86 19 87 20 7 21 1 22 2 23 3 24 4 25
REMARK SMILES IDX 6 26 5 27 16 28 17 29 18 30 19 31 20 32 81 33 21 34 80 35
REMARK SMILES IDX 22 36 23 37 24 38 74 39 25 40 79 41 73 42 75 43 26 44 78 45
REMARK SMILES IDX 72 46 71 47 27 49 59 50 39 51 58 52 40 53 43 54 57 55 76 56
REMARK SMILES IDX 41 57 42 58 56 60 77 61 44 62 28 63 29 64 37 65 30 66 31 67
REMARK SMILES IDX 35 68 38 69 32 70 33 71 36 72 34 73 60 74 61 75 69 76 62 77
REMARK SMILES IDX 63 78 67 79 70 80 64 81 65 82 68 83 66 84 45 85 46 86 54 87
REMARK SMILES IDX 47 88 48 89 52 90 55 91 49 92 50 93 53 94 51 95
REMARK H PARENT 9 10 9 11 75 48 43 59
REMARK Flexibility Score: inf
ROOT
ATOM      1  C   UNL A   1      45.187  27.920  25.933  1.00  0.00     0.275 C 
ENDROOT
BRANCH   1   2
ATOM      2  C   UNL A   1      46.134  27.050  25.110  1.00  0.00     0.274 C 
BRANCH   2   3
ATOM      3  O   UNL A   1      46.542  25.885  25.830  1.00  0.00    -0.458 OA
BRANCH   3   4
ATOM      4  C   UNL A   1      46.363  24.740  25.130  1.00  0.00     0.365 C 
ATOM      5  O   UNL A   1      46.989  24.451  24.110  1.00  0.00    -0.245 OA
BRANCH   4   6
ATOM      6  C   UNL A   1      45.201  23.894  25.583  1.00  0.00     0.298 C 
ATOM      7  C   UNL A   1      43.077  23.520  26.754  1.00  0.00     0.243 C 
ATOM      8  N   UNL A   1      44.129  24.535  26.389  1.00  0.00    -0.326 N 
ATOM      9  C   UNL A   1      42.615  22.527  25.602  1.00  0.00     0.196 C 
ATOM     10  H   UNL A   1      44.534  24.922  27.241  1.00  0.00     0.347 HD
ATOM     11  H   UNL A   1      43.698  25.278  25.838  1.00  0.00     0.347 HD
ATOM     12  C   UNL A   1      43.798  22.201  24.743  1.00  0.00    -0.024 C 
ATOM     13  N   UNL A   1      42.208  21.202  26.170  1.00  0.00    -0.270 NA
ATOM     14  C   UNL A   1      44.619  23.335  24.286  1.00  0.00     0.111 C 
ATOM     15  C   UNL A   1      44.175  20.938  24.874  1.00  0.00     0.002 A 
ATOM     16  C   UNL A   1      43.132  20.392  25.747  1.00  0.00     0.066 A 
ATOM     17  C   UNL A   1      45.395  20.250  24.607  1.00  0.00     0.010 A 
ATOM     18  C   UNL A   1      43.285  18.967  26.104  1.00  0.00     0.028 A 
ATOM     19  C   UNL A   1      45.531  19.005  25.090  1.00  0.00     0.001 A 
ATOM     20  C   UNL A   1      44.437  18.346  25.788  1.00  0.00     0.002 A 
BRANCH   7  21
ATOM     21  C   UNL A   1      41.839  24.159  27.384  1.00  0.00     0.015 A 
ATOM     22  C   UNL A   1      43.155  25.503  29.142  1.00  0.00     0.045 C 
ATOM     23  C   UNL A   1      41.894  25.129  28.410  1.00  0.00    -0.042 A 
ATOM     24  C   UNL A   1      40.732  25.858  28.723  1.00  0.00     0.004 A 
ATOM     25  C   UNL A   1      39.517  25.596  28.092  1.00  0.00     0.000 A 
ATOM     26  C   UNL A   1      40.587  23.870  26.797  1.00  0.00     0.010 A 
ATOM     27  C   UNL A   1      39.438  24.580  27.149  1.00  0.00     0.001 A 
ENDBRANCH   7  21
ENDBRANCH   4   6
ENDBRANCH   3   4
ENDBRANCH   2   3
ENDBRANCH   1   2
BRANCH   1  28
ATOM     28  O   UNL A   1      43.791  27.518  26.095  1.00  0.00    -0.458 OA
BRANCH  28  29
ATOM     29  C   UNL A   1      42.666  28.179  25.733  1.00  0.00     0.338 C 
ATOM     30  O   UNL A   1      42.309  28.279  24.565  1.00  0.00    -0.246 OA
BRANCH  29  31
ATOM     31  C   UNL A   1      41.885  28.825  26.802  1.00  0.00     0.060 A 
ATOM     32  C   UNL A   1      40.476  28.817  26.756  1.00  0.00     0.016 A 
ATOM     33  C   UNL A   1      42.558  29.354  27.893  1.00  0.00     0.016 A 
ATOM     34  C   UNL A   1      39.738  29.217  27.871  1.00  0.00     0.010 A 
ATOM     35  C   UNL A   1      41.843  29.622  29.031  1.00  0.00     0.010 A 
ATOM     36  C   UNL A   1      40.434  29.589  29.017  1.00  0.00    -0.014 A 
BRANCH  36  37
ATOM     37  C   UNL A   1      39.855  30.256  30.170  1.00  0.00     0.031 A 
ATOM     38  C   UNL A   1      39.072  31.504  30.117  1.00  0.00     0.074 A 
ATOM     39  C   UNL A   1      39.821  29.426  31.237  1.00  0.00     0.049 A 
ATOM     40  N   UNL A   1      38.646  32.098  31.177  1.00  0.00    -0.248 NA
ATOM     41  C   UNL A   1      38.698  32.216  28.903  1.00  0.00     0.031 C 
ATOM     42  C   UNL A   1      38.931  29.409  32.381  1.00  0.00     0.029 A 
ATOM     43  N   UNL A   1      40.701  28.358  31.473  1.00  0.00    -0.354 N 
ATOM     44  C   UNL A   1      37.717  33.049  30.810  1.00  0.00     0.074 A 
ATOM     45  C   UNL A   1      37.859  33.151  29.378  1.00  0.00     0.031 C 
ATOM     46  C   UNL A   1      39.459  28.605  33.323  1.00  0.00     0.029 A 
ATOM     47  C   UNL A   1      40.786  28.225  32.864  1.00  0.00     0.049 A 
ATOM     48  H   UNL A   1      41.165  27.812  30.798  1.00  0.00     0.167 HD
ATOM     49  C   UNL A   1      36.870  33.518  31.775  1.00  0.00     0.037 A 
ATOM     50  C   UNL A   1      41.964  28.558  33.471  1.00  0.00     0.037 A 
ATOM     51  C   UNL A   1      37.228  32.925  33.064  1.00  0.00     0.049 A 
ATOM     52  C   UNL A   1      41.780  29.737  34.390  1.00  0.00     0.074 A 
ATOM     53  C   UNL A   1      36.717  31.851  33.772  1.00  0.00     0.029 A 
ATOM     54  N   UNL A   1      38.461  33.227  33.629  1.00  0.00    -0.354 N 
ATOM     55  N   UNL A   1      40.906  30.690  34.201  1.00  0.00    -0.248 NA
ATOM     56  C   UNL A   1      42.500  29.870  35.647  1.00  0.00     0.031 C 
ATOM     57  C   UNL A   1      37.671  31.486  34.756  1.00  0.00     0.029 A 
ATOM     58  C   UNL A   1      38.751  32.350  34.652  1.00  0.00     0.049 A 
ATOM     59  H   UNL A   1      39.045  33.964  33.340  1.00  0.00     0.167 HD
ATOM     60  C   UNL A   1      40.867  31.493  35.312  1.00  0.00     0.074 A 
ATOM     61  C   UNL A   1      41.898  30.948  36.178  1.00  0.00     0.031 C 
ATOM     62  C   UNL A   1      39.957  32.506  35.452  1.00  0.00     0.037 A 
BRANCH  49  63
ATOM     63  C   UNL A   1      35.582  34.306  31.598  1.00  0.00     0.064 A 
ATOM     64  C   UNL A   1      35.157  35.214  32.604  1.00  0.00     0.173 A 
ATOM     65  C   UNL A   1      34.707  34.211  30.502  1.00  0.00     0.173 A 
ATOM     66  F   UNL A   1      35.910  35.477  33.679  1.00  0.00    -0.203 F 
ATOM     67  C   UNL A   1      33.938  35.896  32.553  1.00  0.00     0.198 A 
ATOM     68  C   UNL A   1      33.476  34.885  30.458  1.00  0.00     0.198 A 
ATOM     69  F   UNL A   1      35.020  33.504  29.414  1.00  0.00    -0.203 F 
ATOM     70  F   UNL A   1      33.595  36.719  33.554  1.00  0.00    -0.200 F 
ATOM     71  C   UNL A   1      33.087  35.718  31.487  1.00  0.00     0.200 A 
ATOM     72  F   UNL A   1      32.669  34.722  29.399  1.00  0.00    -0.200 F 
ATOM     73  F   UNL A   1      31.910  36.358  31.441  1.00  0.00    -0.200 F 
ENDBRANCH  49  63
BRANCH  50  74
ATOM     74  C   UNL A   1      43.149  28.274  32.597  1.00  0.00     0.064 A 
ATOM     75  C   UNL A   1      43.782  29.380  31.985  1.00  0.00     0.173 A 
ATOM     76  C   UNL A   1      43.899  27.095  32.714  1.00  0.00     0.173 A 
ATOM     77  F   UNL A   1      43.116  30.540  31.853  1.00  0.00    -0.203 F 
ATOM     78  C   UNL A   1      45.134  29.354  31.647  1.00  0.00     0.198 A 
ATOM     79  C   UNL A   1      45.252  27.068  32.350  1.00  0.00     0.198 A 
ATOM     80  F   UNL A   1      43.368  26.005  33.284  1.00  0.00    -0.203 F 
ATOM     81  F   UNL A   1      45.734  30.471  31.207  1.00  0.00    -0.200 F 
ATOM     82  C   UNL A   1      45.875  28.206  31.855  1.00  0.00     0.200 A 
ATOM     83  F   UNL A   1      45.979  25.962  32.566  1.00  0.00    -0.200 F 
ATOM     84  F   UNL A   1      47.196  28.207  31.623  1.00  0.00    -0.200 F 
ENDBRANCH  50  74
BRANCH  62  85
ATOM     85  C   UNL A   1      40.013  33.670  36.427  1.00  0.00     0.064 A 
ATOM     86  C   UNL A   1      40.598  34.914  36.145  1.00  0.00     0.173 A 
ATOM     87  C   UNL A   1      39.321  33.610  37.669  1.00  0.00     0.173 A 
ATOM     88  F   UNL A   1      41.158  35.179  34.961  1.00  0.00    -0.203 F 
ATOM     89  C   UNL A   1      40.567  35.975  37.054  1.00  0.00     0.198 A 
ATOM     90  C   UNL A   1      39.225  34.695  38.536  1.00  0.00     0.198 A 
ATOM     91  F   UNL A   1      38.674  32.509  38.077  1.00  0.00    -0.203 F 
ATOM     92  F   UNL A   1      41.194  37.120  36.749  1.00  0.00    -0.200 F 
ATOM     93  C   UNL A   1      39.870  35.873  38.241  1.00  0.00     0.200 A 
ATOM     94  F   UNL A   1      38.482  34.593  39.648  1.00  0.00    -0.200 F 
ATOM     95  F   UNL A   1      39.795  36.913  39.080  1.00  0.00    -0.200 F 
ENDBRANCH  62  85
ENDBRANCH  36  37
ENDBRANCH  29  31
ENDBRANCH  28  29
ENDBRANCH   1  28
TORSDOF 12
ENDMDL
MODEL 3
REMARK VINA RESULT:     -14.1      2.300      3.871
REMARK SMILES Cc1ccccc1[C@@H]1[NH2+][C@H](C(=O)OCCOC(=O)c2ccc(-c3c4nc(c(-c5c(F)c(F)c(F)c(F)c5F)c5ccc([nH]5)c(-c5c(F)c(F)c(F)c(F)c5F)c5nc(c(-c6c(F)c(F)c(F)c(F)c6F)c6ccc3[nH]6)C=C5)C=C4)cc2)CC2=c3ccccc3=N[C@H]21
REMARK SMILES IDX 15 1 14 2 13 3 11 4 12 5 10 6 8 7 9 8 91 9 83 12 90 13 82 14
REMARK SMILES IDX 84 15 89 16 85 17 88 18 86 19 87 20 7 21 1 22 2 23 3 24 4 25
REMARK SMILES IDX 6 26 5 27 16 28 17 29 18 30 19 31 20 32 81 33 21 34 80 35
REMARK SMILES IDX 22 36 23 37 24 38 74 39 25 40 79 41 73 42 75 43 26 44 78 45
REMARK SMILES IDX 72 46 71 47 27 49 59 50 39 51 58 52 40 53 43 54 57 55 76 56
REMARK SMILES IDX 41 57 42 58 56 60 77 61 44 62 28 63 29 64 37 65 30 66 31 67
REMARK SMILES IDX 35 68 38 69 32 70 33 71 36 72 34 73 60 74 61 75 69 76 62 77
REMARK SMILES IDX 63 78 67 79 70 80 64 81 65 82 68 83 66 84 45 85 46 86 54 87
REMARK SMILES IDX 47 88 48 89 52 90 55 91 49 92 50 93 53 94 51 95
REMARK H PARENT 9 10 9 11 75 48 43 59
REMARK Flexibility Score: inf
ROOT
ATOM      1  C   UNL A   1      34.270  28.688  26.457  1.00  0.00     0.275 C 
ENDROOT
BRANCH   1   2
ATOM      2  C   UNL A   1      33.341  27.476  26.426  1.00  0.00     0.274 C 
BRANCH   2   3
ATOM      3  O   UNL A   1      34.004  26.313  25.928  1.00  0.00    -0.458 OA
BRANCH   3   4
ATOM      4  C   UNL A   1      33.268  25.185  26.062  1.00  0.00     0.365 C 
ATOM      5  O   UNL A   1      32.141  25.153  26.557  1.00  0.00    -0.245 OA
BRANCH   4   6
ATOM      6  C   UNL A   1      33.993  23.908  25.721  1.00  0.00     0.298 C 
ATOM      7  C   UNL A   1      34.098  21.544  25.073  1.00  0.00     0.243 C 
ATOM      8  N   UNL A   1      33.190  22.712  25.358  1.00  0.00    -0.326 N 
ATOM      9  C   UNL A   1      35.386  21.842  24.190  1.00  0.00     0.196 C 
ATOM     10  H   UNL A   1      32.569  22.475  26.131  1.00  0.00     0.347 HD
ATOM     11  H   UNL A   1      32.643  22.920  24.521  1.00  0.00     0.347 HD
ATOM     12  C   UNL A   1      35.897  23.208  24.530  1.00  0.00    -0.024 C 
ATOM     13  N   UNL A   1      36.515  20.932  24.568  1.00  0.00    -0.270 NA
ATOM     14  C   UNL A   1      34.908  24.298  24.562  1.00  0.00     0.111 C 
ATOM     15  C   UNL A   1      37.062  23.162  25.160  1.00  0.00     0.002 A 
ATOM     16  C   UNL A   1      37.379  21.731  25.119  1.00  0.00     0.066 A 
ATOM     17  C   UNL A   1      37.756  24.082  25.999  1.00  0.00     0.010 A 
ATOM     18  C   UNL A   1      38.644  21.344  25.776  1.00  0.00     0.028 A 
ATOM     19  C   UNL A   1      38.813  23.626  26.688  1.00  0.00     0.001 A 
ATOM     20  C   UNL A   1      39.289  22.261  26.519  1.00  0.00     0.002 A 
BRANCH   7  21
ATOM     21  C   UNL A   1      33.352  20.352  24.474  1.00  0.00     0.015 A 
ATOM     22  C   UNL A   1      32.183  21.725  22.636  1.00  0.00     0.045 C 
ATOM     23  C   UNL A   1      32.555  20.432  23.310  1.00  0.00    -0.042 A 
ATOM     24  C   UNL A   1      32.145  19.241  22.681  1.00  0.00     0.004 A 
ATOM     25  C   UNL A   1      32.450  17.993  23.219  1.00  0.00     0.000 A 
ATOM     26  C   UNL A   1      33.601  19.079  25.033  1.00  0.00     0.010 A 
ATOM     27  C   UNL A   1      33.153  17.912  24.413  1.00  0.00     0.001 A 
ENDBRANCH   7  21
ENDBRANCH   4   6
ENDBRANCH   3   4
ENDBRANCH   2   3
ENDBRANCH   1   2
BRANCH   1  28
ATOM     28  O   UNL A   1      34.581  29.328  27.733  1.00  0.00    -0.458 OA
BRANCH  28  29
ATOM     29  C   UNL A   1      35.594  30.175  28.039  1.00  0.00     0.338 C 
ATOM     30  O   UNL A   1      35.431  31.386  28.138  1.00  0.00    -0.246 OA
BRANCH  29  31
ATOM     31  C   UNL A   1      36.936  29.593  28.210  1.00  0.00     0.060 A 
ATOM     32  C   UNL A   1      38.036  30.128  27.508  1.00  0.00     0.016 A 
ATOM     33  C   UNL A   1      37.110  28.580  29.140  1.00  0.00     0.016 A 
ATOM     34  C   UNL A   1      39.334  29.737  27.840  1.00  0.00     0.010 A 
ATOM     35  C   UNL A   1      38.384  28.292  29.557  1.00  0.00     0.010 A 
ATOM     36  C   UNL A   1      39.497  28.840  28.891  1.00  0.00    -0.014 A 
BRANCH  36  37
ATOM     37  C   UNL A   1      40.731  28.142  29.214  1.00  0.00     0.031 A 
ATOM     38  C   UNL A   1      41.213  26.925  28.537  1.00  0.00     0.074 A 
ATOM     39  C   UNL A   1      41.544  28.926  29.957  1.00  0.00     0.049 A 
ATOM     40  N   UNL A   1      42.275  26.300  28.912  1.00  0.00    -0.248 NA
ATOM     41  C   UNL A   1      40.571  26.279  27.401  1.00  0.00     0.031 C 
ATOM     42  C   UNL A   1      42.988  28.924  30.083  1.00  0.00     0.029 A 
ATOM     43  N   UNL A   1      41.129  29.954  30.820  1.00  0.00    -0.354 N 
ATOM     44  C   UNL A   1      42.629  25.398  27.931  1.00  0.00     0.074 A 
ATOM     45  C   UNL A   1      41.482  25.353  27.058  1.00  0.00     0.031 C 
ATOM     46  C   UNL A   1      43.327  29.668  31.152  1.00  0.00     0.029 A 
ATOM     47  C   UNL A   1      42.091  30.024  31.833  1.00  0.00     0.049 A 
ATOM     48  H   UNL A   1      40.323  30.512  30.731  1.00  0.00     0.167 HD
ATOM     49  C   UNL A   1      43.908  24.916  27.941  1.00  0.00     0.037 A 
ATOM     50  C   UNL A   1      41.732  29.625  33.090  1.00  0.00     0.037 A 
ATOM     51  C   UNL A   1      44.615  25.440  29.110  1.00  0.00     0.049 A 
ATOM     52  C   UNL A   1      42.520  28.414  33.515  1.00  0.00     0.074 A 
ATOM     53  C   UNL A   1      45.491  26.500  29.273  1.00  0.00     0.029 A 
ATOM     54  N   UNL A   1      44.188  25.073  30.380  1.00  0.00    -0.354 N 
ATOM     55  N   UNL A   1      42.967  27.500  32.696  1.00  0.00    -0.248 NA
ATOM     56  C   UNL A   1      42.952  28.203  34.889  1.00  0.00     0.031 C 
ATOM     57  C   UNL A   1      45.567  26.789  30.660  1.00  0.00     0.029 A 
ATOM     58  C   UNL A   1      44.749  25.896  31.334  1.00  0.00     0.049 A 
ATOM     59  H   UNL A   1      43.572  24.330  30.572  1.00  0.00     0.167 HD
ATOM     60  C   UNL A   1      43.802  26.652  33.378  1.00  0.00     0.074 A 
ATOM     61  C   UNL A   1      43.740  27.124  34.750  1.00  0.00     0.031 C 
ATOM     62  C   UNL A   1      44.514  25.665  32.751  1.00  0.00     0.037 A 
BRANCH  49  63
ATOM     63  C   UNL A   1      44.647  24.180  26.835  1.00  0.00     0.064 A 
ATOM     64  C   UNL A   1      44.365  22.813  26.576  1.00  0.00     0.173 A 
ATOM     65  C   UNL A   1      45.650  24.726  26.014  1.00  0.00     0.173 A 
ATOM     66  F   UNL A   1      43.387  22.161  27.218  1.00  0.00    -0.203 F 
ATOM     67  C   UNL A   1      45.073  22.049  25.643  1.00  0.00     0.198 A 
ATOM     68  C   UNL A   1      46.371  23.955  25.088  1.00  0.00     0.198 A 
ATOM     69  F   UNL A   1      45.945  26.028  26.039  1.00  0.00    -0.203 F 
ATOM     70  F   UNL A   1      44.764  20.756  25.471  1.00  0.00    -0.200 F 
ATOM     71  C   UNL A   1      46.090  22.615  24.910  1.00  0.00     0.200 A 
ATOM     72  F   UNL A   1      47.342  24.528  24.362  1.00  0.00    -0.200 F 
ATOM     73  F   UNL A   1      46.782  21.884  24.027  1.00  0.00    -0.200 F 
ENDBRANCH  49  63
BRANCH  50  74
ATOM     74  C   UNL A   1      40.289  29.907  33.380  1.00  0.00     0.064 A 
ATOM     75  C   UNL A   1      39.920  31.258  33.574  1.00  0.00     0.173 A 
ATOM     76  C   UNL A   1      39.267  29.010  33.036  1.00  0.00     0.173 A 
ATOM     77  F   UNL A   1      40.856  32.166  33.896  1.00  0.00    -0.203 F 
ATOM     78  C   UNL A   1      38.632  31.712  33.292  1.00  0.00     0.198 A 
ATOM     79  C   UNL A   1      37.968  29.469  32.778  1.00  0.00     0.198 A 
ATOM     80  F   UNL A   1      39.539  27.714  32.836  1.00  0.00    -0.203 F 
ATOM     81  F   UNL A   1      38.361  33.025  33.344  1.00  0.00    -0.200 F 
ATOM     82  C   UNL A   1      37.664  30.821  32.867  1.00  0.00     0.200 A 
ATOM     83  F   UNL A   1      37.030  28.612  32.350  1.00  0.00    -0.200 F 
ATOM     84  F   UNL A   1      36.453  31.267  32.502  1.00  0.00    -0.200 F 
ENDBRANCH  50  74
BRANCH  62  85
ATOM     85  C   UNL A   1      45.180  24.459  33.391  1.00  0.00     0.064 A 
ATOM     86  C   UNL A   1      46.503  24.437  33.859  1.00  0.00     0.173 A 
ATOM     87  C   UNL A   1      44.426  23.291  33.697  1.00  0.00     0.173 A 
ATOM     88  F   UNL A   1      47.297  25.509  33.781  1.00  0.00    -0.203 F 
ATOM     89  C   UNL A   1      47.050  23.322  34.499  1.00  0.00     0.198 A 
ATOM     90  C   UNL A   1      44.952  22.213  34.406  1.00  0.00     0.198 A 
ATOM     91  F   UNL A   1      43.136  23.160  33.358  1.00  0.00    -0.203 F 
ATOM     92  F   UNL A   1      48.338  23.342  34.871  1.00  0.00    -0.200 F 
ATOM     93  C   UNL A   1      46.273  22.217  34.786  1.00  0.00     0.200 A 
ATOM     94  F   UNL A   1      44.158  21.184  34.735  1.00  0.00    -0.200 F 
ATOM     95  F   UNL A   1      46.788  21.176  35.451  1.00  0.00    -0.200 F 
ENDBRANCH  62  85
ENDBRANCH  36  37
ENDBRANCH  29  31
ENDBRANCH  28  29
ENDBRANCH   1  28
TORSDOF 12
ENDMDL
