MODEL 1
REMARK VINA RESULT:     -12.0      0.000      0.000
REMARK SMILES CC(=O)Nc1cnc(N(C)CCc2cn[nH]c2)c(C(=O)OCCOC(=O)c2ccc(-c3c4nc(c(-c5c(F)c(F)c(F)c(F)c5F)c5ccc([nH]5)c(-c5c(F)c(F)c(F)c(F)c5F)c5nc(c(-c6c(F)c(F)c(F)c(F)c6F)c6ccc3[nH]6)C=C5)C=C4)cc2)c1
REMARK SMILES IDX 22 1 21 2 19 3 20 4 18 5 5 6 6 7 90 8 7 9 8 10 4 11 1 12
REMARK SMILES IDX 2 13 3 14 9 16 10 17 11 18 12 19 13 20 14 21 17 22 15 23
REMARK SMILES IDX 16 24 23 26 24 27 25 28 26 29 27 30 28 31 89 32 29 33 88 34
REMARK SMILES IDX 30 35 31 36 32 37 82 38 33 39 87 40 81 41 83 42 34 43 86 44
REMARK SMILES IDX 80 45 79 46 35 48 67 49 47 50 66 51 48 52 51 53 65 54 84 55
REMARK SMILES IDX 49 56 50 57 64 59 85 60 52 61 36 62 37 63 45 64 38 65 39 66
REMARK SMILES IDX 43 67 46 68 40 69 41 70 44 71 42 72 68 73 69 74 77 75 70 76
REMARK SMILES IDX 71 77 75 78 78 79 72 80 73 81 76 82 74 83 53 84 54 85 62 86
REMARK SMILES IDX 55 87 56 88 60 89 63 90 57 91 58 92 61 93 59 94
REMARK H PARENT 4 15 16 25 83 47 51 58
REMARK Flexibility Score: inf
ROOT
ATOM      1  C   UNL A   1      31.880  28.309  26.354  1.00  0.00     0.275 C 
ENDROOT
BRANCH   1   2
ATOM      2  O   UNL A   1      33.184  27.683  26.293  1.00  0.00    -0.458 OA
BRANCH   2   3
ATOM      3  C   UNL A   1      33.438  27.121  25.078  1.00  0.00     0.342 C 
ATOM      4  O   UNL A   1      33.737  27.818  24.121  1.00  0.00    -0.246 OA
BRANCH   3   5
ATOM      5  C   UNL A   1      33.355  25.626  25.068  1.00  0.00     0.104 A 
ATOM      6  C   UNL A   1      34.556  23.507  25.325  1.00  0.00     0.060 A 
ATOM      7  C   UNL A   1      33.475  22.907  24.730  1.00  0.00     0.139 A 
ATOM      8  C   UNL A   1      34.521  24.896  25.431  1.00  0.00     0.047 A 
ATOM      9  N   UNL A   1      32.331  23.562  24.477  1.00  0.00    -0.236 NA
ATOM     10  C   UNL A   1      32.190  24.897  24.741  1.00  0.00     0.143 A 
BRANCH   6  11
ATOM     11  N   UNL A   1      35.595  22.688  25.789  1.00  0.00    -0.325 N 
ATOM     12  C   UNL A   1      36.840  22.635  23.644  1.00  0.00     0.114 C 
ATOM     13  C   UNL A   1      36.690  22.252  25.091  1.00  0.00     0.221 C 
ATOM     14  O   UNL A   1      37.577  21.635  25.681  1.00  0.00    -0.275 OA
ATOM     15  H   UNL A   1      35.530  22.391  26.726  1.00  0.00     0.169 HD
ENDBRANCH   6  11
BRANCH  10  16
ATOM     16  N   UNL A   1      30.867  25.305  24.676  1.00  0.00    -0.359 N 
ATOM     17  C   UNL A   1      30.118  25.164  25.935  1.00  0.00     0.145 C 
BRANCH  16  18
ATOM     18  C   UNL A   1      30.120  25.930  23.570  1.00  0.00     0.122 C 
BRANCH  18  19
ATOM     19  C   UNL A   1      29.445  27.291  23.822  1.00  0.00     0.060 C 
BRANCH  19  20
ATOM     20  C   UNL A   1      29.735  28.442  22.918  1.00  0.00    -0.008 A 
ATOM     21  C   UNL A   1      28.809  29.298  22.268  1.00  0.00     0.138 A 
ATOM     22  C   UNL A   1      30.960  28.945  22.535  1.00  0.00     0.108 A 
ATOM     23  N   UNL A   1      29.401  30.197  21.480  1.00  0.00    -0.184 NA
ATOM     24  N   UNL A   1      30.707  29.959  21.661  1.00  0.00    -0.285 N 
ATOM     25  H   UNL A   1      31.416  30.468  21.207  1.00  0.00     0.189 HD
ENDBRANCH  19  20
ENDBRANCH  18  19
ENDBRANCH  16  18
ENDBRANCH  10  16
ENDBRANCH   3   5
ENDBRANCH   2   3
ENDBRANCH   1   2
BRANCH   1  26
ATOM     26  C   UNL A   1      31.883  29.847  26.213  1.00  0.00     0.275 C 
BRANCH  26  27
ATOM     27  O   UNL A   1      33.187  30.460  26.111  1.00  0.00    -0.458 OA
BRANCH  27  28
ATOM     28  C   UNL A   1      33.458  31.398  27.052  1.00  0.00     0.338 C 
ATOM     29  O   UNL A   1      32.709  32.282  27.437  1.00  0.00    -0.246 OA
BRANCH  28  30
ATOM     30  C   UNL A   1      34.766  31.139  27.696  1.00  0.00     0.060 A 
ATOM     31  C   UNL A   1      35.010  29.836  28.137  1.00  0.00     0.016 A 
ATOM     32  C   UNL A   1      35.711  32.138  27.940  1.00  0.00     0.016 A 
ATOM     33  C   UNL A   1      36.213  29.506  28.756  1.00  0.00     0.010 A 
ATOM     34  C   UNL A   1      36.904  31.817  28.614  1.00  0.00     0.010 A 
ATOM     35  C   UNL A   1      37.165  30.495  29.015  1.00  0.00    -0.014 A 
BRANCH  35  36
ATOM     36  C   UNL A   1      38.330  30.143  29.866  1.00  0.00     0.031 A 
ATOM     37  C   UNL A   1      39.404  29.277  29.278  1.00  0.00     0.074 A 
ATOM     38  C   UNL A   1      38.506  30.686  31.084  1.00  0.00     0.049 A 
ATOM     39  N   UNL A   1      40.466  28.759  29.840  1.00  0.00    -0.248 NA
ATOM     40  C   UNL A   1      39.272  28.978  27.845  1.00  0.00     0.031 C 
ATOM     41  C   UNL A   1      37.643  31.696  31.689  1.00  0.00     0.029 A 
ATOM     42  N   UNL A   1      39.486  30.475  32.023  1.00  0.00    -0.354 N 
ATOM     43  C   UNL A   1      41.112  28.050  28.837  1.00  0.00     0.074 A 
ATOM     44  C   UNL A   1      40.336  28.222  27.628  1.00  0.00     0.031 C 
ATOM     45  C   UNL A   1      38.133  32.019  32.900  1.00  0.00     0.029 A 
ATOM     46  C   UNL A   1      39.299  31.185  33.185  1.00  0.00     0.049 A 
ATOM     47  H   UNL A   1      40.250  29.871  31.878  1.00  0.00     0.167 HD
ATOM     48  C   UNL A   1      42.238  27.301  28.925  1.00  0.00     0.037 A 
ATOM     49  C   UNL A   1      39.970  31.127  34.353  1.00  0.00     0.037 A 
ATOM     50  C   UNL A   1      42.984  27.120  30.141  1.00  0.00     0.049 A 
ATOM     51  C   UNL A   1      41.117  30.154  34.487  1.00  0.00     0.074 A 
ATOM     52  C   UNL A   1      44.087  26.319  30.374  1.00  0.00     0.029 A 
ATOM     53  N   UNL A   1      42.688  27.750  31.344  1.00  0.00    -0.354 N 
ATOM     54  N   UNL A   1      41.667  29.390  33.572  1.00  0.00    -0.248 NA
ATOM     55  C   UNL A   1      41.718  30.013  35.821  1.00  0.00     0.031 C 
ATOM     56  C   UNL A   1      44.415  26.411  31.731  1.00  0.00     0.029 A 
ATOM     57  C   UNL A   1      43.567  27.330  32.330  1.00  0.00     0.049 A 
ATOM     58  H   UNL A   1      41.961  28.400  31.477  1.00  0.00     0.167 HD
ATOM     59  C   UNL A   1      42.693  28.704  34.209  1.00  0.00     0.074 A 
ATOM     60  C   UNL A   1      42.694  29.146  35.588  1.00  0.00     0.031 C 
ATOM     61  C   UNL A   1      43.558  27.791  33.697  1.00  0.00     0.037 A 
BRANCH  48  62
ATOM     62  C   UNL A   1      42.631  26.530  27.696  1.00  0.00     0.064 A 
ATOM     63  C   UNL A   1      42.164  25.230  27.440  1.00  0.00     0.173 A 
ATOM     64  C   UNL A   1      43.556  27.080  26.796  1.00  0.00     0.173 A 
ATOM     65  F   UNL A   1      41.295  24.648  28.281  1.00  0.00    -0.203 F 
ATOM     66  C   UNL A   1      42.655  24.492  26.366  1.00  0.00     0.198 A 
ATOM     67  C   UNL A   1      44.016  26.352  25.702  1.00  0.00     0.198 A 
ATOM     68  F   UNL A   1      44.036  28.318  26.990  1.00  0.00    -0.203 F 
ATOM     69  F   UNL A   1      42.265  23.221  26.193  1.00  0.00    -0.200 F 
ATOM     70  C   UNL A   1      43.581  25.054  25.497  1.00  0.00     0.200 A 
ATOM     71  F   UNL A   1      44.903  26.902  24.860  1.00  0.00    -0.200 F 
ATOM     72  F   UNL A   1      44.068  24.335  24.478  1.00  0.00    -0.200 F 
ENDBRANCH  48  62
BRANCH  49  73
ATOM     73  C   UNL A   1      39.546  31.967  35.510  1.00  0.00     0.064 A 
ATOM     74  C   UNL A   1      38.576  31.519  36.418  1.00  0.00     0.173 A 
ATOM     75  C   UNL A   1      40.085  33.246  35.719  1.00  0.00     0.173 A 
ATOM     76  F   UNL A   1      37.998  30.320  36.245  1.00  0.00    -0.203 F 
ATOM     77  C   UNL A   1      38.161  32.316  37.486  1.00  0.00     0.198 A 
ATOM     78  C   UNL A   1      39.693  34.029  36.805  1.00  0.00     0.198 A 
ATOM     79  F   UNL A   1      41.001  33.737  34.873  1.00  0.00    -0.203 F 
ATOM     80  F   UNL A   1      37.203  31.878  38.314  1.00  0.00    -0.200 F 
ATOM     81  C   UNL A   1      38.727  33.565  37.684  1.00  0.00     0.200 A 
ATOM     82  F   UNL A   1      40.251  35.232  36.996  1.00  0.00    -0.200 F 
ATOM     83  F   UNL A   1      38.337  34.326  38.716  1.00  0.00    -0.200 F 
ENDBRANCH  49  73
BRANCH  61  84
ATOM     84  C   UNL A   1      44.617  27.245  34.615  1.00  0.00     0.064 A 
ATOM     85  C   UNL A   1      45.844  27.896  34.806  1.00  0.00     0.173 A 
ATOM     86  C   UNL A   1      44.370  26.081  35.360  1.00  0.00     0.173 A 
ATOM     87  F   UNL A   1      46.137  29.004  34.109  1.00  0.00    -0.203 F 
ATOM     88  C   UNL A   1      46.792  27.389  35.692  1.00  0.00     0.198 A 
ATOM     89  C   UNL A   1      45.305  25.596  36.270  1.00  0.00     0.198 A 
ATOM     90  F   UNL A   1      43.208  25.424  35.221  1.00  0.00    -0.203 F 
ATOM     91  F   UNL A   1      47.978  28.002  35.824  1.00  0.00    -0.200 F 
ATOM     92  C   UNL A   1      46.519  26.247  36.429  1.00  0.00     0.200 A 
ATOM     93  F   UNL A   1      45.029  24.503  36.994  1.00  0.00    -0.200 F 
ATOM     94  F   UNL A   1      47.427  25.769  37.291  1.00  0.00    -0.200 F 
ENDBRANCH  61  84
ENDBRANCH  35  36
ENDBRANCH  28  30
ENDBRANCH  27  28
ENDBRANCH  26  27
ENDBRANCH   1  26
TORSDOF 16
ENDMDL
MODEL 2
REMARK VINA RESULT:     -11.8      1.094      1.808
REMARK SMILES CC(=O)Nc1cnc(N(C)CCc2cn[nH]c2)c(C(=O)OCCOC(=O)c2ccc(-c3c4nc(c(-c5c(F)c(F)c(F)c(F)c5F)c5ccc([nH]5)c(-c5c(F)c(F)c(F)c(F)c5F)c5nc(c(-c6c(F)c(F)c(F)c(F)c6F)c6ccc3[nH]6)C=C5)C=C4)cc2)c1
REMARK SMILES IDX 22 1 21 2 19 3 20 4 18 5 5 6 6 7 90 8 7 9 8 10 4 11 1 12
REMARK SMILES IDX 2 13 3 14 9 16 10 17 11 18 12 19 13 20 14 21 17 22 15 23
REMARK SMILES IDX 16 24 23 26 24 27 25 28 26 29 27 30 28 31 89 32 29 33 88 34
REMARK SMILES IDX 30 35 31 36 32 37 82 38 33 39 87 40 81 41 83 42 34 43 86 44
REMARK SMILES IDX 80 45 79 46 35 48 67 49 47 50 66 51 48 52 51 53 65 54 84 55
REMARK SMILES IDX 49 56 50 57 64 59 85 60 52 61 36 62 37 63 45 64 38 65 39 66
REMARK SMILES IDX 43 67 46 68 40 69 41 70 44 71 42 72 68 73 69 74 77 75 70 76
REMARK SMILES IDX 71 77 75 78 78 79 72 80 73 81 76 82 74 83 53 84 54 85 62 86
REMARK SMILES IDX 55 87 56 88 60 89 63 90 57 91 58 92 61 93 59 94
REMARK H PARENT 4 15 16 25 83 47 51 58
REMARK Flexibility Score: inf
ROOT
ATOM      1  C   UNL A   1      31.568  28.499  27.293  1.00  0.00     0.275 C 
ENDROOT
BRANCH   1   2
ATOM      2  O   UNL A   1      32.372  27.317  27.064  1.00  0.00    -0.458 OA
BRANCH   2   3
ATOM      3  C   UNL A   1      31.703  26.358  26.362  1.00  0.00     0.342 C 
ATOM      4  O   UNL A   1      30.497  26.217  26.499  1.00  0.00    -0.246 OA
BRANCH   3   5
ATOM      5  C   UNL A   1      32.567  25.574  25.425  1.00  0.00     0.104 A 
ATOM      6  C   UNL A   1      33.834  23.512  25.048  1.00  0.00     0.060 A 
ATOM      7  C   UNL A   1      34.445  24.165  24.008  1.00  0.00     0.139 A 
ATOM      8  C   UNL A   1      32.932  24.253  25.809  1.00  0.00     0.047 A 
ATOM      9  N   UNL A   1      34.042  25.368  23.569  1.00  0.00    -0.236 NA
ATOM     10  C   UNL A   1      33.026  26.055  24.178  1.00  0.00     0.143 A 
BRANCH   6  11
ATOM     11  N   UNL A   1      34.147  22.161  25.257  1.00  0.00    -0.325 N 
ATOM     12  C   UNL A   1      32.476  21.274  23.652  1.00  0.00     0.114 C 
ATOM     13  C   UNL A   1      33.585  21.070  24.647  1.00  0.00     0.221 C 
ATOM     14  O   UNL A   1      34.058  19.953  24.854  1.00  0.00    -0.275 OA
ATOM     15  H   UNL A   1      34.853  21.975  25.917  1.00  0.00     0.169 HD
ENDBRANCH   6  11
BRANCH  10  16
ATOM     16  N   UNL A   1      32.584  27.121  23.411  1.00  0.00    -0.359 N 
ATOM     17  C   UNL A   1      33.550  28.221  23.271  1.00  0.00     0.145 C 
BRANCH  16  18
ATOM     18  C   UNL A   1      31.331  27.286  22.651  1.00  0.00     0.122 C 
BRANCH  18  19
ATOM     19  C   UNL A   1      30.558  28.609  22.797  1.00  0.00     0.060 C 
BRANCH  19  20
ATOM     20  C   UNL A   1      29.080  28.587  23.000  1.00  0.00    -0.008 A 
ATOM     21  C   UNL A   1      28.150  29.632  22.767  1.00  0.00     0.138 A 
ATOM     22  C   UNL A   1      28.290  27.544  23.433  1.00  0.00     0.108 A 
ATOM     23  N   UNL A   1      26.903  29.299  23.107  1.00  0.00    -0.184 NA
ATOM     24  N   UNL A   1      27.018  28.026  23.509  1.00  0.00    -0.285 N 
ATOM     25  H   UNL A   1      26.257  27.490  23.828  1.00  0.00     0.189 HD
ENDBRANCH  19  20
ENDBRANCH  18  19
ENDBRANCH  16  18
ENDBRANCH  10  16
ENDBRANCH   3   5
ENDBRANCH   2   3
ENDBRANCH   1   2
BRANCH   1  26
ATOM     26  C   UNL A   1      31.760  29.633  26.264  1.00  0.00     0.275 C 
BRANCH  26  27
ATOM     27  O   UNL A   1      33.105  30.146  26.146  1.00  0.00    -0.458 OA
BRANCH  27  28
ATOM     28  C   UNL A   1      33.405  31.177  26.974  1.00  0.00     0.338 C 
ATOM     29  O   UNL A   1      32.681  32.119  27.255  1.00  0.00    -0.246 OA
BRANCH  28  30
ATOM     30  C   UNL A   1      34.707  30.955  27.645  1.00  0.00     0.060 A 
ATOM     31  C   UNL A   1      35.027  29.641  27.991  1.00  0.00     0.016 A 
ATOM     32  C   UNL A   1      35.570  31.994  28.003  1.00  0.00     0.016 A 
ATOM     33  C   UNL A   1      36.230  29.344  28.627  1.00  0.00     0.010 A 
ATOM     34  C   UNL A   1      36.761  31.701  28.693  1.00  0.00     0.010 A 
ATOM     35  C   UNL A   1      37.101  30.371  28.999  1.00  0.00    -0.014 A 
BRANCH  35  36
ATOM     36  C   UNL A   1      38.260  30.032  29.863  1.00  0.00     0.031 A 
ATOM     37  C   UNL A   1      39.347  29.173  29.289  1.00  0.00     0.074 A 
ATOM     38  C   UNL A   1      38.418  30.579  31.081  1.00  0.00     0.049 A 
ATOM     39  N   UNL A   1      40.408  28.666  29.863  1.00  0.00    -0.248 NA
ATOM     40  C   UNL A   1      39.232  28.869  27.855  1.00  0.00     0.031 C 
ATOM     41  C   UNL A   1      37.541  31.584  31.674  1.00  0.00     0.029 A 
ATOM     42  N   UNL A   1      39.391  30.379  32.031  1.00  0.00    -0.354 N 
ATOM     43  C   UNL A   1      41.070  27.959  28.868  1.00  0.00     0.074 A 
ATOM     44  C   UNL A   1      40.305  28.121  27.651  1.00  0.00     0.031 C 
ATOM     45  C   UNL A   1      38.015  31.914  32.889  1.00  0.00     0.029 A 
ATOM     46  C   UNL A   1      39.186  31.091  33.188  1.00  0.00     0.049 A 
ATOM     47  H   UNL A   1      40.161  29.781  31.895  1.00  0.00     0.167 HD
ATOM     48  C   UNL A   1      42.201  27.220  28.970  1.00  0.00     0.037 A 
ATOM     49  C   UNL A   1      39.844  31.042  34.364  1.00  0.00     0.037 A 
ATOM     50  C   UNL A   1      42.936  27.049  30.195  1.00  0.00     0.049 A 
ATOM     51  C   UNL A   1      40.998  30.079  34.512  1.00  0.00     0.074 A 
ATOM     52  C   UNL A   1      44.043  26.257  30.442  1.00  0.00     0.029 A 
ATOM     53  N   UNL A   1      42.622  27.679  31.393  1.00  0.00    -0.354 N 
ATOM     54  N   UNL A   1      41.564  29.317  33.606  1.00  0.00    -0.248 NA
ATOM     55  C   UNL A   1      41.587  29.947  35.853  1.00  0.00     0.031 C 
ATOM     56  C   UNL A   1      44.356  26.356  31.802  1.00  0.00     0.029 A 
ATOM     57  C   UNL A   1      43.494  27.270  32.389  1.00  0.00     0.049 A 
ATOM     58  H   UNL A   1      41.888  28.324  31.516  1.00  0.00     0.167 HD
ATOM     59  C   UNL A   1      42.590  28.641  34.255  1.00  0.00     0.074 A 
ATOM     60  C   UNL A   1      42.572  29.087  35.633  1.00  0.00     0.031 C 
ATOM     61  C   UNL A   1      43.467  27.734  33.755  1.00  0.00     0.037 A 
BRANCH  48  62
ATOM     62  C   UNL A   1      42.613  26.448  27.748  1.00  0.00     0.064 A 
ATOM     63  C   UNL A   1      42.133  25.158  27.474  1.00  0.00     0.173 A 
ATOM     64  C   UNL A   1      43.570  26.989  26.875  1.00  0.00     0.173 A 
ATOM     65  F   UNL A   1      41.235  24.585  28.289  1.00  0.00    -0.203 F 
ATOM     66  C   UNL A   1      42.640  24.417  26.408  1.00  0.00     0.198 A 
ATOM     67  C   UNL A   1      44.046  26.260  25.788  1.00  0.00     0.198 A 
ATOM     68  F   UNL A   1      44.063  28.218  27.087  1.00  0.00    -0.203 F 
ATOM     69  F   UNL A   1      42.236  23.153  26.220  1.00  0.00    -0.200 F 
ATOM     70  C   UNL A   1      43.596  24.969  25.567  1.00  0.00     0.200 A 
ATOM     71  F   UNL A   1      44.962  26.800  24.972  1.00  0.00    -0.200 F 
ATOM     72  F   UNL A   1      44.099  24.247  24.556  1.00  0.00    -0.200 F 
ENDBRANCH  48  62
BRANCH  49  73
ATOM     73  C   UNL A   1      39.401  31.882  35.513  1.00  0.00     0.064 A 
ATOM     74  C   UNL A   1      38.459  31.410  36.439  1.00  0.00     0.173 A 
ATOM     75  C   UNL A   1      39.893  33.184  35.699  1.00  0.00     0.173 A 
ATOM     76  F   UNL A   1      37.927  30.187  36.290  1.00  0.00    -0.203 F 
ATOM     77  C   UNL A   1      38.027  32.205  37.501  1.00  0.00     0.198 A 
ATOM     78  C   UNL A   1      39.483  33.966  36.778  1.00  0.00     0.198 A 
ATOM     79  F   UNL A   1      40.780  33.697  34.835  1.00  0.00    -0.203 F 
ATOM     80  F   UNL A   1      37.095  31.743  38.346  1.00  0.00    -0.200 F 
ATOM     81  C   UNL A   1      38.546  33.478  37.675  1.00  0.00     0.200 A 
ATOM     82  F   UNL A   1      39.996  35.192  36.945  1.00  0.00    -0.200 F 
ATOM     83  F   UNL A   1      38.139  34.238  38.700  1.00  0.00    -0.200 F 
ENDBRANCH  49  73
BRANCH  61  84
ATOM     84  C   UNL A   1      44.521  27.200  34.686  1.00  0.00     0.064 A 
ATOM     85  C   UNL A   1      44.351  25.999  35.390  1.00  0.00     0.173 A 
ATOM     86  C   UNL A   1      45.743  27.875  34.826  1.00  0.00     0.173 A 
ATOM     87  F   UNL A   1      43.197  25.321  35.303  1.00  0.00    -0.203 F 
ATOM     88  C   UNL A   1      45.359  25.506  36.216  1.00  0.00     0.198 A 
ATOM     89  C   UNL A   1      46.761  27.362  35.626  1.00  0.00     0.198 A 
ATOM     90  F   UNL A   1      45.960  29.024  34.169  1.00  0.00    -0.203 F 
ATOM     91  F   UNL A   1      45.158  24.380  36.917  1.00  0.00    -0.200 F 
ATOM     92  C   UNL A   1      46.565  26.182  36.326  1.00  0.00     0.200 A 
ATOM     93  F   UNL A   1      47.931  28.009  35.714  1.00  0.00    -0.200 F 
ATOM     94  F   UNL A   1      47.538  25.699  37.111  1.00  0.00    -0.200 F 
ENDBRANCH  61  84
ENDBRANCH  35  36
ENDBRANCH  28  30
ENDBRANCH  27  28
ENDBRANCH  26  27
ENDBRANCH   1  26
TORSDOF 16
ENDMDL
MODEL 3
REMARK VINA RESULT:     -11.8      4.339     10.064
REMARK SMILES CC(=O)Nc1cnc(N(C)CCc2cn[nH]c2)c(C(=O)OCCOC(=O)c2ccc(-c3c4nc(c(-c5c(F)c(F)c(F)c(F)c5F)c5ccc([nH]5)c(-c5c(F)c(F)c(F)c(F)c5F)c5nc(c(-c6c(F)c(F)c(F)c(F)c6F)c6ccc3[nH]6)C=C5)C=C4)cc2)c1
REMARK SMILES IDX 22 1 21 2 19 3 20 4 18 5 5 6 6 7 90 8 7 9 8 10 4 11 1 12
REMARK SMILES IDX 2 13 3 14 9 16 10 17 11 18 12 19 13 20 14 21 17 22 15 23
REMARK SMILES IDX 16 24 23 26 24 27 25 28 26 29 27 30 28 31 89 32 29 33 88 34
REMARK SMILES IDX 30 35 31 36 32 37 82 38 33 39 87 40 81 41 83 42 34 43 86 44
REMARK SMILES IDX 80 45 79 46 35 48 67 49 47 50 66 51 48 52 51 53 65 54 84 55
REMARK SMILES IDX 49 56 50 57 64 59 85 60 52 61 36 62 37 63 45 64 38 65 39 66
REMARK SMILES IDX 43 67 46 68 40 69 41 70 44 71 42 72 68 73 69 74 77 75 70 76
REMARK SMILES IDX 71 77 75 78 78 79 72 80 73 81 76 82 74 83 53 84 54 85 62 86
REMARK SMILES IDX 55 87 56 88 60 89 63 90 57 91 58 92 61 93 59 94
REMARK H PARENT 4 15 16 25 83 47 51 58
REMARK Flexibility Score: inf
ROOT
ATOM      1  C   UNL A   1      36.597  22.792  23.537  1.00  0.00     0.275 C 
ENDROOT
BRANCH   1   2
ATOM      2  O   UNL A   1      35.507  23.529  24.140  1.00  0.00    -0.458 OA
BRANCH   2   3
ATOM      3  C   UNL A   1      34.353  23.440  23.420  1.00  0.00     0.342 C 
ATOM      4  O   UNL A   1      34.388  23.305  22.206  1.00  0.00    -0.246 OA
BRANCH   3   5
ATOM      5  C   UNL A   1      33.110  23.479  24.252  1.00  0.00     0.104 A 
ATOM      6  C   UNL A   1      30.905  24.491  24.593  1.00  0.00     0.060 A 
ATOM      7  C   UNL A   1      30.934  23.952  25.855  1.00  0.00     0.139 A 
ATOM      8  C   UNL A   1      32.041  24.308  23.807  1.00  0.00     0.047 A 
ATOM      9  N   UNL A   1      31.882  23.088  26.252  1.00  0.00    -0.236 NA
ATOM     10  C   UNL A   1      32.923  22.733  25.437  1.00  0.00     0.143 A 
BRANCH   6  11
ATOM     11  N   UNL A   1      29.743  25.164  24.189  1.00  0.00    -0.325 N 
ATOM     12  C   UNL A   1      30.649  27.446  24.546  1.00  0.00     0.114 C 
ATOM     13  C   UNL A   1      29.544  26.518  24.121  1.00  0.00     0.221 C 
ATOM     14  O   UNL A   1      28.503  26.951  23.627  1.00  0.00    -0.275 OA
ATOM     15  H   UNL A   1      28.983  24.598  23.922  1.00  0.00     0.169 HD
ENDBRANCH   6  11
BRANCH  10  16
ATOM     16  N   UNL A   1      33.614  21.634  25.921  1.00  0.00    -0.359 N 
ATOM     17  C   UNL A   1      34.046  21.746  27.323  1.00  0.00     0.145 C 
BRANCH  16  18
ATOM     18  C   UNL A   1      33.911  20.342  25.276  1.00  0.00     0.122 C 
BRANCH  18  19
ATOM     19  C   UNL A   1      32.879  19.207  25.409  1.00  0.00     0.060 C 
BRANCH  19  20
ATOM     20  C   UNL A   1      33.200  17.847  24.883  1.00  0.00    -0.008 A 
ATOM     21  C   UNL A   1      32.831  16.590  25.428  1.00  0.00     0.138 A 
ATOM     22  C   UNL A   1      33.899  17.511  23.744  1.00  0.00     0.108 A 
ATOM     23  N   UNL A   1      33.332  15.562  24.739  1.00  0.00    -0.184 NA
ATOM     24  N   UNL A   1      33.975  16.152  23.723  1.00  0.00    -0.285 N 
ATOM     25  H   UNL A   1      34.457  15.649  23.026  1.00  0.00     0.189 HD
ENDBRANCH  19  20
ENDBRANCH  18  19
ENDBRANCH  16  18
ENDBRANCH  10  16
ENDBRANCH   3   5
ENDBRANCH   2   3
ENDBRANCH   1   2
BRANCH   1  26
ATOM     26  C   UNL A   1      37.113  21.593  24.361  1.00  0.00     0.275 C 
BRANCH  26  27
ATOM     27  O   UNL A   1      37.467  21.884  25.731  1.00  0.00    -0.458 OA
BRANCH  27  28
ATOM     28  C   UNL A   1      38.740  21.574  26.077  1.00  0.00     0.338 C 
ATOM     29  O   UNL A   1      39.310  20.512  25.878  1.00  0.00    -0.246 OA
BRANCH  28  30
ATOM     30  C   UNL A   1      39.446  22.758  26.618  1.00  0.00     0.060 A 
ATOM     31  C   UNL A   1      39.078  24.004  26.107  1.00  0.00     0.016 A 
ATOM     32  C   UNL A   1      40.490  22.671  27.541  1.00  0.00     0.016 A 
ATOM     33  C   UNL A   1      39.693  25.169  26.557  1.00  0.00     0.010 A 
ATOM     34  C   UNL A   1      41.149  23.844  27.957  1.00  0.00     0.010 A 
ATOM     35  C   UNL A   1      40.744  25.100  27.474  1.00  0.00    -0.014 A 
BRANCH  35  36
ATOM     36  C   UNL A   1      41.511  26.340  27.760  1.00  0.00     0.031 A 
ATOM     37  C   UNL A   1      40.874  27.386  28.625  1.00  0.00     0.074 A 
ATOM     38  C   UNL A   1      42.792  26.483  27.378  1.00  0.00     0.049 A 
ATOM     39  N   UNL A   1      41.295  28.583  28.944  1.00  0.00    -0.248 NA
ATOM     40  C   UNL A   1      39.593  27.013  29.241  1.00  0.00     0.031 C 
ATOM     41  C   UNL A   1      43.592  25.460  26.709  1.00  0.00     0.029 A 
ATOM     42  N   UNL A   1      43.654  27.544  27.519  1.00  0.00    -0.354 N 
ATOM     43  C   UNL A   1      40.318  29.116  29.772  1.00  0.00     0.074 A 
ATOM     44  C   UNL A   1      39.293  28.106  29.925  1.00  0.00     0.031 C 
ATOM     45  C   UNL A   1      44.830  25.944  26.498  1.00  0.00     0.029 A 
ATOM     46  C   UNL A   1      44.886  27.333  26.949  1.00  0.00     0.049 A 
ATOM     47  H   UNL A   1      43.410  28.376  27.984  1.00  0.00     0.167 HD
ATOM     48  C   UNL A   1      40.268  30.349  30.331  1.00  0.00     0.037 A 
ATOM     49  C   UNL A   1      45.918  28.184  26.775  1.00  0.00     0.037 A 
ATOM     50  C   UNL A   1      41.283  31.352  30.147  1.00  0.00     0.049 A 
ATOM     51  C   UNL A   1      45.773  29.610  27.252  1.00  0.00     0.074 A 
ATOM     52  C   UNL A   1      41.302  32.662  30.591  1.00  0.00     0.029 A 
ATOM     53  N   UNL A   1      42.465  31.151  29.446  1.00  0.00    -0.354 N 
ATOM     54  N   UNL A   1      44.800  30.160  27.940  1.00  0.00    -0.248 NA
ATOM     55  C   UNL A   1      46.856  30.541  26.906  1.00  0.00     0.031 C 
ATOM     56  C   UNL A   1      42.461  33.272  30.100  1.00  0.00     0.029 A 
ATOM     57  C   UNL A   1      43.206  32.323  29.416  1.00  0.00     0.049 A 
ATOM     58  H   UNL A   1      42.738  30.301  29.030  1.00  0.00     0.167 HD
ATOM     59  C   UNL A   1      45.164  31.486  28.134  1.00  0.00     0.074 A 
ATOM     60  C   UNL A   1      46.453  31.658  27.496  1.00  0.00     0.031 C 
ATOM     61  C   UNL A   1      44.494  32.472  28.783  1.00  0.00     0.037 A 
BRANCH  48  62
ATOM     62  C   UNL A   1      39.010  30.700  31.075  1.00  0.00     0.064 A 
ATOM     63  C   UNL A   1      37.898  31.281  30.445  1.00  0.00     0.173 A 
ATOM     64  C   UNL A   1      38.952  30.519  32.466  1.00  0.00     0.173 A 
ATOM     65  F   UNL A   1      37.910  31.498  29.121  1.00  0.00    -0.203 F 
ATOM     66  C   UNL A   1      36.803  31.720  31.186  1.00  0.00     0.198 A 
ATOM     67  C   UNL A   1      37.839  30.925  33.199  1.00  0.00     0.198 A 
ATOM     68  F   UNL A   1      39.985  29.968  33.121  1.00  0.00    -0.203 F 
ATOM     69  F   UNL A   1      35.793  32.355  30.576  1.00  0.00    -0.200 F 
ATOM     70  C   UNL A   1      36.775  31.542  32.563  1.00  0.00     0.200 A 
ATOM     71  F   UNL A   1      37.812  30.742  34.526  1.00  0.00    -0.200 F 
ATOM     72  F   UNL A   1      35.732  31.985  33.277  1.00  0.00    -0.200 F 
ENDBRANCH  48  62
BRANCH  49  73
ATOM     73  C   UNL A   1      47.154  27.740  26.071  1.00  0.00     0.064 A 
ATOM     74  C   UNL A   1      47.233  27.738  24.670  1.00  0.00     0.173 A 
ATOM     75  C   UNL A   1      48.276  27.284  26.781  1.00  0.00     0.173 A 
ATOM     76  F   UNL A   1      46.177  28.127  23.939  1.00  0.00    -0.203 F 
ATOM     77  C   UNL A   1      48.382  27.298  24.011  1.00  0.00     0.198 A 
ATOM     78  C   UNL A   1      49.434  26.875  26.122  1.00  0.00     0.198 A 
ATOM     79  F   UNL A   1      48.252  27.244  28.121  1.00  0.00    -0.203 F 
ATOM     80  F   UNL A   1      48.413  27.269  22.672  1.00  0.00    -0.200 F 
ATOM     81  C   UNL A   1      49.484  26.877  24.737  1.00  0.00     0.200 A 
ATOM     82  F   UNL A   1      50.500  26.477  26.831  1.00  0.00    -0.200 F 
ATOM     83  F   UNL A   1      50.591  26.464  24.105  1.00  0.00    -0.200 F 
ENDBRANCH  49  73
BRANCH  61  84
ATOM     84  C   UNL A   1      45.161  33.815  28.887  1.00  0.00     0.064 A 
ATOM     85  C   UNL A   1      44.957  34.823  27.933  1.00  0.00     0.173 A 
ATOM     86  C   UNL A   1      45.972  34.114  29.993  1.00  0.00     0.173 A 
ATOM     87  F   UNL A   1      44.203  34.586  26.849  1.00  0.00    -0.203 F 
ATOM     88  C   UNL A   1      45.558  36.072  28.074  1.00  0.00     0.198 A 
ATOM     89  C   UNL A   1      46.542  35.374  30.148  1.00  0.00     0.198 A 
ATOM     90  F   UNL A   1      46.193  33.189  30.939  1.00  0.00    -0.203 F 
ATOM     91  F   UNL A   1      45.386  37.006  27.126  1.00  0.00    -0.200 F 
ATOM     92  C   UNL A   1      46.341  36.350  29.184  1.00  0.00     0.200 A 
ATOM     93  F   UNL A   1      47.282  35.645  31.232  1.00  0.00    -0.200 F 
ATOM     94  F   UNL A   1      46.906  37.557  29.324  1.00  0.00    -0.200 F 
ENDBRANCH  61  84
ENDBRANCH  35  36
ENDBRANCH  28  30
ENDBRANCH  27  28
ENDBRANCH  26  27
ENDBRANCH   1  26
TORSDOF 16
ENDMDL
