MODEL 1
REMARK VINA RESULT:     -12.3      0.000      0.000
REMARK SMILES Cc1nn(CC(F)F)c2c1c(C(F)(F)F)cc(=O)n2CC(=O)OCCOC(=O)c1ccc(-c2c3nc(c(-c4c(F)c(F)c(F)c(F)c4F)c4ccc([nH]4)c(-c4c(F)c(F)c(F)c(F)c4F)c4nc(c(-c5c(F)c(F)c(F)c(F)c5F)c5ccc2[nH]5)C=C4)C=C3)cc1
REMARK SMILES IDX 24 1 23 2 21 3 22 4 20 5 19 6 1 7 2 8 3 9 10 10 4 11 9 12
REMARK SMILES IDX 11 13 16 14 17 15 18 16 5 17 6 18 7 19 8 20 12 21 13 22
REMARK SMILES IDX 14 23 15 24 25 25 26 26 27 27 28 28 29 29 30 30 91 31 31 32
REMARK SMILES IDX 90 33 32 34 33 35 34 36 84 37 35 38 89 39 83 40 85 41 36 42
REMARK SMILES IDX 88 43 82 44 81 45 37 47 69 48 49 49 68 50 50 51 53 52 67 53
REMARK SMILES IDX 86 54 51 55 52 56 66 58 87 59 54 60 38 61 39 62 47 63 40 64
REMARK SMILES IDX 41 65 45 66 48 67 42 68 43 69 46 70 44 71 70 72 71 73 79 74
REMARK SMILES IDX 72 75 73 76 77 77 80 78 74 79 75 80 78 81 76 82 55 83 56 84
REMARK SMILES IDX 64 85 57 86 58 87 62 88 65 89 59 90 60 91 63 92 61 93
REMARK H PARENT 85 46 53 57
REMARK Flexibility Score: inf
ROOT
ATOM      1  C   UNL A   1      37.190  23.088  25.291  1.00  0.00     0.274 C 
ENDROOT
BRANCH   1   2
ATOM      2  O   UNL A   1      35.859  22.713  25.770  1.00  0.00    -0.461 OA
BRANCH   2   3
ATOM      3  C   UNL A   1      35.198  21.741  25.053  1.00  0.00     0.326 C 
ATOM      4  O   UNL A   1      35.573  20.574  24.988  1.00  0.00    -0.250 OA
BRANCH   3   5
ATOM      5  C   UNL A   1      33.772  22.166  24.666  1.00  0.00     0.250 C 
BRANCH   5   6
ATOM      6  N   UNL A   1      33.593  23.571  24.417  1.00  0.00    -0.282 N 
ATOM      7  C   UNL A   1      32.443  27.989  26.415  1.00  0.00     0.069 C 
ATOM      8  C   UNL A   1      32.508  26.547  26.077  1.00  0.00     0.069 A 
ATOM      9  N   UNL A   1      32.063  25.662  26.971  1.00  0.00    -0.175 NA
ATOM     10  C   UNL A   1      33.005  25.890  24.934  1.00  0.00     0.053 A 
ATOM     11  N   UNL A   1      32.316  24.449  26.434  1.00  0.00    -0.243 N 
ATOM     12  C   UNL A   1      33.001  24.539  25.238  1.00  0.00     0.142 A 
ATOM     13  C   UNL A   1      33.516  26.313  23.672  1.00  0.00     0.074 A 
ATOM     14  C   UNL A   1      34.045  25.411  22.829  1.00  0.00     0.085 A 
ATOM     15  C   UNL A   1      34.147  23.985  23.200  1.00  0.00     0.253 A 
ATOM     16  O   UNL A   1      34.717  23.230  22.414  1.00  0.00    -0.269 OA
BRANCH  11  17
ATOM     17  C   UNL A   1      31.721  23.339  27.149  1.00  0.00     0.219 C 
BRANCH  17  18
ATOM     18  C   UNL A   1      30.389  22.958  26.548  1.00  0.00     0.363 C 
ATOM     19  F   UNL A   1      30.532  21.849  25.774  1.00  0.00    -0.208 F 
ATOM     20  F   UNL A   1      29.526  22.602  27.538  1.00  0.00    -0.208 F 
ENDBRANCH  17  18
ENDBRANCH  11  17
BRANCH  13  21
ATOM     21  C   UNL A   1      33.372  27.746  23.287  1.00  0.00     0.417 C 
ATOM     22  F   UNL A   1      33.781  27.981  22.014  1.00  0.00    -0.166 F 
ATOM     23  F   UNL A   1      32.090  28.176  23.388  1.00  0.00    -0.166 F 
ATOM     24  F   UNL A   1      34.113  28.566  24.080  1.00  0.00    -0.166 F 
ENDBRANCH  13  21
ENDBRANCH   5   6
ENDBRANCH   3   5
ENDBRANCH   2   3
ENDBRANCH   1   2
BRANCH   1  25
ATOM     25  C   UNL A   1      38.283  22.092  25.770  1.00  0.00     0.275 C 
BRANCH  25  26
ATOM     26  O   UNL A   1      39.485  22.818  26.136  1.00  0.00    -0.458 OA
BRANCH  26  27
ATOM     27  C   UNL A   1      40.001  22.638  27.387  1.00  0.00     0.338 C 
ATOM     28  O   UNL A   1      40.449  21.620  27.871  1.00  0.00    -0.246 OA
BRANCH  27  29
ATOM     29  C   UNL A   1      40.342  23.994  27.876  1.00  0.00     0.060 A 
ATOM     30  C   UNL A   1      41.573  24.506  28.252  1.00  0.00     0.016 A 
ATOM     31  C   UNL A   1      39.284  24.869  27.734  1.00  0.00     0.016 A 
ATOM     32  C   UNL A   1      41.664  25.889  28.540  1.00  0.00     0.010 A 
ATOM     33  C   UNL A   1      39.397  26.219  27.884  1.00  0.00     0.010 A 
ATOM     34  C   UNL A   1      40.559  26.754  28.361  1.00  0.00    -0.014 A 
BRANCH  34  35
ATOM     35  C   UNL A   1      40.563  28.198  28.605  1.00  0.00     0.031 A 
ATOM     36  C   UNL A   1      41.703  28.941  28.031  1.00  0.00     0.074 A 
ATOM     37  C   UNL A   1      39.603  28.942  29.213  1.00  0.00     0.049 A 
ATOM     38  N   UNL A   1      42.747  29.337  28.676  1.00  0.00    -0.248 NA
ATOM     39  C   UNL A   1      41.728  29.225  26.594  1.00  0.00     0.031 C 
ATOM     40  C   UNL A   1      38.233  28.616  29.647  1.00  0.00     0.029 A 
ATOM     41  N   UNL A   1      39.715  30.255  29.581  1.00  0.00    -0.354 N 
ATOM     42  C   UNL A   1      43.523  30.039  27.769  1.00  0.00     0.074 A 
ATOM     43  C   UNL A   1      42.895  29.865  26.480  1.00  0.00     0.031 C 
ATOM     44  C   UNL A   1      37.593  29.734  30.053  1.00  0.00     0.029 A 
ATOM     45  C   UNL A   1      38.567  30.800  30.128  1.00  0.00     0.049 A 
ATOM     46  H   UNL A   1      40.546  30.771  29.467  1.00  0.00     0.167 HD
ATOM     47  C   UNL A   1      44.553  30.821  28.192  1.00  0.00     0.037 A 
ATOM     48  C   UNL A   1      38.434  32.007  30.714  1.00  0.00     0.037 A 
ATOM     49  C   UNL A   1      44.882  30.560  29.572  1.00  0.00     0.049 A 
ATOM     50  C   UNL A   1      39.774  32.397  31.206  1.00  0.00     0.074 A 
ATOM     51  C   UNL A   1      45.343  29.459  30.268  1.00  0.00     0.029 A 
ATOM     52  N   UNL A   1      44.382  31.413  30.526  1.00  0.00    -0.354 N 
ATOM     53  N   UNL A   1      40.401  31.798  32.180  1.00  0.00    -0.248 NA
ATOM     54  C   UNL A   1      40.588  33.272  30.382  1.00  0.00     0.031 C 
ATOM     55  C   UNL A   1      44.674  29.503  31.530  1.00  0.00     0.029 A 
ATOM     56  C   UNL A   1      43.865  30.640  31.538  1.00  0.00     0.049 A 
ATOM     57  H   UNL A   1      44.393  32.397  30.492  1.00  0.00     0.167 HD
ATOM     58  C   UNL A   1      41.743  31.898  31.849  1.00  0.00     0.074 A 
ATOM     59  C   UNL A   1      41.800  32.928  30.821  1.00  0.00     0.031 C 
ATOM     60  C   UNL A   1      42.642  30.952  32.248  1.00  0.00     0.037 A 
BRANCH  47  61
ATOM     61  C   UNL A   1      45.108  31.997  27.443  1.00  0.00     0.064 A 
ATOM     62  C   UNL A   1      46.425  31.951  26.949  1.00  0.00     0.173 A 
ATOM     63  C   UNL A   1      44.481  33.258  27.406  1.00  0.00     0.173 A 
ATOM     64  F   UNL A   1      47.125  30.806  26.972  1.00  0.00    -0.203 F 
ATOM     65  C   UNL A   1      47.079  33.095  26.483  1.00  0.00     0.198 A 
ATOM     66  C   UNL A   1      45.116  34.388  26.891  1.00  0.00     0.198 A 
ATOM     67  F   UNL A   1      43.277  33.462  27.958  1.00  0.00    -0.203 F 
ATOM     68  F   UNL A   1      48.364  33.023  26.113  1.00  0.00    -0.200 F 
ATOM     69  C   UNL A   1      46.422  34.312  26.452  1.00  0.00     0.200 A 
ATOM     70  F   UNL A   1      44.474  35.565  26.889  1.00  0.00    -0.200 F 
ATOM     71  F   UNL A   1      47.059  35.417  26.043  1.00  0.00    -0.200 F 
ENDBRANCH  47  61
BRANCH  48  72
ATOM     72  C   UNL A   1      37.282  32.929  30.683  1.00  0.00     0.064 A 
ATOM     73  C   UNL A   1      36.876  33.524  29.478  1.00  0.00     0.173 A 
ATOM     74  C   UNL A   1      36.377  32.993  31.760  1.00  0.00     0.173 A 
ATOM     75  F   UNL A   1      37.676  33.487  28.404  1.00  0.00    -0.203 F 
ATOM     76  C   UNL A   1      35.606  34.086  29.337  1.00  0.00     0.198 A 
ATOM     77  C   UNL A   1      35.112  33.560  31.618  1.00  0.00     0.198 A 
ATOM     78  F   UNL A   1      36.664  32.412  32.935  1.00  0.00    -0.203 F 
ATOM     79  F   UNL A   1      35.218  34.564  28.147  1.00  0.00    -0.200 F 
ATOM     80  C   UNL A   1      34.717  34.086  30.400  1.00  0.00     0.200 A 
ATOM     81  F   UNL A   1      34.249  33.529  32.643  1.00  0.00    -0.200 F 
ATOM     82  F   UNL A   1      33.470  34.548  30.238  1.00  0.00    -0.200 F 
ENDBRANCH  48  72
BRANCH  60  83
ATOM     83  C   UNL A   1      42.215  30.000  33.335  1.00  0.00     0.064 A 
ATOM     84  C   UNL A   1      41.662  28.731  33.096  1.00  0.00     0.173 A 
ATOM     85  C   UNL A   1      42.484  30.340  34.668  1.00  0.00     0.173 A 
ATOM     86  F   UNL A   1      41.461  28.290  31.849  1.00  0.00    -0.203 F 
ATOM     87  C   UNL A   1      41.352  27.863  34.143  1.00  0.00     0.198 A 
ATOM     88  C   UNL A   1      42.206  29.459  35.712  1.00  0.00     0.198 A 
ATOM     89  F   UNL A   1      43.060  31.517  34.958  1.00  0.00    -0.203 F 
ATOM     90  F   UNL A   1      40.813  26.662  33.887  1.00  0.00    -0.200 F 
ATOM     91  C   UNL A   1      41.630  28.227  35.450  1.00  0.00     0.200 A 
ATOM     92  F   UNL A   1      42.520  29.796  36.970  1.00  0.00    -0.200 F 
ATOM     93  F   UNL A   1      41.369  27.379  36.456  1.00  0.00    -0.200 F 
ENDBRANCH  60  83
ENDBRANCH  34  35
ENDBRANCH  27  29
ENDBRANCH  26  27
ENDBRANCH  25  26
ENDBRANCH   1  25
TORSDOF 15
ENDMDL
MODEL 2
REMARK VINA RESULT:     -12.2      1.492      2.175
REMARK SMILES Cc1nn(CC(F)F)c2c1c(C(F)(F)F)cc(=O)n2CC(=O)OCCOC(=O)c1ccc(-c2c3nc(c(-c4c(F)c(F)c(F)c(F)c4F)c4ccc([nH]4)c(-c4c(F)c(F)c(F)c(F)c4F)c4nc(c(-c5c(F)c(F)c(F)c(F)c5F)c5ccc2[nH]5)C=C4)C=C3)cc1
REMARK SMILES IDX 24 1 23 2 21 3 22 4 20 5 19 6 1 7 2 8 3 9 10 10 4 11 9 12
REMARK SMILES IDX 11 13 16 14 17 15 18 16 5 17 6 18 7 19 8 20 12 21 13 22
REMARK SMILES IDX 14 23 15 24 25 25 26 26 27 27 28 28 29 29 30 30 91 31 31 32
REMARK SMILES IDX 90 33 32 34 33 35 34 36 84 37 35 38 89 39 83 40 85 41 36 42
REMARK SMILES IDX 88 43 82 44 81 45 37 47 69 48 49 49 68 50 50 51 53 52 67 53
REMARK SMILES IDX 86 54 51 55 52 56 66 58 87 59 54 60 38 61 39 62 47 63 40 64
REMARK SMILES IDX 41 65 45 66 48 67 42 68 43 69 46 70 44 71 70 72 71 73 79 74
REMARK SMILES IDX 72 75 73 76 77 77 80 78 74 79 75 80 78 81 76 82 55 83 56 84
REMARK SMILES IDX 64 85 57 86 58 87 62 88 65 89 59 90 60 91 63 92 61 93
REMARK H PARENT 85 46 53 57
REMARK Flexibility Score: inf
ROOT
ATOM      1  C   UNL A   1      39.404  21.900  25.925  1.00  0.00     0.274 C 
ENDROOT
BRANCH   1   2
ATOM      2  O   UNL A   1      38.184  21.167  25.587  1.00  0.00    -0.461 OA
BRANCH   2   3
ATOM      3  C   UNL A   1      37.013  21.890  25.582  1.00  0.00     0.326 C 
ATOM      4  O   UNL A   1      36.896  22.994  26.108  1.00  0.00    -0.250 OA
BRANCH   3   5
ATOM      5  C   UNL A   1      36.000  21.363  24.553  1.00  0.00     0.250 C 
BRANCH   5   6
ATOM      6  N   UNL A   1      34.918  22.255  24.240  1.00  0.00    -0.282 N 
ATOM      7  C   UNL A   1      30.633  24.242  25.830  1.00  0.00     0.069 C 
ATOM      8  C   UNL A   1      31.767  23.330  25.547  1.00  0.00     0.069 A 
ATOM      9  N   UNL A   1      31.944  22.269  26.337  1.00  0.00    -0.175 NA
ATOM     10  C   UNL A   1      32.771  23.387  24.560  1.00  0.00     0.053 A 
ATOM     11  N   UNL A   1      33.076  21.677  25.897  1.00  0.00    -0.243 N 
ATOM     12  C   UNL A   1      33.682  22.396  24.885  1.00  0.00     0.142 A 
ATOM     13  C   UNL A   1      33.032  24.226  23.437  1.00  0.00     0.074 A 
ATOM     14  C   UNL A   1      34.181  24.090  22.755  1.00  0.00     0.085 A 
ATOM     15  C   UNL A   1      35.206  23.111  23.170  1.00  0.00     0.253 A 
ATOM     16  O   UNL A   1      36.268  23.098  22.550  1.00  0.00    -0.269 OA
BRANCH  11  17
ATOM     17  C   UNL A   1      33.344  20.381  26.484  1.00  0.00     0.219 C 
BRANCH  17  18
ATOM     18  C   UNL A   1      32.919  19.268  25.556  1.00  0.00     0.363 C 
ATOM     19  F   UNL A   1      33.973  18.879  24.789  1.00  0.00    -0.208 F 
ATOM     20  F   UNL A   1      32.575  18.171  26.284  1.00  0.00    -0.208 F 
ENDBRANCH  17  18
ENDBRANCH  11  17
BRANCH  13  21
ATOM     21  C   UNL A   1      31.976  25.181  22.998  1.00  0.00     0.417 C 
ATOM     22  F   UNL A   1      31.734  26.143  23.925  1.00  0.00    -0.166 F 
ATOM     23  F   UNL A   1      32.301  25.806  21.839  1.00  0.00    -0.166 F 
ATOM     24  F   UNL A   1      30.785  24.562  22.776  1.00  0.00    -0.166 F 
ENDBRANCH  13  21
ENDBRANCH   5   6
ENDBRANCH   3   5
ENDBRANCH   2   3
ENDBRANCH   1   2
BRANCH   1  25
ATOM     25  C   UNL A   1      40.306  21.105  26.912  1.00  0.00     0.275 C 
BRANCH  25  26
ATOM     26  O   UNL A   1      40.788  21.988  27.959  1.00  0.00    -0.458 OA
BRANCH  26  27
ATOM     27  C   UNL A   1      42.065  22.462  27.875  1.00  0.00     0.338 C 
ATOM     28  O   UNL A   1      42.985  22.020  27.219  1.00  0.00    -0.246 OA
BRANCH  27  29
ATOM     29  C   UNL A   1      42.002  23.863  28.353  1.00  0.00     0.060 A 
ATOM     30  C   UNL A   1      42.977  24.619  28.980  1.00  0.00     0.016 A 
ATOM     31  C   UNL A   1      40.860  24.501  27.912  1.00  0.00     0.016 A 
ATOM     32  C   UNL A   1      42.721  25.994  29.202  1.00  0.00     0.010 A 
ATOM     33  C   UNL A   1      40.664  25.847  28.007  1.00  0.00     0.010 A 
ATOM     34  C   UNL A   1      41.545  26.612  28.716  1.00  0.00    -0.014 A 
BRANCH  34  35
ATOM     35  C   UNL A   1      41.205  28.028  28.870  1.00  0.00     0.031 A 
ATOM     36  C   UNL A   1      42.167  28.985  28.290  1.00  0.00     0.074 A 
ATOM     37  C   UNL A   1      40.071  28.559  29.400  1.00  0.00     0.049 A 
ATOM     38  N   UNL A   1      43.061  29.647  28.943  1.00  0.00    -0.248 NA
ATOM     39  C   UNL A   1      42.193  29.191  26.839  1.00  0.00     0.031 C 
ATOM     40  C   UNL A   1      38.795  27.945  29.808  1.00  0.00     0.029 A 
ATOM     41  N   UNL A   1      39.861  29.879  29.690  1.00  0.00    -0.354 N 
ATOM     42  C   UNL A   1      43.696  30.461  28.021  1.00  0.00     0.074 A 
ATOM     43  C   UNL A   1      43.185  30.079  26.725  1.00  0.00     0.031 C 
ATOM     44  C   UNL A   1      37.896  28.903  30.124  1.00  0.00     0.029 A 
ATOM     45  C   UNL A   1      38.594  30.169  30.164  1.00  0.00     0.049 A 
ATOM     46  H   UNL A   1      40.555  30.568  29.572  1.00  0.00     0.167 HD
ATOM     47  C   UNL A   1      44.496  31.483  28.429  1.00  0.00     0.037 A 
ATOM     48  C   UNL A   1      38.159  31.341  30.671  1.00  0.00     0.037 A 
ATOM     49  C   UNL A   1      44.813  31.379  29.832  1.00  0.00     0.049 A 
ATOM     50  C   UNL A   1      39.349  32.057  31.182  1.00  0.00     0.074 A 
ATOM     51  C   UNL A   1      45.482  30.453  30.609  1.00  0.00     0.029 A 
ATOM     52  N   UNL A   1      44.086  32.140  30.715  1.00  0.00    -0.354 N 
ATOM     53  N   UNL A   1      40.052  31.673  32.211  1.00  0.00    -0.248 NA
ATOM     54  C   UNL A   1      39.976  33.054  30.332  1.00  0.00     0.031 C 
ATOM     55  C   UNL A   1      44.764  30.405  31.844  1.00  0.00     0.029 A 
ATOM     56  C   UNL A   1      43.715  31.321  31.755  1.00  0.00     0.049 A 
ATOM     57  H   UNL A   1      43.871  33.096  30.621  1.00  0.00     0.167 HD
ATOM     58  C   UNL A   1      41.348  32.065  31.919  1.00  0.00     0.074 A 
ATOM     59  C   UNL A   1      41.213  33.025  30.831  1.00  0.00     0.031 C 
ATOM     60  C   UNL A   1      42.422  31.377  32.404  1.00  0.00     0.037 A 
BRANCH  47  61
ATOM     61  C   UNL A   1      44.799  32.715  27.627  1.00  0.00     0.064 A 
ATOM     62  C   UNL A   1      46.018  32.812  26.930  1.00  0.00     0.173 A 
ATOM     63  C   UNL A   1      44.046  33.903  27.718  1.00  0.00     0.173 A 
ATOM     64  F   UNL A   1      46.829  31.748  26.818  1.00  0.00    -0.203 F 
ATOM     65  C   UNL A   1      46.466  34.021  26.392  1.00  0.00     0.198 A 
ATOM     66  C   UNL A   1      44.470  35.097  27.134  1.00  0.00     0.198 A 
ATOM     67  F   UNL A   1      42.931  33.974  28.457  1.00  0.00    -0.203 F 
ATOM     68  F   UNL A   1      47.677  34.089  25.823  1.00  0.00    -0.200 F 
ATOM     69  C   UNL A   1      45.690  35.162  26.492  1.00  0.00     0.200 A 
ATOM     70  F   UNL A   1      43.717  36.198  27.259  1.00  0.00    -0.200 F 
ATOM     71  F   UNL A   1      46.135  36.331  26.012  1.00  0.00    -0.200 F 
ENDBRANCH  47  61
BRANCH  48  72
ATOM     72  C   UNL A   1      36.828  31.967  30.545  1.00  0.00     0.064 A 
ATOM     73  C   UNL A   1      35.938  31.976  31.631  1.00  0.00     0.173 A 
ATOM     74  C   UNL A   1      36.535  32.835  29.477  1.00  0.00     0.173 A 
ATOM     75  F   UNL A   1      36.162  31.189  32.693  1.00  0.00    -0.203 F 
ATOM     76  C   UNL A   1      34.856  32.856  31.676  1.00  0.00     0.198 A 
ATOM     77  C   UNL A   1      35.450  33.709  29.522  1.00  0.00     0.198 A 
ATOM     78  F   UNL A   1      37.355  32.925  28.418  1.00  0.00    -0.203 F 
ATOM     79  F   UNL A   1      34.080  32.900  32.768  1.00  0.00    -0.200 F 
ATOM     80  C   UNL A   1      34.624  33.736  30.632  1.00  0.00     0.200 A 
ATOM     81  F   UNL A   1      35.252  34.577  28.519  1.00  0.00    -0.200 F 
ATOM     82  F   UNL A   1      33.637  34.638  30.715  1.00  0.00    -0.200 F 
ENDBRANCH  48  72
BRANCH  60  83
ATOM     83  C   UNL A   1      42.176  30.409  33.532  1.00  0.00     0.064 A 
ATOM     84  C   UNL A   1      41.829  29.060  33.350  1.00  0.00     0.173 A 
ATOM     85  C   UNL A   1      42.415  30.837  34.846  1.00  0.00     0.173 A 
ATOM     86  F   UNL A   1      41.676  28.548  32.124  1.00  0.00    -0.203 F 
ATOM     87  C   UNL A   1      41.685  28.194  34.434  1.00  0.00     0.198 A 
ATOM     88  C   UNL A   1      42.304  29.962  35.925  1.00  0.00     0.198 A 
ATOM     89  F   UNL A   1      42.801  32.101  35.082  1.00  0.00    -0.203 F 
ATOM     90  F   UNL A   1      41.340  26.913  34.232  1.00  0.00    -0.200 F 
ATOM     91  C   UNL A   1      41.928  28.644  35.720  1.00  0.00     0.200 A 
ATOM     92  F   UNL A   1      42.586  30.391  37.163  1.00  0.00    -0.200 F 
ATOM     93  F   UNL A   1      41.827  27.804  36.760  1.00  0.00    -0.200 F 
ENDBRANCH  60  83
ENDBRANCH  34  35
ENDBRANCH  27  29
ENDBRANCH  26  27
ENDBRANCH  25  26
ENDBRANCH   1  25
TORSDOF 15
ENDMDL
MODEL 3
REMARK VINA RESULT:     -12.2      4.324      8.908
REMARK SMILES Cc1nn(CC(F)F)c2c1c(C(F)(F)F)cc(=O)n2CC(=O)OCCOC(=O)c1ccc(-c2c3nc(c(-c4c(F)c(F)c(F)c(F)c4F)c4ccc([nH]4)c(-c4c(F)c(F)c(F)c(F)c4F)c4nc(c(-c5c(F)c(F)c(F)c(F)c5F)c5ccc2[nH]5)C=C4)C=C3)cc1
REMARK SMILES IDX 24 1 23 2 21 3 22 4 20 5 19 6 1 7 2 8 3 9 10 10 4 11 9 12
REMARK SMILES IDX 11 13 16 14 17 15 18 16 5 17 6 18 7 19 8 20 12 21 13 22
REMARK SMILES IDX 14 23 15 24 25 25 26 26 27 27 28 28 29 29 30 30 91 31 31 32
REMARK SMILES IDX 90 33 32 34 33 35 34 36 84 37 35 38 89 39 83 40 85 41 36 42
REMARK SMILES IDX 88 43 82 44 81 45 37 47 69 48 49 49 68 50 50 51 53 52 67 53
REMARK SMILES IDX 86 54 51 55 52 56 66 58 87 59 54 60 38 61 39 62 47 63 40 64
REMARK SMILES IDX 41 65 45 66 48 67 42 68 43 69 46 70 44 71 70 72 71 73 79 74
REMARK SMILES IDX 72 75 73 76 77 77 80 78 74 79 75 80 78 81 76 82 55 83 56 84
REMARK SMILES IDX 64 85 57 86 58 87 62 88 65 89 59 90 60 91 63 92 61 93
REMARK H PARENT 85 46 53 57
REMARK Flexibility Score: inf
ROOT
ATOM      1  C   UNL A   1      33.707  28.623  27.278  1.00  0.00     0.274 C 
ENDROOT
BRANCH   1   2
ATOM      2  O   UNL A   1      33.608  27.995  25.960  1.00  0.00    -0.461 OA
BRANCH   2   3
ATOM      3  C   UNL A   1      32.500  28.314  25.208  1.00  0.00     0.326 C 
ATOM      4  O   UNL A   1      32.377  29.374  24.599  1.00  0.00    -0.250 OA
BRANCH   3   5
ATOM      5  C   UNL A   1      31.624  27.089  24.903  1.00  0.00     0.250 C 
BRANCH   5   6
ATOM      6  N   UNL A   1      32.258  25.814  25.099  1.00  0.00    -0.282 N 
ATOM      7  C   UNL A   1      35.922  22.772  23.629  1.00  0.00     0.069 C 
ATOM      8  C   UNL A   1      34.820  23.764  23.677  1.00  0.00     0.069 A 
ATOM      9  N   UNL A   1      34.709  24.642  22.679  1.00  0.00    -0.175 NA
ATOM     10  C   UNL A   1      33.824  23.988  24.648  1.00  0.00     0.053 A 
ATOM     11  N   UNL A   1      33.687  25.454  23.025  1.00  0.00    -0.243 N 
ATOM     12  C   UNL A   1      33.191  25.163  24.281  1.00  0.00     0.142 A 
ATOM     13  C   UNL A   1      33.423  23.331  25.849  1.00  0.00     0.074 A 
ATOM     14  C   UNL A   1      32.492  23.892  26.637  1.00  0.00     0.085 A 
ATOM     15  C   UNL A   1      31.898  25.204  26.307  1.00  0.00     0.253 A 
ATOM     16  O   UNL A   1      31.113  25.695  27.115  1.00  0.00    -0.269 OA
BRANCH  11  17
ATOM     17  C   UNL A   1      33.256  26.358  21.979  1.00  0.00     0.219 C 
BRANCH  17  18
ATOM     18  C   UNL A   1      31.883  25.985  21.471  1.00  0.00     0.363 C 
ATOM     19  F   UNL A   1      31.035  27.038  21.619  1.00  0.00    -0.208 F 
ATOM     20  F   UNL A   1      31.940  25.749  20.132  1.00  0.00    -0.208 F 
ENDBRANCH  17  18
ENDBRANCH  11  17
BRANCH  13  21
ATOM     21  C   UNL A   1      33.994  21.989  26.154  1.00  0.00     0.417 C 
ATOM     22  F   UNL A   1      33.829  21.113  25.131  1.00  0.00    -0.166 F 
ATOM     23  F   UNL A   1      35.321  22.048  26.429  1.00  0.00    -0.166 F 
ATOM     24  F   UNL A   1      33.406  21.418  27.240  1.00  0.00    -0.166 F 
ENDBRANCH  13  21
ENDBRANCH   5   6
ENDBRANCH   3   5
ENDBRANCH   2   3
ENDBRANCH   1   2
BRANCH   1  25
ATOM     25  C   UNL A   1      34.950  29.551  27.388  1.00  0.00     0.275 C 
BRANCH  25  26
ATOM     26  O   UNL A   1      36.108  28.779  27.800  1.00  0.00    -0.458 OA
BRANCH  26  27
ATOM     27  C   UNL A   1      37.040  29.375  28.599  1.00  0.00     0.338 C 
ATOM     28  O   UNL A   1      36.891  29.815  29.720  1.00  0.00    -0.246 OA
BRANCH  27  29
ATOM     29  C   UNL A   1      38.354  28.975  28.046  1.00  0.00     0.060 A 
ATOM     30  C   UNL A   1      39.033  29.477  26.949  1.00  0.00     0.016 A 
ATOM     31  C   UNL A   1      39.023  28.115  28.894  1.00  0.00     0.016 A 
ATOM     32  C   UNL A   1      40.354  29.027  26.714  1.00  0.00     0.010 A 
ATOM     33  C   UNL A   1      40.336  27.779  28.744  1.00  0.00     0.010 A 
ATOM     34  C   UNL A   1      41.010  28.160  27.620  1.00  0.00    -0.014 A 
BRANCH  34  35
ATOM     35  C   UNL A   1      42.380  27.663  27.478  1.00  0.00     0.031 A 
ATOM     36  C   UNL A   1      42.517  26.330  26.858  1.00  0.00     0.074 A 
ATOM     37  C   UNL A   1      43.537  28.316  27.765  1.00  0.00     0.049 A 
ATOM     38  N   UNL A   1      42.715  25.222  27.486  1.00  0.00    -0.248 NA
ATOM     39  C   UNL A   1      42.360  26.191  25.407  1.00  0.00     0.031 C 
ATOM     40  C   UNL A   1      43.812  29.720  28.119  1.00  0.00     0.029 A 
ATOM     41  N   UNL A   1      44.788  27.764  27.789  1.00  0.00    -0.354 N 
ATOM     42  C   UNL A   1      42.839  24.240  26.517  1.00  0.00     0.074 A 
ATOM     43  C   UNL A   1      42.524  24.874  25.258  1.00  0.00     0.031 C 
ATOM     44  C   UNL A   1      45.144  29.942  28.148  1.00  0.00     0.029 A 
ATOM     45  C   UNL A   1      45.808  28.661  28.048  1.00  0.00     0.049 A 
ATOM     46  H   UNL A   1      44.950  26.805  27.635  1.00  0.00     0.167 HD
ATOM     47  C   UNL A   1      43.327  23.010  26.831  1.00  0.00     0.037 A 
ATOM     48  C   UNL A   1      47.106  28.378  28.282  1.00  0.00     0.037 A 
ATOM     49  C   UNL A   1      43.373  22.807  28.259  1.00  0.00     0.049 A 
ATOM     50  C   UNL A   1      47.159  26.992  28.797  1.00  0.00     0.074 A 
ATOM     51  C   UNL A   1      42.424  22.762  29.263  1.00  0.00     0.029 A 
ATOM     52  N   UNL A   1      44.574  22.996  28.898  1.00  0.00    -0.354 N 
ATOM     53  N   UNL A   1      46.688  26.621  29.955  1.00  0.00    -0.248 NA
ATOM     54  C   UNL A   1      47.450  25.916  27.866  1.00  0.00     0.031 C 
ATOM     55  C   UNL A   1      43.037  23.391  30.390  1.00  0.00     0.029 A 
ATOM     56  C   UNL A   1      44.330  23.759  30.014  1.00  0.00     0.049 A 
ATOM     57  H   UNL A   1      45.448  22.646  28.610  1.00  0.00     0.167 HD
ATOM     58  C   UNL A   1      46.246  25.323  29.757  1.00  0.00     0.074 A 
ATOM     59  C   UNL A   1      46.868  24.903  28.508  1.00  0.00     0.031 C 
ATOM     60  C   UNL A   1      45.211  24.809  30.483  1.00  0.00     0.037 A 
BRANCH  47  61
ATOM     61  C   UNL A   1      43.996  22.075  25.866  1.00  0.00     0.064 A 
ATOM     62  C   UNL A   1      43.446  20.800  25.635  1.00  0.00     0.173 A 
ATOM     63  C   UNL A   1      45.289  22.291  25.348  1.00  0.00     0.173 A 
ATOM     64  F   UNL A   1      42.236  20.478  26.118  1.00  0.00    -0.203 F 
ATOM     65  C   UNL A   1      44.156  19.801  24.962  1.00  0.00     0.198 A 
ATOM     66  C   UNL A   1      45.973  21.310  24.630  1.00  0.00     0.198 A 
ATOM     67  F   UNL A   1      45.971  23.415  25.604  1.00  0.00    -0.203 F 
ATOM     68  F   UNL A   1      43.633  18.573  24.851  1.00  0.00    -0.200 F 
ATOM     69  C   UNL A   1      45.418  20.059  24.458  1.00  0.00     0.200 A 
ATOM     70  F   UNL A   1      47.204  21.568  24.167  1.00  0.00    -0.200 F 
ATOM     71  F   UNL A   1      46.115  19.092  23.848  1.00  0.00    -0.200 F 
ENDBRANCH  47  61
BRANCH  48  72
ATOM     72  C   UNL A   1      48.306  29.142  27.888  1.00  0.00     0.064 A 
ATOM     73  C   UNL A   1      49.025  29.883  28.839  1.00  0.00     0.173 A 
ATOM     74  C   UNL A   1      48.943  28.903  26.655  1.00  0.00     0.173 A 
ATOM     75  F   UNL A   1      48.490  30.135  30.042  1.00  0.00    -0.203 F 
ATOM     76  C   UNL A   1      50.335  30.300  28.597  1.00  0.00     0.198 A 
ATOM     77  C   UNL A   1      50.249  29.326  26.414  1.00  0.00     0.198 A 
ATOM     78  F   UNL A   1      48.349  28.165  25.705  1.00  0.00    -0.203 F 
ATOM     79  F   UNL A   1      51.022  30.927  29.561  1.00  0.00    -0.200 F 
ATOM     80  C   UNL A   1      50.953  30.004  27.393  1.00  0.00     0.200 A 
ATOM     81  F   UNL A   1      50.849  29.009  25.258  1.00  0.00    -0.200 F 
ATOM     82  F   UNL A   1      52.238  30.329  27.196  1.00  0.00    -0.200 F 
ENDBRANCH  48  72
BRANCH  60  83
ATOM     83  C   UNL A   1      44.797  25.551  31.726  1.00  0.00     0.064 A 
ATOM     84  C   UNL A   1      43.876  26.612  31.740  1.00  0.00     0.173 A 
ATOM     85  C   UNL A   1      45.264  25.093  32.967  1.00  0.00     0.173 A 
ATOM     86  F   UNL A   1      43.309  27.046  30.609  1.00  0.00    -0.203 F 
ATOM     87  C   UNL A   1      43.477  27.213  32.934  1.00  0.00     0.198 A 
ATOM     88  C   UNL A   1      44.839  25.672  34.161  1.00  0.00     0.198 A 
ATOM     89  F   UNL A   1      46.106  24.050  33.024  1.00  0.00    -0.203 F 
ATOM     90  F   UNL A   1      42.605  28.233  32.916  1.00  0.00    -0.200 F 
ATOM     91  C   UNL A   1      43.955  26.739  34.143  1.00  0.00     0.200 A 
ATOM     92  F   UNL A   1      45.268  25.179  35.331  1.00  0.00    -0.200 F 
ATOM     93  F   UNL A   1      43.543  27.291  35.294  1.00  0.00    -0.200 F 
ENDBRANCH  60  83
ENDBRANCH  34  35
ENDBRANCH  27  29
ENDBRANCH  26  27
ENDBRANCH  25  26
ENDBRANCH   1  25
TORSDOF 15
ENDMDL
