MODEL 1
REMARK VINA RESULT:     -12.6      0.000      0.000
REMARK SMILES O=C(CC1(NC(=O)c2ccccc2[N+](=O)[O-])CCC1)OCCOC(=O)c1ccc(-c2c3nc(c(-c4c(F)c(F)c(F)c(F)c4F)c4ccc([nH]4)c(-c4c(F)c(F)c(F)c(F)c4F)c4nc(c(-c5c(F)c(F)c(F)c(F)c5F)c5ccc2[nH]5)C=C4)C=C3)cc1
REMARK SMILES IDX 21 1 20 2 2 3 1 4 3 5 4 6 17 7 19 8 18 9 5 10 6 11 7 13 8 14
REMARK SMILES IDX 9 15 13 16 10 17 12 18 11 19 14 20 15 21 16 22 22 23 23 24
REMARK SMILES IDX 24 25 25 26 26 27 27 28 88 29 28 30 87 31 29 32 30 33 31 34
REMARK SMILES IDX 81 35 32 36 86 37 80 38 82 39 33 40 85 41 79 42 78 43 34 45
REMARK SMILES IDX 66 46 46 47 65 48 47 49 50 50 64 51 83 52 48 53 49 54 63 56
REMARK SMILES IDX 84 57 51 58 35 59 36 60 44 61 37 62 38 63 42 64 45 65 39 66
REMARK SMILES IDX 40 67 43 68 41 69 67 70 68 71 76 72 69 73 70 74 74 75 77 76
REMARK SMILES IDX 71 77 72 78 75 79 73 80 52 81 53 82 61 83 54 84 55 85 59 86
REMARK SMILES IDX 62 87 56 88 57 89 60 90 58 91
REMARK H PARENT 5 12 82 44 50 55
REMARK Flexibility Score: inf
ROOT
ATOM      1  C   UNL A   1      31.630  28.033  27.385  1.00  0.00     0.274 C 
ENDROOT
BRANCH   1   2
ATOM      2  O   UNL A   1      31.125  26.787  26.841  1.00  0.00    -0.462 OA
BRANCH   2   3
ATOM      3  C   UNL A   1      31.823  25.646  26.660  1.00  0.00     0.308 C 
ATOM      4  O   UNL A   1      31.408  24.586  27.123  1.00  0.00    -0.252 OA
BRANCH   3   5
ATOM      5  C   UNL A   1      33.160  25.703  25.985  1.00  0.00     0.151 C 
BRANCH   5   6
ATOM      6  C   UNL A   1      33.628  24.474  25.207  1.00  0.00     0.051 C 
ATOM      7  C   UNL A   1      35.005  24.506  24.460  1.00  0.00     0.029 C 
ATOM      8  C   UNL A   1      34.304  23.450  26.204  1.00  0.00     0.029 C 
ATOM      9  C   UNL A   1      35.679  23.825  25.657  1.00  0.00     0.005 C 
BRANCH   6  10
ATOM     10  N   UNL A   1      32.607  23.714  24.407  1.00  0.00    -0.346 N 
ATOM     11  C   UNL A   1      31.590  23.957  23.516  1.00  0.00     0.258 C 
ATOM     12  H   UNL A   1      32.693  22.747  24.574  1.00  0.00     0.164 HD
ATOM     13  O   UNL A   1      30.980  22.992  23.052  1.00  0.00    -0.269 OA
BRANCH  11  14
ATOM     14  C   UNL A   1      31.070  25.292  23.206  1.00  0.00     0.117 A 
ATOM     15  C   UNL A   1      29.845  25.602  23.832  1.00  0.00     0.021 A 
ATOM     16  C   UNL A   1      31.645  26.232  22.351  1.00  0.00     0.282 A 
ATOM     17  C   UNL A   1      29.304  26.883  23.762  1.00  0.00     0.001 A 
ATOM     18  C   UNL A   1      31.105  27.532  22.292  1.00  0.00     0.086 A 
ATOM     19  C   UNL A   1      29.957  27.861  23.022  1.00  0.00     0.007 A 
BRANCH  16  20
ATOM     20  N   UNL A   1      32.738  25.886  21.436  1.00  0.00     0.063 N 
ATOM     21  O   UNL A   1      33.895  26.048  21.852  1.00  0.00    -0.258 OA
ATOM     22  O   UNL A   1      32.458  25.509  20.292  1.00  0.00    -0.258 OA
ENDBRANCH  16  20
ENDBRANCH  11  14
ENDBRANCH   6  10
ENDBRANCH   5   6
ENDBRANCH   3   5
ENDBRANCH   2   3
ENDBRANCH   1   2
BRANCH   1  23
ATOM     23  C   UNL A   1      31.723  29.122  26.313  1.00  0.00     0.275 C 
BRANCH  23  24
ATOM     24  O   UNL A   1      33.083  29.605  26.225  1.00  0.00    -0.458 OA
BRANCH  24  25
ATOM     25  C   UNL A   1      33.387  30.696  26.952  1.00  0.00     0.338 C 
ATOM     26  O   UNL A   1      32.622  31.585  27.323  1.00  0.00    -0.246 OA
BRANCH  25  27
ATOM     27  C   UNL A   1      34.783  30.616  27.399  1.00  0.00     0.060 A 
ATOM     28  C   UNL A   1      35.357  29.353  27.528  1.00  0.00     0.016 A 
ATOM     29  C   UNL A   1      35.483  31.741  27.823  1.00  0.00     0.016 A 
ATOM     30  C   UNL A   1      36.607  29.192  28.108  1.00  0.00     0.010 A 
ATOM     31  C   UNL A   1      36.750  31.579  28.403  1.00  0.00     0.010 A 
ATOM     32  C   UNL A   1      37.307  30.296  28.583  1.00  0.00    -0.014 A 
BRANCH  32  33
ATOM     33  C   UNL A   1      38.511  30.094  29.432  1.00  0.00     0.031 A 
ATOM     34  C   UNL A   1      39.636  29.268  28.881  1.00  0.00     0.074 A 
ATOM     35  C   UNL A   1      38.683  30.701  30.621  1.00  0.00     0.049 A 
ATOM     36  N   UNL A   1      40.600  28.650  29.509  1.00  0.00    -0.248 NA
ATOM     37  C   UNL A   1      39.674  29.120  27.417  1.00  0.00     0.031 C 
ATOM     38  C   UNL A   1      37.796  31.704  31.208  1.00  0.00     0.029 A 
ATOM     39  N   UNL A   1      39.687  30.559  31.548  1.00  0.00    -0.354 N 
ATOM     40  C   UNL A   1      41.290  27.949  28.530  1.00  0.00     0.074 A 
ATOM     41  C   UNL A   1      40.674  28.266  27.260  1.00  0.00     0.031 C 
ATOM     42  C   UNL A   1      38.303  32.099  32.387  1.00  0.00     0.029 A 
ATOM     43  C   UNL A   1      39.475  31.284  32.694  1.00  0.00     0.049 A 
ATOM     44  H   UNL A   1      40.480  29.994  31.405  1.00  0.00     0.167 HD
ATOM     45  C   UNL A   1      42.319  27.087  28.699  1.00  0.00     0.037 A 
ATOM     46  C   UNL A   1      40.099  31.232  33.888  1.00  0.00     0.037 A 
ATOM     47  C   UNL A   1      42.964  26.854  29.964  1.00  0.00     0.049 A 
ATOM     48  C   UNL A   1      41.199  30.225  34.092  1.00  0.00     0.074 A 
ATOM     49  C   UNL A   1      43.973  25.963  30.276  1.00  0.00     0.029 A 
ATOM     50  N   UNL A   1      42.675  27.557  31.125  1.00  0.00    -0.354 N 
ATOM     51  N   UNL A   1      41.720  29.384  33.230  1.00  0.00    -0.248 NA
ATOM     52  C   UNL A   1      41.763  30.123  35.444  1.00  0.00     0.031 C 
ATOM     53  C   UNL A   1      44.278  26.110  31.635  1.00  0.00     0.029 A 
ATOM     54  C   UNL A   1      43.486  27.120  32.157  1.00  0.00     0.049 A 
ATOM     55  H   UNL A   1      41.993  28.262  31.203  1.00  0.00     0.167 HD
ATOM     56  C   UNL A   1      42.672  28.658  33.932  1.00  0.00     0.074 A 
ATOM     57  C   UNL A   1      42.669  29.167  35.288  1.00  0.00     0.031 C 
ATOM     58  C   UNL A   1      43.470  27.652  33.496  1.00  0.00     0.037 A 
BRANCH  45  59
ATOM     59  C   UNL A   1      42.727  26.264  27.515  1.00  0.00     0.064 A 
ATOM     60  C   UNL A   1      42.127  25.038  27.200  1.00  0.00     0.173 A 
ATOM     61  C   UNL A   1      43.768  26.717  26.688  1.00  0.00     0.173 A 
ATOM     62  F   UNL A   1      41.149  24.547  27.975  1.00  0.00    -0.203 F 
ATOM     63  C   UNL A   1      42.572  24.283  26.116  1.00  0.00     0.198 A 
ATOM     64  C   UNL A   1      44.192  25.975  25.591  1.00  0.00     0.198 A 
ATOM     65  F   UNL A   1      44.381  27.882  26.950  1.00  0.00    -0.203 F 
ATOM     66  F   UNL A   1      42.024  23.085  25.866  1.00  0.00    -0.200 F 
ATOM     67  C   UNL A   1      43.600  24.753  25.311  1.00  0.00     0.200 A 
ATOM     68  F   UNL A   1      45.182  26.434  24.814  1.00  0.00    -0.200 F 
ATOM     69  F   UNL A   1      44.031  24.022  24.274  1.00  0.00    -0.200 F 
ENDBRANCH  45  59
BRANCH  46  70
ATOM     70  C   UNL A   1      39.616  32.083  35.007  1.00  0.00     0.064 A 
ATOM     71  C   UNL A   1      40.022  33.417  35.134  1.00  0.00     0.173 A 
ATOM     72  C   UNL A   1      38.716  31.581  35.963  1.00  0.00     0.173 A 
ATOM     73  F   UNL A   1      40.907  33.932  34.270  1.00  0.00    -0.203 F 
ATOM     74  C   UNL A   1      39.540  34.219  36.169  1.00  0.00     0.198 A 
ATOM     75  C   UNL A   1      38.212  32.391  36.975  1.00  0.00     0.198 A 
ATOM     76  F   UNL A   1      38.306  30.306  35.894  1.00  0.00    -0.203 F 
ATOM     77  F   UNL A   1      39.967  35.484  36.287  1.00  0.00    -0.200 F 
ATOM     78  C   UNL A   1      38.626  33.709  37.080  1.00  0.00     0.200 A 
ATOM     79  F   UNL A   1      37.319  31.897  37.844  1.00  0.00    -0.200 F 
ATOM     80  F   UNL A   1      38.149  34.487  38.061  1.00  0.00    -0.200 F 
ENDBRANCH  46  70
BRANCH  58  81
ATOM     81  C   UNL A   1      44.428  27.057  34.482  1.00  0.00     0.064 A 
ATOM     82  C   UNL A   1      44.100  25.914  35.225  1.00  0.00     0.173 A 
ATOM     83  C   UNL A   1      45.711  27.601  34.636  1.00  0.00     0.173 A 
ATOM     84  F   UNL A   1      42.880  25.369  35.119  1.00  0.00    -0.203 F 
ATOM     85  C   UNL A   1      45.022  25.343  36.096  1.00  0.00     0.198 A 
ATOM     86  C   UNL A   1      46.638  27.015  35.494  1.00  0.00     0.198 A 
ATOM     87  F   UNL A   1      46.071  28.691  33.941  1.00  0.00    -0.203 F 
ATOM     88  F   UNL A   1      44.681  24.266  36.818  1.00  0.00    -0.200 F 
ATOM     89  C   UNL A   1      46.292  25.888  36.224  1.00  0.00     0.200 A 
ATOM     90  F   UNL A   1      47.866  27.537  35.609  1.00  0.00    -0.200 F 
ATOM     91  F   UNL A   1      47.181  25.330  37.056  1.00  0.00    -0.200 F 
ENDBRANCH  58  81
ENDBRANCH  32  33
ENDBRANCH  25  27
ENDBRANCH  24  25
ENDBRANCH  23  24
ENDBRANCH   1  23
TORSDOF 15
ENDMDL
MODEL 2
REMARK VINA RESULT:     -12.3      1.069      2.727
REMARK SMILES O=C(CC1(NC(=O)c2ccccc2[N+](=O)[O-])CCC1)OCCOC(=O)c1ccc(-c2c3nc(c(-c4c(F)c(F)c(F)c(F)c4F)c4ccc([nH]4)c(-c4c(F)c(F)c(F)c(F)c4F)c4nc(c(-c5c(F)c(F)c(F)c(F)c5F)c5ccc2[nH]5)C=C4)C=C3)cc1
REMARK SMILES IDX 21 1 20 2 2 3 1 4 3 5 4 6 17 7 19 8 18 9 5 10 6 11 7 13 8 14
REMARK SMILES IDX 9 15 13 16 10 17 12 18 11 19 14 20 15 21 16 22 22 23 23 24
REMARK SMILES IDX 24 25 25 26 26 27 27 28 88 29 28 30 87 31 29 32 30 33 31 34
REMARK SMILES IDX 81 35 32 36 86 37 80 38 82 39 33 40 85 41 79 42 78 43 34 45
REMARK SMILES IDX 66 46 46 47 65 48 47 49 50 50 64 51 83 52 48 53 49 54 63 56
REMARK SMILES IDX 84 57 51 58 35 59 36 60 44 61 37 62 38 63 42 64 45 65 39 66
REMARK SMILES IDX 40 67 43 68 41 69 67 70 68 71 76 72 69 73 70 74 74 75 77 76
REMARK SMILES IDX 71 77 72 78 75 79 73 80 52 81 53 82 61 83 54 84 55 85 59 86
REMARK SMILES IDX 62 87 56 88 57 89 60 90 58 91
REMARK H PARENT 5 12 82 44 50 55
REMARK Flexibility Score: inf
ROOT
ATOM      1  C   UNL A   1      31.810  28.000  27.534  1.00  0.00     0.274 C 
ENDROOT
BRANCH   1   2
ATOM      2  O   UNL A   1      31.080  26.941  26.863  1.00  0.00    -0.462 OA
BRANCH   2   3
ATOM      3  C   UNL A   1      31.593  25.788  26.384  1.00  0.00     0.308 C 
ATOM      4  O   UNL A   1      31.470  24.744  27.021  1.00  0.00    -0.252 OA
BRANCH   3   5
ATOM      5  C   UNL A   1      32.409  25.814  25.127  1.00  0.00     0.151 C 
BRANCH   5   6
ATOM      6  C   UNL A   1      31.679  25.676  23.792  1.00  0.00     0.051 C 
ATOM      7  C   UNL A   1      30.160  25.290  23.773  1.00  0.00     0.029 C 
ATOM      8  C   UNL A   1      31.221  27.105  23.296  1.00  0.00     0.029 C 
ATOM      9  C   UNL A   1      29.777  26.770  23.664  1.00  0.00     0.005 C 
BRANCH   6  10
ATOM     10  N   UNL A   1      32.407  25.018  22.653  1.00  0.00    -0.346 N 
ATOM     11  C   UNL A   1      33.020  23.823  22.358  1.00  0.00     0.258 C 
ATOM     12  H   UNL A   1      32.465  25.630  21.885  1.00  0.00     0.164 HD
ATOM     13  O   UNL A   1      33.501  23.678  21.234  1.00  0.00    -0.269 OA
BRANCH  11  14
ATOM     14  C   UNL A   1      33.287  22.771  23.345  1.00  0.00     0.117 A 
ATOM     15  C   UNL A   1      32.147  22.050  23.751  1.00  0.00     0.021 A 
ATOM     16  C   UNL A   1      34.520  22.460  23.918  1.00  0.00     0.282 A 
ATOM     17  C   UNL A   1      32.258  20.922  24.561  1.00  0.00     0.001 A 
ATOM     18  C   UNL A   1      34.635  21.311  24.725  1.00  0.00     0.086 A 
ATOM     19  C   UNL A   1      33.511  20.529  25.016  1.00  0.00     0.007 A 
BRANCH  16  20
ATOM     20  N   UNL A   1      35.684  23.342  23.786  1.00  0.00     0.063 N 
ATOM     21  O   UNL A   1      36.440  23.140  22.824  1.00  0.00    -0.258 OA
ATOM     22  O   UNL A   1      35.884  24.196  24.658  1.00  0.00    -0.258 OA
ENDBRANCH  16  20
ENDBRANCH  11  14
ENDBRANCH   6  10
ENDBRANCH   5   6
ENDBRANCH   3   5
ENDBRANCH   2   3
ENDBRANCH   1   2
BRANCH   1  23
ATOM     23  C   UNL A   1      31.697  29.329  26.781  1.00  0.00     0.275 C 
BRANCH  23  24
ATOM     24  O   UNL A   1      33.018  29.816  26.451  1.00  0.00    -0.458 OA
BRANCH  24  25
ATOM     25  C   UNL A   1      33.424  30.937  27.077  1.00  0.00     0.338 C 
ATOM     26  O   UNL A   1      32.743  31.916  27.377  1.00  0.00    -0.246 OA
BRANCH  25  27
ATOM     27  C   UNL A   1      34.817  30.779  27.512  1.00  0.00     0.060 A 
ATOM     28  C   UNL A   1      35.276  29.491  27.778  1.00  0.00     0.016 A 
ATOM     29  C   UNL A   1      35.626  31.875  27.795  1.00  0.00     0.016 A 
ATOM     30  C   UNL A   1      36.520  29.281  28.358  1.00  0.00     0.010 A 
ATOM     31  C   UNL A   1      36.886  31.663  28.374  1.00  0.00     0.010 A 
ATOM     32  C   UNL A   1      37.328  30.363  28.694  1.00  0.00    -0.014 A 
BRANCH  32  33
ATOM     33  C   UNL A   1      38.528  30.147  29.545  1.00  0.00     0.031 A 
ATOM     34  C   UNL A   1      39.655  29.328  28.988  1.00  0.00     0.074 A 
ATOM     35  C   UNL A   1      38.695  30.737  30.743  1.00  0.00     0.049 A 
ATOM     36  N   UNL A   1      40.616  28.700  29.610  1.00  0.00    -0.248 NA
ATOM     37  C   UNL A   1      39.700  29.202  27.521  1.00  0.00     0.031 C 
ATOM     38  C   UNL A   1      37.806  31.731  31.341  1.00  0.00     0.029 A 
ATOM     39  N   UNL A   1      39.695  30.581  31.673  1.00  0.00    -0.354 N 
ATOM     40  C   UNL A   1      41.310  28.013  28.625  1.00  0.00     0.074 A 
ATOM     41  C   UNL A   1      40.700  28.349  27.356  1.00  0.00     0.031 C 
ATOM     42  C   UNL A   1      38.308  32.109  32.528  1.00  0.00     0.029 A 
ATOM     43  C   UNL A   1      39.478  31.289  32.828  1.00  0.00     0.049 A 
ATOM     44  H   UNL A   1      40.488  30.017  31.525  1.00  0.00     0.167 HD
ATOM     45  C   UNL A   1      42.338  27.148  28.786  1.00  0.00     0.037 A 
ATOM     46  C   UNL A   1      40.096  31.219  34.024  1.00  0.00     0.037 A 
ATOM     47  C   UNL A   1      42.976  26.896  30.050  1.00  0.00     0.049 A 
ATOM     48  C   UNL A   1      41.194  30.208  34.218  1.00  0.00     0.074 A 
ATOM     49  C   UNL A   1      43.984  26.000  30.354  1.00  0.00     0.029 A 
ATOM     50  N   UNL A   1      42.682  27.582  31.220  1.00  0.00    -0.354 N 
ATOM     51  N   UNL A   1      41.719  29.379  33.347  1.00  0.00    -0.248 NA
ATOM     52  C   UNL A   1      41.752  30.085  35.572  1.00  0.00     0.031 C 
ATOM     53  C   UNL A   1      44.282  26.126  31.717  1.00  0.00     0.029 A 
ATOM     54  C   UNL A   1      43.489  27.130  32.249  1.00  0.00     0.049 A 
ATOM     55  H   UNL A   1      42.001  28.287  31.305  1.00  0.00     0.167 HD
ATOM     56  C   UNL A   1      42.667  28.642  34.043  1.00  0.00     0.074 A 
ATOM     57  C   UNL A   1      42.659  29.131  35.406  1.00  0.00     0.031 C 
ATOM     58  C   UNL A   1      43.466  27.642  33.596  1.00  0.00     0.037 A 
BRANCH  45  59
ATOM     59  C   UNL A   1      42.750  26.342  27.592  1.00  0.00     0.064 A 
ATOM     60  C   UNL A   1      42.174  25.105  27.275  1.00  0.00     0.173 A 
ATOM     61  C   UNL A   1      43.772  26.824  26.756  1.00  0.00     0.173 A 
ATOM     62  F   UNL A   1      41.216  24.588  28.058  1.00  0.00    -0.203 F 
ATOM     63  C   UNL A   1      42.624  24.367  26.181  1.00  0.00     0.198 A 
ATOM     64  C   UNL A   1      44.199  26.098  25.650  1.00  0.00     0.198 A 
ATOM     65  F   UNL A   1      44.361  28.000  27.020  1.00  0.00    -0.203 F 
ATOM     66  F   UNL A   1      42.100  23.159  25.929  1.00  0.00    -0.200 F 
ATOM     67  C   UNL A   1      43.632  24.866  25.368  1.00  0.00     0.200 A 
ATOM     68  F   UNL A   1      45.170  26.585  24.865  1.00  0.00    -0.200 F 
ATOM     69  F   UNL A   1      44.067  24.151  24.321  1.00  0.00    -0.200 F 
ENDBRANCH  45  59
BRANCH  46  70
ATOM     70  C   UNL A   1      39.609  32.054  35.154  1.00  0.00     0.064 A 
ATOM     71  C   UNL A   1      38.653  31.570  36.055  1.00  0.00     0.173 A 
ATOM     72  C   UNL A   1      40.110  33.349  35.367  1.00  0.00     0.173 A 
ATOM     73  F   UNL A   1      38.117  30.355  35.875  1.00  0.00    -0.203 F 
ATOM     74  C   UNL A   1      38.223  32.346  37.132  1.00  0.00     0.198 A 
ATOM     75  C   UNL A   1      39.704  34.110  36.459  1.00  0.00     0.198 A 
ATOM     76  F   UNL A   1      41.017  33.864  34.525  1.00  0.00    -0.203 F 
ATOM     77  F   UNL A   1      37.285  31.873  37.964  1.00  0.00    -0.200 F 
ATOM     78  C   UNL A   1      38.758  33.609  37.340  1.00  0.00     0.200 A 
ATOM     79  F   UNL A   1      40.235  35.323  36.662  1.00  0.00    -0.200 F 
ATOM     80  F   UNL A   1      38.359  34.346  38.385  1.00  0.00    -0.200 F 
ENDBRANCH  46  70
BRANCH  58  81
ATOM     81  C   UNL A   1      44.420  27.032  34.578  1.00  0.00     0.064 A 
ATOM     82  C   UNL A   1      45.673  27.604  34.835  1.00  0.00     0.173 A 
ATOM     83  C   UNL A   1      44.045  25.899  35.315  1.00  0.00     0.173 A 
ATOM     84  F   UNL A   1      46.077  28.680  34.144  1.00  0.00    -0.203 F 
ATOM     85  C   UNL A   1      46.523  27.056  35.790  1.00  0.00     0.198 A 
ATOM     86  C   UNL A   1      44.890  25.365  36.284  1.00  0.00     0.198 A 
ATOM     87  F   UNL A   1      42.852  25.321  35.107  1.00  0.00    -0.203 F 
ATOM     88  F   UNL A   1      47.729  27.601  36.003  1.00  0.00    -0.200 F 
ATOM     89  C   UNL A   1      46.128  25.943  36.519  1.00  0.00     0.200 A 
ATOM     90  F   UNL A   1      44.503  24.297  36.993  1.00  0.00    -0.200 F 
ATOM     91  F   UNL A   1      46.945  25.423  37.446  1.00  0.00    -0.200 F 
ENDBRANCH  58  81
ENDBRANCH  32  33
ENDBRANCH  25  27
ENDBRANCH  24  25
ENDBRANCH  23  24
ENDBRANCH   1  23
TORSDOF 15
ENDMDL
MODEL 3
REMARK VINA RESULT:     -12.2      1.155      2.795
REMARK SMILES O=C(CC1(NC(=O)c2ccccc2[N+](=O)[O-])CCC1)OCCOC(=O)c1ccc(-c2c3nc(c(-c4c(F)c(F)c(F)c(F)c4F)c4ccc([nH]4)c(-c4c(F)c(F)c(F)c(F)c4F)c4nc(c(-c5c(F)c(F)c(F)c(F)c5F)c5ccc2[nH]5)C=C4)C=C3)cc1
REMARK SMILES IDX 21 1 20 2 2 3 1 4 3 5 4 6 17 7 19 8 18 9 5 10 6 11 7 13 8 14
REMARK SMILES IDX 9 15 13 16 10 17 12 18 11 19 14 20 15 21 16 22 22 23 23 24
REMARK SMILES IDX 24 25 25 26 26 27 27 28 88 29 28 30 87 31 29 32 30 33 31 34
REMARK SMILES IDX 81 35 32 36 86 37 80 38 82 39 33 40 85 41 79 42 78 43 34 45
REMARK SMILES IDX 66 46 46 47 65 48 47 49 50 50 64 51 83 52 48 53 49 54 63 56
REMARK SMILES IDX 84 57 51 58 35 59 36 60 44 61 37 62 38 63 42 64 45 65 39 66
REMARK SMILES IDX 40 67 43 68 41 69 67 70 68 71 76 72 69 73 70 74 74 75 77 76
REMARK SMILES IDX 71 77 72 78 75 79 73 80 52 81 53 82 61 83 54 84 55 85 59 86
REMARK SMILES IDX 62 87 56 88 57 89 60 90 58 91
REMARK H PARENT 5 12 82 44 50 55
REMARK Flexibility Score: inf
ROOT
ATOM      1  C   UNL A   1      31.280  29.917  25.062  1.00  0.00     0.274 C 
ENDROOT
BRANCH   1   2
ATOM      2  O   UNL A   1      31.588  28.816  24.169  1.00  0.00    -0.462 OA
BRANCH   2   3
ATOM      3  C   UNL A   1      32.712  28.662  23.439  1.00  0.00     0.308 C 
ATOM      4  O   UNL A   1      32.860  29.286  22.391  1.00  0.00    -0.252 OA
BRANCH   3   5
ATOM      5  C   UNL A   1      33.726  27.640  23.859  1.00  0.00     0.151 C 
BRANCH   5   6
ATOM      6  C   UNL A   1      33.231  26.243  24.230  1.00  0.00     0.051 C 
ATOM      7  C   UNL A   1      34.134  24.996  23.939  1.00  0.00     0.029 C 
ATOM      8  C   UNL A   1      33.522  25.974  25.760  1.00  0.00     0.029 C 
ATOM      9  C   UNL A   1      34.662  25.033  25.377  1.00  0.00     0.005 C 
BRANCH   6  10
ATOM     10  N   UNL A   1      31.784  25.919  23.985  1.00  0.00    -0.346 N 
ATOM     11  C   UNL A   1      30.938  24.836  24.017  1.00  0.00     0.258 C 
ATOM     12  H   UNL A   1      31.292  26.730  23.720  1.00  0.00     0.164 HD
ATOM     13  O   UNL A   1      29.748  25.020  23.755  1.00  0.00    -0.269 OA
BRANCH  11  14
ATOM     14  C   UNL A   1      31.384  23.449  24.178  1.00  0.00     0.117 A 
ATOM     15  C   UNL A   1      31.762  22.814  22.977  1.00  0.00     0.021 A 
ATOM     16  C   UNL A   1      31.433  22.722  25.367  1.00  0.00     0.282 A 
ATOM     17  C   UNL A   1      32.354  21.554  22.983  1.00  0.00     0.001 A 
ATOM     18  C   UNL A   1      32.046  21.453  25.375  1.00  0.00     0.086 A 
ATOM     19  C   UNL A   1      32.532  20.889  24.190  1.00  0.00     0.007 A 
BRANCH  16  20
ATOM     20  N   UNL A   1      30.783  23.193  26.594  1.00  0.00     0.063 N 
ATOM     21  O   UNL A   1      29.678  22.704  26.872  1.00  0.00    -0.258 OA
ATOM     22  O   UNL A   1      31.333  24.082  27.255  1.00  0.00    -0.258 OA
ENDBRANCH  16  20
ENDBRANCH  11  14
ENDBRANCH   6  10
ENDBRANCH   5   6
ENDBRANCH   3   5
ENDBRANCH   2   3
ENDBRANCH   1   2
BRANCH   1  23
ATOM     23  C   UNL A   1      31.868  29.694  26.459  1.00  0.00     0.275 C 
BRANCH  23  24
ATOM     24  O   UNL A   1      33.275  30.028  26.454  1.00  0.00    -0.458 OA
BRANCH  24  25
ATOM     25  C   UNL A   1      33.653  31.070  27.219  1.00  0.00     0.338 C 
ATOM     26  O   UNL A   1      32.954  32.003  27.613  1.00  0.00    -0.246 OA
BRANCH  25  27
ATOM     27  C   UNL A   1      35.034  30.870  27.673  1.00  0.00     0.060 A 
ATOM     28  C   UNL A   1      35.448  29.570  27.954  1.00  0.00     0.016 A 
ATOM     29  C   UNL A   1      35.874  31.942  27.960  1.00  0.00     0.016 A 
ATOM     30  C   UNL A   1      36.677  29.324  28.551  1.00  0.00     0.010 A 
ATOM     31  C   UNL A   1      37.119  31.693  28.556  1.00  0.00     0.010 A 
ATOM     32  C   UNL A   1      37.515  30.382  28.890  1.00  0.00    -0.014 A 
BRANCH  32  33
ATOM     33  C   UNL A   1      38.697  30.134  29.758  1.00  0.00     0.031 A 
ATOM     34  C   UNL A   1      39.827  29.318  29.202  1.00  0.00     0.074 A 
ATOM     35  C   UNL A   1      38.846  30.691  30.974  1.00  0.00     0.049 A 
ATOM     36  N   UNL A   1      40.770  28.666  29.827  1.00  0.00    -0.248 NA
ATOM     37  C   UNL A   1      39.898  29.228  27.734  1.00  0.00     0.031 C 
ATOM     38  C   UNL A   1      37.955  31.678  31.580  1.00  0.00     0.029 A 
ATOM     39  N   UNL A   1      39.826  30.502  31.918  1.00  0.00    -0.354 N 
ATOM     40  C   UNL A   1      41.477  27.997  28.838  1.00  0.00     0.074 A 
ATOM     41  C   UNL A   1      40.894  28.371  27.567  1.00  0.00     0.031 C 
ATOM     42  C   UNL A   1      38.437  32.022  32.785  1.00  0.00     0.029 A 
ATOM     43  C   UNL A   1      39.593  31.183  33.087  1.00  0.00     0.049 A 
ATOM     44  H   UNL A   1      40.617  29.935  31.772  1.00  0.00     0.167 HD
ATOM     45  C   UNL A   1      42.493  27.118  28.996  1.00  0.00     0.037 A 
ATOM     46  C   UNL A   1      40.188  31.077  34.292  1.00  0.00     0.037 A 
ATOM     47  C   UNL A   1      43.105  26.829  30.265  1.00  0.00     0.049 A 
ATOM     48  C   UNL A   1      41.273  30.051  34.482  1.00  0.00     0.074 A 
ATOM     49  C   UNL A   1      44.099  25.916  30.565  1.00  0.00     0.029 A 
ATOM     50  N   UNL A   1      42.795  27.488  31.446  1.00  0.00    -0.354 N 
ATOM     51  N   UNL A   1      41.807  29.240  33.599  1.00  0.00    -0.248 NA
ATOM     52  C   UNL A   1      41.804  29.890  35.842  1.00  0.00     0.031 C 
ATOM     53  C   UNL A   1      44.372  26.005  31.936  1.00  0.00     0.029 A 
ATOM     54  C   UNL A   1      43.577  27.002  32.479  1.00  0.00     0.049 A 
ATOM     55  H   UNL A   1      42.118  28.197  31.537  1.00  0.00     0.167 HD
ATOM     56  C   UNL A   1      42.735  28.477  34.294  1.00  0.00     0.074 A 
ATOM     57  C   UNL A   1      42.705  28.932  35.670  1.00  0.00     0.031 C 
ATOM     58  C   UNL A   1      43.534  27.481  33.837  1.00  0.00     0.037 A 
BRANCH  45  59
ATOM     59  C   UNL A   1      42.922  26.339  27.790  1.00  0.00     0.064 A 
ATOM     60  C   UNL A   1      43.952  26.762  26.941  1.00  0.00     0.173 A 
ATOM     61  C   UNL A   1      42.257  25.144  27.472  1.00  0.00     0.173 A 
ATOM     62  F   UNL A   1      44.599  27.912  27.184  1.00  0.00    -0.203 F 
ATOM     63  C   UNL A   1      44.284  26.030  25.801  1.00  0.00     0.198 A 
ATOM     64  C   UNL A   1      42.608  24.401  26.350  1.00  0.00     0.198 A 
ATOM     65  F   UNL A   1      41.257  24.699  28.248  1.00  0.00    -0.203 F 
ATOM     66  F   UNL A   1      45.234  26.481  24.970  1.00  0.00    -0.200 F 
ATOM     67  C   UNL A   1      43.616  24.849  25.510  1.00  0.00     0.200 A 
ATOM     68  F   UNL A   1      41.963  23.260  26.073  1.00  0.00    -0.200 F 
ATOM     69  F   UNL A   1      43.932  24.151  24.410  1.00  0.00    -0.200 F 
ENDBRANCH  45  59
BRANCH  46  70
ATOM     70  C   UNL A   1      39.686  31.888  35.433  1.00  0.00     0.064 A 
ATOM     71  C   UNL A   1      40.194  33.166  35.696  1.00  0.00     0.173 A 
ATOM     72  C   UNL A   1      38.667  31.405  36.272  1.00  0.00     0.173 A 
ATOM     73  F   UNL A   1      41.192  33.657  34.948  1.00  0.00    -0.203 F 
ATOM     74  C   UNL A   1      39.697  33.934  36.749  1.00  0.00     0.198 A 
ATOM     75  C   UNL A   1      38.150  32.185  37.302  1.00  0.00     0.198 A 
ATOM     76  F   UNL A   1      38.155  30.182  36.071  1.00  0.00    -0.203 F 
ATOM     77  F   UNL A   1      40.220  35.142  37.000  1.00  0.00    -0.200 F 
ATOM     78  C   UNL A   1      38.667  33.448  37.542  1.00  0.00     0.200 A 
ATOM     79  F   UNL A   1      37.146  31.716  38.055  1.00  0.00    -0.200 F 
ATOM     80  F   UNL A   1      38.176  34.195  38.540  1.00  0.00    -0.200 F 
ENDBRANCH  46  70
BRANCH  58  81
ATOM     81  C   UNL A   1      44.462  26.837  34.822  1.00  0.00     0.064 A 
ATOM     82  C   UNL A   1      45.709  27.398  35.128  1.00  0.00     0.173 A 
ATOM     83  C   UNL A   1      44.069  25.681  35.512  1.00  0.00     0.173 A 
ATOM     84  F   UNL A   1      46.131  28.496  34.483  1.00  0.00    -0.203 F 
ATOM     85  C   UNL A   1      46.536  26.818  36.084  1.00  0.00     0.198 A 
ATOM     86  C   UNL A   1      44.890  25.115  36.483  1.00  0.00     0.198 A 
ATOM     87  F   UNL A   1      42.881  25.113  35.256  1.00  0.00    -0.203 F 
ATOM     88  F   UNL A   1      47.736  27.354  36.344  1.00  0.00    -0.200 F 
ATOM     89  C   UNL A   1      46.122  25.682  36.767  1.00  0.00     0.200 A 
ATOM     90  F   UNL A   1      44.485  24.024  37.147  1.00  0.00    -0.200 F 
ATOM     91  F   UNL A   1      46.916  25.131  37.695  1.00  0.00    -0.200 F 
ENDBRANCH  58  81
ENDBRANCH  32  33
ENDBRANCH  25  27
ENDBRANCH  24  25
ENDBRANCH  23  24
ENDBRANCH   1  23
TORSDOF 15
ENDMDL
