MODEL 1
REMARK VINA RESULT:     -12.9      0.000      0.000
REMARK SMILES O=C(OCCOC(=O)c1ccc(-c2c3nc(c(-c4c(F)c(F)c(F)c(F)c4F)c4ccc([nH]4)c(-c4c(F)c(F)c(F)c(F)c4F)c4nc(c(-c5c(F)c(F)c(F)c(F)c5F)c5ccc2[nH]5)C=C4)C=C3)cc1)C1=Cc2c(ccc(Cl)c2Cl)O[C@H]1C(F)(F)F
REMARK SMILES IDX 5 1 4 2 3 3 2 4 1 5 72 6 73 7 83 8 74 9 82 10 75 11 80 12
REMARK SMILES IDX 76 13 78 14 81 15 77 16 79 17 84 18 85 19 86 20 87 21 6 22
REMARK SMILES IDX 7 23 8 24 9 25 10 26 71 27 11 28 70 29 12 30 13 31 14 32
REMARK SMILES IDX 64 33 15 34 69 35 63 36 65 37 16 38 68 39 62 40 61 41 17 43
REMARK SMILES IDX 49 44 29 45 48 46 30 47 33 48 47 49 66 50 31 51 32 52 46 54
REMARK SMILES IDX 67 55 34 56 18 57 19 58 27 59 20 60 21 61 25 62 28 63 22 64
REMARK SMILES IDX 23 65 26 66 24 67 50 68 51 69 59 70 52 71 53 72 57 73 60 74
REMARK SMILES IDX 54 75 55 76 58 77 56 78 35 79 36 80 44 81 37 82 38 83 42 84
REMARK SMILES IDX 45 85 39 86 40 87 43 88 41 89
REMARK H PARENT 65 42 33 53
REMARK Flexibility Score: inf
ROOT
ATOM      1  C   UNL A   1      31.934  32.573  26.875  1.00  0.00     0.275 C 
ENDROOT
BRANCH   1   2
ATOM      2  C   UNL A   1      31.028  31.583  26.129  1.00  0.00     0.275 C 
BRANCH   2   3
ATOM      3  O   UNL A   1      31.541  30.234  26.072  1.00  0.00    -0.459 OA
BRANCH   3   4
ATOM      4  C   UNL A   1      31.891  29.504  24.995  1.00  0.00     0.338 C 
ATOM      5  O   UNL A   1      33.017  29.648  24.519  1.00  0.00    -0.246 OA
BRANCH   4   6
ATOM      6  C   UNL A   1      30.985  28.524  24.344  1.00  0.00     0.087 C 
ATOM      7  C   UNL A   1      30.759  27.256  24.736  1.00  0.00     0.029 C 
ATOM      8  C   UNL A   1      30.657  28.914  22.909  1.00  0.00     0.316 C 
ATOM      9  C   UNL A   1      31.389  26.307  23.781  1.00  0.00     0.037 A 
ATOM     10  O   UNL A   1      30.746  27.793  21.977  1.00  0.00    -0.475 OA
ATOM     11  C   UNL A   1      31.433  26.696  22.435  1.00  0.00     0.129 A 
ATOM     12  C   UNL A   1      32.005  25.109  24.181  1.00  0.00     0.070 A 
ATOM     13  C   UNL A   1      32.155  25.952  21.512  1.00  0.00     0.049 A 
ATOM     14  C   UNL A   1      32.797  24.407  23.267  1.00  0.00     0.060 A 
ATOM     15  Cl  UNL A   1      31.762  24.484  25.780  1.00  0.00    -0.082 Cl
ATOM     16  C   UNL A   1      32.879  24.837  21.939  1.00  0.00     0.026 A 
ATOM     17  Cl  UNL A   1      33.735  23.027  23.724  1.00  0.00    -0.083 Cl
BRANCH   8  18
ATOM     18  C   UNL A   1      29.273  29.582  22.839  1.00  0.00     0.430 C 
ATOM     19  F   UNL A   1      28.265  28.681  22.871  1.00  0.00    -0.167 F 
ATOM     20  F   UNL A   1      29.078  30.430  23.875  1.00  0.00    -0.167 F 
ATOM     21  F   UNL A   1      29.126  30.298  21.697  1.00  0.00    -0.167 F 
ENDBRANCH   8  18
ENDBRANCH   4   6
ENDBRANCH   3   4
ENDBRANCH   2   3
ENDBRANCH   1   2
BRANCH   1  22
ATOM     22  O   UNL A   1      32.979  31.910  27.588  1.00  0.00    -0.458 OA
BRANCH  22  23
ATOM     23  C   UNL A   1      33.771  32.773  28.262  1.00  0.00     0.338 C 
ATOM     24  O   UNL A   1      33.409  33.765  28.878  1.00  0.00    -0.246 OA
BRANCH  23  25
ATOM     25  C   UNL A   1      35.146  32.250  28.291  1.00  0.00     0.060 A 
ATOM     26  C   UNL A   1      35.284  30.870  28.459  1.00  0.00     0.016 A 
ATOM     27  C   UNL A   1      36.271  33.080  28.207  1.00  0.00     0.016 A 
ATOM     28  C   UNL A   1      36.536  30.338  28.711  1.00  0.00     0.010 A 
ATOM     29  C   UNL A   1      37.537  32.537  28.426  1.00  0.00     0.010 A 
ATOM     30  C   UNL A   1      37.651  31.185  28.780  1.00  0.00    -0.014 A 
BRANCH  30  31
ATOM     31  C   UNL A   1      38.835  30.676  29.507  1.00  0.00     0.031 A 
ATOM     32  C   UNL A   1      38.983  31.048  30.960  1.00  0.00     0.074 A 
ATOM     33  C   UNL A   1      39.644  29.773  28.932  1.00  0.00     0.049 A 
ATOM     34  N   UNL A   1      39.793  30.565  31.866  1.00  0.00    -0.248 NA
ATOM     35  C   UNL A   1      38.090  32.106  31.468  1.00  0.00     0.031 C 
ATOM     36  C   UNL A   1      39.554  29.328  27.542  1.00  0.00     0.029 A 
ATOM     37  N   UNL A   1      40.669  29.035  29.461  1.00  0.00    -0.354 N 
ATOM     38  C   UNL A   1      39.497  31.249  33.039  1.00  0.00     0.074 A 
ATOM     39  C   UNL A   1      38.484  32.226  32.723  1.00  0.00     0.031 C 
ATOM     40  C   UNL A   1      40.467  28.364  27.336  1.00  0.00     0.029 A 
ATOM     41  C   UNL A   1      41.209  28.139  28.574  1.00  0.00     0.049 A 
ATOM     42  H   UNL A   1      40.987  29.137  30.388  1.00  0.00     0.167 HD
ATOM     43  C   UNL A   1      40.005  31.059  34.279  1.00  0.00     0.037 A 
ATOM     44  C   UNL A   1      42.186  27.230  28.759  1.00  0.00     0.037 A 
ATOM     45  C   UNL A   1      41.013  30.081  34.578  1.00  0.00     0.049 A 
ATOM     46  C   UNL A   1      42.776  27.078  30.138  1.00  0.00     0.074 A 
ATOM     47  C   UNL A   1      41.608  29.792  35.791  1.00  0.00     0.029 A 
ATOM     48  N   UNL A   1      41.584  29.235  33.636  1.00  0.00    -0.354 N 
ATOM     49  N   UNL A   1      42.459  27.696  31.252  1.00  0.00    -0.248 NA
ATOM     50  C   UNL A   1      43.848  26.087  30.288  1.00  0.00     0.031 C 
ATOM     51  C   UNL A   1      42.588  28.819  35.571  1.00  0.00     0.029 A 
ATOM     52  C   UNL A   1      42.547  28.443  34.237  1.00  0.00     0.049 A 
ATOM     53  H   UNL A   1      41.340  29.203  32.683  1.00  0.00     0.167 HD
ATOM     54  C   UNL A   1      43.259  27.136  32.242  1.00  0.00     0.074 A 
ATOM     55  C   UNL A   1      44.065  26.122  31.594  1.00  0.00     0.031 C 
ATOM     56  C   UNL A   1      43.322  27.429  33.566  1.00  0.00     0.037 A 
BRANCH  43  57
ATOM     57  C   UNL A   1      39.499  31.951  35.379  1.00  0.00     0.064 A 
ATOM     58  C   UNL A   1      39.996  33.250  35.574  1.00  0.00     0.173 A 
ATOM     59  C   UNL A   1      38.512  31.491  36.264  1.00  0.00     0.173 A 
ATOM     60  F   UNL A   1      40.957  33.734  34.770  1.00  0.00    -0.203 F 
ATOM     61  C   UNL A   1      39.555  34.037  36.635  1.00  0.00     0.198 A 
ATOM     62  C   UNL A   1      38.048  32.294  37.302  1.00  0.00     0.198 A 
ATOM     63  F   UNL A   1      38.002  30.258  36.127  1.00  0.00    -0.203 F 
ATOM     64  F   UNL A   1      40.095  35.246  36.842  1.00  0.00    -0.200 F 
ATOM     65  C   UNL A   1      38.577  33.561  37.494  1.00  0.00     0.200 A 
ATOM     66  F   UNL A   1      37.094  31.836  38.125  1.00  0.00    -0.200 F 
ATOM     67  F   UNL A   1      38.154  34.317  38.516  1.00  0.00    -0.200 F 
ENDBRANCH  43  57
BRANCH  44  68
ATOM     68  C   UNL A   1      42.644  26.382  27.627  1.00  0.00     0.064 A 
ATOM     69  C   UNL A   1      43.672  26.800  26.770  1.00  0.00     0.173 A 
ATOM     70  C   UNL A   1      42.039  25.145  27.359  1.00  0.00     0.173 A 
ATOM     71  F   UNL A   1      44.273  27.983  26.970  1.00  0.00    -0.203 F 
ATOM     72  C   UNL A   1      44.052  26.031  25.670  1.00  0.00     0.198 A 
ATOM     73  C   UNL A   1      42.443  24.361  26.280  1.00  0.00     0.198 A 
ATOM     74  F   UNL A   1      41.054  24.694  28.149  1.00  0.00    -0.203 F 
ATOM     75  F   UNL A   1      44.993  26.484  24.832  1.00  0.00    -0.200 F 
ATOM     76  C   UNL A   1      43.439  24.811  25.429  1.00  0.00     0.200 A 
ATOM     77  F   UNL A   1      41.857  23.176  26.060  1.00  0.00    -0.200 F 
ATOM     78  F   UNL A   1      43.801  24.075  24.369  1.00  0.00    -0.200 F 
ENDBRANCH  44  68
BRANCH  56  79
ATOM     79  C   UNL A   1      44.248  26.599  34.409  1.00  0.00     0.064 A 
ATOM     80  C   UNL A   1      45.563  27.000  34.686  1.00  0.00     0.173 A 
ATOM     81  C   UNL A   1      43.796  25.397  34.974  1.00  0.00     0.173 A 
ATOM     82  F   UNL A   1      46.048  28.137  34.165  1.00  0.00    -0.203 F 
ATOM     83  C   UNL A   1      46.405  26.206  35.461  1.00  0.00     0.198 A 
ATOM     84  C   UNL A   1      44.625  24.627  35.783  1.00  0.00     0.198 A 
ATOM     85  F   UNL A   1      42.542  24.974  34.753  1.00  0.00    -0.203 F 
ATOM     86  F   UNL A   1      47.678  26.575  35.656  1.00  0.00    -0.200 F 
ATOM     87  C   UNL A   1      45.932  25.025  36.015  1.00  0.00     0.200 A 
ATOM     88  F   UNL A   1      44.160  23.499  36.337  1.00  0.00    -0.200 F 
ATOM     89  F   UNL A   1      46.742  24.265  36.765  1.00  0.00    -0.200 F 
ENDBRANCH  56  79
ENDBRANCH  30  31
ENDBRANCH  23  25
ENDBRANCH  22  23
ENDBRANCH   1  22
TORSDOF 12
ENDMDL
MODEL 2
REMARK VINA RESULT:     -12.9      1.003      1.699
REMARK SMILES O=C(OCCOC(=O)c1ccc(-c2c3nc(c(-c4c(F)c(F)c(F)c(F)c4F)c4ccc([nH]4)c(-c4c(F)c(F)c(F)c(F)c4F)c4nc(c(-c5c(F)c(F)c(F)c(F)c5F)c5ccc2[nH]5)C=C4)C=C3)cc1)C1=Cc2c(ccc(Cl)c2Cl)O[C@H]1C(F)(F)F
REMARK SMILES IDX 5 1 4 2 3 3 2 4 1 5 72 6 73 7 83 8 74 9 82 10 75 11 80 12
REMARK SMILES IDX 76 13 78 14 81 15 77 16 79 17 84 18 85 19 86 20 87 21 6 22
REMARK SMILES IDX 7 23 8 24 9 25 10 26 71 27 11 28 70 29 12 30 13 31 14 32
REMARK SMILES IDX 64 33 15 34 69 35 63 36 65 37 16 38 68 39 62 40 61 41 17 43
REMARK SMILES IDX 49 44 29 45 48 46 30 47 33 48 47 49 66 50 31 51 32 52 46 54
REMARK SMILES IDX 67 55 34 56 18 57 19 58 27 59 20 60 21 61 25 62 28 63 22 64
REMARK SMILES IDX 23 65 26 66 24 67 50 68 51 69 59 70 52 71 53 72 57 73 60 74
REMARK SMILES IDX 54 75 55 76 58 77 56 78 35 79 36 80 44 81 37 82 38 83 42 84
REMARK SMILES IDX 45 85 39 86 40 87 43 88 41 89
REMARK H PARENT 65 42 33 53
REMARK Flexibility Score: inf
ROOT
ATOM      1  C   UNL A   1      32.098  30.652  26.584  1.00  0.00     0.275 C 
ENDROOT
BRANCH   1   2
ATOM      2  C   UNL A   1      32.537  29.691  25.469  1.00  0.00     0.275 C 
BRANCH   2   3
ATOM      3  O   UNL A   1      32.508  28.296  25.842  1.00  0.00    -0.459 OA
BRANCH   3   4
ATOM      4  C   UNL A   1      31.454  27.530  26.186  1.00  0.00     0.338 C 
ATOM      5  O   UNL A   1      31.127  27.466  27.371  1.00  0.00    -0.246 OA
BRANCH   4   6
ATOM      6  C   UNL A   1      30.657  26.752  25.204  1.00  0.00     0.087 C 
ATOM      7  C   UNL A   1      30.084  25.551  25.407  1.00  0.00     0.029 C 
ATOM      8  C   UNL A   1      30.911  27.208  23.773  1.00  0.00     0.316 C 
ATOM      9  C   UNL A   1      30.814  24.503  24.647  1.00  0.00     0.037 A 
ATOM     10  O   UNL A   1      31.102  26.098  22.844  1.00  0.00    -0.475 OA
ATOM     11  C   UNL A   1      31.381  24.884  23.422  1.00  0.00     0.129 A 
ATOM     12  C   UNL A   1      31.029  23.204  25.140  1.00  0.00     0.070 A 
ATOM     13  C   UNL A   1      32.223  24.018  22.738  1.00  0.00     0.049 A 
ATOM     14  C   UNL A   1      31.940  22.366  24.490  1.00  0.00     0.060 A 
ATOM     15  Cl  UNL A   1      30.150  22.629  26.520  1.00  0.00    -0.082 Cl
ATOM     16  C   UNL A   1      32.543  22.780  23.299  1.00  0.00     0.026 A 
ATOM     17  Cl  UNL A   1      32.400  20.825  25.130  1.00  0.00    -0.083 Cl
BRANCH   8  18
ATOM     18  C   UNL A   1      29.779  28.136  23.300  1.00  0.00     0.430 C 
ATOM     19  F   UNL A   1      29.866  28.421  21.980  1.00  0.00    -0.167 F 
ATOM     20  F   UNL A   1      28.562  27.581  23.505  1.00  0.00    -0.167 F 
ATOM     21  F   UNL A   1      29.801  29.320  23.960  1.00  0.00    -0.167 F 
ENDBRANCH   8  18
ENDBRANCH   4   6
ENDBRANCH   3   4
ENDBRANCH   2   3
ENDBRANCH   1   2
BRANCH   1  22
ATOM     22  O   UNL A   1      33.005  30.643  27.686  1.00  0.00    -0.458 OA
BRANCH  22  23
ATOM     23  C   UNL A   1      33.681  31.807  27.807  1.00  0.00     0.338 C 
ATOM     24  O   UNL A   1      33.196  32.918  27.967  1.00  0.00    -0.246 OA
BRANCH  23  25
ATOM     25  C   UNL A   1      35.123  31.526  27.888  1.00  0.00     0.060 A 
ATOM     26  C   UNL A   1      35.504  30.188  27.764  1.00  0.00     0.016 A 
ATOM     27  C   UNL A   1      36.075  32.526  28.128  1.00  0.00     0.016 A 
ATOM     28  C   UNL A   1      36.810  29.824  28.044  1.00  0.00     0.010 A 
ATOM     29  C   UNL A   1      37.398  32.163  28.375  1.00  0.00     0.010 A 
ATOM     30  C   UNL A   1      37.736  30.802  28.433  1.00  0.00    -0.014 A 
BRANCH  30  31
ATOM     31  C   UNL A   1      38.932  30.337  29.171  1.00  0.00     0.031 A 
ATOM     32  C   UNL A   1      39.077  30.751  30.612  1.00  0.00     0.074 A 
ATOM     33  C   UNL A   1      39.756  29.434  28.617  1.00  0.00     0.049 A 
ATOM     34  N   UNL A   1      39.899  30.309  31.528  1.00  0.00    -0.248 NA
ATOM     35  C   UNL A   1      38.165  31.805  31.094  1.00  0.00     0.031 C 
ATOM     36  C   UNL A   1      39.671  28.950  27.240  1.00  0.00     0.029 A 
ATOM     37  N   UNL A   1      40.797  28.731  29.163  1.00  0.00    -0.354 N 
ATOM     38  C   UNL A   1      39.592  31.019  32.683  1.00  0.00     0.074 A 
ATOM     39  C   UNL A   1      38.560  31.967  32.344  1.00  0.00     0.031 C 
ATOM     40  C   UNL A   1      40.602  27.998  27.058  1.00  0.00     0.029 A 
ATOM     41  C   UNL A   1      41.352  27.821  28.299  1.00  0.00     0.049 A 
ATOM     42  H   UNL A   1      41.116  28.865  30.085  1.00  0.00     0.167 HD
ATOM     43  C   UNL A   1      40.108  30.872  33.926  1.00  0.00     0.037 A 
ATOM     44  C   UNL A   1      42.346  26.937  28.505  1.00  0.00     0.037 A 
ATOM     45  C   UNL A   1      41.136  29.922  34.248  1.00  0.00     0.049 A 
ATOM     46  C   UNL A   1      42.944  26.834  29.885  1.00  0.00     0.074 A 
ATOM     47  C   UNL A   1      41.740  29.679  35.467  1.00  0.00     0.029 A 
ATOM     48  N   UNL A   1      41.720  29.062  33.328  1.00  0.00    -0.354 N 
ATOM     49  N   UNL A   1      42.618  27.476  30.984  1.00  0.00    -0.248 NA
ATOM     50  C   UNL A   1      44.035  25.868  30.059  1.00  0.00     0.031 C 
ATOM     51  C   UNL A   1      42.738  28.719  35.270  1.00  0.00     0.029 A 
ATOM     52  C   UNL A   1      42.700  28.306  33.946  1.00  0.00     0.049 A 
ATOM     53  H   UNL A   1      41.474  28.999  32.377  1.00  0.00     0.167 HD
ATOM     54  C   UNL A   1      43.431  26.959  31.985  1.00  0.00     0.074 A 
ATOM     55  C   UNL A   1      44.255  25.943  31.363  1.00  0.00     0.031 C 
ATOM     56  C   UNL A   1      43.493  27.290  33.301  1.00  0.00     0.037 A 
BRANCH  43  57
ATOM     57  C   UNL A   1      39.588  31.784  35.003  1.00  0.00     0.064 A 
ATOM     58  C   UNL A   1      40.051  33.102  35.153  1.00  0.00     0.173 A 
ATOM     59  C   UNL A   1      38.622  31.325  35.911  1.00  0.00     0.173 A 
ATOM     60  F   UNL A   1      40.991  33.586  34.325  1.00  0.00    -0.203 F 
ATOM     61  C   UNL A   1      39.598  33.909  36.193  1.00  0.00     0.198 A 
ATOM     62  C   UNL A   1      38.145  32.148  36.929  1.00  0.00     0.198 A 
ATOM     63  F   UNL A   1      38.144  30.076  35.817  1.00  0.00    -0.203 F 
ATOM     64  F   UNL A   1      40.107  35.138  36.358  1.00  0.00    -0.200 F 
ATOM     65  C   UNL A   1      38.641  33.433  37.077  1.00  0.00     0.200 A 
ATOM     66  F   UNL A   1      37.212  31.690  37.775  1.00  0.00    -0.200 F 
ATOM     67  F   UNL A   1      38.207  34.210  38.079  1.00  0.00    -0.200 F 
ENDBRANCH  43  57
BRANCH  44  68
ATOM     68  C   UNL A   1      42.818  26.068  27.395  1.00  0.00     0.064 A 
ATOM     69  C   UNL A   1      42.243  24.812  27.154  1.00  0.00     0.173 A 
ATOM     70  C   UNL A   1      43.879  26.464  26.567  1.00  0.00     0.173 A 
ATOM     71  F   UNL A   1      41.236  24.377  27.926  1.00  0.00    -0.203 F 
ATOM     72  C   UNL A   1      42.733  23.974  26.153  1.00  0.00     0.198 A 
ATOM     73  C   UNL A   1      44.347  25.640  25.546  1.00  0.00     0.198 A 
ATOM     74  F   UNL A   1      44.464  27.657  26.750  1.00  0.00    -0.203 F 
ATOM     75  F   UNL A   1      42.206  22.753  25.987  1.00  0.00    -0.200 F 
ATOM     76  C   UNL A   1      43.783  24.390  25.348  1.00  0.00     0.200 A 
ATOM     77  F   UNL A   1      45.351  26.053  24.761  1.00  0.00    -0.200 F 
ATOM     78  F   UNL A   1      44.257  23.581  24.391  1.00  0.00    -0.200 F 
ENDBRANCH  44  68
BRANCH  56  79
ATOM     79  C   UNL A   1      44.437  26.501  34.163  1.00  0.00     0.064 A 
ATOM     80  C   UNL A   1      45.773  26.886  34.350  1.00  0.00     0.173 A 
ATOM     81  C   UNL A   1      43.983  25.357  34.839  1.00  0.00     0.173 A 
ATOM     82  F   UNL A   1      46.260  27.967  33.721  1.00  0.00    -0.203 F 
ATOM     83  C   UNL A   1      46.630  26.130  35.145  1.00  0.00     0.198 A 
ATOM     84  C   UNL A   1      44.831  24.629  35.667  1.00  0.00     0.198 A 
ATOM     85  F   UNL A   1      42.711  24.953  34.707  1.00  0.00    -0.203 F 
ATOM     86  F   UNL A   1      47.920  26.478  35.254  1.00  0.00    -0.200 F 
ATOM     87  C   UNL A   1      46.157  25.008  35.809  1.00  0.00     0.200 A 
ATOM     88  F   UNL A   1      44.365  23.559  36.326  1.00  0.00    -0.200 F 
ATOM     89  F   UNL A   1      46.983  24.285  36.578  1.00  0.00    -0.200 F 
ENDBRANCH  56  79
ENDBRANCH  30  31
ENDBRANCH  23  25
ENDBRANCH  22  23
ENDBRANCH   1  22
TORSDOF 12
ENDMDL
MODEL 3
REMARK VINA RESULT:     -12.9      1.321      1.706
REMARK SMILES O=C(OCCOC(=O)c1ccc(-c2c3nc(c(-c4c(F)c(F)c(F)c(F)c4F)c4ccc([nH]4)c(-c4c(F)c(F)c(F)c(F)c4F)c4nc(c(-c5c(F)c(F)c(F)c(F)c5F)c5ccc2[nH]5)C=C4)C=C3)cc1)C1=Cc2c(ccc(Cl)c2Cl)O[C@H]1C(F)(F)F
REMARK SMILES IDX 5 1 4 2 3 3 2 4 1 5 72 6 73 7 83 8 74 9 82 10 75 11 80 12
REMARK SMILES IDX 76 13 78 14 81 15 77 16 79 17 84 18 85 19 86 20 87 21 6 22
REMARK SMILES IDX 7 23 8 24 9 25 10 26 71 27 11 28 70 29 12 30 13 31 14 32
REMARK SMILES IDX 64 33 15 34 69 35 63 36 65 37 16 38 68 39 62 40 61 41 17 43
REMARK SMILES IDX 49 44 29 45 48 46 30 47 33 48 47 49 66 50 31 51 32 52 46 54
REMARK SMILES IDX 67 55 34 56 18 57 19 58 27 59 20 60 21 61 25 62 28 63 22 64
REMARK SMILES IDX 23 65 26 66 24 67 50 68 51 69 59 70 52 71 53 72 57 73 60 74
REMARK SMILES IDX 54 75 55 76 58 77 56 78 35 79 36 80 44 81 37 82 38 83 42 84
REMARK SMILES IDX 45 85 39 86 40 87 43 88 41 89
REMARK H PARENT 65 42 33 53
REMARK Flexibility Score: inf
ROOT
ATOM      1  C   UNL A   1      31.942  30.969  26.685  1.00  0.00     0.275 C 
ENDROOT
BRANCH   1   2
ATOM      2  C   UNL A   1      32.053  30.050  25.459  1.00  0.00     0.275 C 
BRANCH   2   3
ATOM      3  O   UNL A   1      33.271  29.276  25.405  1.00  0.00    -0.459 OA
BRANCH   3   4
ATOM      4  C   UNL A   1      33.528  28.144  24.719  1.00  0.00     0.338 C 
ATOM      5  O   UNL A   1      34.203  28.212  23.692  1.00  0.00    -0.246 OA
BRANCH   4   6
ATOM      6  C   UNL A   1      33.038  26.808  25.140  1.00  0.00     0.087 C 
ATOM      7  C   UNL A   1      33.752  25.849  25.759  1.00  0.00     0.029 C 
ATOM      8  C   UNL A   1      31.762  26.411  24.408  1.00  0.00     0.316 C 
ATOM      9  C   UNL A   1      34.016  24.725  24.823  1.00  0.00     0.037 A 
ATOM     10  O   UNL A   1      31.786  25.034  23.921  1.00  0.00    -0.475 OA
ATOM     11  C   UNL A   1      33.027  24.447  23.868  1.00  0.00     0.129 A 
ATOM     12  C   UNL A   1      35.226  24.009  24.801  1.00  0.00     0.070 A 
ATOM     13  C   UNL A   1      33.269  23.534  22.851  1.00  0.00     0.049 A 
ATOM     14  C   UNL A   1      35.496  23.151  23.731  1.00  0.00     0.060 A 
ATOM     15  Cl  UNL A   1      36.360  24.158  26.104  1.00  0.00    -0.082 Cl
ATOM     16  C   UNL A   1      34.522  22.926  22.753  1.00  0.00     0.026 A 
ATOM     17  Cl  UNL A   1      37.029  22.374  23.532  1.00  0.00    -0.083 Cl
BRANCH   8  18
ATOM     18  C   UNL A   1      30.535  26.659  25.301  1.00  0.00     0.430 C 
ATOM     19  F   UNL A   1      30.842  27.369  26.411  1.00  0.00    -0.167 F 
ATOM     20  F   UNL A   1      29.573  27.348  24.645  1.00  0.00    -0.167 F 
ATOM     21  F   UNL A   1      29.984  25.493  25.720  1.00  0.00    -0.167 F 
ENDBRANCH   8  18
ENDBRANCH   4   6
ENDBRANCH   3   4
ENDBRANCH   2   3
ENDBRANCH   1   2
BRANCH   1  22
ATOM     22  O   UNL A   1      33.021  30.775  27.598  1.00  0.00    -0.458 OA
BRANCH  22  23
ATOM     23  C   UNL A   1      33.717  31.912  27.823  1.00  0.00     0.338 C 
ATOM     24  O   UNL A   1      33.250  33.016  28.063  1.00  0.00    -0.246 OA
BRANCH  23  25
ATOM     25  C   UNL A   1      35.151  31.596  27.904  1.00  0.00     0.060 A 
ATOM     26  C   UNL A   1      35.498  30.246  27.817  1.00  0.00     0.016 A 
ATOM     27  C   UNL A   1      36.130  32.577  28.112  1.00  0.00     0.016 A 
ATOM     28  C   UNL A   1      36.795  29.856  28.100  1.00  0.00     0.010 A 
ATOM     29  C   UNL A   1      37.445  32.187  28.362  1.00  0.00     0.010 A 
ATOM     30  C   UNL A   1      37.749  30.820  28.457  1.00  0.00    -0.014 A 
BRANCH  30  31
ATOM     31  C   UNL A   1      38.936  30.345  29.202  1.00  0.00     0.031 A 
ATOM     32  C   UNL A   1      39.075  30.757  30.644  1.00  0.00     0.074 A 
ATOM     33  C   UNL A   1      39.757  29.436  28.652  1.00  0.00     0.049 A 
ATOM     34  N   UNL A   1      39.888  30.307  31.564  1.00  0.00    -0.248 NA
ATOM     35  C   UNL A   1      38.168  31.817  31.121  1.00  0.00     0.031 C 
ATOM     36  C   UNL A   1      39.676  28.954  27.274  1.00  0.00     0.029 A 
ATOM     37  N   UNL A   1      40.789  28.725  29.204  1.00  0.00    -0.354 N 
ATOM     38  C   UNL A   1      39.580  31.019  32.719  1.00  0.00     0.074 A 
ATOM     39  C   UNL A   1      38.557  31.975  32.374  1.00  0.00     0.031 C 
ATOM     40  C   UNL A   1      40.601  27.995  27.097  1.00  0.00     0.029 A 
ATOM     41  C   UNL A   1      41.342  27.812  28.342  1.00  0.00     0.049 A 
ATOM     42  H   UNL A   1      41.103  28.855  30.128  1.00  0.00     0.167 HD
ATOM     43  C   UNL A   1      40.086  30.867  33.965  1.00  0.00     0.037 A 
ATOM     44  C   UNL A   1      42.328  26.920  28.554  1.00  0.00     0.037 A 
ATOM     45  C   UNL A   1      41.105  29.909  34.292  1.00  0.00     0.049 A 
ATOM     46  C   UNL A   1      42.916  26.811  29.937  1.00  0.00     0.074 A 
ATOM     47  C   UNL A   1      41.700  29.660  35.514  1.00  0.00     0.029 A 
ATOM     48  N   UNL A   1      41.689  29.045  33.375  1.00  0.00    -0.354 N 
ATOM     49  N   UNL A   1      42.589  27.454  31.035  1.00  0.00    -0.248 NA
ATOM     50  C   UNL A   1      43.999  25.837  30.117  1.00  0.00     0.031 C 
ATOM     51  C   UNL A   1      42.692  28.692  35.322  1.00  0.00     0.029 A 
ATOM     52  C   UNL A   1      42.659  28.280  33.998  1.00  0.00     0.049 A 
ATOM     53  H   UNL A   1      41.448  28.985  32.422  1.00  0.00     0.167 HD
ATOM     54  C   UNL A   1      43.392  26.930  32.040  1.00  0.00     0.074 A 
ATOM     55  C   UNL A   1      44.211  25.908  31.422  1.00  0.00     0.031 C 
ATOM     56  C   UNL A   1      43.448  27.259  33.356  1.00  0.00     0.037 A 
BRANCH  43  57
ATOM     57  C   UNL A   1      39.567  31.782  35.039  1.00  0.00     0.064 A 
ATOM     58  C   UNL A   1      40.030  33.100  35.184  1.00  0.00     0.173 A 
ATOM     59  C   UNL A   1      38.603  31.325  35.950  1.00  0.00     0.173 A 
ATOM     60  F   UNL A   1      40.968  33.583  34.354  1.00  0.00    -0.203 F 
ATOM     61  C   UNL A   1      39.577  33.910  36.222  1.00  0.00     0.198 A 
ATOM     62  C   UNL A   1      38.126  32.151  36.966  1.00  0.00     0.198 A 
ATOM     63  F   UNL A   1      38.126  30.075  35.860  1.00  0.00    -0.203 F 
ATOM     64  F   UNL A   1      40.085  35.141  36.383  1.00  0.00    -0.200 F 
ATOM     65  C   UNL A   1      38.621  33.437  37.109  1.00  0.00     0.200 A 
ATOM     66  F   UNL A   1      37.194  31.695  37.814  1.00  0.00    -0.200 F 
ATOM     67  F   UNL A   1      38.188  34.216  38.109  1.00  0.00    -0.200 F 
ENDBRANCH  43  57
BRANCH  44  68
ATOM     68  C   UNL A   1      42.800  26.048  27.446  1.00  0.00     0.064 A 
ATOM     69  C   UNL A   1      43.855  26.436  26.608  1.00  0.00     0.173 A 
ATOM     70  C   UNL A   1      42.182  24.816  27.181  1.00  0.00     0.173 A 
ATOM     71  F   UNL A   1      44.470  27.612  26.805  1.00  0.00    -0.203 F 
ATOM     72  C   UNL A   1      44.248  25.644  25.529  1.00  0.00     0.198 A 
ATOM     73  C   UNL A   1      42.598  24.010  26.124  1.00  0.00     0.198 A 
ATOM     74  F   UNL A   1      41.170  24.393  27.954  1.00  0.00    -0.203 F 
ATOM     75  F   UNL A   1      45.217  26.070  24.707  1.00  0.00    -0.200 F 
ATOM     76  C   UNL A   1      43.622  24.431  25.291  1.00  0.00     0.200 A 
ATOM     77  F   UNL A   1      41.999  22.831  25.907  1.00  0.00    -0.200 F 
ATOM     78  F   UNL A   1      43.997  23.674  24.251  1.00  0.00    -0.200 F 
ENDBRANCH  44  68
BRANCH  56  79
ATOM     79  C   UNL A   1      44.381  26.462  34.224  1.00  0.00     0.064 A 
ATOM     80  C   UNL A   1      45.693  26.881  34.487  1.00  0.00     0.173 A 
ATOM     81  C   UNL A   1      43.938  25.274  34.827  1.00  0.00     0.173 A 
ATOM     82  F   UNL A   1      46.169  28.005  33.930  1.00  0.00    -0.203 F 
ATOM     83  C   UNL A   1      46.541  26.118  35.285  1.00  0.00     0.198 A 
ATOM     84  C   UNL A   1      44.773  24.536  35.658  1.00  0.00     0.198 A 
ATOM     85  F   UNL A   1      42.687  24.836  34.621  1.00  0.00    -0.203 F 
ATOM     86  F   UNL A   1      47.812  26.502  35.466  1.00  0.00    -0.200 F 
ATOM     87  C   UNL A   1      46.078  24.951  35.876  1.00  0.00     0.200 A 
ATOM     88  F   UNL A   1      44.317  23.423  36.247  1.00  0.00    -0.200 F 
ATOM     89  F   UNL A   1      46.894  24.221  36.648  1.00  0.00    -0.200 F 
ENDBRANCH  56  79
ENDBRANCH  30  31
ENDBRANCH  23  25
ENDBRANCH  22  23
ENDBRANCH   1  22
TORSDOF 12
ENDMDL
