MODEL 1
REMARK VINA RESULT:     -11.9      0.000      0.000
REMARK SMILES O=C(OCCOC(=O)[C@@H]1CN(c2nc(-c3ccccc3)no2)CC[NH2+]1)c1ccc(-c2c3nc(c(-c4c(F)c(F)c(F)c(F)c4F)c4ccc([nH]4)c(-c4c(F)c(F)c(F)c(F)c4F)c4nc(c(-c5c(F)c(F)c(F)c(F)c5F)c5ccc2[nH]5)C=C4)C=C3)cc1
REMARK SMILES IDX 4 1 3 2 2 3 1 4 26 5 27 6 88 7 28 8 87 9 29 10 30 11 31 12
REMARK SMILES IDX 81 13 32 14 86 15 80 16 82 17 33 18 85 19 79 20 78 21 34 23
REMARK SMILES IDX 66 24 46 25 65 26 47 27 50 28 64 29 83 30 48 31 49 32 63 34
REMARK SMILES IDX 84 35 51 36 35 37 36 38 44 39 37 40 38 41 42 42 45 43 39 44
REMARK SMILES IDX 40 45 43 46 41 47 67 48 68 49 76 50 69 51 70 52 74 53 77 54
REMARK SMILES IDX 71 55 72 56 75 57 73 58 52 59 53 60 61 61 54 62 55 63 59 64
REMARK SMILES IDX 62 65 56 66 57 67 60 68 58 69 5 70 6 71 7 72 8 73 9 74 10 75
REMARK SMILES IDX 25 76 11 77 24 78 23 81 12 82 13 83 22 84 14 85 21 86 15 87
REMARK SMILES IDX 16 88 20 89 17 90 19 91 18 92
REMARK H PARENT 82 22 50 33 25 79 25 80
REMARK Flexibility Score: inf
ROOT
ATOM      1  C   UNL A   1      40.667  21.297  26.644  1.00  0.00     0.275 C 
ENDROOT
BRANCH   1   2
ATOM      2  O   UNL A   1      39.298  21.641  26.360  1.00  0.00    -0.458 OA
BRANCH   2   3
ATOM      3  C   UNL A   1      38.732  22.850  26.134  1.00  0.00     0.338 C 
ATOM      4  O   UNL A   1      37.787  22.916  25.349  1.00  0.00    -0.246 OA
BRANCH   3   5
ATOM      5  C   UNL A   1      39.271  24.141  26.671  1.00  0.00     0.060 A 
ATOM      6  C   UNL A   1      40.057  25.061  25.973  1.00  0.00     0.016 A 
ATOM      7  C   UNL A   1      38.925  24.450  28.001  1.00  0.00     0.016 A 
ATOM      8  C   UNL A   1      40.404  26.293  26.533  1.00  0.00     0.010 A 
ATOM      9  C   UNL A   1      39.278  25.675  28.571  1.00  0.00     0.010 A 
ATOM     10  C   UNL A   1      40.009  26.612  27.830  1.00  0.00    -0.014 A 
BRANCH  10  11
ATOM     11  C   UNL A   1      40.516  27.842  28.473  1.00  0.00     0.031 A 
ATOM     12  C   UNL A   1      41.954  27.868  28.880  1.00  0.00     0.074 A 
ATOM     13  C   UNL A   1      39.731  28.919  28.659  1.00  0.00     0.049 A 
ATOM     14  N   UNL A   1      42.640  28.835  29.427  1.00  0.00    -0.248 NA
ATOM     15  C   UNL A   1      42.737  26.654  28.594  1.00  0.00     0.031 C 
ATOM     16  C   UNL A   1      38.357  29.058  28.189  1.00  0.00     0.029 A 
ATOM     17  N   UNL A   1      39.966  30.092  29.331  1.00  0.00    -0.354 N 
ATOM     18  C   UNL A   1      43.945  28.372  29.481  1.00  0.00     0.074 A 
ATOM     19  C   UNL A   1      43.939  27.003  29.019  1.00  0.00     0.031 C 
ATOM     20  C   UNL A   1      37.825  30.184  28.694  1.00  0.00     0.029 A 
ATOM     21  C   UNL A   1      38.843  30.870  29.479  1.00  0.00     0.049 A 
ATOM     22  H   UNL A   1      40.852  30.350  29.673  1.00  0.00     0.167 HD
ATOM     23  C   UNL A   1      45.057  29.055  29.831  1.00  0.00     0.037 A 
ATOM     24  C   UNL A   1      38.666  32.008  30.176  1.00  0.00     0.037 A 
ATOM     25  C   UNL A   1      45.032  30.398  30.341  1.00  0.00     0.049 A 
ATOM     26  C   UNL A   1      39.879  32.665  30.772  1.00  0.00     0.074 A 
ATOM     27  C   UNL A   1      46.087  31.194  30.741  1.00  0.00     0.029 A 
ATOM     28  N   UNL A   1      43.869  31.132  30.548  1.00  0.00    -0.354 N 
ATOM     29  N   UNL A   1      41.127  32.259  30.752  1.00  0.00    -0.248 NA
ATOM     30  C   UNL A   1      39.679  33.965  31.423  1.00  0.00     0.031 C 
ATOM     31  C   UNL A   1      45.557  32.384  31.255  1.00  0.00     0.029 A 
ATOM     32  C   UNL A   1      44.177  32.357  31.113  1.00  0.00     0.049 A 
ATOM     33  H   UNL A   1      42.961  30.825  30.325  1.00  0.00     0.167 HD
ATOM     34  C   UNL A   1      41.872  33.283  31.315  1.00  0.00     0.074 A 
ATOM     35  C   UNL A   1      40.928  34.319  31.693  1.00  0.00     0.031 C 
ATOM     36  C   UNL A   1      43.216  33.372  31.473  1.00  0.00     0.037 A 
BRANCH  23  37
ATOM     37  C   UNL A   1      46.359  28.326  29.686  1.00  0.00     0.064 A 
ATOM     38  C   UNL A   1      47.116  28.409  28.504  1.00  0.00     0.173 A 
ATOM     39  C   UNL A   1      46.819  27.479  30.702  1.00  0.00     0.173 A 
ATOM     40  F   UNL A   1      46.704  29.187  27.491  1.00  0.00    -0.203 F 
ATOM     41  C   UNL A   1      48.254  27.628  28.326  1.00  0.00     0.198 A 
ATOM     42  C   UNL A   1      47.976  26.723  30.531  1.00  0.00     0.198 A 
ATOM     43  F   UNL A   1      46.131  27.359  31.846  1.00  0.00    -0.203 F 
ATOM     44  F   UNL A   1      48.912  27.661  27.159  1.00  0.00    -0.200 F 
ATOM     45  C   UNL A   1      48.683  26.786  29.340  1.00  0.00     0.200 A 
ATOM     46  F   UNL A   1      48.392  25.911  31.513  1.00  0.00    -0.200 F 
ATOM     47  F   UNL A   1      49.768  26.020  29.161  1.00  0.00    -0.200 F 
ENDBRANCH  23  37
BRANCH  24  48
ATOM     48  C   UNL A   1      37.314  32.613  30.295  1.00  0.00     0.064 A 
ATOM     49  C   UNL A   1      36.826  33.502  29.330  1.00  0.00     0.173 A 
ATOM     50  C   UNL A   1      36.479  32.310  31.381  1.00  0.00     0.173 A 
ATOM     51  F   UNL A   1      37.591  33.832  28.279  1.00  0.00    -0.203 F 
ATOM     52  C   UNL A   1      35.564  34.083  29.455  1.00  0.00     0.198 A 
ATOM     53  C   UNL A   1      35.211  32.878  31.498  1.00  0.00     0.198 A 
ATOM     54  F   UNL A   1      36.892  31.456  32.330  1.00  0.00    -0.203 F 
ATOM     55  F   UNL A   1      35.136  34.954  28.532  1.00  0.00    -0.200 F 
ATOM     56  C   UNL A   1      34.757  33.770  30.538  1.00  0.00     0.200 A 
ATOM     57  F   UNL A   1      34.429  32.564  32.541  1.00  0.00    -0.200 F 
ATOM     58  F   UNL A   1      33.544  34.327  30.657  1.00  0.00    -0.200 F 
ENDBRANCH  24  48
BRANCH  36  59
ATOM     59  C   UNL A   1      43.754  34.659  32.024  1.00  0.00     0.064 A 
ATOM     60  C   UNL A   1      44.031  34.823  33.388  1.00  0.00     0.173 A 
ATOM     61  C   UNL A   1      44.042  35.726  31.159  1.00  0.00     0.173 A 
ATOM     62  F   UNL A   1      43.754  33.839  34.256  1.00  0.00    -0.203 F 
ATOM     63  C   UNL A   1      44.557  36.018  33.870  1.00  0.00     0.198 A 
ATOM     64  C   UNL A   1      44.601  36.906  31.638  1.00  0.00     0.198 A 
ATOM     65  F   UNL A   1      43.798  35.617  29.844  1.00  0.00    -0.203 F 
ATOM     66  F   UNL A   1      44.767  36.173  35.184  1.00  0.00    -0.200 F 
ATOM     67  C   UNL A   1      44.851  37.054  32.994  1.00  0.00     0.200 A 
ATOM     68  F   UNL A   1      44.900  37.898  30.789  1.00  0.00    -0.200 F 
ATOM     69  F   UNL A   1      45.371  38.198  33.459  1.00  0.00    -0.200 F 
ENDBRANCH  36  59
ENDBRANCH  10  11
ENDBRANCH   3   5
ENDBRANCH   2   3
ENDBRANCH   1   2
BRANCH   1  70
ATOM     70  C   UNL A   1      40.969  19.798  26.585  1.00  0.00     0.274 C 
BRANCH  70  71
ATOM     71  O   UNL A   1      41.839  19.459  25.494  1.00  0.00    -0.458 OA
BRANCH  71  72
ATOM     72  C   UNL A   1      42.811  18.533  25.752  1.00  0.00     0.366 C 
ATOM     73  O   UNL A   1      42.600  17.328  25.846  1.00  0.00    -0.245 OA
BRANCH  72  74
ATOM     74  C   UNL A   1      44.211  19.169  25.838  1.00  0.00     0.313 C 
ATOM     75  C   UNL A   1      44.331  20.277  24.764  1.00  0.00     0.199 C 
ATOM     76  N   UNL A   1      45.289  18.132  25.732  1.00  0.00    -0.332 N 
ATOM     77  N   UNL A   1      45.703  20.779  24.634  1.00  0.00    -0.312 N 
ATOM     78  C   UNL A   1      46.602  18.812  25.751  1.00  0.00     0.283 C 
ATOM     79  H   UNL A   1      45.183  17.613  24.860  1.00  0.00     0.347 HD
ATOM     80  H   UNL A   1      45.222  17.480  26.513  1.00  0.00     0.347 HD
ATOM     81  C   UNL A   1      46.769  19.784  24.575  1.00  0.00     0.183 C 
BRANCH  77  82
ATOM     82  C   UNL A   1      46.029  22.028  25.021  1.00  0.00     0.324 A 
ATOM     83  N   UNL A   1      46.327  23.091  24.313  1.00  0.00    -0.171 NA
ATOM     84  O   UNL A   1      46.028  22.268  26.369  1.00  0.00    -0.315 OA
ATOM     85  C   UNL A   1      46.477  24.053  25.287  1.00  0.00     0.204 A 
ATOM     86  N   UNL A   1      46.335  23.608  26.542  1.00  0.00    -0.055 NA
BRANCH  85  87
ATOM     87  C   UNL A   1      46.721  25.449  25.003  1.00  0.00     0.023 A 
ATOM     88  C   UNL A   1      45.729  26.400  25.268  1.00  0.00     0.012 A 
ATOM     89  C   UNL A   1      47.905  25.839  24.363  1.00  0.00     0.012 A 
ATOM     90  C   UNL A   1      45.914  27.727  24.881  1.00  0.00     0.001 A 
ATOM     91  C   UNL A   1      48.085  27.167  23.976  1.00  0.00     0.001 A 
ATOM     92  C   UNL A   1      47.088  28.108  24.230  1.00  0.00     0.000 A 
ENDBRANCH  85  87
ENDBRANCH  77  82
ENDBRANCH  72  74
ENDBRANCH  71  72
ENDBRANCH  70  71
ENDBRANCH   1  70
TORSDOF 13
ENDMDL
MODEL 2
REMARK VINA RESULT:     -11.9      3.677      5.857
REMARK SMILES O=C(OCCOC(=O)[C@@H]1CN(c2nc(-c3ccccc3)no2)CC[NH2+]1)c1ccc(-c2c3nc(c(-c4c(F)c(F)c(F)c(F)c4F)c4ccc([nH]4)c(-c4c(F)c(F)c(F)c(F)c4F)c4nc(c(-c5c(F)c(F)c(F)c(F)c5F)c5ccc2[nH]5)C=C4)C=C3)cc1
REMARK SMILES IDX 4 1 3 2 2 3 1 4 26 5 27 6 88 7 28 8 87 9 29 10 30 11 31 12
REMARK SMILES IDX 81 13 32 14 86 15 80 16 82 17 33 18 85 19 79 20 78 21 34 23
REMARK SMILES IDX 66 24 46 25 65 26 47 27 50 28 64 29 83 30 48 31 49 32 63 34
REMARK SMILES IDX 84 35 51 36 35 37 36 38 44 39 37 40 38 41 42 42 45 43 39 44
REMARK SMILES IDX 40 45 43 46 41 47 67 48 68 49 76 50 69 51 70 52 74 53 77 54
REMARK SMILES IDX 71 55 72 56 75 57 73 58 52 59 53 60 61 61 54 62 55 63 59 64
REMARK SMILES IDX 62 65 56 66 57 67 60 68 58 69 5 70 6 71 7 72 8 73 9 74 10 75
REMARK SMILES IDX 25 76 11 77 24 78 23 81 12 82 13 83 22 84 14 85 21 86 15 87
REMARK SMILES IDX 16 88 20 89 17 90 19 91 18 92
REMARK H PARENT 82 22 50 33 25 79 25 80
REMARK Flexibility Score: inf
ROOT
ATOM      1  C   UNL A   1      46.341  23.319  24.837  1.00  0.00     0.275 C 
ENDROOT
BRANCH   1   2
ATOM      2  O   UNL A   1      45.172  24.059  24.438  1.00  0.00    -0.458 OA
BRANCH   2   3
ATOM      3  C   UNL A   1      43.921  24.058  24.956  1.00  0.00     0.338 C 
ATOM      4  O   UNL A   1      43.074  23.329  24.439  1.00  0.00    -0.246 OA
BRANCH   3   5
ATOM      5  C   UNL A   1      43.459  24.990  26.034  1.00  0.00     0.060 A 
ATOM      6  C   UNL A   1      43.969  26.265  26.296  1.00  0.00     0.016 A 
ATOM      7  C   UNL A   1      42.396  24.531  26.836  1.00  0.00     0.016 A 
ATOM      8  C   UNL A   1      43.380  27.100  27.250  1.00  0.00     0.010 A 
ATOM      9  C   UNL A   1      41.811  25.356  27.798  1.00  0.00     0.010 A 
ATOM     10  C   UNL A   1      42.294  26.656  27.999  1.00  0.00    -0.014 A 
BRANCH  10  11
ATOM     11  C   UNL A   1      41.783  27.479  29.115  1.00  0.00     0.031 A 
ATOM     12  C   UNL A   1      42.434  27.315  30.451  1.00  0.00     0.074 A 
ATOM     13  C   UNL A   1      40.791  28.373  28.940  1.00  0.00     0.049 A 
ATOM     14  N   UNL A   1      42.192  27.942  31.570  1.00  0.00    -0.248 NA
ATOM     15  C   UNL A   1      43.537  26.342  30.525  1.00  0.00     0.031 C 
ATOM     16  C   UNL A   1      40.171  28.711  27.664  1.00  0.00     0.029 A 
ATOM     17  N   UNL A   1      40.102  29.133  29.850  1.00  0.00    -0.354 N 
ATOM     18  C   UNL A   1      43.158  27.492  32.456  1.00  0.00     0.074 A 
ATOM     19  C   UNL A   1      43.917  26.463  31.786  1.00  0.00     0.031 C 
ATOM     20  C   UNL A   1      39.111  29.508  27.882  1.00  0.00     0.029 A 
ATOM     21  C   UNL A   1      39.015  29.776  29.311  1.00  0.00     0.049 A 
ATOM     22  H   UNL A   1      40.362  29.210  30.797  1.00  0.00     0.167 HD
ATOM     23  C   UNL A   1      43.420  27.947  33.702  1.00  0.00     0.037 A 
ATOM     24  C   UNL A   1      38.050  30.497  29.913  1.00  0.00     0.037 A 
ATOM     25  C   UNL A   1      42.617  28.933  34.369  1.00  0.00     0.049 A 
ATOM     26  C   UNL A   1      38.220  30.820  31.372  1.00  0.00     0.074 A 
ATOM     27  C   UNL A   1      42.771  29.467  35.633  1.00  0.00     0.029 A 
ATOM     28  N   UNL A   1      41.477  29.511  33.821  1.00  0.00    -0.354 N 
ATOM     29  N   UNL A   1      39.180  30.455  32.188  1.00  0.00    -0.248 NA
ATOM     30  C   UNL A   1      37.220  31.707  31.977  1.00  0.00     0.031 C 
ATOM     31  C   UNL A   1      41.685  30.318  35.876  1.00  0.00     0.029 A 
ATOM     32  C   UNL A   1      40.891  30.364  34.739  1.00  0.00     0.049 A 
ATOM     33  H   UNL A   1      41.137  29.338  32.914  1.00  0.00     0.167 HD
ATOM     34  C   UNL A   1      38.946  31.126  33.378  1.00  0.00     0.074 A 
ATOM     35  C   UNL A   1      37.734  31.899  33.183  1.00  0.00     0.031 C 
ATOM     36  C   UNL A   1      39.686  31.128  34.515  1.00  0.00     0.037 A 
BRANCH  23  37
ATOM     37  C   UNL A   1      44.607  27.345  34.393  1.00  0.00     0.064 A 
ATOM     38  C   UNL A   1      44.475  26.222  35.229  1.00  0.00     0.173 A 
ATOM     39  C   UNL A   1      45.871  27.936  34.283  1.00  0.00     0.173 A 
ATOM     40  F   UNL A   1      43.278  25.635  35.387  1.00  0.00    -0.203 F 
ATOM     41  C   UNL A   1      45.554  25.749  35.970  1.00  0.00     0.198 A 
ATOM     42  C   UNL A   1      46.956  27.440  35.003  1.00  0.00     0.198 A 
ATOM     43  F   UNL A   1      46.049  29.013  33.505  1.00  0.00    -0.203 F 
ATOM     44  F   UNL A   1      45.384  24.730  36.823  1.00  0.00    -0.200 F 
ATOM     45  C   UNL A   1      46.793  26.359  35.855  1.00  0.00     0.200 A 
ATOM     46  F   UNL A   1      48.154  28.028  34.890  1.00  0.00    -0.200 F 
ATOM     47  F   UNL A   1      47.828  25.915  36.583  1.00  0.00    -0.200 F 
ENDBRANCH  23  37
BRANCH  24  48
ATOM     48  C   UNL A   1      36.890  30.999  29.133  1.00  0.00     0.064 A 
ATOM     49  C   UNL A   1      35.836  30.154  28.768  1.00  0.00     0.173 A 
ATOM     50  C   UNL A   1      36.813  32.344  28.737  1.00  0.00     0.173 A 
ATOM     51  F   UNL A   1      35.869  28.858  29.113  1.00  0.00    -0.203 F 
ATOM     52  C   UNL A   1      34.758  30.625  28.019  1.00  0.00     0.198 A 
ATOM     53  C   UNL A   1      35.728  32.818  28.002  1.00  0.00     0.198 A 
ATOM     54  F   UNL A   1      37.790  33.200  29.069  1.00  0.00    -0.203 F 
ATOM     55  F   UNL A   1      33.779  29.786  27.657  1.00  0.00    -0.200 F 
ATOM     56  C   UNL A   1      34.704  31.957  27.638  1.00  0.00     0.200 A 
ATOM     57  F   UNL A   1      35.673  34.110  27.645  1.00  0.00    -0.200 F 
ATOM     58  F   UNL A   1      33.666  32.410  26.919  1.00  0.00    -0.200 F 
ENDBRANCH  24  48
BRANCH  36  59
ATOM     59  C   UNL A   1      39.240  32.042  35.618  1.00  0.00     0.064 A 
ATOM     60  C   UNL A   1      38.362  31.616  36.624  1.00  0.00     0.173 A 
ATOM     61  C   UNL A   1      39.742  33.351  35.690  1.00  0.00     0.173 A 
ATOM     62  F   UNL A   1      37.841  30.381  36.587  1.00  0.00    -0.203 F 
ATOM     63  C   UNL A   1      37.986  32.475  37.652  1.00  0.00     0.198 A 
ATOM     64  C   UNL A   1      39.392  34.194  36.738  1.00  0.00     0.198 A 
ATOM     65  F   UNL A   1      40.588  33.804  34.752  1.00  0.00    -0.203 F 
ATOM     66  F   UNL A   1      37.107  32.066  38.576  1.00  0.00    -0.200 F 
ATOM     67  C   UNL A   1      38.509  33.759  37.714  1.00  0.00     0.200 A 
ATOM     68  F   UNL A   1      39.912  35.428  36.805  1.00  0.00    -0.200 F 
ATOM     69  F   UNL A   1      38.156  34.580  38.712  1.00  0.00    -0.200 F 
ENDBRANCH  36  59
ENDBRANCH  10  11
ENDBRANCH   3   5
ENDBRANCH   2   3
ENDBRANCH   1   2
BRANCH   1  70
ATOM     70  C   UNL A   1      46.389  21.882  24.313  1.00  0.00     0.274 C 
BRANCH  70  71
ATOM     71  O   UNL A   1      45.787  20.949  25.223  1.00  0.00    -0.458 OA
BRANCH  71  72
ATOM     72  C   UNL A   1      45.411  19.742  24.703  1.00  0.00     0.366 C 
ATOM     73  O   UNL A   1      46.080  19.110  23.892  1.00  0.00    -0.245 OA
BRANCH  72  74
ATOM     74  C   UNL A   1      44.089  19.235  25.308  1.00  0.00     0.313 C 
ATOM     75  C   UNL A   1      43.327  20.428  25.932  1.00  0.00     0.199 C 
ATOM     76  N   UNL A   1      44.327  18.119  26.280  1.00  0.00    -0.332 N 
ATOM     77  N   UNL A   1      42.167  19.996  26.720  1.00  0.00    -0.312 N 
ATOM     78  C   UNL A   1      43.032  17.726  26.875  1.00  0.00     0.283 C 
ATOM     79  H   UNL A   1      44.962  18.432  27.015  1.00  0.00     0.347 HD
ATOM     80  H   UNL A   1      44.746  17.323  25.801  1.00  0.00     0.347 HD
ATOM     81  C   UNL A   1      42.369  18.881  27.639  1.00  0.00     0.183 C 
BRANCH  77  82
ATOM     82  C   UNL A   1      40.909  20.252  26.309  1.00  0.00     0.324 A 
ATOM     83  N   UNL A   1      40.217  21.365  26.322  1.00  0.00    -0.171 NA
ATOM     84  O   UNL A   1      40.226  19.205  25.752  1.00  0.00    -0.315 OA
ATOM     85  C   UNL A   1      39.050  20.987  25.695  1.00  0.00     0.204 A 
ATOM     86  N   UNL A   1      38.990  19.692  25.357  1.00  0.00    -0.055 NA
BRANCH  85  87
ATOM     87  C   UNL A   1      37.979  21.903  25.374  1.00  0.00     0.023 A 
ATOM     88  C   UNL A   1      37.870  23.118  26.059  1.00  0.00     0.012 A 
ATOM     89  C   UNL A   1      36.988  21.529  24.457  1.00  0.00     0.012 A 
ATOM     90  C   UNL A   1      36.769  23.946  25.839  1.00  0.00     0.001 A 
ATOM     91  C   UNL A   1      35.888  22.359  24.241  1.00  0.00     0.001 A 
ATOM     92  C   UNL A   1      35.776  23.563  24.936  1.00  0.00     0.000 A 
ENDBRANCH  85  87
ENDBRANCH  77  82
ENDBRANCH  72  74
ENDBRANCH  71  72
ENDBRANCH  70  71
ENDBRANCH   1  70
TORSDOF 13
ENDMDL
MODEL 3
REMARK VINA RESULT:     -11.8      3.617      5.683
REMARK SMILES O=C(OCCOC(=O)[C@@H]1CN(c2nc(-c3ccccc3)no2)CC[NH2+]1)c1ccc(-c2c3nc(c(-c4c(F)c(F)c(F)c(F)c4F)c4ccc([nH]4)c(-c4c(F)c(F)c(F)c(F)c4F)c4nc(c(-c5c(F)c(F)c(F)c(F)c5F)c5ccc2[nH]5)C=C4)C=C3)cc1
REMARK SMILES IDX 4 1 3 2 2 3 1 4 26 5 27 6 88 7 28 8 87 9 29 10 30 11 31 12
REMARK SMILES IDX 81 13 32 14 86 15 80 16 82 17 33 18 85 19 79 20 78 21 34 23
REMARK SMILES IDX 66 24 46 25 65 26 47 27 50 28 64 29 83 30 48 31 49 32 63 34
REMARK SMILES IDX 84 35 51 36 35 37 36 38 44 39 37 40 38 41 42 42 45 43 39 44
REMARK SMILES IDX 40 45 43 46 41 47 67 48 68 49 76 50 69 51 70 52 74 53 77 54
REMARK SMILES IDX 71 55 72 56 75 57 73 58 52 59 53 60 61 61 54 62 55 63 59 64
REMARK SMILES IDX 62 65 56 66 57 67 60 68 58 69 5 70 6 71 7 72 8 73 9 74 10 75
REMARK SMILES IDX 25 76 11 77 24 78 23 81 12 82 13 83 22 84 14 85 21 86 15 87
REMARK SMILES IDX 16 88 20 89 17 90 19 91 18 92
REMARK H PARENT 82 22 50 33 25 79 25 80
REMARK Flexibility Score: inf
ROOT
ATOM      1  C   UNL A   1      46.427  23.606  24.770  1.00  0.00     0.275 C 
ENDROOT
BRANCH   1   2
ATOM      2  O   UNL A   1      45.237  24.347  24.439  1.00  0.00    -0.458 OA
BRANCH   2   3
ATOM      3  C   UNL A   1      44.001  24.301  24.988  1.00  0.00     0.338 C 
ATOM      4  O   UNL A   1      43.171  23.536  24.498  1.00  0.00    -0.246 OA
BRANCH   3   5
ATOM      5  C   UNL A   1      43.530  25.225  26.069  1.00  0.00     0.060 A 
ATOM      6  C   UNL A   1      44.020  26.508  26.331  1.00  0.00     0.016 A 
ATOM      7  C   UNL A   1      42.479  24.747  26.877  1.00  0.00     0.016 A 
ATOM      8  C   UNL A   1      43.423  27.332  27.288  1.00  0.00     0.010 A 
ATOM      9  C   UNL A   1      41.886  25.562  27.844  1.00  0.00     0.010 A 
ATOM     10  C   UNL A   1      42.349  26.869  28.044  1.00  0.00    -0.014 A 
BRANCH  10  11
ATOM     11  C   UNL A   1      41.831  27.683  29.164  1.00  0.00     0.031 A 
ATOM     12  C   UNL A   1      42.490  27.524  30.496  1.00  0.00     0.074 A 
ATOM     13  C   UNL A   1      40.827  28.562  28.994  1.00  0.00     0.049 A 
ATOM     14  N   UNL A   1      42.244  28.145  31.618  1.00  0.00    -0.248 NA
ATOM     15  C   UNL A   1      43.606  26.567  30.564  1.00  0.00     0.031 C 
ATOM     16  C   UNL A   1      40.197  28.895  27.722  1.00  0.00     0.029 A 
ATOM     17  N   UNL A   1      40.131  29.311  29.909  1.00  0.00    -0.354 N 
ATOM     18  C   UNL A   1      43.219  27.707  32.499  1.00  0.00     0.074 A 
ATOM     19  C   UNL A   1      43.989  26.690  31.823  1.00  0.00     0.031 C 
ATOM     20  C   UNL A   1      39.126  29.676  27.946  1.00  0.00     0.029 A 
ATOM     21  C   UNL A   1      39.032  29.940  29.375  1.00  0.00     0.049 A 
ATOM     22  H   UNL A   1      40.393  29.390  30.855  1.00  0.00     0.167 HD
ATOM     23  C   UNL A   1      43.480  28.163  33.744  1.00  0.00     0.037 A 
ATOM     24  C   UNL A   1      38.060  30.646  29.984  1.00  0.00     0.037 A 
ATOM     25  C   UNL A   1      42.665  29.136  34.417  1.00  0.00     0.049 A 
ATOM     26  C   UNL A   1      38.231  30.968  31.442  1.00  0.00     0.074 A 
ATOM     27  C   UNL A   1      42.817  29.669  35.682  1.00  0.00     0.029 A 
ATOM     28  N   UNL A   1      41.516  29.699  33.875  1.00  0.00    -0.354 N 
ATOM     29  N   UNL A   1      39.199  30.614  32.254  1.00  0.00    -0.248 NA
ATOM     30  C   UNL A   1      37.221  31.839  32.053  1.00  0.00     0.031 C 
ATOM     31  C   UNL A   1      41.721  30.504  35.931  1.00  0.00     0.029 A 
ATOM     32  C   UNL A   1      40.921  30.542  34.798  1.00  0.00     0.049 A 
ATOM     33  H   UNL A   1      41.174  29.524  32.969  1.00  0.00     0.167 HD
ATOM     34  C   UNL A   1      38.961  31.279  33.446  1.00  0.00     0.074 A 
ATOM     35  C   UNL A   1      37.737  32.036  33.258  1.00  0.00     0.031 C 
ATOM     36  C   UNL A   1      39.705  31.290  34.580  1.00  0.00     0.037 A 
BRANCH  23  37
ATOM     37  C   UNL A   1      44.678  27.576  34.430  1.00  0.00     0.064 A 
ATOM     38  C   UNL A   1      45.955  28.147  34.287  1.00  0.00     0.173 A 
ATOM     39  C   UNL A   1      44.567  26.394  35.171  1.00  0.00     0.173 A 
ATOM     40  F   UNL A   1      46.117  29.267  33.564  1.00  0.00    -0.203 F 
ATOM     41  C   UNL A   1      47.082  27.525  34.816  1.00  0.00     0.198 A 
ATOM     42  C   UNL A   1      45.693  25.791  35.726  1.00  0.00     0.198 A 
ATOM     43  F   UNL A   1      43.373  25.805  35.332  1.00  0.00    -0.203 F 
ATOM     44  F   UNL A   1      48.297  28.043  34.596  1.00  0.00    -0.200 F 
ATOM     45  C   UNL A   1      46.949  26.347  35.536  1.00  0.00     0.200 A 
ATOM     46  F   UNL A   1      45.565  24.654  36.423  1.00  0.00    -0.200 F 
ATOM     47  F   UNL A   1      48.037  25.738  36.028  1.00  0.00    -0.200 F 
ENDBRANCH  23  37
BRANCH  24  48
ATOM     48  C   UNL A   1      36.889  31.134  29.209  1.00  0.00     0.064 A 
ATOM     49  C   UNL A   1      36.779  32.474  28.821  1.00  0.00     0.173 A 
ATOM     50  C   UNL A   1      35.853  30.262  28.839  1.00  0.00     0.173 A 
ATOM     51  F   UNL A   1      37.738  33.348  29.160  1.00  0.00    -0.203 F 
ATOM     52  C   UNL A   1      35.669  32.932  28.110  1.00  0.00     0.198 A 
ATOM     53  C   UNL A   1      34.751  30.716  28.116  1.00  0.00     0.198 A 
ATOM     54  F   UNL A   1      35.912  28.965  29.177  1.00  0.00    -0.203 F 
ATOM     55  F   UNL A   1      35.576  34.226  27.779  1.00  0.00    -0.200 F 
ATOM     56  C   UNL A   1      34.657  32.052  27.757  1.00  0.00     0.200 A 
ATOM     57  F   UNL A   1      33.780  29.860  27.767  1.00  0.00    -0.200 F 
ATOM     58  F   UNL A   1      33.592  32.492  27.073  1.00  0.00    -0.200 F 
ENDBRANCH  24  48
BRANCH  36  59
ATOM     59  C   UNL A   1      39.250  32.194  35.686  1.00  0.00     0.064 A 
ATOM     60  C   UNL A   1      38.410  31.745  36.714  1.00  0.00     0.173 A 
ATOM     61  C   UNL A   1      39.708  33.520  35.740  1.00  0.00     0.173 A 
ATOM     62  F   UNL A   1      37.931  30.492  36.695  1.00  0.00    -0.203 F 
ATOM     63  C   UNL A   1      38.025  32.598  37.744  1.00  0.00     0.198 A 
ATOM     64  C   UNL A   1      39.352  34.358  36.790  1.00  0.00     0.198 A 
ATOM     65  F   UNL A   1      40.518  33.997  34.782  1.00  0.00    -0.203 F 
ATOM     66  F   UNL A   1      37.181  32.164  38.689  1.00  0.00    -0.200 F 
ATOM     67  C   UNL A   1      38.505  33.899  37.788  1.00  0.00     0.200 A 
ATOM     68  F   UNL A   1      39.829  35.610  36.839  1.00  0.00    -0.200 F 
ATOM     69  F   UNL A   1      38.145  34.714  38.789  1.00  0.00    -0.200 F 
ENDBRANCH  36  59
ENDBRANCH  10  11
ENDBRANCH   3   5
ENDBRANCH   2   3
ENDBRANCH   1   2
BRANCH   1  70
ATOM     70  C   UNL A   1      46.398  22.137  24.342  1.00  0.00     0.274 C 
BRANCH  70  71
ATOM     71  O   UNL A   1      45.598  21.328  25.219  1.00  0.00    -0.458 OA
BRANCH  71  72
ATOM     72  C   UNL A   1      45.402  20.029  24.843  1.00  0.00     0.366 C 
ATOM     73  O   UNL A   1      46.220  19.369  24.209  1.00  0.00    -0.245 OA
BRANCH  72  74
ATOM     74  C   UNL A   1      44.069  19.466  25.371  1.00  0.00     0.313 C 
ATOM     75  C   UNL A   1      43.262  20.611  26.030  1.00  0.00     0.199 C 
ATOM     76  N   UNL A   1      44.294  18.303  26.290  1.00  0.00    -0.332 N 
ATOM     77  N   UNL A   1      42.083  20.116  26.750  1.00  0.00    -0.312 N 
ATOM     78  C   UNL A   1      42.986  17.856  26.815  1.00  0.00     0.283 C 
ATOM     79  H   UNL A   1      44.895  18.587  27.064  1.00  0.00     0.347 HD
ATOM     80  H   UNL A   1      44.745  17.542  25.785  1.00  0.00     0.347 HD
ATOM     81  C   UNL A   1      42.274  18.957  27.615  1.00  0.00     0.183 C 
BRANCH  77  82
ATOM     82  C   UNL A   1      40.837  20.372  26.307  1.00  0.00     0.324 A 
ATOM     83  N   UNL A   1      40.149  21.488  26.289  1.00  0.00    -0.171 NA
ATOM     84  O   UNL A   1      40.160  19.320  25.750  1.00  0.00    -0.315 OA
ATOM     85  C   UNL A   1      38.995  21.107  25.642  1.00  0.00     0.204 A 
ATOM     86  N   UNL A   1      38.936  19.807  25.320  1.00  0.00    -0.055 NA
BRANCH  85  87
ATOM     87  C   UNL A   1      37.936  22.023  25.284  1.00  0.00     0.023 A 
ATOM     88  C   UNL A   1      37.692  23.151  26.073  1.00  0.00     0.012 A 
ATOM     89  C   UNL A   1      37.084  21.725  24.211  1.00  0.00     0.012 A 
ATOM     90  C   UNL A   1      36.594  23.968  25.802  1.00  0.00     0.001 A 
ATOM     91  C   UNL A   1      35.986  22.544  23.945  1.00  0.00     0.001 A 
ATOM     92  C   UNL A   1      35.738  23.660  24.743  1.00  0.00     0.000 A 
ENDBRANCH  85  87
ENDBRANCH  77  82
ENDBRANCH  72  74
ENDBRANCH  71  72
ENDBRANCH  70  71
ENDBRANCH   1  70
TORSDOF 13
ENDMDL
