MODEL 1
REMARK VINA RESULT:     -13.0      0.000      0.000
REMARK SMILES O=C(OCCOC(=O)c1c[nH]c(=O)c(-c2cccc([N+](=O)[O-])c2)c1)c1ccc(-c2c3nc(c(-c4c(F)c(F)c(F)c(F)c4F)c4ccc([nH]4)c(-c4c(F)c(F)c(F)c(F)c4F)c4nc(c(-c5c(F)c(F)c(F)c(F)c5F)c5ccc2[nH]5)C=C4)C=C3)cc1
REMARK SMILES IDX 4 1 3 2 2 3 1 4 25 5 26 6 87 7 27 8 86 9 28 10 29 11 30 12
REMARK SMILES IDX 80 13 31 14 85 15 79 16 81 17 32 18 84 19 78 20 77 21 33 23
REMARK SMILES IDX 65 24 45 25 64 26 46 27 49 28 63 29 82 30 47 31 48 32 62 34
REMARK SMILES IDX 83 35 50 36 34 37 35 38 43 39 36 40 37 41 41 42 44 43 38 44
REMARK SMILES IDX 39 45 42 46 40 47 66 48 67 49 75 50 68 51 69 52 73 53 76 54
REMARK SMILES IDX 70 55 71 56 74 57 72 58 51 59 52 60 60 61 53 62 54 63 58 64
REMARK SMILES IDX 61 65 55 66 56 67 59 68 57 69 5 70 6 71 7 72 8 73 9 74 10 75
REMARK SMILES IDX 24 76 11 77 14 78 12 79 13 81 15 82 16 83 23 84 17 85 19 86
REMARK SMILES IDX 18 87 20 88 21 89 22 90
REMARK H PARENT 81 22 49 33 11 80
REMARK Flexibility Score: inf
ROOT
ATOM      1  C   UNL A   1      43.201  21.249  25.716  1.00  0.00     0.275 C 
ENDROOT
BRANCH   1   2
ATOM      2  O   UNL A   1      42.865  22.410  24.933  1.00  0.00    -0.458 OA
BRANCH   2   3
ATOM      3  C   UNL A   1      43.391  23.657  24.945  1.00  0.00     0.338 C 
ATOM      4  O   UNL A   1      44.415  23.873  24.299  1.00  0.00    -0.246 OA
BRANCH   3   5
ATOM      5  C   UNL A   1      42.890  24.760  25.826  1.00  0.00     0.060 A 
ATOM      6  C   UNL A   1      43.383  26.065  25.871  1.00  0.00     0.016 A 
ATOM      7  C   UNL A   1      41.852  24.419  26.716  1.00  0.00     0.016 A 
ATOM      8  C   UNL A   1      42.835  27.017  26.743  1.00  0.00     0.010 A 
ATOM      9  C   UNL A   1      41.296  25.364  27.582  1.00  0.00     0.010 A 
ATOM     10  C   UNL A   1      41.799  26.671  27.614  1.00  0.00    -0.014 A 
BRANCH  10  11
ATOM     11  C   UNL A   1      41.414  27.588  28.716  1.00  0.00     0.031 A 
ATOM     12  C   UNL A   1      42.205  27.480  29.999  1.00  0.00     0.074 A 
ATOM     13  C   UNL A   1      40.441  28.510  28.565  1.00  0.00     0.049 A 
ATOM     14  N   UNL A   1      42.058  28.124  31.126  1.00  0.00    -0.248 NA
ATOM     15  C   UNL A   1      43.343  26.538  29.998  1.00  0.00     0.031 C 
ATOM     16  C   UNL A   1      39.698  28.777  27.331  1.00  0.00     0.029 A 
ATOM     17  N   UNL A   1      39.885  29.385  29.468  1.00  0.00    -0.354 N 
ATOM     18  C   UNL A   1      43.098  27.695  31.943  1.00  0.00     0.074 A 
ATOM     19  C   UNL A   1      43.830  26.685  31.220  1.00  0.00     0.031 C 
ATOM     20  C   UNL A   1      38.751  29.705  27.571  1.00  0.00     0.029 A 
ATOM     21  C   UNL A   1      38.800  30.082  28.979  1.00  0.00     0.049 A 
ATOM     22  H   UNL A   1      40.231  29.502  30.383  1.00  0.00     0.167 HD
ATOM     23  C   UNL A   1      43.435  28.146  33.172  1.00  0.00     0.037 A 
ATOM     24  C   UNL A   1      37.927  30.880  29.628  1.00  0.00     0.037 A 
ATOM     25  C   UNL A   1      42.673  29.139  33.877  1.00  0.00     0.049 A 
ATOM     26  C   UNL A   1      38.178  31.150  31.086  1.00  0.00     0.074 A 
ATOM     27  C   UNL A   1      42.934  29.735  35.095  1.00  0.00     0.029 A 
ATOM     28  N   UNL A   1      41.473  29.664  33.416  1.00  0.00    -0.354 N 
ATOM     29  N   UNL A   1      39.160  30.734  31.848  1.00  0.00    -0.248 NA
ATOM     30  C   UNL A   1      37.217  32.031  31.762  1.00  0.00     0.031 C 
ATOM     31  C   UNL A   1      41.869  30.591  35.393  1.00  0.00     0.029 A 
ATOM     32  C   UNL A   1      40.970  30.563  34.337  1.00  0.00     0.049 A 
ATOM     33  H   UNL A   1      41.045  29.429  32.561  1.00  0.00     0.167 HD
ATOM     34  C   UNL A   1      38.961  31.332  33.081  1.00  0.00     0.074 A 
ATOM     35  C   UNL A   1      37.743  32.111  32.974  1.00  0.00     0.031 C 
ATOM     36  C   UNL A   1      39.738  31.290  34.191  1.00  0.00     0.037 A 
BRANCH  23  37
ATOM     37  C   UNL A   1      44.681  27.602  33.810  1.00  0.00     0.064 A 
ATOM     38  C   UNL A   1      45.922  28.237  33.640  1.00  0.00     0.173 A 
ATOM     39  C   UNL A   1      44.635  26.472  34.639  1.00  0.00     0.173 A 
ATOM     40  F   UNL A   1      46.027  29.315  32.848  1.00  0.00    -0.203 F 
ATOM     41  C   UNL A   1      47.070  27.754  34.265  1.00  0.00     0.198 A 
ATOM     42  C   UNL A   1      45.781  26.004  35.280  1.00  0.00     0.198 A 
ATOM     43  F   UNL A   1      43.476  25.825  34.836  1.00  0.00    -0.203 F 
ATOM     44  F   UNL A   1      48.248  28.361  34.063  1.00  0.00    -0.200 F 
ATOM     45  C   UNL A   1      46.997  26.643  35.092  1.00  0.00     0.200 A 
ATOM     46  F   UNL A   1      45.707  24.935  36.086  1.00  0.00    -0.200 F 
ATOM     47  F   UNL A   1      48.099  26.186  35.703  1.00  0.00    -0.200 F 
ENDBRANCH  23  37
BRANCH  24  48
ATOM     48  C   UNL A   1      36.708  31.438  28.976  1.00  0.00     0.064 A 
ATOM     49  C   UNL A   1      36.568  32.794  28.667  1.00  0.00     0.173 A 
ATOM     50  C   UNL A   1      35.600  30.613  28.725  1.00  0.00     0.173 A 
ATOM     51  F   UNL A   1      37.556  33.652  28.960  1.00  0.00    -0.203 F 
ATOM     52  C   UNL A   1      35.392  33.287  28.092  1.00  0.00     0.198 A 
ATOM     53  C   UNL A   1      34.443  31.092  28.113  1.00  0.00     0.198 A 
ATOM     54  F   UNL A   1      35.616  29.339  29.128  1.00  0.00    -0.203 F 
ATOM     55  F   UNL A   1      35.270  34.597  27.838  1.00  0.00    -0.200 F 
ATOM     56  C   UNL A   1      34.339  32.431  27.794  1.00  0.00     0.200 A 
ATOM     57  F   UNL A   1      33.430  30.254  27.850  1.00  0.00    -0.200 F 
ATOM     58  F   UNL A   1      33.222  32.901  27.224  1.00  0.00    -0.200 F 
ENDBRANCH  24  48
BRANCH  36  59
ATOM     59  C   UNL A   1      39.315  32.171  35.321  1.00  0.00     0.064 A 
ATOM     60  C   UNL A   1      39.689  33.517  35.391  1.00  0.00     0.173 A 
ATOM     61  C   UNL A   1      38.536  31.637  36.360  1.00  0.00     0.173 A 
ATOM     62  F   UNL A   1      40.460  34.056  34.434  1.00  0.00    -0.203 F 
ATOM     63  C   UNL A   1      39.322  34.297  36.483  1.00  0.00     0.198 A 
ATOM     64  C   UNL A   1      38.147  32.427  37.433  1.00  0.00     0.198 A 
ATOM     65  F   UNL A   1      38.162  30.349  36.333  1.00  0.00    -0.203 F 
ATOM     66  F   UNL A   1      39.741  35.567  36.568  1.00  0.00    -0.200 F 
ATOM     67  C   UNL A   1      38.549  33.753  37.499  1.00  0.00     0.200 A 
ATOM     68  F   UNL A   1      37.398  31.902  38.411  1.00  0.00    -0.200 F 
ATOM     69  F   UNL A   1      38.204  34.504  38.554  1.00  0.00    -0.200 F 
ENDBRANCH  36  59
ENDBRANCH  10  11
ENDBRANCH   3   5
ENDBRANCH   2   3
ENDBRANCH   1   2
BRANCH   1  70
ATOM     70  C   UNL A   1      42.013  20.375  26.129  1.00  0.00     0.275 C 
BRANCH  70  71
ATOM     71  O   UNL A   1      40.796  21.116  26.255  1.00  0.00    -0.458 OA
BRANCH  71  72
ATOM     72  C   UNL A   1      39.694  20.480  25.771  1.00  0.00     0.339 C 
ATOM     73  O   UNL A   1      39.613  19.301  25.466  1.00  0.00    -0.246 OA
BRANCH  72  74
ATOM     74  C   UNL A   1      38.547  21.415  25.809  1.00  0.00     0.077 A 
ATOM     75  C   UNL A   1      38.778  22.643  26.298  1.00  0.00     0.101 A 
ATOM     76  C   UNL A   1      37.247  21.091  25.259  1.00  0.00     0.031 A 
ATOM     77  N   UNL A   1      37.791  23.594  26.266  1.00  0.00    -0.328 N 
ATOM     78  C   UNL A   1      36.249  21.997  25.228  1.00  0.00     0.048 A 
ATOM     79  C   UNL A   1      36.530  23.383  25.763  1.00  0.00     0.255 A 
ATOM     80  H   UNL A   1      37.999  24.486  26.627  1.00  0.00     0.169 HD
ATOM     81  O   UNL A   1      35.699  24.284  25.741  1.00  0.00    -0.269 OA
BRANCH  78  82
ATOM     82  C   UNL A   1      34.935  21.656  24.654  1.00  0.00    -0.006 A 
ATOM     83  C   UNL A   1      34.260  22.549  23.804  1.00  0.00     0.009 A 
ATOM     84  C   UNL A   1      34.356  20.409  24.926  1.00  0.00     0.094 A 
ATOM     85  C   UNL A   1      33.055  22.188  23.200  1.00  0.00     0.008 A 
ATOM     86  C   UNL A   1      33.148  20.052  24.327  1.00  0.00     0.270 A 
ATOM     87  C   UNL A   1      32.515  20.926  23.437  1.00  0.00     0.085 A 
BRANCH  86  88
ATOM     88  N   UNL A   1      32.544  18.758  24.657  1.00  0.00     0.062 N 
ATOM     89  O   UNL A   1      32.447  18.459  25.855  1.00  0.00    -0.258 OA
ATOM     90  O   UNL A   1      32.164  18.045  23.718  1.00  0.00    -0.258 OA
ENDBRANCH  86  88
ENDBRANCH  78  82
ENDBRANCH  72  74
ENDBRANCH  71  72
ENDBRANCH  70  71
ENDBRANCH   1  70
TORSDOF 13
ENDMDL
MODEL 2
REMARK VINA RESULT:     -12.7      5.407     11.394
REMARK SMILES O=C(OCCOC(=O)c1c[nH]c(=O)c(-c2cccc([N+](=O)[O-])c2)c1)c1ccc(-c2c3nc(c(-c4c(F)c(F)c(F)c(F)c4F)c4ccc([nH]4)c(-c4c(F)c(F)c(F)c(F)c4F)c4nc(c(-c5c(F)c(F)c(F)c(F)c5F)c5ccc2[nH]5)C=C4)C=C3)cc1
REMARK SMILES IDX 4 1 3 2 2 3 1 4 25 5 26 6 87 7 27 8 86 9 28 10 29 11 30 12
REMARK SMILES IDX 80 13 31 14 85 15 79 16 81 17 32 18 84 19 78 20 77 21 33 23
REMARK SMILES IDX 65 24 45 25 64 26 46 27 49 28 63 29 82 30 47 31 48 32 62 34
REMARK SMILES IDX 83 35 50 36 34 37 35 38 43 39 36 40 37 41 41 42 44 43 38 44
REMARK SMILES IDX 39 45 42 46 40 47 66 48 67 49 75 50 68 51 69 52 73 53 76 54
REMARK SMILES IDX 70 55 71 56 74 57 72 58 51 59 52 60 60 61 53 62 54 63 58 64
REMARK SMILES IDX 61 65 55 66 56 67 59 68 57 69 5 70 6 71 7 72 8 73 9 74 10 75
REMARK SMILES IDX 24 76 11 77 14 78 12 79 13 81 15 82 16 83 23 84 17 85 19 86
REMARK SMILES IDX 18 87 20 88 21 89 22 90
REMARK H PARENT 81 22 49 33 11 80
REMARK Flexibility Score: inf
ROOT
ATOM      1  C   UNL A   1      33.700  33.227  27.942  1.00  0.00     0.275 C 
ENDROOT
BRANCH   1   2
ATOM      2  O   UNL A   1      34.280  32.078  28.587  1.00  0.00    -0.458 OA
BRANCH   2   3
ATOM      3  C   UNL A   1      34.646  30.878  28.078  1.00  0.00     0.338 C 
ATOM      4  O   UNL A   1      33.825  30.240  27.421  1.00  0.00    -0.246 OA
BRANCH   3   5
ATOM      5  C   UNL A   1      35.945  30.203  28.397  1.00  0.00     0.060 A 
ATOM      6  C   UNL A   1      36.295  29.630  29.621  1.00  0.00     0.016 A 
ATOM      7  C   UNL A   1      36.906  30.193  27.368  1.00  0.00     0.016 A 
ATOM      8  C   UNL A   1      37.546  29.026  29.805  1.00  0.00     0.010 A 
ATOM      9  C   UNL A   1      38.153  29.586  27.542  1.00  0.00     0.010 A 
ATOM     10  C   UNL A   1      38.489  29.011  28.775  1.00  0.00    -0.014 A 
BRANCH  10  11
ATOM     11  C   UNL A   1      39.895  28.627  29.055  1.00  0.00     0.031 A 
ATOM     12  C   UNL A   1      40.762  29.662  29.733  1.00  0.00     0.074 A 
ATOM     13  C   UNL A   1      40.364  27.395  28.769  1.00  0.00     0.049 A 
ATOM     14  N   UNL A   1      42.027  29.609  30.056  1.00  0.00    -0.248 NA
ATOM     15  C   UNL A   1      40.101  30.921  30.133  1.00  0.00     0.031 C 
ATOM     16  C   UNL A   1      39.579  26.285  28.224  1.00  0.00     0.029 A 
ATOM     17  N   UNL A   1      41.631  26.870  28.871  1.00  0.00    -0.354 N 
ATOM     18  C   UNL A   1      42.295  30.799  30.723  1.00  0.00     0.074 A 
ATOM     19  C   UNL A   1      41.090  31.591  30.701  1.00  0.00     0.031 C 
ATOM     20  C   UNL A   1      40.391  25.236  27.990  1.00  0.00     0.029 A 
ATOM     21  C   UNL A   1      41.757  25.603  28.342  1.00  0.00     0.049 A 
ATOM     22  H   UNL A   1      42.380  27.356  29.285  1.00  0.00     0.167 HD
ATOM     23  C   UNL A   1      43.439  31.170  31.342  1.00  0.00     0.037 A 
ATOM     24  C   UNL A   1      42.869  24.870  28.123  1.00  0.00     0.037 A 
ATOM     25  C   UNL A   1      44.631  30.368  31.328  1.00  0.00     0.049 A 
ATOM     26  C   UNL A   1      44.183  25.438  28.583  1.00  0.00     0.074 A 
ATOM     27  C   UNL A   1      45.837  30.588  31.965  1.00  0.00     0.029 A 
ATOM     28  N   UNL A   1      44.761  29.188  30.608  1.00  0.00    -0.354 N 
ATOM     29  N   UNL A   1      44.424  26.565  29.207  1.00  0.00    -0.248 NA
ATOM     30  C   UNL A   1      45.373  24.611  28.342  1.00  0.00     0.031 C 
ATOM     31  C   UNL A   1      46.712  29.562  31.596  1.00  0.00     0.029 A 
ATOM     32  C   UNL A   1      46.035  28.679  30.769  1.00  0.00     0.049 A 
ATOM     33  H   UNL A   1      44.051  28.777  30.064  1.00  0.00     0.167 HD
ATOM     34  C   UNL A   1      45.784  26.569  29.468  1.00  0.00     0.074 A 
ATOM     35  C   UNL A   1      46.320  25.346  28.903  1.00  0.00     0.031 C 
ATOM     36  C   UNL A   1      46.523  27.471  30.160  1.00  0.00     0.037 A 
BRANCH  23  37
ATOM     37  C   UNL A   1      43.446  32.466  32.100  1.00  0.00     0.064 A 
ATOM     38  C   UNL A   1      43.642  33.692  31.443  1.00  0.00     0.173 A 
ATOM     39  C   UNL A   1      43.204  32.497  33.481  1.00  0.00     0.173 A 
ATOM     40  F   UNL A   1      43.891  33.720  30.125  1.00  0.00    -0.203 F 
ATOM     41  C   UNL A   1      43.608  34.897  32.142  1.00  0.00     0.198 A 
ATOM     42  C   UNL A   1      43.148  33.706  34.173  1.00  0.00     0.198 A 
ATOM     43  F   UNL A   1      43.010  31.356  34.159  1.00  0.00    -0.203 F 
ATOM     44  F   UNL A   1      43.828  36.051  31.497  1.00  0.00    -0.200 F 
ATOM     45  C   UNL A   1      43.352  34.903  33.505  1.00  0.00     0.200 A 
ATOM     46  F   UNL A   1      42.892  33.711  35.489  1.00  0.00    -0.200 F 
ATOM     47  F   UNL A   1      43.307  36.064  34.174  1.00  0.00    -0.200 F 
ENDBRANCH  23  37
BRANCH  24  48
ATOM     48  C   UNL A   1      42.845  23.570  27.393  1.00  0.00     0.064 A 
ATOM     49  C   UNL A   1      42.487  22.364  28.004  1.00  0.00     0.173 A 
ATOM     50  C   UNL A   1      43.276  23.500  26.059  1.00  0.00     0.173 A 
ATOM     51  F   UNL A   1      42.147  22.348  29.301  1.00  0.00    -0.203 F 
ATOM     52  C   UNL A   1      42.516  21.158  27.296  1.00  0.00     0.198 A 
ATOM     53  C   UNL A   1      43.266  22.308  25.338  1.00  0.00     0.198 A 
ATOM     54  F   UNL A   1      43.767  24.590  25.462  1.00  0.00    -0.203 F 
ATOM     55  F   UNL A   1      42.202  20.013  27.916  1.00  0.00    -0.200 F 
ATOM     56  C   UNL A   1      42.883  21.134  25.958  1.00  0.00     0.200 A 
ATOM     57  F   UNL A   1      43.642  22.301  24.051  1.00  0.00    -0.200 F 
ATOM     58  F   UNL A   1      42.890  19.981  25.276  1.00  0.00    -0.200 F 
ENDBRANCH  24  48
BRANCH  36  59
ATOM     59  C   UNL A   1      47.954  27.106  30.390  1.00  0.00     0.064 A 
ATOM     60  C   UNL A   1      48.346  26.275  31.445  1.00  0.00     0.173 A 
ATOM     61  C   UNL A   1      48.945  27.627  29.543  1.00  0.00     0.173 A 
ATOM     62  F   UNL A   1      47.431  25.784  32.296  1.00  0.00    -0.203 F 
ATOM     63  C   UNL A   1      49.691  25.997  31.664  1.00  0.00     0.198 A 
ATOM     64  C   UNL A   1      50.284  27.322  29.748  1.00  0.00     0.198 A 
ATOM     65  F   UNL A   1      48.611  28.433  28.525  1.00  0.00    -0.203 F 
ATOM     66  F   UNL A   1      50.057  25.251  32.715  1.00  0.00    -0.200 F 
ATOM     67  C   UNL A   1      50.657  26.517  30.813  1.00  0.00     0.200 A 
ATOM     68  F   UNL A   1      51.215  27.822  28.924  1.00  0.00    -0.200 F 
ATOM     69  F   UNL A   1      51.953  26.255  31.032  1.00  0.00    -0.200 F 
ENDBRANCH  36  59
ENDBRANCH  10  11
ENDBRANCH   3   5
ENDBRANCH   2   3
ENDBRANCH   1   2
BRANCH   1  70
ATOM     70  C   UNL A   1      34.283  34.578  28.367  1.00  0.00     0.275 C 
BRANCH  70  71
ATOM     71  O   UNL A   1      34.834  34.554  29.687  1.00  0.00    -0.458 OA
BRANCH  71  72
ATOM     72  C   UNL A   1      33.953  34.875  30.674  1.00  0.00     0.339 C 
ATOM     73  O   UNL A   1      32.791  35.215  30.525  1.00  0.00    -0.246 OA
BRANCH  72  74
ATOM     74  C   UNL A   1      34.585  34.604  31.985  1.00  0.00     0.077 A 
ATOM     75  C   UNL A   1      33.968  35.091  33.071  1.00  0.00     0.101 A 
ATOM     76  C   UNL A   1      35.758  33.768  32.136  1.00  0.00     0.031 A 
ATOM     77  N   UNL A   1      34.437  34.789  34.324  1.00  0.00    -0.328 N 
ATOM     78  C   UNL A   1      36.256  33.466  33.352  1.00  0.00     0.048 A 
ATOM     79  C   UNL A   1      35.538  34.004  34.568  1.00  0.00     0.255 A 
ATOM     80  H   UNL A   1      33.954  35.159  35.098  1.00  0.00     0.169 HD
ATOM     81  O   UNL A   1      35.892  33.751  35.715  1.00  0.00    -0.269 OA
BRANCH  78  82
ATOM     82  C   UNL A   1      37.444  32.603  33.490  1.00  0.00    -0.006 A 
ATOM     83  C   UNL A   1      38.681  33.130  33.899  1.00  0.00     0.009 A 
ATOM     84  C   UNL A   1      37.340  31.228  33.244  1.00  0.00     0.094 A 
ATOM     85  C   UNL A   1      39.780  32.296  34.105  1.00  0.00     0.008 A 
ATOM     86  C   UNL A   1      38.442  30.395  33.444  1.00  0.00     0.270 A 
ATOM     87  C   UNL A   1      39.651  30.923  33.909  1.00  0.00     0.085 A 
BRANCH  86  88
ATOM     88  N   UNL A   1      38.318  28.966  33.144  1.00  0.00     0.062 N 
ATOM     89  O   UNL A   1      39.345  28.358  32.814  1.00  0.00    -0.258 OA
ATOM     90  O   UNL A   1      37.195  28.453  33.244  1.00  0.00    -0.258 OA
ENDBRANCH  86  88
ENDBRANCH  78  82
ENDBRANCH  72  74
ENDBRANCH  71  72
ENDBRANCH  70  71
ENDBRANCH   1  70
TORSDOF 13
ENDMDL
MODEL 3
REMARK VINA RESULT:     -12.7      5.246     10.944
REMARK SMILES O=C(OCCOC(=O)c1c[nH]c(=O)c(-c2cccc([N+](=O)[O-])c2)c1)c1ccc(-c2c3nc(c(-c4c(F)c(F)c(F)c(F)c4F)c4ccc([nH]4)c(-c4c(F)c(F)c(F)c(F)c4F)c4nc(c(-c5c(F)c(F)c(F)c(F)c5F)c5ccc2[nH]5)C=C4)C=C3)cc1
REMARK SMILES IDX 4 1 3 2 2 3 1 4 25 5 26 6 87 7 27 8 86 9 28 10 29 11 30 12
REMARK SMILES IDX 80 13 31 14 85 15 79 16 81 17 32 18 84 19 78 20 77 21 33 23
REMARK SMILES IDX 65 24 45 25 64 26 46 27 49 28 63 29 82 30 47 31 48 32 62 34
REMARK SMILES IDX 83 35 50 36 34 37 35 38 43 39 36 40 37 41 41 42 44 43 38 44
REMARK SMILES IDX 39 45 42 46 40 47 66 48 67 49 75 50 68 51 69 52 73 53 76 54
REMARK SMILES IDX 70 55 71 56 74 57 72 58 51 59 52 60 60 61 53 62 54 63 58 64
REMARK SMILES IDX 61 65 55 66 56 67 59 68 57 69 5 70 6 71 7 72 8 73 9 74 10 75
REMARK SMILES IDX 24 76 11 77 14 78 12 79 13 81 15 82 16 83 23 84 17 85 19 86
REMARK SMILES IDX 18 87 20 88 21 89 22 90
REMARK H PARENT 81 22 49 33 11 80
REMARK Flexibility Score: inf
ROOT
ATOM      1  C   UNL A   1      34.218  33.481  28.679  1.00  0.00     0.275 C 
ENDROOT
BRANCH   1   2
ATOM      2  O   UNL A   1      33.651  32.166  28.536  1.00  0.00    -0.458 OA
BRANCH   2   3
ATOM      3  C   UNL A   1      34.143  31.061  27.927  1.00  0.00     0.338 C 
ATOM      4  O   UNL A   1      33.420  30.445  27.147  1.00  0.00    -0.246 OA
BRANCH   3   5
ATOM      5  C   UNL A   1      35.468  30.449  28.266  1.00  0.00     0.060 A 
ATOM      6  C   UNL A   1      35.812  29.853  29.481  1.00  0.00     0.016 A 
ATOM      7  C   UNL A   1      36.459  30.527  27.269  1.00  0.00     0.016 A 
ATOM      8  C   UNL A   1      37.089  29.313  29.686  1.00  0.00     0.010 A 
ATOM      9  C   UNL A   1      37.733  29.985  27.463  1.00  0.00     0.010 A 
ATOM     10  C   UNL A   1      38.063  29.387  28.686  1.00  0.00    -0.014 A 
BRANCH  10  11
ATOM     11  C   UNL A   1      39.479  29.071  29.000  1.00  0.00     0.031 A 
ATOM     12  C   UNL A   1      40.285  30.156  29.675  1.00  0.00     0.074 A 
ATOM     13  C   UNL A   1      40.009  27.857  28.744  1.00  0.00     0.049 A 
ATOM     14  N   UNL A   1      41.544  30.166  30.022  1.00  0.00    -0.248 NA
ATOM     15  C   UNL A   1      39.560  31.390  30.040  1.00  0.00     0.031 C 
ATOM     16  C   UNL A   1      39.284  26.704  28.204  1.00  0.00     0.029 A 
ATOM     17  N   UNL A   1      41.295  27.393  28.878  1.00  0.00    -0.354 N 
ATOM     18  C   UNL A   1      41.746  31.377  30.673  1.00  0.00     0.074 A 
ATOM     19  C   UNL A   1      40.507  32.114  30.615  1.00  0.00     0.031 C 
ATOM     20  C   UNL A   1      40.148  25.689  28.003  1.00  0.00     0.029 A 
ATOM     21  C   UNL A   1      41.489  26.124  28.374  1.00  0.00     0.049 A 
ATOM     22  H   UNL A   1      42.014  27.919  29.298  1.00  0.00     0.167 HD
ATOM     23  C   UNL A   1      42.860  31.810  31.306  1.00  0.00     0.037 A 
ATOM     24  C   UNL A   1      42.636  25.438  28.188  1.00  0.00     0.037 A 
ATOM     25  C   UNL A   1      44.087  31.064  31.329  1.00  0.00     0.049 A 
ATOM     26  C   UNL A   1      43.914  26.074  28.663  1.00  0.00     0.074 A 
ATOM     27  C   UNL A   1      45.269  31.349  31.984  1.00  0.00     0.029 A 
ATOM     28  N   UNL A   1      44.284  29.878  30.632  1.00  0.00    -0.354 N 
ATOM     29  N   UNL A   1      44.093  27.221  29.271  1.00  0.00    -0.248 NA
ATOM     30  C   UNL A   1      45.144  25.298  28.458  1.00  0.00     0.031 C 
ATOM     31  C   UNL A   1      46.196  30.357  31.649  1.00  0.00     0.029 A 
ATOM     32  C   UNL A   1      45.576  29.431  30.825  1.00  0.00     0.049 A 
ATOM     33  H   UNL A   1      43.604  29.427  30.082  1.00  0.00     0.167 HD
ATOM     34  C   UNL A   1      45.446  27.290  29.557  1.00  0.00     0.074 A 
ATOM     35  C   UNL A   1      46.047  26.084  29.024  1.00  0.00     0.031 C 
ATOM     36  C   UNL A   1      46.130  28.236  30.247  1.00  0.00     0.037 A 
BRANCH  23  37
ATOM     37  C   UNL A   1      42.794  33.118  32.042  1.00  0.00     0.064 A 
ATOM     38  C   UNL A   1      43.169  34.321  31.422  1.00  0.00     0.173 A 
ATOM     39  C   UNL A   1      42.304  33.185  33.354  1.00  0.00     0.173 A 
ATOM     40  F   UNL A   1      43.656  34.314  30.172  1.00  0.00    -0.203 F 
ATOM     41  C   UNL A   1      43.069  35.539  32.092  1.00  0.00     0.198 A 
ATOM     42  C   UNL A   1      42.184  34.408  34.014  1.00  0.00     0.198 A 
ATOM     43  F   UNL A   1      41.932  32.067  33.995  1.00  0.00    -0.203 F 
ATOM     44  F   UNL A   1      43.462  36.669  31.489  1.00  0.00    -0.200 F 
ATOM     45  C   UNL A   1      42.568  35.582  33.385  1.00  0.00     0.200 A 
ATOM     46  F   UNL A   1      41.693  34.449  35.260  1.00  0.00    -0.200 F 
ATOM     47  F   UNL A   1      42.460  36.754  34.024  1.00  0.00    -0.200 F 
ENDBRANCH  23  37
BRANCH  24  48
ATOM     48  C   UNL A   1      42.685  24.127  27.481  1.00  0.00     0.064 A 
ATOM     49  C   UNL A   1      42.474  22.907  28.131  1.00  0.00     0.173 A 
ATOM     50  C   UNL A   1      43.041  24.068  26.124  1.00  0.00     0.173 A 
ATOM     51  F   UNL A   1      42.215  22.887  29.447  1.00  0.00    -0.203 F 
ATOM     52  C   UNL A   1      42.567  21.694  27.441  1.00  0.00     0.198 A 
ATOM     53  C   UNL A   1      43.094  22.865  25.423  1.00  0.00     0.198 A 
ATOM     54  F   UNL A   1      43.396  25.185  25.481  1.00  0.00    -0.203 F 
ATOM     55  F   UNL A   1      42.394  20.538  28.096  1.00  0.00    -0.200 F 
ATOM     56  C   UNL A   1      42.855  21.675  26.083  1.00  0.00     0.200 A 
ATOM     57  F   UNL A   1      43.391  22.865  24.116  1.00  0.00    -0.200 F 
ATOM     58  F   UNL A   1      42.924  20.514  25.419  1.00  0.00    -0.200 F 
ENDBRANCH  24  48
BRANCH  36  59
ATOM     59  C   UNL A   1      47.571  27.941  30.510  1.00  0.00     0.064 A 
ATOM     60  C   UNL A   1      48.587  28.405  29.668  1.00  0.00     0.173 A 
ATOM     61  C   UNL A   1      47.925  27.157  31.619  1.00  0.00     0.173 A 
ATOM     62  F   UNL A   1      48.287  29.130  28.580  1.00  0.00    -0.203 F 
ATOM     63  C   UNL A   1      49.915  28.069  29.911  1.00  0.00     0.198 A 
ATOM     64  C   UNL A   1      49.254  26.849  31.875  1.00  0.00     0.198 A 
ATOM     65  F   UNL A   1      46.979  26.688  32.447  1.00  0.00    -0.203 F 
ATOM     66  F   UNL A   1      50.871  28.467  29.062  1.00  0.00    -0.200 F 
ATOM     67  C   UNL A   1      50.247  27.297  31.016  1.00  0.00     0.200 A 
ATOM     68  F   UNL A   1      49.573  26.106  32.943  1.00  0.00    -0.200 F 
ATOM     69  F   UNL A   1      51.525  26.967  31.243  1.00  0.00    -0.200 F 
ENDBRANCH  36  59
ENDBRANCH  10  11
ENDBRANCH   3   5
ENDBRANCH   2   3
ENDBRANCH   1   2
BRANCH   1  70
ATOM     70  C   UNL A   1      34.863  33.770  30.038  1.00  0.00     0.275 C 
BRANCH  70  71
ATOM     71  O   UNL A   1      34.753  32.673  30.949  1.00  0.00    -0.458 OA
BRANCH  71  72
ATOM     72  C   UNL A   1      34.559  33.032  32.247  1.00  0.00     0.339 C 
ATOM     73  O   UNL A   1      33.540  33.503  32.724  1.00  0.00    -0.246 OA
BRANCH  72  74
ATOM     74  C   UNL A   1      35.741  32.623  33.038  1.00  0.00     0.077 A 
ATOM     75  C   UNL A   1      36.028  33.349  34.128  1.00  0.00     0.101 A 
ATOM     76  C   UNL A   1      36.517  31.437  32.738  1.00  0.00     0.031 A 
ATOM     77  N   UNL A   1      37.043  32.966  34.965  1.00  0.00    -0.328 N 
ATOM     78  C   UNL A   1      37.533  31.041  33.530  1.00  0.00     0.048 A 
ATOM     79  C   UNL A   1      37.831  31.857  34.767  1.00  0.00     0.255 A 
ATOM     80  H   UNL A   1      37.219  33.520  35.759  1.00  0.00     0.169 HD
ATOM     81  O   UNL A   1      38.709  31.554  35.568  1.00  0.00    -0.269 OA
BRANCH  78  82
ATOM     82  C   UNL A   1      38.305  29.823  33.219  1.00  0.00    -0.006 A 
ATOM     83  C   UNL A   1      37.676  28.673  32.713  1.00  0.00     0.009 A 
ATOM     84  C   UNL A   1      39.695  29.815  33.396  1.00  0.00     0.094 A 
ATOM     85  C   UNL A   1      38.422  27.553  32.346  1.00  0.00     0.008 A 
ATOM     86  C   UNL A   1      40.440  28.691  33.035  1.00  0.00     0.270 A 
ATOM     87  C   UNL A   1      39.809  27.575  32.477  1.00  0.00     0.085 A 
BRANCH  86  88
ATOM     88  N   UNL A   1      41.888  28.693  33.265  1.00  0.00     0.062 N 
ATOM     89  O   UNL A   1      42.600  28.104  32.440  1.00  0.00    -0.258 OA
ATOM     90  O   UNL A   1      42.310  29.287  34.267  1.00  0.00    -0.258 OA
ENDBRANCH  86  88
ENDBRANCH  78  82
ENDBRANCH  72  74
ENDBRANCH  71  72
ENDBRANCH  70  71
ENDBRANCH   1  70
TORSDOF 13
ENDMDL
