MODEL 1
REMARK VINA RESULT:     -12.1      0.000      0.000
REMARK SMILES O=C(CCn1c(SCc2ccccn2)nc2ccccc2c1=O)OCCOC(=O)c1ccc(-c2c3nc(c(-c4c(F)c(F)c(F)c(F)c4F)c4ccc([nH]4)c(-c4c(F)c(F)c(F)c(F)c4F)c4nc(c(-c5c(F)c(F)c(F)c(F)c5F)c5ccc2[nH]5)C=C4)C=C3)cc1
REMARK SMILES IDX 24 1 2 2 1 3 3 4 4 5 5 6 6 7 22 8 15 9 21 10 23 11 16 12
REMARK SMILES IDX 20 13 17 14 19 15 18 16 7 17 8 18 9 19 10 20 14 21 11 22
REMARK SMILES IDX 13 23 12 24 25 25 26 26 27 27 28 28 29 29 30 30 31 31 92 32
REMARK SMILES IDX 32 33 91 34 33 35 34 36 35 37 85 38 36 39 90 40 84 41 86 42
REMARK SMILES IDX 37 43 89 44 83 45 82 46 38 48 70 49 50 50 69 51 51 52 54 53
REMARK SMILES IDX 68 54 87 55 52 56 53 57 67 59 88 60 55 61 39 62 40 63 48 64
REMARK SMILES IDX 41 65 42 66 46 67 49 68 43 69 44 70 47 71 45 72 71 73 72 74
REMARK SMILES IDX 80 75 73 76 74 77 78 78 81 79 75 80 76 81 79 82 77 83 56 84
REMARK SMILES IDX 57 85 65 86 58 87 59 88 63 89 66 90 60 91 61 92 64 93 62 94
REMARK H PARENT 86 47 54 58
REMARK Flexibility Score: inf
ROOT
ATOM      1  O   UNL A   1      37.778  21.001  24.804  1.00  0.00    -0.462 OA
ENDROOT
BRANCH   1   2
ATOM      2  C   UNL A   1      36.867  21.996  24.973  1.00  0.00     0.307 C 
ATOM      3  O   UNL A   1      36.909  22.766  25.929  1.00  0.00    -0.252 OA
BRANCH   2   4
ATOM      4  C   UNL A   1      35.787  22.155  23.887  1.00  0.00     0.144 C 
BRANCH   4   5
ATOM      5  C   UNL A   1      34.364  22.719  24.081  1.00  0.00     0.140 C 
BRANCH   5   6
ATOM      6  N   UNL A   1      33.411  21.754  24.557  1.00  0.00    -0.286 N 
ATOM      7  C   UNL A   1      33.450  21.228  25.818  1.00  0.00     0.171 A 
ATOM      8  C   UNL A   1      32.527  21.201  23.649  1.00  0.00     0.262 A 
ATOM      9  N   UNL A   1      33.280  19.951  26.018  1.00  0.00    -0.224 NA
ATOM     10  C   UNL A   1      32.541  19.733  23.698  1.00  0.00     0.066 A 
ATOM     11  O   UNL A   1      31.906  21.812  22.810  1.00  0.00    -0.269 OA
ATOM     12  C   UNL A   1      33.127  19.172  24.834  1.00  0.00     0.079 A 
ATOM     13  C   UNL A   1      32.313  19.025  22.516  1.00  0.00     0.016 A 
ATOM     14  C   UNL A   1      33.621  17.872  24.712  1.00  0.00     0.029 A 
ATOM     15  C   UNL A   1      32.800  17.731  22.418  1.00  0.00     0.001 A 
ATOM     16  C   UNL A   1      33.488  17.170  23.498  1.00  0.00     0.002 A 
BRANCH   7  17
ATOM     17  S   UNL A   1      33.513  22.405  27.105  1.00  0.00    -0.081 SA
BRANCH  17  18
ATOM     18  C   UNL A   1      31.853  23.134  27.295  1.00  0.00     0.134 C 
BRANCH  18  19
ATOM     19  C   UNL A   1      31.585  24.448  26.605  1.00  0.00     0.051 A 
ATOM     20  C   UNL A   1      32.642  25.187  26.070  1.00  0.00     0.025 A 
ATOM     21  N   UNL A   1      30.299  24.866  26.525  1.00  0.00    -0.260 NA
ATOM     22  C   UNL A   1      32.354  26.337  25.342  1.00  0.00     0.003 A 
ATOM     23  C   UNL A   1      30.051  25.992  25.829  1.00  0.00     0.111 A 
ATOM     24  C   UNL A   1      31.032  26.740  25.205  1.00  0.00     0.020 A 
ENDBRANCH  18  19
ENDBRANCH  17  18
ENDBRANCH   7  17
ENDBRANCH   5   6
ENDBRANCH   4   5
ENDBRANCH   2   4
ENDBRANCH   1   2
BRANCH   1  25
ATOM     25  C   UNL A   1      38.991  21.059  25.620  1.00  0.00     0.274 C 
BRANCH  25  26
ATOM     26  C   UNL A   1      39.538  19.674  26.084  1.00  0.00     0.275 C 
BRANCH  26  27
ATOM     27  O   UNL A   1      40.718  19.230  25.360  1.00  0.00    -0.458 OA
BRANCH  27  28
ATOM     28  C   UNL A   1      41.905  19.044  26.003  1.00  0.00     0.338 C 
ATOM     29  O   UNL A   1      42.504  17.993  26.126  1.00  0.00    -0.246 OA
BRANCH  28  30
ATOM     30  C   UNL A   1      42.463  20.380  26.390  1.00  0.00     0.060 A 
ATOM     31  C   UNL A   1      42.358  20.886  27.693  1.00  0.00     0.016 A 
ATOM     32  C   UNL A   1      42.970  21.211  25.384  1.00  0.00     0.016 A 
ATOM     33  C   UNL A   1      42.665  22.241  27.963  1.00  0.00     0.010 A 
ATOM     34  C   UNL A   1      43.219  22.573  25.645  1.00  0.00     0.010 A 
ATOM     35  C   UNL A   1      43.056  23.117  26.935  1.00  0.00    -0.014 A 
BRANCH  35  36
ATOM     36  C   UNL A   1      43.482  24.530  27.205  1.00  0.00     0.031 A 
ATOM     37  C   UNL A   1      44.890  25.054  27.022  1.00  0.00     0.074 A 
ATOM     38  C   UNL A   1      42.554  25.374  27.696  1.00  0.00     0.049 A 
ATOM     39  N   UNL A   1      45.340  26.281  27.191  1.00  0.00    -0.248 NA
ATOM     40  C   UNL A   1      45.925  24.101  26.611  1.00  0.00     0.031 C 
ATOM     41  C   UNL A   1      41.157  25.024  27.947  1.00  0.00     0.029 A 
ATOM     42  N   UNL A   1      42.648  26.687  28.092  1.00  0.00    -0.354 N 
ATOM     43  C   UNL A   1      46.692  26.255  26.866  1.00  0.00     0.074 A 
ATOM     44  C   UNL A   1      47.003  24.878  26.533  1.00  0.00     0.031 C 
ATOM     45  C   UNL A   1      40.532  26.080  28.484  1.00  0.00     0.029 A 
ATOM     46  C   UNL A   1      41.476  27.189  28.601  1.00  0.00     0.049 A 
ATOM     47  H   UNL A   1      43.475  27.217  28.018  1.00  0.00     0.167 HD
ATOM     48  C   UNL A   1      47.586  27.280  26.837  1.00  0.00     0.037 A 
ATOM     49  C   UNL A   1      41.174  28.403  29.096  1.00  0.00     0.037 A 
ATOM     50  C   UNL A   1      47.306  28.653  27.203  1.00  0.00     0.049 A 
ATOM     51  C   UNL A   1      42.192  29.505  29.097  1.00  0.00     0.074 A 
ATOM     52  C   UNL A   1      48.152  29.752  27.144  1.00  0.00     0.029 A 
ATOM     53  N   UNL A   1      46.104  29.116  27.716  1.00  0.00    -0.354 N 
ATOM     54  N   UNL A   1      43.431  29.487  28.677  1.00  0.00    -0.248 NA
ATOM     55  C   UNL A   1      41.753  30.811  29.613  1.00  0.00     0.031 C 
ATOM     56  C   UNL A   1      47.483  30.865  27.665  1.00  0.00     0.029 A 
ATOM     57  C   UNL A   1      46.199  30.474  27.998  1.00  0.00     0.049 A 
ATOM     58  H   UNL A   1      45.301  28.565  27.858  1.00  0.00     0.167 HD
ATOM     59  C   UNL A   1      43.903  30.783  28.834  1.00  0.00     0.074 A 
ATOM     60  C   UNL A   1      42.818  31.565  29.383  1.00  0.00     0.031 C 
ATOM     61  C   UNL A   1      45.130  31.273  28.536  1.00  0.00     0.037 A 
BRANCH  48  62
ATOM     62  C   UNL A   1      48.984  27.008  26.347  1.00  0.00     0.064 A 
ATOM     63  C   UNL A   1      49.945  26.450  27.203  1.00  0.00     0.173 A 
ATOM     64  C   UNL A   1      49.302  27.102  24.981  1.00  0.00     0.173 A 
ATOM     65  F   UNL A   1      49.685  26.318  28.512  1.00  0.00    -0.203 F 
ATOM     66  C   UNL A   1      51.165  25.991  26.712  1.00  0.00     0.198 A 
ATOM     67  C   UNL A   1      50.514  26.621  24.490  1.00  0.00     0.198 A 
ATOM     68  F   UNL A   1      48.408  27.598  24.111  1.00  0.00    -0.203 F 
ATOM     69  F   UNL A   1      52.062  25.449  27.548  1.00  0.00    -0.200 F 
ATOM     70  C   UNL A   1      51.444  26.064  25.355  1.00  0.00     0.200 A 
ATOM     71  F   UNL A   1      50.769  26.665  23.175  1.00  0.00    -0.200 F 
ATOM     72  F   UNL A   1      52.600  25.580  24.879  1.00  0.00    -0.200 F 
ENDBRANCH  48  62
BRANCH  49  73
ATOM     73  C   UNL A   1      39.794  28.661  29.576  1.00  0.00     0.064 A 
ATOM     74  C   UNL A   1      38.819  29.155  28.700  1.00  0.00     0.173 A 
ATOM     75  C   UNL A   1      39.424  28.406  30.903  1.00  0.00     0.173 A 
ATOM     76  F   UNL A   1      39.140  29.429  27.427  1.00  0.00    -0.203 F 
ATOM     77  C   UNL A   1      37.524  29.405  29.140  1.00  0.00     0.198 A 
ATOM     78  C   UNL A   1      38.120  28.632  31.335  1.00  0.00     0.198 A 
ATOM     79  F   UNL A   1      40.324  27.925  31.772  1.00  0.00    -0.203 F 
ATOM     80  F   UNL A   1      36.620  29.919  28.295  1.00  0.00    -0.200 F 
ATOM     81  C   UNL A   1      37.174  29.138  30.456  1.00  0.00     0.200 A 
ATOM     82  F   UNL A   1      37.780  28.360  32.602  1.00  0.00    -0.200 F 
ATOM     83  F   UNL A   1      35.924  29.375  30.878  1.00  0.00    -0.200 F 
ENDBRANCH  49  73
BRANCH  61  84
ATOM     84  C   UNL A   1      45.367  32.742  28.758  1.00  0.00     0.064 A 
ATOM     85  C   UNL A   1      45.067  33.696  27.775  1.00  0.00     0.173 A 
ATOM     86  C   UNL A   1      45.888  33.203  29.977  1.00  0.00     0.173 A 
ATOM     87  F   UNL A   1      44.582  33.310  26.584  1.00  0.00    -0.203 F 
ATOM     88  C   UNL A   1      45.309  35.052  27.990  1.00  0.00     0.198 A 
ATOM     89  C   UNL A   1      46.101  34.563  30.201  1.00  0.00     0.198 A 
ATOM     90  F   UNL A   1      46.189  32.337  30.957  1.00  0.00    -0.203 F 
ATOM     91  F   UNL A   1      45.065  35.938  27.015  1.00  0.00    -0.200 F 
ATOM     92  C   UNL A   1      45.820  35.484  29.204  1.00  0.00     0.200 A 
ATOM     93  F   UNL A   1      46.586  34.979  31.379  1.00  0.00    -0.200 F 
ATOM     94  F   UNL A   1      46.052  36.788  29.411  1.00  0.00    -0.200 F 
ENDBRANCH  61  84
ENDBRANCH  35  36
ENDBRANCH  28  30
ENDBRANCH  27  28
ENDBRANCH  26  27
ENDBRANCH  25  26
ENDBRANCH   1  25
TORSDOF 16
ENDMDL
MODEL 2
REMARK VINA RESULT:     -12.1      5.784     11.018
REMARK SMILES O=C(CCn1c(SCc2ccccn2)nc2ccccc2c1=O)OCCOC(=O)c1ccc(-c2c3nc(c(-c4c(F)c(F)c(F)c(F)c4F)c4ccc([nH]4)c(-c4c(F)c(F)c(F)c(F)c4F)c4nc(c(-c5c(F)c(F)c(F)c(F)c5F)c5ccc2[nH]5)C=C4)C=C3)cc1
REMARK SMILES IDX 24 1 2 2 1 3 3 4 4 5 5 6 6 7 22 8 15 9 21 10 23 11 16 12
REMARK SMILES IDX 20 13 17 14 19 15 18 16 7 17 8 18 9 19 10 20 14 21 11 22
REMARK SMILES IDX 13 23 12 24 25 25 26 26 27 27 28 28 29 29 30 30 31 31 92 32
REMARK SMILES IDX 32 33 91 34 33 35 34 36 35 37 85 38 36 39 90 40 84 41 86 42
REMARK SMILES IDX 37 43 89 44 83 45 82 46 38 48 70 49 50 50 69 51 51 52 54 53
REMARK SMILES IDX 68 54 87 55 52 56 53 57 67 59 88 60 55 61 39 62 40 63 48 64
REMARK SMILES IDX 41 65 42 66 46 67 49 68 43 69 44 70 47 71 45 72 71 73 72 74
REMARK SMILES IDX 80 75 73 76 74 77 78 78 81 79 75 80 76 81 79 82 77 83 56 84
REMARK SMILES IDX 57 85 65 86 58 87 59 88 63 89 66 90 60 91 61 92 64 93 62 94
REMARK H PARENT 86 47 54 58
REMARK Flexibility Score: inf
ROOT
ATOM      1  O   UNL A   1      33.186  30.803  26.425  1.00  0.00    -0.462 OA
ENDROOT
BRANCH   1   2
ATOM      2  C   UNL A   1      33.505  29.600  26.972  1.00  0.00     0.307 C 
ATOM      3  O   UNL A   1      34.469  29.456  27.719  1.00  0.00    -0.252 OA
BRANCH   2   4
ATOM      4  C   UNL A   1      32.579  28.412  26.651  1.00  0.00     0.144 C 
BRANCH   4   5
ATOM      5  C   UNL A   1      31.628  28.287  25.442  1.00  0.00     0.140 C 
BRANCH   5   6
ATOM      6  N   UNL A   1      31.744  27.043  24.731  1.00  0.00    -0.286 N 
ATOM      7  C   UNL A   1      30.678  26.224  24.483  1.00  0.00     0.171 A 
ATOM      8  C   UNL A   1      33.010  26.569  24.441  1.00  0.00     0.262 A 
ATOM      9  N   UNL A   1      30.768  24.935  24.657  1.00  0.00    -0.224 NA
ATOM     10  C   UNL A   1      33.189  25.182  24.889  1.00  0.00     0.066 A 
ATOM     11  O   UNL A   1      33.923  27.227  23.999  1.00  0.00    -0.269 OA
ATOM     12  C   UNL A   1      32.015  24.484  25.180  1.00  0.00     0.079 A 
ATOM     13  C   UNL A   1      34.455  24.781  25.322  1.00  0.00     0.016 A 
ATOM     14  C   UNL A   1      32.123  23.407  26.061  1.00  0.00     0.029 A 
ATOM     15  C   UNL A   1      34.544  23.700  26.187  1.00  0.00     0.001 A 
ATOM     16  C   UNL A   1      33.378  23.041  26.587  1.00  0.00     0.002 A 
BRANCH   7  17
ATOM     17  S   UNL A   1      29.313  27.001  23.722  1.00  0.00    -0.081 SA
BRANCH  17  18
ATOM     18  C   UNL A   1      29.944  28.205  22.508  1.00  0.00     0.134 C 
BRANCH  18  19
ATOM     19  C   UNL A   1      29.268  29.552  22.445  1.00  0.00     0.051 A 
ATOM     20  C   UNL A   1      29.211  30.361  23.582  1.00  0.00     0.025 A 
ATOM     21  N   UNL A   1      28.735  29.934  21.259  1.00  0.00    -0.260 NA
ATOM     22  C   UNL A   1      28.681  31.642  23.466  1.00  0.00     0.003 A 
ATOM     23  C   UNL A   1      28.215  31.174  21.180  1.00  0.00     0.111 A 
ATOM     24  C   UNL A   1      28.188  32.064  22.237  1.00  0.00     0.020 A 
ENDBRANCH  18  19
ENDBRANCH  17  18
ENDBRANCH   7  17
ENDBRANCH   5   6
ENDBRANCH   4   5
ENDBRANCH   2   4
ENDBRANCH   1   2
BRANCH   1  25
ATOM     25  C   UNL A   1      32.447  31.745  27.266  1.00  0.00     0.274 C 
BRANCH  25  26
ATOM     26  C   UNL A   1      33.044  33.185  27.320  1.00  0.00     0.275 C 
BRANCH  26  27
ATOM     27  O   UNL A   1      32.282  34.113  28.138  1.00  0.00    -0.458 OA
BRANCH  27  28
ATOM     28  C   UNL A   1      32.896  35.143  28.786  1.00  0.00     0.338 C 
ATOM     29  O   UNL A   1      32.460  36.269  28.932  1.00  0.00    -0.246 OA
BRANCH  28  30
ATOM     30  C   UNL A   1      34.131  34.626  29.460  1.00  0.00     0.060 A 
ATOM     31  C   UNL A   1      35.387  34.647  28.839  1.00  0.00     0.016 A 
ATOM     32  C   UNL A   1      33.997  33.964  30.687  1.00  0.00     0.016 A 
ATOM     33  C   UNL A   1      36.474  33.929  29.393  1.00  0.00     0.010 A 
ATOM     34  C   UNL A   1      35.064  33.204  31.204  1.00  0.00     0.010 A 
ATOM     35  C   UNL A   1      36.317  33.159  30.559  1.00  0.00    -0.014 A 
BRANCH  35  36
ATOM     36  C   UNL A   1      37.471  32.468  31.223  1.00  0.00     0.031 A 
ATOM     37  C   UNL A   1      38.049  32.856  32.567  1.00  0.00     0.074 A 
ATOM     38  C   UNL A   1      38.066  31.465  30.548  1.00  0.00     0.049 A 
ATOM     39  N   UNL A   1      39.024  32.281  33.241  1.00  0.00    -0.248 NA
ATOM     40  C   UNL A   1      37.482  34.028  33.241  1.00  0.00     0.031 C 
ATOM     41  C   UNL A   1      37.645  30.979  29.234  1.00  0.00     0.029 A 
ATOM     42  N   UNL A   1      39.161  30.694  30.856  1.00  0.00    -0.354 N 
ATOM     43  C   UNL A   1      39.157  32.991  34.429  1.00  0.00     0.074 A 
ATOM     44  C   UNL A   1      38.191  34.071  34.366  1.00  0.00     0.031 C 
ATOM     45  C   UNL A   1      38.486  30.017  28.835  1.00  0.00     0.029 A 
ATOM     46  C   UNL A   1      39.498  29.803  29.868  1.00  0.00     0.049 A 
ATOM     47  H   UNL A   1      39.655  30.771  31.705  1.00  0.00     0.167 HD
ATOM     48  C   UNL A   1      39.994  32.760  35.477  1.00  0.00     0.037 A 
ATOM     49  C   UNL A   1      40.495  28.903  29.789  1.00  0.00     0.037 A 
ATOM     50  C   UNL A   1      40.992  31.713  35.543  1.00  0.00     0.049 A 
ATOM     51  C   UNL A   1      41.435  28.699  30.940  1.00  0.00     0.074 A 
ATOM     52  C   UNL A   1      41.835  31.390  36.597  1.00  0.00     0.029 A 
ATOM     53  N   UNL A   1      41.300  30.835  34.515  1.00  0.00    -0.354 N 
ATOM     54  N   UNL A   1      41.467  29.304  32.099  1.00  0.00    -0.248 NA
ATOM     55  C   UNL A   1      42.461  27.656  30.779  1.00  0.00     0.031 C 
ATOM     56  C   UNL A   1      42.685  30.354  36.193  1.00  0.00     0.029 A 
ATOM     57  C   UNL A   1      42.335  29.993  34.905  1.00  0.00     0.049 A 
ATOM     58  H   UNL A   1      40.852  30.811  33.639  1.00  0.00     0.167 HD
ATOM     59  C   UNL A   1      42.481  28.688  32.821  1.00  0.00     0.074 A 
ATOM     60  C   UNL A   1      43.037  27.658  31.972  1.00  0.00     0.031 C 
ATOM     61  C   UNL A   1      42.899  28.955  34.081  1.00  0.00     0.037 A 
BRANCH  48  62
ATOM     62  C   UNL A   1      39.870  33.622  36.706  1.00  0.00     0.064 A 
ATOM     63  C   UNL A   1      40.476  34.887  36.754  1.00  0.00     0.173 A 
ATOM     64  C   UNL A   1      38.981  33.283  37.740  1.00  0.00     0.173 A 
ATOM     65  F   UNL A   1      41.316  35.269  35.782  1.00  0.00    -0.203 F 
ATOM     66  C   UNL A   1      40.191  35.781  37.785  1.00  0.00     0.198 A 
ATOM     67  C   UNL A   1      38.682  34.188  38.757  1.00  0.00     0.198 A 
ATOM     68  F   UNL A   1      38.350  32.099  37.728  1.00  0.00    -0.203 F 
ATOM     69  F   UNL A   1      40.771  36.989  37.802  1.00  0.00    -0.200 F 
ATOM     70  C   UNL A   1      39.285  35.437  38.777  1.00  0.00     0.200 A 
ATOM     71  F   UNL A   1      37.783  33.865  39.697  1.00  0.00    -0.200 F 
ATOM     72  F   UNL A   1      38.978  36.315  39.742  1.00  0.00    -0.200 F 
ENDBRANCH  48  62
BRANCH  49  73
ATOM     73  C   UNL A   1      40.606  28.059  28.575  1.00  0.00     0.064 A 
ATOM     74  C   UNL A   1      39.959  26.818  28.511  1.00  0.00     0.173 A 
ATOM     75  C   UNL A   1      41.344  28.479  27.460  1.00  0.00     0.173 A 
ATOM     76  F   UNL A   1      39.259  26.373  29.564  1.00  0.00    -0.203 F 
ATOM     77  C   UNL A   1      40.062  26.016  27.379  1.00  0.00     0.198 A 
ATOM     78  C   UNL A   1      41.424  27.687  26.319  1.00  0.00     0.198 A 
ATOM     79  F   UNL A   1      41.972  29.663  27.477  1.00  0.00    -0.203 F 
ATOM     80  F   UNL A   1      39.470  24.815  27.358  1.00  0.00    -0.200 F 
ATOM     81  C   UNL A   1      40.789  26.454  26.282  1.00  0.00     0.200 A 
ATOM     82  F   UNL A   1      42.115  28.117  25.254  1.00  0.00    -0.200 F 
ATOM     83  F   UNL A   1      40.883  25.683  25.190  1.00  0.00    -0.200 F 
ENDBRANCH  49  73
BRANCH  61  84
ATOM     84  C   UNL A   1      43.993  28.095  34.650  1.00  0.00     0.064 A 
ATOM     85  C   UNL A   1      43.720  26.878  35.291  1.00  0.00     0.173 A 
ATOM     86  C   UNL A   1      45.337  28.487  34.540  1.00  0.00     0.173 A 
ATOM     87  F   UNL A   1      42.453  26.462  35.439  1.00  0.00    -0.203 F 
ATOM     88  C   UNL A   1      44.745  26.101  35.828  1.00  0.00     0.198 A 
ATOM     89  C   UNL A   1      46.363  27.694  35.052  1.00  0.00     0.198 A 
ATOM     90  F   UNL A   1      45.659  29.639  33.932  1.00  0.00    -0.203 F 
ATOM     91  F   UNL A   1      44.454  24.969  36.483  1.00  0.00    -0.200 F 
ATOM     92  C   UNL A   1      46.065  26.507  35.703  1.00  0.00     0.200 A 
ATOM     93  F   UNL A   1      47.639  28.083  34.921  1.00  0.00    -0.200 F 
ATOM     94  F   UNL A   1      47.050  25.759  36.219  1.00  0.00    -0.200 F 
ENDBRANCH  61  84
ENDBRANCH  35  36
ENDBRANCH  28  30
ENDBRANCH  27  28
ENDBRANCH  26  27
ENDBRANCH  25  26
ENDBRANCH   1  25
TORSDOF 16
ENDMDL
MODEL 3
REMARK VINA RESULT:     -12.1      5.358      9.071
REMARK SMILES O=C(CCn1c(SCc2ccccn2)nc2ccccc2c1=O)OCCOC(=O)c1ccc(-c2c3nc(c(-c4c(F)c(F)c(F)c(F)c4F)c4ccc([nH]4)c(-c4c(F)c(F)c(F)c(F)c4F)c4nc(c(-c5c(F)c(F)c(F)c(F)c5F)c5ccc2[nH]5)C=C4)C=C3)cc1
REMARK SMILES IDX 24 1 2 2 1 3 3 4 4 5 5 6 6 7 22 8 15 9 21 10 23 11 16 12
REMARK SMILES IDX 20 13 17 14 19 15 18 16 7 17 8 18 9 19 10 20 14 21 11 22
REMARK SMILES IDX 13 23 12 24 25 25 26 26 27 27 28 28 29 29 30 30 31 31 92 32
REMARK SMILES IDX 32 33 91 34 33 35 34 36 35 37 85 38 36 39 90 40 84 41 86 42
REMARK SMILES IDX 37 43 89 44 83 45 82 46 38 48 70 49 50 50 69 51 51 52 54 53
REMARK SMILES IDX 68 54 87 55 52 56 53 57 67 59 88 60 55 61 39 62 40 63 48 64
REMARK SMILES IDX 41 65 42 66 46 67 49 68 43 69 44 70 47 71 45 72 71 73 72 74
REMARK SMILES IDX 80 75 73 76 74 77 78 78 81 79 75 80 76 81 79 82 77 83 56 84
REMARK SMILES IDX 57 85 65 86 58 87 59 88 63 89 66 90 60 91 61 92 64 93 62 94
REMARK H PARENT 86 47 54 58
REMARK Flexibility Score: inf
ROOT
ATOM      1  O   UNL A   1      33.100  30.398  26.170  1.00  0.00    -0.462 OA
ENDROOT
BRANCH   1   2
ATOM      2  C   UNL A   1      33.415  29.106  26.454  1.00  0.00     0.307 C 
ATOM      3  O   UNL A   1      33.179  28.601  27.548  1.00  0.00    -0.252 OA
BRANCH   2   4
ATOM      4  C   UNL A   1      34.052  28.272  25.327  1.00  0.00     0.144 C 
BRANCH   4   5
ATOM      5  C   UNL A   1      33.604  28.227  23.851  1.00  0.00     0.140 C 
BRANCH   5   6
ATOM      6  N   UNL A   1      32.762  27.107  23.528  1.00  0.00    -0.286 N 
ATOM      7  C   UNL A   1      31.605  26.827  24.199  1.00  0.00     0.171 A 
ATOM      8  C   UNL A   1      33.229  26.174  22.621  1.00  0.00     0.262 A 
ATOM      9  N   UNL A   1      31.317  25.609  24.560  1.00  0.00    -0.224 NA
ATOM     10  C   UNL A   1      33.148  24.808  23.152  1.00  0.00     0.066 A 
ATOM     11  O   UNL A   1      33.771  26.427  21.569  1.00  0.00    -0.269 OA
ATOM     12  C   UNL A   1      32.320  24.640  24.265  1.00  0.00     0.079 A 
ATOM     13  C   UNL A   1      34.121  23.884  22.766  1.00  0.00     0.016 A 
ATOM     14  C   UNL A   1      32.590  23.549  25.093  1.00  0.00     0.029 A 
ATOM     15  C   UNL A   1      34.367  22.800  23.595  1.00  0.00     0.001 A 
ATOM     16  C   UNL A   1      33.631  22.655  24.775  1.00  0.00     0.002 A 
BRANCH   7  17
ATOM     17  S   UNL A   1      30.482  28.159  24.319  1.00  0.00    -0.081 SA
BRANCH  17  18
ATOM     18  C   UNL A   1      29.804  28.485  22.660  1.00  0.00     0.134 C 
BRANCH  18  19
ATOM     19  C   UNL A   1      29.161  29.829  22.421  1.00  0.00     0.051 A 
ATOM     20  C   UNL A   1      28.993  30.724  23.480  1.00  0.00     0.025 A 
ATOM     21  N   UNL A   1      28.767  30.123  21.158  1.00  0.00    -0.260 NA
ATOM     22  C   UNL A   1      28.500  31.996  23.209  1.00  0.00     0.003 A 
ATOM     23  C   UNL A   1      28.279  31.357  20.928  1.00  0.00     0.111 A 
ATOM     24  C   UNL A   1      28.151  32.326  21.906  1.00  0.00     0.020 A 
ENDBRANCH  18  19
ENDBRANCH  17  18
ENDBRANCH   7  17
ENDBRANCH   5   6
ENDBRANCH   4   5
ENDBRANCH   2   4
ENDBRANCH   1   2
BRANCH   1  25
ATOM     25  C   UNL A   1      31.773  30.867  26.571  1.00  0.00     0.274 C 
BRANCH  25  26
ATOM     26  C   UNL A   1      31.680  32.394  26.876  1.00  0.00     0.275 C 
BRANCH  26  27
ATOM     27  O   UNL A   1      32.966  33.070  26.920  1.00  0.00    -0.458 OA
BRANCH  27  28
ATOM     28  C   UNL A   1      33.280  33.908  27.947  1.00  0.00     0.338 C 
ATOM     29  O   UNL A   1      32.617  34.846  28.345  1.00  0.00    -0.246 OA
BRANCH  28  30
ATOM     30  C   UNL A   1      34.501  33.388  28.644  1.00  0.00     0.060 A 
ATOM     31  C   UNL A   1      35.798  33.737  28.244  1.00  0.00     0.016 A 
ATOM     32  C   UNL A   1      34.342  32.403  29.628  1.00  0.00     0.016 A 
ATOM     33  C   UNL A   1      36.919  33.039  28.752  1.00  0.00     0.010 A 
ATOM     34  C   UNL A   1      35.455  31.672  30.087  1.00  0.00     0.010 A 
ATOM     35  C   UNL A   1      36.762  31.965  29.646  1.00  0.00    -0.014 A 
BRANCH  35  36
ATOM     36  C   UNL A   1      37.932  31.271  30.277  1.00  0.00     0.031 A 
ATOM     37  C   UNL A   1      38.743  30.177  29.616  1.00  0.00     0.074 A 
ATOM     38  C   UNL A   1      38.247  31.610  31.542  1.00  0.00     0.049 A 
ATOM     39  N   UNL A   1      39.806  29.548  30.075  1.00  0.00    -0.248 NA
ATOM     40  C   UNL A   1      38.319  29.720  28.290  1.00  0.00     0.031 C 
ATOM     41  C   UNL A   1      37.555  32.631  32.328  1.00  0.00     0.029 A 
ATOM     42  N   UNL A   1      39.206  31.121  32.397  1.00  0.00    -0.354 N 
ATOM     43  C   UNL A   1      40.200  28.657  29.082  1.00  0.00     0.074 A 
ATOM     44  C   UNL A   1      39.233  28.794  28.009  1.00  0.00     0.031 C 
ATOM     45  C   UNL A   1      38.088  32.672  33.556  1.00  0.00     0.029 A 
ATOM     46  C   UNL A   1      39.170  31.694  33.643  1.00  0.00     0.049 A 
ATOM     47  H   UNL A   1      39.857  30.429  32.139  1.00  0.00     0.167 HD
ATOM     48  C   UNL A   1      41.269  27.817  29.059  1.00  0.00     0.037 A 
ATOM     49  C   UNL A   1      39.922  31.479  34.739  1.00  0.00     0.037 A 
ATOM     50  C   UNL A   1      42.222  27.637  30.135  1.00  0.00     0.049 A 
ATOM     51  C   UNL A   1      41.068  30.510  34.704  1.00  0.00     0.074 A 
ATOM     52  C   UNL A   1      43.359  26.841  30.155  1.00  0.00     0.029 A 
ATOM     53  N   UNL A   1      42.145  28.236  31.382  1.00  0.00    -0.354 N 
ATOM     54  N   UNL A   1      41.491  29.765  33.715  1.00  0.00    -0.248 NA
ATOM     55  C   UNL A   1      41.862  30.380  35.935  1.00  0.00     0.031 C 
ATOM     56  C   UNL A   1      43.941  26.919  31.426  1.00  0.00     0.029 A 
ATOM     57  C   UNL A   1      43.198  27.807  32.182  1.00  0.00     0.049 A 
ATOM     58  H   UNL A   1      41.447  28.873  31.660  1.00  0.00     0.167 HD
ATOM     59  C   UNL A   1      42.623  29.116  34.188  1.00  0.00     0.074 A 
ATOM     60  C   UNL A   1      42.825  29.556  35.550  1.00  0.00     0.031 C 
ATOM     61  C   UNL A   1      43.423  28.239  33.536  1.00  0.00     0.037 A 
BRANCH  48  62
ATOM     62  C   UNL A   1      41.537  27.021  27.809  1.00  0.00     0.064 A 
ATOM     63  C   UNL A   1      42.397  27.517  26.817  1.00  0.00     0.173 A 
ATOM     64  C   UNL A   1      41.114  25.686  27.698  1.00  0.00     0.173 A 
ATOM     65  F   UNL A   1      42.848  28.778  26.887  1.00  0.00    -0.203 F 
ATOM     66  C   UNL A   1      42.827  26.708  25.768  1.00  0.00     0.198 A 
ATOM     67  C   UNL A   1      41.563  24.873  26.659  1.00  0.00     0.198 A 
ATOM     68  F   UNL A   1      40.316  25.149  28.634  1.00  0.00    -0.203 F 
ATOM     69  F   UNL A   1      43.659  27.201  24.840  1.00  0.00    -0.200 F 
ATOM     70  C   UNL A   1      42.421  25.383  25.697  1.00  0.00     0.200 A 
ATOM     71  F   UNL A   1      41.195  23.585  26.609  1.00  0.00    -0.200 F 
ATOM     72  F   UNL A   1      42.872  24.594  24.711  1.00  0.00    -0.200 F 
ENDBRANCH  48  62
BRANCH  49  73
ATOM     73  C   UNL A   1      39.649  32.269  35.964  1.00  0.00     0.064 A 
ATOM     74  C   UNL A   1      38.652  31.865  36.861  1.00  0.00     0.173 A 
ATOM     75  C   UNL A   1      40.383  33.424  36.265  1.00  0.00     0.173 A 
ATOM     76  F   UNL A   1      37.916  30.775  36.598  1.00  0.00    -0.203 F 
ATOM     77  C   UNL A   1      38.384  32.601  38.010  1.00  0.00     0.198 A 
ATOM     78  C   UNL A   1      40.130  34.144  37.429  1.00  0.00     0.198 A 
ATOM     79  F   UNL A   1      41.351  33.841  35.437  1.00  0.00    -0.203 F 
ATOM     80  F   UNL A   1      37.397  32.220  38.831  1.00  0.00    -0.200 F 
ATOM     81  C   UNL A   1      39.127  33.737  38.296  1.00  0.00     0.200 A 
ATOM     82  F   UNL A   1      40.859  35.234  37.711  1.00  0.00    -0.200 F 
ATOM     83  F   UNL A   1      38.871  34.443  39.406  1.00  0.00    -0.200 F 
ENDBRANCH  49  73
BRANCH  61  84
ATOM     84  C   UNL A   1      44.628  27.716  34.269  1.00  0.00     0.064 A 
ATOM     85  C   UNL A   1      44.581  26.536  35.025  1.00  0.00     0.173 A 
ATOM     86  C   UNL A   1      45.853  28.400  34.204  1.00  0.00     0.173 A 
ATOM     87  F   UNL A   1      43.432  25.850  35.135  1.00  0.00    -0.203 F 
ATOM     88  C   UNL A   1      45.702  26.075  35.712  1.00  0.00     0.198 A 
ATOM     89  C   UNL A   1      46.981  27.921  34.868  1.00  0.00     0.198 A 
ATOM     90  F   UNL A   1      45.960  29.533  33.493  1.00  0.00    -0.203 F 
ATOM     91  F   UNL A   1      45.617  24.974  36.471  1.00  0.00    -0.200 F 
ATOM     92  C   UNL A   1      46.902  26.765  35.629  1.00  0.00     0.200 A 
ATOM     93  F   UNL A   1      48.143  28.584  34.778  1.00  0.00    -0.200 F 
ATOM     94  F   UNL A   1      47.980  26.320  36.289  1.00  0.00    -0.200 F 
ENDBRANCH  61  84
ENDBRANCH  35  36
ENDBRANCH  28  30
ENDBRANCH  27  28
ENDBRANCH  26  27
ENDBRANCH  25  26
ENDBRANCH   1  25
TORSDOF 16
ENDMDL
